158

Mg 17.27600 -0.88000 27.89000
C  16.35100 0.83300 30.68200
C  19.44600 -2.89000 29.81900
C  18.66500 -2.16200 25.11400
C  15.52800 1.41300 25.87200
N  17.84100 -1.03400 29.97400
C  17.24700 -0.18700 30.93800
C  17.64400 -0.62600 32.32600
C  18.98200 -1.52900 31.98900
C  18.82500 -1.86400 30.50200
C  20.33900 -1.03400 32.45600
C  16.54600 -1.49300 33.08500
C  16.42000 -1.19100 34.64500
H  17.56200 -0.42900 35.35900
N  18.72800 -2.49000 27.51800
C  19.38900 -3.20300 28.44200
C  20.10100 -4.22300 27.78400
C  19.92500 -4.05200 26.38000
C  19.12700 -2.87500 26.24100
C  20.84200 -5.24000 28.52500
C  20.52000 -4.80700 25.14700
O  20.25500 -4.63900 24.01000
C  21.41600 -6.10700 25.38400
N  17.27100 -0.32200 25.81900
C  17.79900 -1.09300 24.92900
C  17.37500 -0.69000 23.45300
C  16.20500 0.32900 23.67600
C  16.28000 0.46100 25.22200
C  18.70100 -0.10400 22.72500
C  14.72000 -0.22400 23.29000
C  13.92400 0.52500 22.20300
N  16.18300 0.74100 28.10500
C  15.44200 1.53800 27.26900
C  14.59200 2.38000 28.04100
C  14.90600 2.10800 29.39000
C  15.88700 1.13900 29.40100
C  13.76600 3.53100 27.55100
C  14.56600 2.43900 30.75300
O  13.66600 3.16300 31.24300
C  15.43900 1.57400 31.67700
C  16.21800 2.55300 32.59600
O  17.32200 2.96100 32.41200
O  15.42300 2.68900 33.72700
C  15.92400 3.62000 34.76900
H  20.07100 -3.55500 30.41700
H  18.99800 -2.62500 24.18200
H  14.92400 2.14000 25.32700
H  18.07000 0.23200 32.84500
H  18.88400 -2.51600 32.44200
H  21.06900 -1.29200 31.68800
H  20.65600 -1.58800 33.34000
H  20.32300 0.02400 32.71700
H  16.65800 -2.57300 32.98700
H  15.58200 -1.20800 32.66500
H  16.30900 -2.11300 35.21600
H  15.53800 -0.56400 34.77200
H  21.85700 -4.86600 28.66100
H  20.89800 -6.21400 28.04000
H  20.37700 -5.44400 29.49000
H  21.71100 -6.76900 24.56900
H  20.91000 -6.79200 26.06500
H  22.41200 -5.80900 25.71100
H  17.11000 -1.59900 22.91300
H  16.33500 1.27700 23.15200
H  18.55600 0.90100 22.32800
H  19.05000 -0.71100 21.89000
H  19.55600 -0.01800 23.39600
H  14.12200 -0.27000 24.20000
H  14.90200 -1.21200 22.86800
H  13.29300 -0.14000 21.61400
H  14.61400 0.93900 21.46700
H  13.33200 1.33100 22.63800
H  13.51600 4.34400 28.23300
H  12.86100 3.22000 27.02900
H  14.35900 3.96800 26.74700
H  14.93600 0.80300 32.26000
H  16.31800 4.51500 34.28800
H  16.74100 3.20700 35.36100
H  15.13800 3.91200 35.46500
Mg 47.46500 24.85300 27.74900
C  48.09300 27.26400 30.16300
C  46.65400 22.76900 30.36400
C  46.47400 22.59100 25.55600
C  48.67900 26.98100 25.24700
N  47.22300 25.07600 29.99800
C  47.51500 26.17500 30.74600
C  47.26500 25.96500 32.26700
C  47.05100 24.41500 32.32900
C  47.07900 24.04800 30.81700
C  48.07200 23.56400 33.19100
C  46.18100 26.91000 33.02300
C  45.48200 26.40000 34.31000
H  45.55400 27.37900 35.45300
N  46.81300 22.91600 27.95700
C  46.54100 22.14000 29.09400
C  46.10100 20.76800 28.80400
C  45.89900 20.84000 27.38000
C  46.44300 22.11400 26.90000
C  45.79000 19.67900 29.82600
C  45.24800 19.70100 26.49800
O  45.15700 19.82000 25.26200
C  44.60600 18.54000 27.16800
N  47.67900 24.73800 25.67900
C  47.02000 23.79500 24.99600
C  47.33700 24.02600 23.51800
C  47.83400 25.46800 23.46600
C  48.07700 25.76400 24.86400
C  48.19400 22.96900 22.74500
C  46.91900 26.50900 22.63500
C  47.64900 27.30500 21.58100
N  48.38000 26.64300 27.71300
C  48.81600 27.42500 26.59600
C  49.35900 28.70800 27.05900
C  49.04900 28.68600 28.48400
C  48.45800 27.44800 28.77400
C  50.23400 29.77400 26.24400
C  49.26200 29.43900 29.73000
O  49.90900 30.40200 29.98500
C  48.52900 28.53300 30.91300
C  49.51600 28.22500 32.01900
O  50.56100 27.67400 31.93000
O  49.07800 28.89600 33.08700
C  49.72600 28.60200 34.37000
H  46.49300 22.15500 31.25300
H  46.15800 21.99700 24.69600
H  48.99500 27.74200 24.53100
H  48.18200 26.16200 32.82300
H  46.05000 24.29900 32.74600
H  47.56700 22.96400 33.94900
H  48.82100 24.23400 33.61200
H  48.56200 22.88500 32.49300
H  45.39600 27.15000 32.30600
H  46.64600 27.85200 33.31300
H  46.00200 25.49300 34.61700
H  44.46500 26.13400 34.02000
H  46.35600 18.75300 29.72100
H  44.71100 19.52100 29.83800
H  45.86500 20.12500 30.81700
H  43.80400 18.84700 27.83900
H  45.40700 18.09400 27.75700
H  44.27500 17.83300 26.40700
H  46.29500 24.02000 23.19700
H  48.85000 25.48000 23.07000
H  48.70600 22.26500 23.40000
H  48.89500 23.43300 22.05100
H  47.63200 22.38200 22.01900
H  46.45500 27.28100 23.24900
H  46.12900 25.88100 22.22300
H  47.72900 26.80600 20.61500
H  48.66200 27.40400 21.96900
H  47.09800 28.24500 21.56100
H  49.83300 29.97200 25.25000
H  51.23100 29.35500 26.10500
H  50.24500 30.62600 26.92400
H  47.75100 29.21100 31.26400
H  49.37500 27.64100 34.74500
H  49.56200 29.42400 35.06700
H  50.79900 28.45100 34.25500

