158

Mg 0.43900 7.87900 26.30100
C  1.34900 9.74900 29.04400
C  0.36200 5.11000 28.36700
C  0.11200 5.98700 23.56000
C  1.16200 10.65700 24.34300
N  0.92600 7.44800 28.44000
C  1.10400 8.43600 29.40300
C  1.09400 7.80900 30.78700
C  1.18500 6.27000 30.58100
C  0.85200 6.25900 29.00400
C  2.60400 5.63200 30.81700
C  -0.23000 8.20500 31.55300
C  -0.35200 7.90600 33.04100
H  0.85500 7.28300 33.77600
N  0.07000 5.84500 26.03800
C  -0.01300 4.90200 26.98900
C  -0.46300 3.68600 26.37400
C  -0.65300 3.97700 24.94800
C  -0.15200 5.29800 24.78300
C  -0.71500 2.39000 27.06400
C  -1.28800 3.09600 23.85100
O  -1.41300 3.44800 22.66100
C  -1.81700 1.77300 24.13300
N  0.67800 8.26400 24.26300
C  0.47600 7.29500 23.32100
C  0.75700 7.80500 21.85300
C  1.09100 9.30700 22.12300
C  1.02400 9.42700 23.69700
C  1.81800 7.01300 21.03400
C  0.19900 10.38600 21.35800
C  -1.24100 10.36100 21.72600
N  1.11300 9.84000 26.58400
C  1.15700 10.92200 25.66200
C  1.36900 12.20000 26.36800
C  1.53500 11.70400 27.73300
C  1.26600 10.35400 27.75400
C  1.51500 13.57100 25.78400
C  1.78000 12.15100 29.04100
O  1.88600 13.36500 29.37600
C  1.58500 10.93700 29.96100
C  2.86900 10.97000 30.77900
O  3.83600 10.17000 30.62500
O  2.66600 11.81500 31.85700
C  3.58500 11.53300 32.99800
H  0.30400 4.19900 28.96600
H  0.03700 5.38300 22.65300
H  1.54600 11.50600 23.77400
H  1.93500 8.24200 31.32700
H  0.42000 5.69900 31.10700
H  3.16100 5.29800 29.94200
H  2.42000 4.70800 31.36400
H  3.18400 6.22200 31.52600
H  -1.07400 7.60300 31.21700
H  -0.53600 9.24000 31.39700
H  -1.16200 7.21100 33.25800
H  -0.60000 8.83700 33.55100
H  -1.77600 2.25300 27.27200
H  -0.22300 2.35500 28.03700
H  -0.31000 1.56600 26.47600
H  -0.91000 1.17300 24.20900
H  -2.24200 1.33200 23.23200
H  -2.45800 1.62900 25.00300
H  -0.21900 7.71600 21.37800
H  2.12200 9.55800 21.87200
H  2.60000 7.71600 20.75000
H  1.44100 6.52400 20.13600
H  2.31000 6.17100 21.52200
H  0.53600 10.42900 20.32200
H  0.49600 11.37500 21.70800
H  -1.57300 11.39200 21.84100
H  -1.37600 9.83500 22.67100
H  -1.86800 9.97600 20.92200
H  1.79700 14.29500 26.54900
H  0.61600 13.83700 25.22700
H  2.31500 13.61700 25.04500
H  0.70900 11.05200 30.60000
H  4.22000 12.40300 32.83300
H  4.16400 10.60900 32.98200
H  2.98700 11.69800 33.89400
Mg -11.70600 38.73000 42.32600
C  -9.45100 36.17400 41.25800
C  -9.87500 40.91900 40.36500
C  -14.08200 40.99600 43.00600
C  -13.81800 36.22000 43.35700
N  -9.92200 38.54500 40.99100
C  -9.10300 37.43600 40.71600
C  -7.98400 37.72200 39.77200
C  -8.05800 39.28000 39.72500
C  -9.39300 39.59000 40.32800
C  -6.94200 40.29300 40.08100
C  -8.18800 36.89900 38.41700
C  -7.12400 35.76800 38.13500
H  -6.25500 35.93400 36.91000
N  -11.87000 40.73300 41.87300
C  -11.01400 41.42100 41.01400
C  -11.49300 42.76500 40.98000
C  -12.59300 42.88600 41.85800
C  -12.86300 41.51500 42.35000
C  -10.89800 43.73900 40.06600
C  -13.33500 44.20400 42.10300
O  -12.95200 45.27600 41.62900
C  -14.57100 44.28900 42.97500
N  -13.65200 38.58700 43.16600
C  -14.39200 39.67000 43.37900
C  -15.80800 39.36800 43.67800
C  -15.80600 37.78100 43.51600
C  -14.34200 37.47700 43.35400
C  -16.40200 40.03300 45.00000
C  -16.71300 37.25400 42.35100
C  -18.19700 37.06900 42.72400
N  -11.66700 36.63700 42.46800
C  -12.57900 35.73300 42.91400
C  -12.07700 34.40000 42.98400
C  -10.80900 34.53000 42.32900
C  -10.59900 35.90200 42.08100
C  -12.67100 33.22600 43.65800
C  -9.64000 33.83900 41.89300
O  -9.37100 32.65800 41.92000
C  -8.69500 34.84400 41.21900
C  -7.32100 34.80200 41.82300
O  -6.43100 34.00300 41.69200
O  -7.18900 35.91400 42.69500
C  -6.03000 35.91300 43.56300
H  -9.28800 41.66100 39.81900
H  -14.88900 41.70500 43.20200
H  -14.59100 35.53500 43.71100
H  -7.07600 37.29500 40.19800
H  -8.15300 39.48800 38.65900
H  -6.13600 39.66100 40.45400
H  -7.31600 41.08800 40.72600
H  -6.73700 40.69900 39.09100
H  -8.20600 37.59400 37.57700
H  -9.14100 36.37200 38.45800
H  -7.65100 34.82400 37.99500
H  -6.53500 35.65200 39.04500
H  -10.29200 43.31200 39.26600
H  -10.15600 44.28400 40.64900
H  -11.52300 44.46400 39.54400
H  -15.34800 43.79500 42.39200
H  -14.71000 45.34700 43.20000
H  -14.49200 43.79700 43.94400
H  -16.42200 39.76300 42.86900
H  -16.15500 37.31100 44.43600
H  -16.94000 39.23300 45.50900
H  -17.08500 40.83000 44.70700
H  -15.52400 40.27500 45.59900
H  -16.23900 36.41400 41.84400
H  -16.63900 37.96200 41.52600
H  -18.57800 37.79300 43.44400
H  -18.34100 36.02900 43.01600
H  -18.78200 37.27000 41.82600
H  -13.35000 32.65600 43.02400
H  -13.23700 33.68500 44.46900
H  -11.83800 32.58400 43.94300
H  -8.51000 34.35400 40.26200
H  -6.28700 36.48700 44.45300
H  -5.19200 36.47100 43.14400
H  -5.54400 35.02400 43.96300

