158

Mg 41.87300 40.87800 26.66300
C  40.99400 43.34900 28.88900
C  42.84100 38.92600 29.27800
C  43.14700 38.68600 24.34700
C  41.62200 43.23800 24.02700
N  42.00600 41.16200 28.89200
C  41.47700 42.21900 29.57300
C  41.32600 41.86100 31.09000
C  42.20300 40.54400 31.18200
C  42.32800 40.14200 29.70500
C  43.52500 40.69300 31.87600
C  39.90100 41.72700 31.53300
C  39.68700 42.53800 32.84700
H  39.22600 41.80200 34.13100
N  42.88000 38.96900 26.76400
C  43.14300 38.34400 27.95300
C  43.74500 37.02600 27.64600
C  43.79600 36.95800 26.24600
C  43.31700 38.21100 25.68900
C  44.23000 36.12900 28.74600
C  44.20800 35.82400 25.42500
O  44.17900 35.79900 24.18500
C  44.66000 34.61300 26.12500
N  42.33900 41.01500 24.50500
C  42.78700 39.92100 23.76200
C  42.77500 40.18400 22.22900
C  42.35000 41.66700 22.18900
C  41.99800 41.96900 23.69400
C  44.16400 39.91900 21.48900
C  41.16600 41.95100 21.27800
C  41.47500 42.80300 20.03300
N  41.34400 42.82300 26.49700
C  41.22900 43.67000 25.34200
C  40.63600 44.94500 25.77800
C  40.52800 44.84300 27.19600
C  41.04700 43.60200 27.55400
C  40.39200 46.10600 24.84700
C  40.17400 45.58400 28.38900
O  39.68200 46.70700 28.44800
C  40.40900 44.60000 29.54500
C  41.41500 45.22200 30.49900
O  42.60900 45.49100 30.29500
O  40.88000 45.42600 31.67600
C  41.73000 45.90300 32.77500
H  42.99700 38.18800 30.06800
H  43.47200 37.89500 23.66700
H  41.40800 43.95000 23.22800
H  41.80900 42.67400 31.63100
H  41.73200 39.69800 31.68400
H  43.29700 41.15900 32.83400
H  44.26100 41.28100 31.32600
H  44.05000 39.74700 32.00700
H  39.52000 40.71500 31.66900
H  39.41500 42.16000 30.65900
H  38.74300 43.07000 32.72500
H  40.52400 43.14800 33.18600
H  43.83500 35.11500 28.68500
H  43.98600 36.44300 29.76100
H  45.30500 35.95300 28.71200
H  43.77800 34.24100 26.64700
H  45.52300 35.04500 26.63100
H  45.10800 33.91500 25.41800
H  42.04300 39.51300 21.77800
H  43.27700 42.17600 21.92600
H  43.98400 39.07700 20.82000
H  44.91400 39.52100 22.17100
H  44.48300 40.81800 20.96100
H  40.30700 42.42700 21.75200
H  40.75500 41.04500 20.83100
H  42.53000 43.06100 19.94200
H  40.87200 43.71000 19.99100
H  41.24200 42.19400 19.16000
H  39.33600 46.06600 24.58100
H  41.04200 46.02700 23.97500
H  40.66500 47.06500 25.28700
H  39.49500 44.36900 30.09200
H  41.26200 45.51900 33.68100
H  41.79600 46.98700 32.87400
H  42.73900 45.49800 32.69000
Mg -11.72000 37.08700 42.26000
C  -9.52300 34.49400 41.27800
C  -9.54100 39.40300 40.89800
C  -14.06700 39.48400 42.43200
C  -13.91400 34.77000 43.39800
N  -9.73900 36.83000 41.09700
C  -9.07900 35.75400 40.71800
C  -7.92100 36.04400 39.86300
C  -7.73700 37.59500 39.98700
C  -9.10000 38.02200 40.71600
C  -6.54000 38.09800 40.82700
C  -8.23000 35.48200 38.47300
C  -7.27800 34.37600 37.93700
H  -6.16300 34.75800 37.00800
N  -11.78200 39.12500 41.69700
C  -10.75200 39.92000 41.36700
C  -11.20400 41.24300 41.28900
C  -12.54400 41.25900 41.51200
C  -12.88100 39.87900 41.86100
C  -10.24500 42.34700 41.04700
C  -13.55100 42.46900 41.27400
O  -13.09300 43.52700 40.94300
C  -15.08400 42.44000 41.28500
N  -13.85500 37.05900 42.54700
C  -14.48500 38.19900 42.82900
C  -15.88400 37.88000 43.44000
C  -15.81800 36.35800 43.67600
C  -14.45000 36.01400 43.19500
C  -16.13600 38.64700 44.78800
C  -16.91200 35.52000 42.91600
C  -17.73000 34.51000 43.86500
N  -11.72800 35.05400 42.43900
C  -12.64700 34.28600 43.09000
C  -12.04300 32.93300 43.21000
C  -10.89000 32.94800 42.44600
C  -10.70900 34.27800 41.98600
C  -12.60400 31.65300 43.94200
C  -9.75100 32.13800 41.96000
O  -9.57200 30.89500 42.08100
C  -8.82900 33.12200 41.13700
C  -7.51300 33.02000 41.86200
O  -6.92200 31.91900 42.09400
O  -7.11000 34.16500 42.44900
C  -5.94100 34.06500 43.26800
H  -8.89400 40.18600 40.49800
H  -14.72700 40.33300 42.62600
H  -14.56100 34.10600 43.97600
H  -7.05500 35.51400 40.26100
H  -7.71600 38.01900 38.98300
H  -6.04600 37.33500 41.42900
H  -6.78100 38.87100 41.55700
H  -5.76400 38.51100 40.18200
H  -8.20100 36.34600 37.80800
H  -9.14300 34.88700 38.48600
H  -7.90600 33.67300 37.39000
H  -6.82000 33.79100 38.73400
H  -9.19600 42.14000 41.25900
H  -10.50000 43.05400 41.83600
H  -10.34000 42.84300 40.08100
H  -15.41800 41.53200 40.78400
H  -15.46400 43.40400 40.94500
H  -15.51000 42.39900 42.28700
H  -16.63800 38.18000 42.71300
H  -15.77600 36.06000 44.72300
H  -15.38100 39.40200 45.01000
H  -16.15200 37.94300 45.62100
H  -17.06600 39.17900 44.59000
H  -16.61600 35.18300 41.92200
H  -17.66900 36.28700 42.75200
H  -18.43600 35.20300 44.32400
H  -17.14600 34.07400 44.67500
H  -18.26900 33.79200 43.24600
H  -11.78500 31.24400 44.53400
H  -12.91400 30.86600 43.25400
H  -13.29500 31.95100 44.73100
H  -8.65600 32.78600 40.11500
H  -5.13700 33.65400 42.65700
H  -6.11700 33.28200 44.00500
H  -5.70400 34.97500 43.82000

