158

Mg 9.15000 3.63000 27.42800
C  10.70200 2.22500 30.26200
C  7.68400 5.95600 29.26000
C  7.93800 5.02700 24.48000
C  10.43800 1.00400 25.54700
N  9.18400 3.98100 29.53200
C  9.85800 3.32800 30.53300
C  9.62100 3.96300 31.88900
C  8.62900 5.20100 31.53100
C  8.49200 5.08100 30.00600
C  7.27000 4.97100 32.22300
C  10.95400 4.41500 32.52600
C  10.79400 5.08300 34.02000
H  11.51200 4.51800 35.26600
N  7.95400 5.26400 26.93000
C  7.33700 6.04800 27.89800
C  6.54300 7.06400 27.26900
C  6.68000 6.89900 25.82800
C  7.52800 5.70700 25.68800
C  5.54600 7.95400 28.00600
C  5.98600 7.62600 24.72400
O  6.08900 7.24000 23.55200
C  5.07200 8.79900 25.03200
N  9.17100 3.07800 25.32400
C  8.60700 3.82100 24.32400
C  8.84500 3.14900 22.99800
C  9.54200 1.83100 23.33100
C  9.77100 1.97300 24.82700
C  7.49000 2.99400 22.18000
C  10.76100 1.65900 22.51200
C  10.80400 0.45600 21.56100
N  10.28300 1.85000 27.81800
C  10.80600 0.89600 26.86800
C  11.52000 -0.08300 27.59900
C  11.55600 0.41400 28.91800
C  10.76600 1.61500 29.01200
C  12.24500 -1.32400 27.13300
C  12.03200 0.08900 30.22900
O  12.68600 -0.86800 30.63000
C  11.50400 1.28000 31.18800
C  10.66800 0.66900 32.25400
O  9.59400 0.05700 32.09200
O  11.27400 0.73600 33.48400
C  10.69000 -0.10100 34.51800
H  7.33700 6.74300 29.93300
H  7.61300 5.54900 23.57800
H  10.70100 0.17600 24.88500
H  9.23000 3.14900 32.50000
H  9.07100 6.19000 31.65200
H  6.89900 5.92800 32.58900
H  7.39300 4.30500 33.07800
H  6.46700 4.52000 31.63900
H  11.38800 5.14700 31.84600
H  11.66000 3.59400 32.65300
H  9.72700 5.10700 34.24400
H  10.95700 6.16100 34.00300
H  5.81800 9.00900 27.98800
H  5.67200 7.56300 29.01500
H  4.56100 7.76900 27.57900
H  4.05100 8.58000 25.34400
H  4.90400 9.45200 24.17500
H  5.54500 9.38600 25.81900
H  9.49400 3.83100 22.44900
H  8.88300 0.98200 23.14800
H  7.35200 3.78700 21.44400
H  6.69300 3.07800 22.91900
H  7.62700 2.05000 21.65200
H  11.67800 1.62100 23.10100
H  10.82100 2.50300 21.82500
H  10.04700 0.55800 20.78300
H  10.76100 -0.48900 22.10100
H  11.78600 0.46200 21.08700
H  12.34700 -1.84400 28.08600
H  13.21300 -1.07200 26.70100
H  11.62000 -1.90000 26.45000
H  12.32000 1.80900 31.68000
H  10.09200 -0.93700 34.15700
H  10.19400 0.51900 35.26500
H  11.44300 -0.60000 35.12800
Mg 8.61700 48.08500 25.31000
C  6.54200 47.97600 28.06700
C  11.10700 49.37800 27.24700
C  10.68200 48.20500 22.49700
C  5.94000 47.41400 23.25100
N  8.72400 48.64100 27.40100
C  7.81500 48.40600 28.36100
C  8.38700 48.90300 29.73000
C  9.66700 49.74600 29.35100
C  9.88700 49.29100 27.90500
C  9.38100 51.31800 29.49500
C  8.69400 47.72600 30.80200
C  8.05300 47.92600 32.18400
H  8.38300 46.76200 33.21800
N  10.69100 48.64500 24.97000
C  11.53000 49.05700 25.90300
C  12.79000 49.17900 25.30900
C  12.75500 48.67200 23.96200
C  11.34500 48.50500 23.72800
C  14.04200 49.50400 26.09600
C  13.89600 48.39000 22.92400
O  13.70000 47.96900 21.79700
C  15.36300 48.64300 23.24900
N  8.33900 47.99100 23.17500
C  9.28700 48.04300 22.22200
C  8.70000 47.83700 20.81600
C  7.26200 47.29400 21.22400
C  7.11300 47.66800 22.63000
C  8.67000 49.03200 19.86300
C  7.07800 45.75100 20.86800
C  5.78900 45.39500 20.14700
N  6.66100 47.74500 25.54400
C  5.73100 47.40400 24.61800
C  4.45300 47.13900 25.34000
C  4.69800 47.37300 26.69200
C  6.09400 47.69900 26.80500
C  3.18700 46.70000 24.67700
C  4.09100 47.31500 28.03300
O  3.01400 47.00300 28.46000
C  5.30200 47.69400 29.02100
C  5.54100 46.55100 30.01400
O  6.17800 45.55800 29.83400
O  4.71100 46.77300 31.14600
C  4.92200 45.78400 32.24000
H  11.93400 49.75100 27.85500
H  11.31600 47.96900 21.63900
H  5.20300 46.88200 22.64600
H  7.53600 49.48200 30.09000
H  10.54300 49.46500 29.93500
H  9.31400 51.67900 28.46900
H  10.27500 51.69500 29.99100
H  8.55200 51.59400 30.14700
H  9.77900 47.62700 30.84300
H  8.32800 46.85200 30.26400
H  6.97300 47.94400 32.04200
H  8.35600 48.87300 32.63100
H  13.83600 49.62400 27.15900
H  14.64300 50.34800 25.75700
H  14.61000 48.57800 26.00500
H  15.39000 49.62600 23.72000
H  15.90200 48.60800 22.30200
H  15.65700 47.84400 23.93000
H  9.19100 47.02500 20.28100
H  6.48500 47.78700 20.63900
H  7.66200 49.44300 19.79500
H  9.08000 48.66900 18.92100
H  9.37400 49.78500 20.21700
H  7.05600 45.23400 21.82700
H  7.94500 45.29500 20.39000
H  5.98900 45.24900 19.08500
H  5.03800 46.16900 20.30300
H  5.21800 44.54900 20.53000
H  3.42200 46.08400 23.80900
H  2.48200 47.51300 24.50200
H  2.69800 46.13700 25.47300
H  5.07800 48.60900 29.57100
H  3.92100 45.42600 32.48000
H  5.33300 46.22400 33.14900
H  5.54700 44.91600 32.03200

