158

Mg 8.31700 3.35000 27.82800
C  9.75900 1.87900 30.44700
C  6.39900 5.32900 29.78500
C  6.87500 4.75900 24.97600
C  9.94300 1.10900 25.61000
N  7.96500 3.45600 29.89300
C  8.80100 2.93400 30.85100
C  8.57400 3.46900 32.28300
C  7.44600 4.50700 32.04700
C  7.19100 4.43000 30.47800
C  6.11800 4.34700 32.85900
C  9.88900 3.94400 32.94600
C  9.67900 4.90100 34.01900
H  10.65000 4.76100 35.23000
N  6.74700 4.71300 27.47100
C  6.07300 5.41100 28.40500
C  5.18000 6.29500 27.77600
C  5.33200 6.22900 26.34800
C  6.33100 5.19800 26.19900
C  4.33600 7.33800 28.54000
C  4.63300 6.92700 25.23700
O  4.91400 6.71800 24.04800
C  3.38700 7.70000 25.53100
N  8.46000 2.97500 25.58700
C  7.67500 3.65600 24.70000
C  7.89400 3.09900 23.25600
C  9.01600 2.00000 23.43900
C  9.16600 2.02000 24.91400
C  6.60100 2.53300 22.55300
C  10.43200 2.54800 22.93600
C  10.57800 2.08100 21.51200
N  9.49300 1.79500 27.94300
C  10.16200 0.97200 27.01700
C  10.95800 -0.04100 27.66300
C  10.85300 0.33500 29.03200
C  9.94800 1.43400 29.11400
C  11.58200 -1.25600 27.08500
C  11.31000 -0.00000 30.39000
O  12.07700 -0.85200 30.78600
C  10.68400 1.02300 31.29900
C  9.99300 0.37300 32.45400
O  8.95500 -0.22300 32.40900
O  10.69900 0.53700 33.60300
C  9.95300 0.08700 34.83200
H  6.00600 6.13400 30.41000
H  6.42000 5.09300 24.04100
H  10.53900 0.60200 24.84800
H  8.19300 2.66600 32.91400
H  7.82400 5.51000 32.24800
H  5.27500 4.09400 32.21500
H  5.85000 5.28000 33.35500
H  6.23600 3.63900 33.68000
H  10.53700 4.46000 32.23700
H  10.45700 3.12800 33.39400
H  8.64200 4.85000 34.34900
H  9.74700 5.95700 33.75600
H  4.43600 8.35000 28.14700
H  4.51600 7.42900 29.61100
H  3.35400 6.90900 28.34200
H  2.96200 7.95300 24.56000
H  3.72700 8.61100 26.02200
H  2.72700 7.08200 26.13900
H  8.23500 3.81400 22.50700
H  8.70900 0.99800 23.13800
H  6.72200 1.54400 22.11100
H  6.18200 3.14900 21.75800
H  5.81000 2.55600 23.30200
H  11.15800 1.97000 23.50900
H  10.71000 3.59900 23.01700
H  9.69200 1.48800 21.28600
H  11.41300 1.38100 21.51400
H  10.76200 2.95500 20.88700
H  11.36200 -2.07400 27.77100
H  12.62900 -0.99400 26.93000
H  11.14200 -1.36500 26.09400
H  11.42900 1.71400 31.69300
H  9.31800 -0.79700 34.76200
H  9.18900 0.84400 35.00800
H  10.65900 0.00700 35.65800
Mg 47.75700 25.02500 28.21100
C  48.05600 27.25300 30.93300
C  45.93400 22.98500 30.26100
C  47.73000 22.88900 25.74200
C  49.32300 27.35900 26.24700
N  47.40700 24.95700 30.40000
C  47.41800 26.08300 31.24300
C  46.80500 25.68700 32.59200
C  46.37600 24.26200 32.38800
C  46.53400 24.06200 30.89400
C  47.25700 23.28900 33.04900
C  45.63200 26.54900 33.14700
C  45.69400 26.56400 34.65600
H  44.34500 26.46600 35.52100
N  46.97200 23.21600 28.02400
C  46.15200 22.56100 28.95200
C  45.61900 21.32000 28.36300
C  46.02500 21.32800 27.03100
C  46.95700 22.54900 26.87500
C  44.78400 20.30800 29.08300
C  45.58800 20.37800 25.86000
O  45.89900 20.51000 24.70500
C  44.59500 19.25500 26.18800
N  48.54800 25.05700 26.31500
C  48.43200 24.04800 25.40400
C  48.97500 24.36600 24.00100
C  49.47900 25.81100 24.14100
C  49.11700 26.08800 25.68900
C  49.95000 23.21800 23.54200
C  48.72700 26.81900 23.11200
C  47.24900 27.04200 23.38100
N  48.54600 26.96800 28.44600
C  49.10200 27.78600 27.52700
C  49.48600 29.07000 28.12000
C  49.06300 28.92000 29.46300
C  48.48700 27.60200 29.64100
C  50.08600 30.21800 27.31400
C  48.95100 29.55700 30.70700
O  49.20600 30.70700 31.06700
C  48.24900 28.47500 31.73800
C  49.03600 28.35800 33.00400
O  50.08600 27.84300 33.13900
O  48.36700 28.90300 34.02900
C  48.91300 28.44700 35.33200
H  45.17500 22.49900 30.87800
H  47.67600 22.15100 24.93900
H  49.79900 28.10800 25.61100
H  47.63000 25.85500 33.28400
H  45.31600 24.10100 32.58700
H  47.82400 23.79100 33.83400
H  47.87400 22.64700 32.42100
H  46.52800 22.64800 33.54300
H  44.64700 26.23400 32.80300
H  45.72200 27.59100 32.84300
H  46.07700 27.54600 34.93500
H  46.45400 25.91000 35.08200
H  43.70200 20.30100 28.95700
H  44.93900 20.45800 30.15100
H  45.26000 19.34500 28.89800
H  45.12600 18.60300 26.88200
H  44.44500 18.64800 25.29500
H  43.65100 19.58900 26.62000
H  48.21700 24.26600 23.22400
H  50.55700 25.77900 23.98700
H  50.89300 23.61600 23.16800
H  49.56300 22.68200 22.67500
H  50.29400 22.59700 24.36900
H  48.88000 26.27100 22.18200
H  49.27100 27.76000 23.19300
H  47.30100 28.05800 23.77200
H  46.64800 26.38800 24.01300
H  46.68900 27.10100 22.44800
H  49.29300 30.64400 26.69900
H  50.78500 29.87500 26.55100
H  50.44700 30.97400 28.01200
H  47.24500 28.87600 31.87400
H  48.46400 27.48600 35.58000
H  48.80800 29.18200 36.13100
H  49.99600 28.32600 35.35800

