158

Mg 42.03100 40.91300 26.96300
C  41.28900 43.10700 29.52200
C  43.26800 38.70600 29.33000
C  42.53000 38.55900 24.50000
C  41.10600 43.20400 24.61400
N  42.30100 40.99000 29.23700
C  41.82500 41.96200 30.07700
C  41.90000 41.57000 31.51800
C  42.74300 40.23600 31.51000
C  42.71200 39.91600 29.95400
C  44.15500 40.20900 32.10300
C  40.42500 41.46200 32.16800
C  40.29800 42.31300 33.43500
H  39.71100 41.57800 34.66300
N  42.81900 38.89400 26.87100
C  43.27200 38.17400 27.95000
C  43.51700 36.80800 27.53200
C  43.19000 36.71200 26.14600
C  42.78000 38.08600 25.78600
C  43.95500 35.74600 28.44600
C  43.16100 35.47800 25.07500
O  42.85600 35.60100 23.86100
C  43.68300 34.15900 25.55700
N  41.98900 40.92800 24.83900
C  42.10800 39.90000 23.98700
C  41.73400 40.17100 22.56000
C  41.39600 41.66600 22.63900
C  41.46800 41.98600 24.14700
C  42.73500 39.81100 21.48600
C  39.98700 42.00300 22.16500
C  39.92200 43.30000 21.42000
N  41.40500 42.85400 27.04100
C  41.01300 43.63400 26.00000
C  40.45900 44.88700 26.51500
C  40.51300 44.70500 27.91300
C  41.13900 43.45900 28.17900
C  39.99200 46.06500 25.77700
C  40.15000 45.29500 29.22000
O  39.56000 46.35700 29.47300
C  40.75300 44.31300 30.27400
C  41.75300 45.05000 31.13200
O  42.98600 45.14000 31.00100
O  41.15100 45.51600 32.27500
C  41.96400 46.06500 33.34300
H  43.54800 38.02200 30.13400
H  42.58900 37.94200 23.60100
H  40.63900 43.85100 23.86900
H  42.44600 42.34100 32.06100
H  42.18400 39.49500 32.08000
H  44.40400 41.06700 32.72800
H  44.77600 40.12900 31.21000
H  44.14700 39.23800 32.59700
H  40.26700 40.41100 32.40700
H  39.71000 41.75700 31.39900
H  39.64200 43.18300 33.39500
H  41.24700 42.78300 33.69700
H  44.92300 35.38400 28.10000
H  43.28100 34.89400 28.36500
H  44.02000 35.98800 29.50700
H  44.74100 34.11700 25.81400
H  43.57800 33.39800 24.78400
H  43.06600 33.77400 26.36900
H  40.84600 39.57000 22.36400
H  42.18400 42.16100 22.07200
H  42.94800 40.68700 20.87300
H  42.27600 38.99900 20.92200
H  43.64400 39.37900 21.90400
H  39.32800 41.98700 23.03200
H  39.58100 41.19200 21.56000
H  39.50100 43.03400 20.45100
H  40.93800 43.68700 21.33700
H  39.36800 44.11400 21.88900
H  40.74800 46.83900 25.64200
H  39.20700 46.56500 26.34300
H  39.60700 45.84900 24.78000
H  40.05400 43.76100 30.90300
H  42.56500 45.24300 33.73200
H  41.38000 46.57600 34.10800
H  42.59700 46.87000 32.96800
Mg -10.60900 17.38400 41.90600
C  -7.10400 17.37600 42.14500
C  -10.54600 20.67700 40.96400
C  -14.01700 17.25300 41.36100
C  -10.57100 13.95100 42.14300
N  -8.97600 18.88800 41.63300
C  -7.68600 18.62000 41.72800
C  -6.84300 19.84100 41.14400
C  -7.93100 20.99400 41.21400
C  -9.28800 20.15900 41.22600
C  -7.70600 21.91000 42.57400
C  -6.35600 19.50200 39.64800
C  -4.81800 19.50900 39.40600
H  -4.37500 18.32500 38.52300
N  -12.09000 18.84100 41.34200
C  -11.82400 20.12800 41.11100
C  -13.08800 20.92100 41.07800
C  -14.13200 19.95500 41.23000
C  -13.53900 18.60000 41.28300
C  -13.19900 22.40100 40.67200
C  -15.65000 20.22500 41.29100
O  -16.01800 21.39500 41.19900
C  -16.59500 19.17900 41.48300
N  -11.94400 15.76800 41.51200
C  -13.34200 16.01400 41.38800
C  -14.12000 14.71400 41.44900
C  -12.96400 13.62400 41.34600
C  -11.76500 14.50500 41.78100
C  -15.04100 14.64800 42.73400
C  -12.83300 12.96000 39.87000
C  -12.66300 11.42300 39.75200
N  -9.15300 15.96700 42.28000
C  -9.37200 14.57900 42.36800
C  -8.09500 13.95300 42.68200
C  -7.15400 15.02000 42.53100
C  -7.90500 16.22300 42.29200
C  -7.76400 12.51600 42.93000
C  -5.75000 15.43600 42.54900
O  -4.79500 14.70200 42.72700
C  -5.67500 16.91500 42.28000
C  -4.88500 17.60800 43.40800
O  -4.93600 17.30800 44.60800
O  -4.13700 18.65600 42.89400
C  -3.57300 19.55800 43.87900
H  -10.59500 21.73700 40.70600
H  -15.09100 17.07700 41.26500
H  -10.50400 12.86100 42.13700
H  -6.05500 20.00500 41.87800
H  -7.90700 21.65000 40.34400
H  -8.61800 21.68000 43.12400
H  -7.60700 22.94100 42.23400
H  -6.81300 21.63500 43.13700
H  -6.79100 20.28300 39.02500
H  -6.75500 18.57300 39.24100
H  -4.27500 19.51400 40.35100
H  -4.63600 20.37600 38.77100
H  -14.00500 22.93600 41.17600
H  -13.37700 22.42500 39.59700
H  -12.33300 23.00800 40.93600
H  -16.71300 18.61300 40.55900
H  -17.53600 19.72500 41.55000
H  -16.38700 18.49500 42.30600
H  -14.74200 14.70200 40.55400
H  -13.05200 12.91200 42.16700
H  -14.68300 13.93900 43.48000
H  -16.05900 14.40600 42.42800
H  -15.15400 15.64500 43.15800
H  -12.03500 13.39000 39.26500
H  -13.75300 13.17000 39.32500
H  -12.20800 11.14900 40.70400
H  -11.79700 11.23500 39.11700
H  -13.58200 10.87900 39.53600
H  -7.76600 12.33000 44.00400
H  -6.77000 12.37400 42.50500
H  -8.51100 11.87000 42.46800
H  -5.16000 17.08900 41.33600
H  -2.59900 19.19400 44.20700
H  -4.20900 19.58100 44.76400
H  -3.38700 20.48900 43.34500

