158

Mg 47.54400 15.55800 28.72500
C  45.66300 15.54200 31.75300
C  49.85100 17.32300 30.40300
C  48.81800 16.48900 25.82400
C  44.69000 14.40600 27.11400
N  47.68200 16.36900 30.86300
C  46.87900 16.18400 31.95400
C  47.42700 16.94100 33.19200
C  48.73000 17.66000 32.71300
C  48.82400 16.98500 31.27800
C  48.62800 19.27600 32.47300
C  47.72900 15.90500 34.27800
C  47.76200 16.50800 35.76000
H  47.45500 17.99200 35.95300
N  49.25800 16.41800 28.23600
C  50.13900 17.04700 29.06700
C  51.38300 17.35700 28.30000
C  51.06500 17.12800 26.93400
C  49.61900 16.65300 26.94000
C  52.66400 17.91500 28.86100
C  51.89300 17.32100 25.71200
O  51.48400 17.07800 24.59100
C  53.23800 17.88800 25.83000
N  46.84400 15.56900 26.75800
C  47.54400 15.96200 25.72200
C  46.79600 15.70300 24.36600
C  45.52400 14.89500 24.81900
C  45.71500 14.88900 26.31600
C  46.44700 17.05000 23.67200
C  45.34900 13.55900 24.12100
C  46.47300 12.51500 24.51200
N  45.72600 14.86000 29.26100
C  44.65500 14.40200 28.52900
C  43.59700 13.92100 29.30400
C  43.93100 14.37200 30.56300
C  45.21800 14.99800 30.51200
C  42.26500 13.29600 28.89000
C  43.44100 14.52000 31.89800
O  42.36900 14.12200 32.35300
C  44.59300 15.15900 32.78100
C  43.89300 16.39400 33.23100
O  43.16200 17.11300 32.53200
O  44.14900 16.51700 34.55500
C  43.32700 17.61700 35.19400
H  50.60700 18.01500 30.77800
H  49.29000 16.65000 24.85300
H  43.93500 13.88200 26.52400
H  46.74200 17.67700 33.61100
H  49.64300 17.40700 33.25300
H  49.57500 19.68400 32.82700
H  47.75400 19.71200 32.95600
H  48.55300 19.43800 31.39800
H  48.67800 15.47300 33.96100
H  47.05100 15.07400 34.08400
H  48.72900 16.36400 36.24100
H  47.10100 15.93800 36.41200
H  52.71600 18.99600 28.72700
H  53.48900 17.37000 28.40200
H  52.80300 17.86000 29.94000
H  53.67500 18.01700 24.84000
H  53.77200 17.14800 26.42700
H  53.11600 18.86700 26.29500
H  47.44600 15.06200 23.77100
H  44.66200 15.52500 24.59900
H  47.29200 17.34000 23.04800
H  46.27400 17.78100 24.46100
H  45.59100 16.91000 23.01200
H  45.35000 13.58300 23.03100
H  44.34800 13.19500 24.35300
H  46.13600 12.00500 25.41400
H  47.52100 12.80600 24.57900
H  46.46500 11.81000 23.68100
H  42.50800 12.23900 29.00000
H  41.97400 13.51600 27.86300
H  41.51300 13.47900 29.65700
H  44.99900 14.44800 33.50100
H  43.67900 17.73800 36.21800
H  42.25200 17.44100 35.24200
H  43.46200 18.57400 34.68900
Mg 47.29100 24.59700 28.82600
C  48.24100 26.88600 31.22600
C  46.37300 22.50700 31.47000
C  47.05400 22.07100 26.67000
C  48.76400 26.57700 26.46700
N  47.26900 24.71500 31.09600
C  47.76700 25.74800 31.80500
C  47.45400 25.69900 33.25300
C  47.16900 24.15400 33.34300
C  46.83900 23.77400 31.91700
C  48.24300 23.33200 34.10100
C  46.25500 26.63300 33.62500
C  46.33700 27.38800 34.92000
H  46.96100 26.71800 36.27500
N  46.71100 22.66100 29.02700
C  46.28200 22.01200 30.17000
C  45.88700 20.68000 29.87100
C  45.95900 20.57900 28.44000
C  46.59200 21.76300 27.97700
C  45.39900 19.66600 30.84700
C  45.55000 19.38300 27.58000
O  45.62700 19.43200 26.38700
C  45.09200 18.15900 28.13300
N  47.69800 24.37800 26.79000
C  47.56600 23.24300 26.08400
C  47.90800 23.34800 24.61100
C  48.23000 24.88000 24.51900
C  48.32200 25.30000 26.02700
C  49.12400 22.49800 24.28500
C  47.22300 25.56400 23.56900
C  45.78500 25.81800 23.99300
N  48.26400 26.28700 28.75600
C  48.68100 27.12500 27.71300
C  49.21100 28.38400 28.17300
C  49.12400 28.32800 29.58300
C  48.52700 27.03200 29.89700
C  49.95300 29.31400 27.42100
C  49.44700 28.95300 30.83400
O  50.14900 29.88500 30.99600
C  48.78300 28.12000 31.97500
C  49.70400 28.00000 33.09500
O  50.62600 27.17300 33.21400
O  49.32600 28.94000 34.01100
C  49.97900 28.97300 35.32400
H  46.21300 21.82800 32.31100
H  46.83500 21.34200 25.88700
H  49.25100 27.19200 25.70700
H  48.33600 25.98200 33.82800
H  46.29000 24.03900 33.97800
H  48.98600 23.98600 34.55700
H  48.81300 22.82200 33.32400
H  47.82400 22.58500 34.77500
H  45.39700 25.99300 33.83100
H  46.04600 27.25800 32.75700
H  45.27500 27.52700 35.12200
H  46.89000 28.31200 34.75300
H  45.60700 19.96900 31.87300
H  45.90000 18.69900 30.79400
H  44.31000 19.62100 30.83700
H  45.87500 17.82000 28.81100
H  44.98800 17.37900 27.37900
H  44.13100 18.23200 28.64100
H  47.05000 23.09800 23.98700
H  49.24900 24.92600 24.13400
H  48.97300 21.58700 24.86500
H  50.11200 22.87900 24.54300
H  49.06800 22.49100 23.19700
H  47.21000 24.98800 22.64400
H  47.67100 26.48200 23.18900
H  45.76900 26.89900 23.85300
H  45.58700 25.51400 25.02000
H  44.95600 25.47300 23.37500
H  50.69800 28.76500 26.84500
H  50.47200 29.99100 28.09900
H  49.30300 29.89800 26.77000
H  47.86900 28.61700 32.30200
H  49.36700 28.48600 36.08400
H  50.18500 29.96400 35.72800
H  50.93000 28.44500 35.26300

