158

Mg 47.52300 25.40900 28.24800
C  48.23300 27.54900 30.95900
C  46.96300 22.79000 30.55200
C  47.24000 23.32400 25.61600
C  48.90900 27.84600 26.16300
N  47.55800 25.24800 30.44500
C  47.69600 26.29100 31.30900
C  47.38700 25.92900 32.72300
C  47.17500 24.33700 32.61600
C  47.25600 24.02100 31.10700
C  48.02000 23.38000 33.51200
C  46.24200 26.73200 33.30400
C  45.90400 26.54900 34.76100
H  45.83800 27.86100 35.63400
N  47.01700 23.37600 28.04900
C  46.85800 22.45000 29.13000
C  46.41200 21.27700 28.57100
C  46.43700 21.41700 27.09600
C  46.90700 22.75400 26.84200
C  46.00800 20.08200 29.36700
C  46.01500 20.46300 26.01200
O  46.07400 20.70600 24.77100
C  45.44200 19.14600 26.38600
N  48.16800 25.56900 26.19200
C  47.79200 24.61500 25.29100
C  48.01000 25.03300 23.90400
C  48.61600 26.40500 24.04300
C  48.57000 26.68900 25.52400
C  48.73700 23.92400 23.01500
C  47.87400 27.48400 23.24200
C  48.66100 28.77800 22.82500
N  48.33100 27.34700 28.40100
C  48.86600 28.19300 27.50600
C  49.44600 29.41000 28.17400
C  49.15700 29.22400 29.51900
C  48.50900 27.95300 29.59600
C  50.22600 30.50600 27.59500
C  49.24900 29.81400 30.86700
O  49.81600 30.82200 31.22900
C  48.50200 28.83100 31.81600
C  49.48600 28.55500 32.93000
O  50.61200 28.17300 32.83700
O  48.80200 28.76800 34.01300
C  49.53800 28.53500 35.27500
H  46.77900 22.06100 31.34500
H  47.10400 22.72800 24.71100
H  49.32200 28.58500 25.47200
H  48.30100 26.20800 33.24700
H  46.14100 24.23600 32.94700
H  47.42200 22.54800 33.88400
H  48.62000 23.93700 34.23200
H  48.73800 22.77600 32.95700
H  45.32700 26.44700 32.78600
H  46.42400 27.80000 33.17600
H  46.46000 25.76900 35.28300
H  44.92200 26.07800 34.78200
H  46.72000 19.28500 29.15600
H  44.96900 19.78900 29.21400
H  46.06900 20.22300 30.44600
H  44.50700 19.18900 26.94400
H  46.18000 18.51700 26.88400
H  45.26700 18.70900 25.40300
H  46.96500 25.03800 23.59400
H  49.66700 26.40800 23.75400
H  48.96300 23.20100 23.79800
H  49.69800 24.23200 22.60300
H  48.02300 23.59400 22.26100
H  46.96700 27.78600 23.76600
H  47.40500 27.06700 22.35100
H  49.73600 28.66100 22.96600
H  48.24700 29.60600 23.39900
H  48.59700 29.01400 21.76200
H  51.26000 30.56000 27.93600
H  49.62000 31.35500 27.91200
H  50.40000 30.49900 26.51900
H  47.56500 29.29300 32.12900
H  49.12700 29.18700 36.04600
H  50.56800 28.88700 35.33000
H  49.35100 27.50100 35.56400
Mg -10.73400 16.85500 41.08400
C  -7.27300 16.41400 41.24400
C  -10.23400 20.14600 40.47400
C  -13.95800 16.98300 39.95900
C  -11.06000 13.42900 41.76800
N  -8.89600 18.08900 40.72200
C  -7.60000 17.65200 40.80600
C  -6.62500 18.89700 40.60100
C  -7.54900 20.14300 40.81200
C  -8.97200 19.43800 40.63000
C  -7.41600 20.70400 42.21900
C  -5.96000 18.83400 39.13800
C  -4.35200 18.65900 39.04200
H  -3.90700 17.40400 38.35500
N  -11.95900 18.31400 40.40100
C  -11.55300 19.62200 40.22900
C  -12.59800 20.42900 39.71000
C  -13.68900 19.54500 39.50900
C  -13.22500 18.18000 39.93900
C  -12.34600 21.87100 39.30700
C  -15.04000 19.85200 38.90500
O  -15.13700 21.05100 38.59500
C  -16.14500 18.96300 38.58500
N  -12.30900 15.39200 40.80900
C  -13.58400 15.71200 40.50400
C  -14.53400 14.54700 40.66900
C  -13.59500 13.44900 41.22300
C  -12.18100 14.10200 41.25000
C  -15.70700 14.91100 41.58000
C  -13.72800 11.99000 40.62200
C  -13.16900 11.76200 39.19300
N  -9.49200 15.18300 41.47300
C  -9.78300 13.90000 41.78300
C  -8.51300 13.18800 42.08400
C  -7.51500 14.10800 41.89500
C  -8.16700 15.33300 41.56100
C  -8.33400 11.72600 42.45100
C  -6.11400 14.28700 41.92300
O  -5.20800 13.44400 42.16400
C  -5.84400 15.84500 41.46100
C  -5.10100 16.56600 42.51500
O  -5.57000 17.43000 43.23700
O  -3.75400 16.23300 42.44300
C  -2.96800 17.02700 43.35400
H  -9.91900 21.17400 40.28300
H  -14.96300 16.87900 39.54400
H  -11.31000 12.40900 42.06700
H  -5.80500 19.05300 41.30200
H  -7.43800 20.94200 40.07900
H  -7.44300 19.85000 42.89500
H  -8.14300 21.44500 42.55300
H  -6.48800 21.27600 42.19300
H  -6.27200 19.78100 38.69600
H  -6.46600 18.16900 38.43900
H  -3.79000 18.84900 39.95700
H  -4.10200 19.40000 38.28300
H  -12.88500 22.31400 38.47000
H  -11.29000 21.93800 39.04500
H  -12.57700 22.50400 40.16400
H  -16.73200 18.60100 39.42900
H  -15.74500 18.12200 38.02000
H  -16.83800 19.48500 37.92500
H  -14.91100 14.24700 39.69200
H  -13.90600 13.23900 42.24700
H  -15.70600 15.98700 41.75100
H  -15.54700 14.50700 42.57900
H  -16.57900 14.51100 41.06200
H  -14.81300 11.89500 40.58000
H  -13.38800 11.24600 41.34300
H  -13.89500 11.22300 38.58400
H  -12.24600 11.18300 39.22700
H  -12.89700 12.69100 38.69100
H  -7.26200 11.55200 42.36000
H  -8.86500 11.02700 41.80600
H  -8.62600 11.52200 43.48200
H  -5.22800 15.69600 40.57400
H  -1.93000 16.73500 43.19700
H  -3.24600 16.79400 44.38200
H  -2.94500 18.11300 43.26600

