158

Mg 27.18400 50.50000 26.61300
C  25.10000 51.48700 29.39100
C  29.37500 49.44600 29.11500
C  28.94700 49.45800 24.26200
C  24.68400 51.67100 24.50200
N  27.24000 50.53100 28.96600
C  26.28800 50.96200 29.87700
C  26.50700 50.48200 31.30100
C  27.89700 49.84600 31.16500
C  28.21000 49.95300 29.65400
C  29.00000 50.55400 32.03500
C  25.45900 49.52400 31.84000
C  24.77900 49.94800 33.19400
H  25.74900 50.45000 34.30600
N  28.92800 49.58100 26.66700
C  29.72500 49.24800 27.78100
C  30.91400 48.54000 27.25700
C  30.84000 48.55800 25.82600
C  29.52200 49.18800 25.51600
C  32.00500 47.92200 28.15400
C  31.91700 48.14100 24.88400
O  31.75600 48.09000 23.67500
C  33.33800 47.63200 25.32400
N  26.93900 50.72100 24.58200
C  27.81300 50.11400 23.82500
C  27.46500 50.33700 22.36100
C  25.93100 50.77800 22.46000
C  25.75900 50.98800 23.95500
C  28.40000 51.28200 21.57700
C  24.95200 49.62900 21.87100
C  23.70900 50.17900 21.18500
N  25.39900 51.64500 26.84500
C  24.44900 51.98100 25.91000
C  23.28500 52.49600 26.51100
C  23.53600 52.35500 27.85100
C  24.78900 51.82500 28.03900
C  22.04300 52.91100 25.79400
C  22.87900 52.51400 29.14800
O  21.75200 52.99000 29.38300
C  23.89600 51.98200 30.15100
C  24.25000 53.08100 31.06500
O  25.26500 53.74000 31.10800
O  23.30900 53.16100 32.03400
C  23.50100 54.05000 33.22200
H  29.98000 48.94000 29.87000
H  29.45600 48.90400 23.47000
H  23.79600 51.94700 23.92900
H  26.55400 51.35800 31.94700
H  27.88700 48.81100 31.50500
H  29.13800 50.07100 33.00300
H  28.69900 51.59700 32.12900
H  29.96300 50.65900 31.53700
H  25.95700 48.58900 32.09500
H  24.76700 49.21400 31.05700
H  24.29600 49.11900 33.71200
H  23.93000 50.59600 32.97700
H  32.29400 46.91800 27.84200
H  31.57900 47.66000 29.12200
H  32.83400 48.62900 28.16300
H  33.80700 48.17600 26.14400
H  34.01300 47.58300 24.46900
H  33.14300 46.60600 25.63600
H  27.58700 49.36600 21.88000
H  25.85200 51.73400 21.94300
H  29.14200 51.67700 22.27100
H  27.81600 52.17200 21.34000
H  28.84800 50.87400 20.67100
H  24.58100 49.07800 22.73500
H  25.56900 49.04100 21.19100
H  23.60100 49.81400 20.16300
H  23.64900 51.26700 21.21300
H  22.76000 49.78700 21.54900
H  21.78500 52.19400 25.01400
H  22.28700 53.81400 25.23500
H  21.17200 53.11700 26.41600
H  23.50300 51.22200 30.82600
H  22.64300 53.89700 33.87600
H  23.61300 55.10100 32.95700
H  24.39100 53.82100 33.80800
Mg 0.10000 42.71800 24.64700
C  1.47500 42.83600 27.98600
C  -2.68900 41.33700 25.98900
C  -0.79300 41.87400 21.69700
C  3.46400 43.38000 23.50400
N  -0.48600 42.27400 26.82600
C  0.09900 42.53800 28.03200
C  -0.83000 42.30600 29.18400
C  -2.17600 41.74000 28.47500
C  -1.76600 41.72600 26.99600
C  -2.67100 40.32400 28.93900
C  -0.99600 43.43800 30.21100
C  -0.53000 43.37400 31.70900
H  -1.71900 43.50200 32.75600
N  -1.64600 42.11700 23.95200
C  -2.71300 41.59300 24.65100
C  -3.82000 41.29200 23.73300
C  -3.27000 41.39200 22.38000
C  -1.86500 41.81700 22.57800
C  -5.24300 40.90200 24.10400
C  -3.82400 41.01800 21.01500
O  -3.22300 41.33200 19.96400
C  -5.17600 40.32600 21.01100
N  1.14400 42.72100 22.79600
C  0.53600 42.37500 21.65800
C  1.44800 42.37800 20.45400
C  2.75200 43.00100 21.06500
C  2.48500 43.01000 22.57400
C  1.67800 40.95400 19.79000
C  3.09200 44.41100 20.45900
C  2.50900 45.66000 21.07400
N  2.05800 43.09200 25.45400
C  3.33200 43.33900 24.91100
C  4.29700 43.50800 25.90900
C  3.56700 43.44700 27.10200
C  2.22500 43.11000 26.81900
C  5.72200 43.83700 25.76900
C  3.69200 43.69900 28.51600
O  4.60500 44.08500 29.19400
C  2.31400 43.18800 29.11400
C  2.68300 42.02400 29.95600
O  2.54600 40.81300 29.75900
O  3.04600 42.54600 31.16100
C  3.58900 41.60100 32.11000
H  -3.53300 40.78400 26.40400
H  -1.04600 41.72700 20.64500
H  4.39800 43.64900 23.00600
H  -0.45700 41.42600 29.70800
H  -2.95500 42.50200 28.48500
H  -2.06700 39.92700 29.75400
H  -2.60000 39.69800 28.04900
H  -3.74500 40.33800 29.12800
H  -2.04400 43.73000 30.14900
H  -0.50900 44.34700 29.85900
H  0.25400 44.12600 31.79200
H  -0.08000 42.38800 31.82900
H  -5.35800 39.83200 24.28100
H  -5.99100 41.24000 23.38800
H  -5.54400 41.32100 25.06400
H  -5.14700 39.66400 20.14500
H  -5.92900 41.09700 20.85100
H  -5.34500 39.70700 21.89200
H  1.18200 43.11000 19.69200
H  3.63500 42.41500 20.80900
H  2.72700 40.68400 19.90300
H  1.38600 40.96500 18.74000
H  1.02600 40.25100 20.30800
H  2.77300 44.42100 19.41700
H  4.18100 44.41700 20.50600
H  3.32500 46.20400 21.55000
H  1.87100 45.30100 21.88100
H  1.82200 46.15700 20.38900
H  5.99800 44.07000 24.74100
H  6.35300 43.08400 26.24200
H  5.93900 44.70600 26.38900
H  1.81000 43.90700 29.76100
H  3.40800 42.18200 33.01500
H  4.65800 41.45800 31.95300
H  3.10900 40.63000 32.23400

