158

Mg 49.33500 45.46700 42.49400
C  45.84700 44.96600 42.14400
C  49.73900 41.89300 42.38300
C  52.69800 45.83400 42.24300
C  48.82600 48.90100 42.18200
N  48.07900 43.67400 42.05600
C  46.62600 43.71000 42.15100
C  45.94900 42.32700 42.28700
C  47.20600 41.44700 42.51400
C  48.45300 42.37000 42.28500
C  47.26800 40.71500 43.82300
C  45.01400 41.79300 41.13900
C  44.82200 42.65000 39.91100
H  44.71100 41.81400 38.61200
N  50.94100 44.02900 42.32400
C  50.93500 42.66100 42.35100
C  52.32800 42.21000 42.21100
C  53.20400 43.33600 42.09600
C  52.28700 44.48000 42.23100
C  52.63900 40.73400 42.20900
C  54.71600 43.26400 41.85500
O  55.23500 42.16800 41.72300
C  55.57000 44.43800 41.76400
N  50.59500 47.20600 42.22700
C  51.95500 47.07400 42.39300
C  52.64700 48.45800 42.45000
C  51.43500 49.44400 42.24000
C  50.19700 48.48500 42.19900
C  53.37000 48.64300 43.80700
C  51.44200 50.28200 40.92100
C  51.49500 51.83200 41.03000
N  47.77100 46.73800 42.19600
C  47.65600 48.10800 42.15100
C  46.18000 48.51200 42.04900
C  45.55600 47.25100 42.12900
C  46.47100 46.24100 42.18800
C  45.65000 49.85300 41.92000
C  44.26900 46.72000 42.17800
O  43.20600 47.31200 42.16000
C  44.40400 45.20800 42.26400
C  43.77700 44.70700 43.49600
O  42.99100 43.77100 43.57000
O  44.40900 45.32400 44.52800
C  43.91500 44.87900 45.84100
H  49.78600 40.82200 42.59200
H  53.75200 46.11400 42.27700
H  48.71200 49.98500 42.11400
H  45.48500 42.52000 43.25400
H  47.21500 40.67900 41.74100
H  46.28000 40.43000 44.18400
H  47.64400 41.41900 44.56600
H  48.02600 39.93200 43.82900
H  43.97400 41.61600 41.41200
H  45.36400 40.83300 40.75700
H  45.53600 43.47300 39.89200
H  43.80900 43.04100 40.00800
H  53.39800 40.37900 41.51200
H  51.73400 40.15600 42.02100
H  52.96000 40.38500 43.19100
H  55.33600 44.94800 40.83000
H  56.62400 44.16100 41.77600
H  55.37300 45.07100 42.63000
H  53.34000 48.56400 41.61600
H  51.34200 50.07100 43.12700
H  54.40700 48.58500 43.47500
H  53.30900 47.80300 44.49900
H  53.14500 49.61300 44.24900
H  50.57100 49.99700 40.33100
H  52.28900 49.98500 40.30100
H  52.47700 52.20100 40.73700
H  51.52500 52.24800 42.03700
H  50.76200 52.49500 40.56900
H  46.24100 50.62700 41.43000
H  45.46300 50.36300 42.86500
H  44.68200 49.82100 41.41900
H  43.83100 44.85700 41.40600
H  44.36200 45.42000 46.67500
H  44.10600 43.84900 46.14200
H  42.84700 45.09500 45.87100
Mg 36.53700 49.31900 24.96000
C  37.08200 47.60500 27.99100
C  35.42400 52.10900 26.75800
C  36.36500 50.93700 22.04900
C  37.84400 46.49100 23.31200
N  36.25900 49.73000 27.11800
C  36.52400 48.88800 28.19800
C  36.11700 49.60300 29.50200
C  35.49300 50.91400 29.00200
C  35.74400 50.94800 27.51500
C  33.97900 51.04200 29.33000
C  37.35700 49.87400 30.46200
C  37.17900 49.92600 31.94900
H  35.85200 49.76600 32.54800
N  35.97300 51.18800 24.52200
C  35.51400 52.18700 25.36700
C  35.15400 53.38000 24.54200
C  35.42500 53.07900 23.20400
C  35.97100 51.67600 23.19400
C  34.84500 54.78300 25.14800
C  35.20300 53.85900 21.91900
O  35.33900 53.40600 20.81900
C  34.76400 55.30000 21.98300
N  37.03300 48.73600 22.93800
C  36.86300 49.63400 21.93300
C  37.40900 49.02600 20.51400
C  38.00900 47.59800 21.01500
C  37.63600 47.58400 22.48800
C  36.37000 48.81900 19.42600
C  39.52900 47.47000 20.77200
C  40.41900 48.63500 21.41800
N  37.37700 47.36700 25.50400
C  37.81800 46.38000 24.69400
C  38.19500 45.23600 25.52400
C  37.96300 45.72700 26.81600
C  37.42000 47.01900 26.75600
C  38.80300 43.87200 25.07800
C  38.02200 45.30300 28.18000
O  38.34000 44.32200 28.77900
C  37.50400 46.52000 29.07000
C  36.33500 46.15000 29.86000
O  35.28000 45.83700 29.41700
O  36.68600 46.14800 31.18400
C  35.82600 45.41300 32.14500
H  35.20100 52.96300 27.40100
H  36.50700 51.31700 21.03500
H  38.28600 45.65600 22.76500
H  35.48000 48.91100 30.05300
H  35.98600 51.75300 29.49200
H  33.75800 50.13100 29.88600
H  33.35000 51.06300 28.44100
H  33.80900 52.01500 29.79100
H  38.02100 50.64800 30.07700
H  37.84400 48.90000 30.40100
H  37.70000 50.81300 32.31000
H  37.65900 49.06300 32.41000
H  34.95200 55.60900 24.44500
H  35.62300 55.01400 25.87600
H  33.84500 54.69700 25.57300
H  33.82600 55.38300 22.53100
H  34.61200 55.64500 20.96000
H  35.42900 55.98700 22.50600
H  38.20000 49.62300 20.06100
H  37.46500 46.73300 20.63400
H  35.51500 49.27400 19.92500
H  36.19800 47.80000 19.07900
H  36.77100 49.46800 18.64800
H  39.85800 47.32400 19.74300
H  39.75500 46.49400 21.20200
H  41.31300 48.73900 20.80400
H  40.70700 48.29700 22.41400
H  39.88400 49.58400 21.37800
H  39.56100 43.64000 25.82600
H  39.29900 44.00300 24.11600
H  37.95600 43.18800 25.12000
H  38.34100 46.79900 29.71000
H  35.14700 44.71200 31.65900
H  35.17000 46.02000 32.77000
H  36.46000 44.79300 32.77800

