158

Mg 47.34100 25.07800 29.67600
C  48.07600 27.58200 31.99300
C  45.88700 23.29800 32.04600
C  46.66400 22.76300 27.29600
C  49.10300 27.00500 27.16400
N  47.15000 25.27800 31.75900
C  47.35300 26.49800 32.54400
C  46.92300 26.31500 34.03900
C  46.48800 24.74200 34.07200
C  46.52000 24.39800 32.54600
C  47.33300 23.89200 35.09200
C  45.85700 27.33100 34.50600
C  45.94300 27.99800 35.90100
H  46.39700 27.08200 37.07400
N  46.38200 23.28800 29.72200
C  45.81500 22.71500 30.78500
C  45.07400 21.52200 30.46800
C  45.23900 21.36600 29.05700
C  46.07800 22.45600 28.59100
C  44.23300 20.67900 31.41100
C  44.72100 20.27000 28.18000
O  45.03400 20.18900 27.03100
C  43.76900 19.26100 28.75200
N  47.96800 24.85100 27.55900
C  47.57400 23.78700 26.81000
C  48.15700 23.86600 25.33900
C  48.76500 25.32000 25.33400
C  48.62300 25.76100 26.77600
C  49.12700 22.69700 25.04400
C  48.24700 26.39100 24.36900
C  49.24800 27.14900 23.45500
N  48.41300 26.84900 29.50100
C  48.97300 27.57500 28.44300
C  49.49800 28.75300 28.95500
C  49.25000 28.78900 30.35700
C  48.49900 27.65000 30.66600
C  50.15700 29.84400 28.18200
C  49.38600 29.55400 31.58700
O  49.93600 30.68700 31.74200
C  48.51000 28.85900 32.65600
C  49.31400 28.64900 33.88300
O  50.04600 27.66800 34.02800
O  49.10000 29.67400 34.71700
C  49.61500 29.55500 36.08100
H  45.36300 22.69100 32.78700
H  46.35800 22.03500 26.54200
H  49.44200 27.65100 26.35200
H  47.73500 26.47400 34.74900
H  45.42900 24.65600 34.31600
H  48.20300 23.62000 34.49300
H  46.87600 22.91700 35.26300
H  47.66500 24.52700 35.91300
H  44.92800 26.76100 34.49500
H  45.77000 28.21000 33.86800
H  45.07800 28.59200 36.19500
H  46.78000 28.69100 35.82000
H  43.19100 20.77500 31.10700
H  44.32900 21.10300 32.41100
H  44.81400 19.77000 31.56700
H  44.30600 18.76900 29.56300
H  43.63700 18.52000 27.96400
H  42.78000 19.57400 29.08700
H  47.32100 23.93700 24.64300
H  49.85000 25.31400 25.23400
H  49.99600 23.23500 24.66600
H  48.70900 22.09600 24.23600
H  49.26700 22.16600 25.98500
H  47.73800 27.15000 24.96200
H  47.45500 25.97000 23.75000
H  50.28200 26.84900 23.62600
H  49.30200 28.23400 23.54600
H  49.09200 27.04200 22.38200
H  49.65400 30.70700 28.61700
H  49.92400 29.68400 27.12900
H  51.23700 29.97400 28.25100
H  47.64500 29.50300 32.81200
H  49.95000 30.54600 36.39000
H  50.38800 28.79200 35.99100
H  48.81100 29.15900 36.70100
Mg 9.68800 48.37400 26.02300
C  7.82600 48.76400 28.99000
C  12.21400 49.96300 27.55500
C  11.44000 47.97100 23.06400
C  6.68300 47.83100 24.26300
N  9.90900 49.26800 28.06200
C  9.13400 49.11500 29.12100
C  9.84700 49.55200 30.42500
C  11.01000 50.39500 29.85700
C  11.03700 49.94100 28.38900
C  10.75000 51.91400 30.06300
C  10.19100 48.29600 31.30300
C  10.09400 48.37900 32.85000
H  10.14400 47.03600 33.67900
N  11.55300 48.90100 25.32000
C  12.46200 49.52900 26.15200
C  13.78000 49.43400 25.48600
C  13.59200 48.81000 24.26700
C  12.14600 48.49700 24.18600
C  15.11000 49.86700 26.17900
C  14.54600 48.50400 23.09100
O  14.25200 48.09000 21.95900
C  16.03800 48.83200 23.24400
N  9.24100 48.07800 23.94000
C  10.10600 47.89000 22.93100
C  9.39700 47.41100 21.66100
C  7.84600 47.51400 22.07400
C  7.89800 47.81800 23.57500
C  9.78900 48.27100 20.43000
C  7.09000 46.24900 21.57800
C  6.87700 46.01700 20.10100
N  7.67400 48.32900 26.49400
C  6.53400 48.12800 25.63400
C  5.39200 48.01400 26.49000
C  5.84300 48.24500 27.78300
C  7.19500 48.43300 27.73800
C  3.98700 47.62000 26.04100
C  5.46600 48.29000 29.20300
O  4.29800 48.17000 29.66200
C  6.76800 48.58300 29.99200
C  6.88400 47.31000 30.76700
O  7.09900 46.17900 30.35200
O  6.84700 47.54500 32.13400
C  7.08400 46.28100 32.90400
H  13.04900 50.39000 28.11400
H  12.07100 47.70600 22.21400
H  5.72800 47.67100 23.75800
H  9.17000 50.14700 31.03900
H  11.97500 50.07200 30.24700
H  10.02900 52.03100 30.87200
H  10.35800 52.24900 29.10200
H  11.63700 52.48800 30.33100
H  11.25300 48.08800 31.17400
H  9.73100 47.37700 30.94000
H  9.20700 48.95600 33.11400
H  11.00500 48.84000 33.23000
H  15.77600 49.01100 26.28900
H  14.94900 50.42400 27.10200
H  15.55100 50.55900 25.46200
H  16.51300 48.72200 22.26900
H  16.48000 48.10300 23.92300
H  16.23000 49.88500 23.45000
H  9.67500 46.37600 21.46100
H  7.37000 48.43400 21.73400
H  10.58300 48.98000 20.66200
H  8.95400 48.82500 20.00000
H  10.25200 47.65800 19.65700
H  6.11800 46.28400 22.06900
H  7.54900 45.34100 21.96900
H  5.87400 45.61800 19.94800
H  7.61100 45.31600 19.70400
H  6.99300 47.00300 19.65200
H  3.89900 47.08500 25.09500
H  3.44000 48.50200 25.70900
H  3.54900 47.04400 26.85600
H  6.57000 49.42100 30.66100
H  7.42500 46.63800 33.87500
H  7.91100 45.68300 32.52100
H  6.15100 45.72400 32.99500

