158

Mg 17.17200 51.50800 25.95200
C  18.93200 50.16300 28.66400
C  14.70700 52.53600 28.24400
C  15.40100 52.51200 23.38900
C  19.74900 50.38700 23.85000
N  16.82500 51.31500 28.22600
C  17.71100 50.76000 29.09200
C  17.26000 51.05900 30.56200
C  15.82700 51.72300 30.38000
C  15.80300 51.86500 28.85100
C  14.60600 50.96700 30.95800
C  18.28400 51.90600 31.39200
C  18.57600 51.36400 32.78900
H  17.84100 51.98200 33.89500
N  15.41100 52.32800 25.85100
C  14.48700 52.71200 26.84600
C  13.27600 53.23400 26.23000
C  13.46400 53.26600 24.82000
C  14.80400 52.63900 24.65500
C  12.14800 53.88800 26.95200
C  12.51300 53.82900 23.71900
O  12.92500 53.94300 22.56200
C  11.13900 54.33300 23.96900
N  17.45700 51.27700 23.84800
C  16.58500 51.94200 23.03600
C  17.07300 51.83500 21.59000
C  18.48500 51.18900 21.75600
C  18.61800 50.86700 23.19300
C  16.02500 51.13000 20.71900
C  19.50900 52.15800 20.97900
C  20.82500 51.51700 20.47400
N  18.89400 50.45000 26.11700
C  19.86600 50.07300 25.24000
C  21.00400 49.41500 25.87100
C  20.60800 49.48500 27.21500
C  19.40500 50.09600 27.34600
C  22.21100 48.77600 25.17000
C  21.11900 49.20700 28.59200
O  22.14700 48.64900 28.98400
C  20.05800 49.73100 29.52200
C  19.73500 48.60900 30.34300
O  19.10800 47.61000 29.95600
O  20.30300 48.82700 31.58400
C  20.11200 47.67800 32.47800
H  14.00900 53.01500 28.93400
H  14.91900 52.90400 22.49100
H  20.64200 50.13200 23.27400
H  17.17000 50.08600 31.04500
H  15.87000 52.72100 30.81800
H  13.98400 51.66300 31.52100
H  15.05100 50.27200 31.66900
H  14.15900 50.35300 30.17600
H  17.86600 52.89200 31.59400
H  19.21600 52.09300 30.85800
H  19.58600 51.59600 33.12600
H  18.53500 50.27600 32.75500
H  11.20600 53.43200 26.64500
H  12.05600 54.94800 26.71700
H  12.23100 53.80600 28.03600
H  10.74900 54.66300 23.00600
H  11.35800 55.23300 24.54400
H  10.48700 53.60000 24.44400
H  17.15200 52.83400 21.16300
H  18.60200 50.20600 21.30000
H  16.26400 50.15700 20.28900
H  15.66000 51.86200 19.99900
H  15.20700 50.88500 21.39700
H  19.71800 52.98500 21.65800
H  19.05900 52.40800 20.01800
H  20.71000 51.46400 19.39100
H  21.08600 50.57200 20.95100
H  21.57700 52.25600 20.75200
H  22.47600 47.98800 25.87500
H  23.02900 49.49000 25.25500
H  22.22400 48.45100 24.13000
H  20.58700 50.52100 30.05400
H  20.51400 46.72600 32.13100
H  19.04000 47.54900 32.62500
H  20.55900 47.75200 33.46900
Mg 10.08200 47.30300 25.42300
C  8.17100 47.30900 28.38200
C  12.55400 48.97500 27.14200
C  11.86900 47.06500 22.66300
C  7.11900 46.60300 23.69400
N  10.33000 47.92500 27.60900
C  9.47400 47.81300 28.62400
C  9.95500 48.48200 29.90300
C  11.12700 49.39600 29.31700
C  11.35100 48.76600 27.90400
C  10.85000 50.90700 29.24200
C  10.54800 47.37300 30.91600
C  10.30200 47.34100 32.43500
H  10.51000 45.98700 33.26000
N  12.01200 47.92000 24.98300
C  12.92800 48.46700 25.85200
C  14.19600 48.49200 25.16900
C  14.01400 47.87300 23.90700
C  12.57100 47.59600 23.76700
C  15.43400 48.82900 25.81800
C  14.98400 47.63600 22.76100
O  14.61800 47.29100 21.68700
C  16.38900 47.99300 22.95200
N  9.52700 47.08000 23.43000
C  10.46900 47.00800 22.46200
C  9.92100 46.47300 21.17400
C  8.42400 46.30200 21.49700
C  8.32300 46.70800 22.91300
C  10.13900 47.38400 19.90400
C  7.77800 44.90900 21.20500
C  6.35400 45.04700 20.58800
N  8.06300 46.90000 25.87100
C  7.01000 46.62000 25.07300
C  5.81800 46.40200 25.84200
C  6.25000 46.59200 27.17900
C  7.59600 46.96000 27.12800
C  4.49500 46.13700 25.31800
C  5.80100 46.56200 28.57100
O  4.70000 46.25100 29.05900
C  7.04000 46.99500 29.43500
C  7.41600 45.87900 30.38000
O  8.21300 44.96200 30.14800
O  6.77300 46.04900 31.60200
C  6.93600 44.99400 32.57500
H  13.35700 49.48400 27.68000
H  12.43700 46.69200 21.80900
H  6.16500 46.34100 23.23300
H  9.09600 49.01300 30.31300
H  12.03800 49.42300 29.91500
H  9.83400 51.03700 29.61700
H  10.93100 51.11900 28.17600
H  11.44500 51.55200 29.88900
H  11.63700 47.36700 30.85500
H  10.31200 46.37400 30.54900
H  9.23300 47.52800 32.54300
H  10.77700 48.20400 32.90100
H  16.12800 47.99000 25.87400
H  15.26900 49.19300 26.83200
H  15.86700 49.74000 25.40500
H  16.88100 47.19300 23.50400
H  16.50600 48.95700 23.44700
H  16.80600 47.95800 21.94600
H  10.44400 45.55800 20.89500
H  7.86200 47.05500 20.94400
H  10.46500 48.38400 20.18900
H  9.23100 47.57300 19.33200
H  10.98300 47.05900 19.29500
H  7.90900 44.31700 22.11100
H  8.35100 44.41100 20.42400
H  5.65100 44.26700 20.88000
H  6.26400 44.92200 19.50900
H  5.89200 46.02200 20.74200
H  4.63600 45.73400 24.31500
H  3.96200 47.08800 25.30900
H  4.02100 45.37900 25.94200
H  6.70200 47.84400 30.02900
H  7.14200 45.28600 33.60500
H  7.77500 44.31100 32.44500
H  6.00500 44.43400 32.65500

