158

Mg 36.01900 2.65000 30.07700
C  33.75800 3.49300 32.63900
C  38.38600 2.05400 32.52400
C  38.05900 1.86000 27.61000
C  33.31800 2.99500 27.83300
N  36.01500 2.70600 32.25700
C  35.06700 3.11600 33.11700
C  35.47400 3.14700 34.56800
C  36.99300 3.05400 34.37200
C  37.16900 2.50300 32.94800
C  37.69300 4.44500 34.54400
C  34.79000 1.97400 35.33100
C  34.26300 2.25000 36.71300
H  34.82600 3.47600 37.40700
N  37.96400 2.08000 30.05600
C  38.71700 1.75200 31.18800
C  39.99400 1.24700 30.73800
C  39.96000 1.18900 29.29100
C  38.65800 1.80400 28.90200
C  41.14500 0.82100 31.65500
C  40.95300 0.57200 28.31200
O  40.74200 0.49400 27.09800
C  42.27400 -0.01200 28.77100
N  35.78400 2.60700 28.03700
C  36.77900 2.16400 27.23900
C  36.37700 2.11400 25.82100
C  34.87800 2.40500 25.88900
C  34.63300 2.68000 27.36600
C  37.25800 2.95500 24.85500
C  33.95300 1.40100 25.17100
C  33.61700 0.11300 25.96000
N  33.92400 3.00600 30.15900
C  32.96200 3.20500 29.20900
C  31.70500 3.58800 29.75800
C  32.01700 3.72200 31.10900
C  33.34300 3.39600 31.28800
C  30.53500 4.08400 29.13300
C  31.41600 4.05600 32.33700
O  30.28900 4.34600 32.62300
C  32.48900 3.82900 33.42600
C  32.57100 5.13200 34.15700
O  32.93000 6.25900 33.83800
O  32.18000 4.92400 35.44200
C  31.89200 5.99100 36.38800
H  39.03000 1.78100 33.36200
H  38.67100 1.36900 26.85100
H  32.56400 3.12700 27.05500
H  35.10900 4.08600 34.98300
H  37.46500 2.47800 35.16800
H  38.56200 4.32600 35.19200
H  36.98800 5.17000 34.95000
H  37.91700 4.88700 33.57400
H  35.49200 1.14100 35.28700
H  33.94300 1.60700 34.75100
H  34.53900 1.42200 37.36500
H  33.18300 2.11400 36.76300
H  42.08400 1.28700 31.35800
H  41.17800 -0.26900 31.65100
H  40.88100 1.21600 32.63600
H  42.75900 -0.31900 27.84500
H  42.15300 -0.89400 29.40000
H  42.96500 0.72300 29.18600
H  36.46200 1.04000 25.65000
H  34.70800 3.34400 25.36200
H  38.33500 2.97200 25.02500
H  36.89100 3.97600 24.95500
H  37.21100 2.50700 23.86300
H  34.37300 1.14900 24.19700
H  33.05600 2.00800 25.05100
H  33.76600 -0.70200 25.25100
H  32.56700 0.09700 26.25000
H  34.34800 -0.06600 26.74800
H  30.44600 4.28500 28.06600
H  30.25900 4.95200 29.73200
H  29.84500 3.25100 29.26700
H  32.15900 3.04700 34.11100
H  30.89400 5.77000 36.76700
H  31.91800 7.03200 36.06600
H  32.52700 5.79500 37.25100
Mg 0.52100 43.04100 25.71100
C  2.40800 43.02400 28.61700
C  -2.28700 42.42200 27.69200
C  -1.16800 42.43900 22.90800
C  3.52800 42.89400 23.81800
N  0.07400 42.67200 27.94000
C  1.01200 42.90800 28.93400
C  0.35400 42.81800 30.33000
C  -1.19400 42.56500 29.98300
C  -1.18100 42.53900 28.47900
C  -2.05900 41.42400 30.58500
C  0.67400 44.10800 31.17500
C  1.46000 43.83600 32.52500
H  1.01200 42.63800 33.33300
N  -1.46900 42.57800 25.34700
C  -2.50300 42.42500 26.27000
C  -3.76000 42.30200 25.53100
C  -3.42800 42.19100 24.16100
C  -1.98100 42.41200 24.12300
C  -5.15300 42.18900 26.21900
C  -4.38800 42.14100 22.97800
O  -4.06100 41.90900 21.83300
C  -5.85900 42.44100 23.29700
N  1.11600 42.79400 23.68000
C  0.21400 42.60800 22.66800
C  0.82200 42.60100 21.24200
C  2.31500 42.95100 21.67400
C  2.34000 42.86500 23.15600
C  0.60700 41.27800 20.49100
C  2.86000 44.24100 21.13700
C  2.47800 45.64500 21.77800
N  2.53500 42.97700 26.04300
C  3.68600 42.99900 25.19500
C  4.88100 43.00900 26.00400
C  4.38600 43.02600 27.31700
C  3.00200 42.96600 27.26600
C  6.31500 43.02100 25.44600
C  4.89800 43.04300 28.64700
O  6.04600 43.11100 29.02400
C  3.61500 43.03700 29.50300
C  3.70300 41.79700 30.32800
O  3.14200 40.69100 30.12500
O  4.51300 42.05600 31.43900
C  4.61700 40.98900 32.38600
H  -3.21300 42.19300 28.22200
H  -1.65800 42.13200 21.98100
H  4.40900 42.91300 23.17300
H  0.76000 41.92500 30.80600
H  -1.76600 43.45100 30.25900
H  -2.93700 41.67100 31.18100
H  -1.42400 40.82900 31.24000
H  -2.40800 40.71200 29.83700
H  -0.22900 44.68500 31.37900
H  1.33700 44.77500 30.62400
H  1.21700 44.74700 33.07200
H  2.53100 43.92600 32.34600
H  -5.17600 42.17400 27.30900
H  -5.49000 41.25400 25.77300
H  -5.77100 42.97300 25.78100
H  -6.28500 41.62000 23.87400
H  -6.39200 42.59200 22.35900
H  -5.98600 43.38500 23.82600
H  0.35800 43.39000 20.65000
H  2.99600 42.13200 21.44400
H  0.21000 40.53600 21.18400
H  1.59100 40.90300 20.21100
H  -0.05200 41.40000 19.63100
H  2.46700 44.35800 20.12700
H  3.94000 44.14900 21.02300
H  2.14900 45.42800 22.79400
H  1.61500 46.01400 21.22400
H  3.38100 46.25500 21.79300
H  6.46000 42.78600 24.39200
H  6.78700 42.25500 26.06100
H  6.82400 43.95700 25.67800
H  3.69200 43.80200 30.27500
H  5.00500 40.13000 31.84000
H  3.67400 40.66200 32.82400
H  5.31700 41.33700 33.14600

