158

Mg -2.28600 17.03300 26.11900
C  -2.73800 15.03000 28.89400
C  -2.19300 19.86100 28.19000
C  -2.30600 18.91600 23.24500
C  -2.72000 14.19300 24.04800
N  -2.50800 17.39200 28.28400
C  -2.56700 16.42600 29.26200
C  -2.78600 17.00900 30.69400
C  -2.89500 18.53500 30.38100
C  -2.53500 18.61700 28.83200
C  -4.22500 19.20800 30.68100
C  -1.59700 16.78300 31.69800
C  -2.21800 16.15100 33.00700
H  -1.27200 15.91900 34.18700
N  -2.08400 19.07000 25.73400
C  -2.06200 20.06500 26.76100
C  -1.89900 21.37600 26.09900
C  -2.11700 21.11200 24.63900
C  -2.17600 19.66200 24.45400
C  -1.72700 22.61000 26.84100
C  -2.06300 22.09300 23.47400
O  -2.18000 21.80500 22.26000
C  -1.84100 23.46900 23.86300
N  -2.43800 16.60600 23.97000
C  -2.38100 17.53800 22.94100
C  -2.70500 17.02200 21.54800
C  -2.55300 15.47800 21.85100
C  -2.55900 15.40300 23.36600
C  -4.12700 17.53900 21.13000
C  -1.27200 14.95300 21.19800
C  0.08800 15.33900 21.84000
N  -2.58900 15.01700 26.38600
C  -2.72500 13.95300 25.45800
C  -2.87000 12.70700 26.21000
C  -2.87100 13.04100 27.53600
C  -2.74400 14.47200 27.58400
C  -3.13400 11.39400 25.54600
C  -2.96000 12.56200 28.90600
O  -3.12800 11.40400 29.28100
C  -2.86900 13.79000 29.84400
C  -1.78100 13.45600 30.83300
O  -0.61200 13.73100 30.67400
O  -2.25700 12.76700 31.94100
C  -1.27600 12.51500 32.98600
H  -1.97600 20.70300 28.85000
H  -2.49300 19.49200 22.33600
H  -2.81900 13.34600 23.36600
H  -3.71200 16.58700 31.08500
H  -2.13400 19.07500 30.94500
H  -3.93600 19.96500 31.41000
H  -4.89600 18.54000 31.22000
H  -4.82700 19.60100 29.86200
H  -1.13700 17.72900 31.98300
H  -0.92000 16.15900 31.11400
H  -2.81000 15.25600 32.81600
H  -2.96300 16.91100 33.24300
H  -2.51600 23.29700 26.53600
H  -0.73600 23.05700 26.75600
H  -1.77200 22.48600 27.92300
H  -1.94600 24.09700 22.97900
H  -0.90300 23.54300 24.41300
H  -2.70600 23.75900 24.46000
H  -1.96800 17.29400 20.79200
H  -3.42900 14.95200 21.47200
H  -4.51400 18.39600 21.68000
H  -4.90000 16.77100 21.15700
H  -4.12600 17.75900 20.06200
H  -1.28500 15.13500 20.12300
H  -1.29500 13.87000 21.32000
H  -0.12300 16.07600 22.61500
H  0.71600 15.78000 21.06700
H  0.43200 14.35600 22.16300
H  -3.57500 11.56900 24.56500
H  -3.79700 10.79300 26.16700
H  -2.17000 10.89100 25.47300
H  -3.86800 13.81300 30.28100
H  -1.64800 12.95400 33.91200
H  -0.27100 12.90400 32.82000
H  -1.16200 11.43700 33.09400
Mg 0.12700 43.79000 26.75000
C  2.49800 43.57800 29.24500
C  -2.22700 42.65400 28.78700
C  -1.92000 43.41000 24.00300
C  2.72500 44.33300 24.54000
N  0.15400 43.14200 28.75900
C  1.18500 43.29700 29.66500
C  0.71400 43.00500 31.05800
C  -0.78000 42.54200 30.98500
C  -0.98900 42.79800 29.37400
C  -1.20800 41.18100 31.51400
C  0.81700 44.30700 31.95800
C  0.92600 44.15400 33.51500
H  0.84500 42.67300 34.08500
N  -1.90000 43.13400 26.50300
C  -2.71700 42.71400 27.46600
C  -4.03400 42.55100 26.92200
C  -3.98800 42.77300 25.51700
C  -2.60100 43.15000 25.26300
C  -5.28000 42.49000 27.77100
C  -5.09700 42.84000 24.48800
O  -4.90000 43.28400 23.35100
C  -6.48500 42.40900 24.80400
N  0.39000 43.83200 24.46800
C  -0.62700 43.65600 23.64400
C  -0.13300 43.92900 22.13500
C  1.33100 44.40000 22.34700
C  1.49600 44.12200 23.87000
C  -0.43900 42.79100 21.16500
C  1.69100 45.86500 21.91600
C  1.74300 47.01900 22.96700
N  2.19500 44.06100 26.86900
C  3.13700 44.21000 25.82400
C  4.51000 44.23200 26.34400
C  4.32600 43.93300 27.70300
C  2.89600 43.83800 27.94000
C  5.84100 44.39200 25.50100
C  4.94200 43.58700 29.02800
O  6.09700 43.36100 29.31300
C  3.79000 43.44000 30.05000
C  4.01700 42.05600 30.52300
O  3.87300 40.99600 29.91900
O  4.37600 42.15900 31.85700
C  4.91200 40.93800 32.48300
H  -2.98500 42.30100 29.49000
H  -2.64900 43.40200 23.19000
H  3.52600 44.64100 23.86500
H  1.33400 42.17900 31.40500
H  -1.34800 43.31800 31.50000
H  -1.58900 40.60800 30.66800
H  -2.03800 41.27600 32.21300
H  -0.44900 40.56200 31.99400
H  -0.07100 44.93900 31.97300
H  1.63000 45.00000 31.74200
H  0.03200 44.56700 33.98400
H  1.76900 44.70900 33.92500
H  -6.23900 42.80200 27.35800
H  -5.11700 42.98800 28.72600
H  -5.51600 41.44000 27.94600
H  -6.91500 42.13400 23.84100
H  -7.15500 43.17800 25.19000
H  -6.48200 41.51100 25.42000
H  -0.78200 44.75800 21.85100
H  2.01200 43.66400 21.92100
H  -0.36400 41.87400 21.74900
H  0.29300 42.67000 20.36600
H  -1.45300 43.01800 20.83800
H  0.92300 46.17800 21.20800
H  2.65200 45.84100 21.40300
H  2.77500 47.36500 23.02200
H  1.40400 46.75400 23.96900
H  1.11600 47.81100 22.55800
H  6.47800 43.54300 25.74900
H  6.30000 45.36900 25.65500
H  5.57500 44.39500 24.44400
H  3.72700 44.04500 30.95500
H  5.97100 41.04400 32.71900
H  4.94900 40.10300 31.78400
H  4.22500 40.74700 33.30800

