158

Mg 46.82600 24.39700 28.53400
C  47.70300 26.81000 31.04500
C  45.95600 22.30900 31.07300
C  46.67400 22.01300 26.29900
C  48.40200 26.39900 26.21700
N  46.78700 24.61400 30.81600
C  47.09500 25.71000 31.67100
C  46.71700 25.41900 33.10000
C  46.37500 23.89200 33.06300
C  46.22400 23.59900 31.56200
C  47.39800 22.92600 33.81100
C  45.72400 26.42500 33.76400
C  46.15800 27.28400 34.93200
H  45.11300 27.56800 35.99900
N  46.17300 22.52900 28.63500
C  45.91600 21.87900 29.80400
C  45.57300 20.50300 29.44000
C  45.65300 20.40500 27.96500
C  46.23100 21.66400 27.56000
C  44.93500 19.51400 30.35900
C  45.35600 19.19900 27.00700
O  45.40700 19.22500 25.80300
C  44.92000 17.81700 27.52200
N  47.58600 24.18300 26.50100
C  47.23000 23.18600 25.81700
C  47.60000 23.28100 24.36200
C  48.02800 24.78200 24.20900
C  47.93500 25.18800 25.75300
C  48.64400 22.14700 23.89700
C  47.18600 25.61000 23.16600
C  45.76300 26.17100 23.52900
N  47.84900 26.22100 28.58400
C  48.35000 26.94200 27.52300
C  48.78300 28.24600 27.93300
C  48.57900 28.15700 29.30000
C  47.98800 26.97700 29.65100
C  49.47900 29.30400 27.18700
C  48.93000 28.90300 30.49600
O  49.67300 29.88100 30.59500
C  48.28700 28.06600 31.71000
C  49.32300 27.70900 32.81000
O  50.25900 26.99400 32.69300
O  49.03300 28.44200 33.94000
C  49.88400 28.22000 35.12800
H  45.86200 21.61300 31.90900
H  46.47800 21.31200 25.48500
H  48.74500 27.21700 25.58000
H  47.69000 25.64000 33.53800
H  45.36000 23.80200 33.45000
H  46.99300 22.47800 34.71800
H  48.24100 23.53300 34.14200
H  47.81600 22.16500 33.15200
H  44.96600 25.80300 34.23900
H  45.40200 26.96600 32.87400
H  46.48500 28.20400 34.44700
H  47.08200 26.81300 35.26800
H  45.34200 18.50400 30.30800
H  43.88400 19.51800 30.06900
H  45.09800 19.78600 31.40200
H  44.14300 18.04000 28.25300
H  45.75800 17.41000 28.08800
H  44.30800 17.25400 26.81800
H  46.63400 23.23600 23.86100
H  49.09600 24.83000 23.99700
H  49.54000 22.58600 23.45800
H  48.15800 21.67300 23.04400
H  48.99300 21.36000 24.56600
H  47.12400 24.99400 22.26900
H  47.75000 26.51200 22.93200
H  45.06200 25.90400 22.73900
H  45.94200 27.24300 23.60000
H  45.44400 25.57700 24.38600
H  49.45900 28.96900 26.15000
H  50.49900 29.50600 27.51400
H  48.99000 30.27400 27.27900
H  47.35900 28.51100 32.07000
H  49.69100 27.21400 35.50000
H  49.65500 28.99400 35.86100
H  50.92200 28.27400 34.79900
Mg -1.58500 34.51100 26.70800
C  -3.28900 32.54300 28.99800
C  -0.85100 36.66500 29.24600
C  -0.14600 36.69400 24.45600
C  -2.76700 32.56500 24.23200
N  -2.18300 34.63400 28.90600
C  -2.76100 33.66200 29.63900
C  -2.59800 33.89700 31.14100
C  -1.84900 35.27600 31.22900
C  -1.59700 35.56300 29.69200
C  -2.60100 36.49100 31.93600
C  -1.68900 32.75300 31.80800
C  -2.16900 32.30200 33.23200
H  -1.13000 32.44500 34.38600
N  -0.47400 36.37400 26.88900
C  -0.31800 37.08400 28.00900
C  0.50000 38.25900 27.67600
C  0.75000 38.26900 26.30100
C  0.08000 37.07200 25.83300
C  1.03400 39.23800 28.74400
C  1.40300 39.42700 25.37900
O  1.25500 39.43700 24.14200
C  2.05100 40.60600 26.04400
N  -1.49300 34.73500 24.62600
C  -0.77100 35.60200 23.90300
C  -0.92600 35.34900 22.44600
C  -1.58300 33.94600 22.36300
C  -2.02800 33.73700 23.82400
C  -1.81900 36.48200 21.75400
C  -0.61400 32.81400 21.85800
C  0.61800 32.32300 22.69800
N  -2.86800 32.89300 26.58000
C  -3.27700 32.20000 25.49900
C  -4.10200 31.09000 25.76400
C  -4.08300 31.11600 27.18600
C  -3.35600 32.24100 27.62300
C  -4.70300 30.25300 24.79300
C  -4.56600 30.44500 28.37400
O  -5.23700 29.45800 28.58500
C  -4.05400 31.29200 29.59600
C  -5.15700 31.56800 30.63400
O  -6.11500 32.26500 30.39500
O  -4.83800 31.07700 31.86100
C  -5.86900 31.38000 32.83600
H  -0.57000 37.29500 30.09300
H  0.35200 37.28200 23.68200
H  -2.99600 31.73700 23.55800
H  -3.55700 33.95300 31.65600
H  -0.92100 35.19200 31.79500
H  -3.25000 36.83400 31.13000
H  -1.93400 37.23200 32.37700
H  -3.11700 36.10800 32.81600
H  -0.67100 33.13300 31.90100
H  -1.63500 31.88400 31.15200
H  -2.48800 31.28700 32.99400
H  -3.08800 32.80800 33.52800
H  0.67000 40.22500 28.46000
H  2.12200 39.19500 28.80500
H  0.61900 39.02000 29.72800
H  1.15800 41.13800 26.36900
H  2.51800 41.15100 25.22400
H  2.67500 40.22500 26.85200
H  0.01800 35.38100 21.90200
H  -2.52500 33.81200 21.83000
H  -1.27100 37.17800 21.11900
H  -2.28700 37.18900 22.44000
H  -2.58100 35.98100 21.15700
H  -0.37800 33.16900 20.85500
H  -1.24900 31.98200 21.55500
H  0.34400 31.35300 23.11400
H  0.88600 32.87000 23.60200
H  1.46600 32.22800 22.02000
H  -5.59200 29.79300 25.22300
H  -3.90600 29.55500 24.53700
H  -4.85000 30.88100 23.91400
H  -3.29400 30.72000 30.12900
H  -6.53400 30.52800 32.70000
H  -6.39700 32.32600 32.71900
H  -5.41200 31.35400 33.82600

