158

Mg 30.04900 59.09500 39.99700
C  27.00900 57.58600 38.76300
C  31.62700 56.30200 39.14900
C  32.87500 60.94600 40.12600
C  28.12100 62.08600 40.15800
N  29.36100 57.18200 39.13000
C  28.12700 56.75300 38.62200
C  28.23600 55.29000 38.10500
C  29.58600 54.82400 38.74800
C  30.22600 56.19800 39.04900
C  29.32400 53.97600 39.98500
C  28.30400 55.11400 36.51800
C  27.15700 54.33300 35.82400
H  26.08400 55.15900 35.17800
N  31.99700 58.63000 39.81500
C  32.45800 57.48600 39.35800
C  33.86200 57.50900 39.33500
C  34.29900 58.81100 39.69100
C  33.04100 59.53000 39.91600
C  34.66700 56.30100 38.90600
C  35.73900 59.24800 39.84200
O  36.61400 58.45900 39.57700
C  36.15700 60.53100 40.35700
N  30.42500 61.29600 39.98500
C  31.68300 61.72700 40.13500
C  31.65900 63.21900 40.37300
C  30.19700 63.68700 40.27800
C  29.52200 62.31000 40.19200
C  32.45500 63.54600 41.68500
C  29.86600 64.56800 39.03700
C  30.30600 66.07000 39.16400
N  27.95600 59.65500 39.83500
C  27.42100 60.87900 39.93100
C  26.00600 60.83800 39.55800
C  25.75700 59.46800 39.32000
C  26.97100 58.81800 39.35600
C  25.04600 61.94000 39.34500
C  24.75200 58.50300 38.91100
O  23.55600 58.66600 38.80200
C  25.58600 57.19700 38.52600
C  25.12500 56.10000 39.44100
O  25.21800 56.13600 40.66600
O  24.65500 55.03000 38.71700
C  24.40500 53.79300 39.55700
H  32.19900 55.40800 38.89100
H  33.76400 61.57500 40.20600
H  27.43200 62.92700 40.06100
H  27.35800 54.72500 38.41900
H  30.26200 54.33800 38.04400
H  29.77700 54.59000 40.76400
H  29.93300 53.07500 40.05500
H  28.28600 53.69100 40.15600
H  29.27100 54.67800 36.26800
H  28.27600 56.09200 36.03900
H  26.82900 53.60300 36.56400
H  27.61800 53.73300 35.03900
H  35.10100 55.83500 39.79000
H  35.48400 56.61500 38.25600
H  34.14300 55.53700 38.33100
H  37.24300 60.47700 40.44000
H  35.74300 60.53200 41.36500
H  35.76000 61.34600 39.75100
H  32.18600 63.55500 39.48000
H  29.89700 64.19100 41.19600
H  31.72900 63.85400 42.43800
H  33.14400 64.37400 41.51700
H  32.99400 62.70000 42.11100
H  28.78700 64.57700 38.88200
H  30.17300 64.06400 38.12000
H  29.45600 66.75200 39.18900
H  30.75200 66.32400 38.20300
H  30.96000 66.22200 40.02300
H  24.06500 61.64400 38.97500
H  25.58400 62.58900 38.65400
H  25.03700 62.50400 40.27800
H  25.43600 56.97700 37.46900
H  23.96000 53.05100 38.89400
H  23.66700 53.98000 40.33800
H  25.26100 53.33600 40.05400
Mg -9.51700 17.68900 42.24100
C  -6.16300 17.27100 42.55400
C  -9.11200 20.96800 41.45200
C  -12.85500 17.89300 41.40800
C  -9.85800 14.16400 42.20800
N  -7.81400 18.92300 42.07000
C  -6.52300 18.61200 42.36600
C  -5.59300 19.87100 42.27300
C  -6.64400 20.99600 42.29400
C  -7.95700 20.26800 41.91000
C  -6.73400 21.72400 43.70700
C  -4.70000 19.84400 40.94700
C  -5.03200 18.77000 39.91000
H  -4.62000 19.15300 38.52800
N  -10.78100 19.25000 41.57400
C  -10.39200 20.46100 41.20600
C  -11.55000 21.26600 40.82000
C  -12.68600 20.46600 40.91900
C  -12.12600 19.12100 41.29700
C  -11.41500 22.73500 40.40200
C  -14.11000 20.87000 40.76700
O  -14.42800 22.04100 40.52400
C  -15.38300 19.94700 40.93800
N  -11.10100 16.26200 41.84600
C  -12.39300 16.63100 41.74800
C  -13.35400 15.45900 41.72300
C  -12.36200 14.22500 41.84100
C  -10.95900 14.88200 41.98500
C  -14.36700 15.47600 42.87700
C  -12.33400 13.39100 40.46700
C  -12.83600 11.86900 40.51200
N  -8.28100 16.03400 42.40400
C  -8.55400 14.67000 42.45100
C  -7.30600 13.97600 42.67900
C  -6.33800 14.93300 42.85300
C  -7.01100 16.17000 42.64200
C  -7.09800 12.47000 42.74100
C  -4.94600 15.28400 43.04500
O  -3.96400 14.58000 43.12200
C  -4.79500 16.85000 42.99400
C  -4.43300 17.33100 44.35000
O  -3.43600 17.99300 44.54300
O  -5.41300 16.96900 45.25200
C  -5.08100 17.28600 46.71100
H  -9.08700 22.05900 41.42800
H  -13.86500 17.81900 41.00000
H  -10.00000 13.08400 42.27700
H  -4.81900 19.90600 43.04000
H  -6.58300 21.70400 41.46700
H  -5.91100 21.58700 44.40900
H  -7.68500 21.50100 44.19000
H  -6.60800 22.78000 43.46700
H  -3.68300 19.70800 41.31400
H  -4.90200 20.82000 40.50400
H  -6.08100 18.47300 39.90500
H  -4.51000 17.83800 40.12600
H  -10.75800 22.80200 39.53500
H  -11.12800 23.32800 41.27100
H  -12.34300 23.23800 40.12700
H  -15.45700 19.02300 40.36500
H  -16.21200 20.57300 40.60800
H  -15.50000 19.72700 41.99900
H  -14.02200 15.46200 40.86200
H  -12.70400 13.61500 42.67700
H  -14.52000 14.53200 43.39900
H  -15.31600 15.85600 42.49900
H  -14.00400 16.15000 43.65300
H  -11.31700 13.34700 40.07700
H  -12.89900 13.92900 39.70500
H  -13.13400 11.61300 41.52900
H  -12.00700 11.24300 40.18000
H  -13.71100 11.93600 39.86600
H  -7.37500 12.34700 43.78800
H  -6.08800 12.14200 42.49700
H  -7.72400 11.77700 42.17900
H  -4.05500 17.12700 42.24300
H  -5.96400 17.80000 47.09200
H  -4.26100 17.99600 46.81900
H  -4.91200 16.33600 47.21700

