158

Mg 53.47200 24.21000 44.47800
C  50.74100 26.21400 43.42800
C  51.90400 21.47600 43.12000
C  56.40700 22.57000 44.44700
C  54.96700 27.08900 45.67400
N  51.74100 23.97500 43.03300
C  50.68000 24.86400 42.92800
C  49.57100 24.24700 42.07500
C  49.75700 22.76700 42.43300
C  51.24900 22.72300 42.85100
C  48.87700 21.98300 43.34300
C  49.68400 24.61500 40.53500
C  48.39600 24.98500 39.74700
H  47.96500 24.12400 38.61200
N  54.05800 22.29300 43.90900
C  53.26300 21.29300 43.34600
C  53.93900 19.97500 43.32400
C  55.22900 20.33900 43.77300
C  55.28000 21.79000 44.11500
C  53.28700 18.68100 42.88000
C  56.34800 19.26200 43.89700
O  56.19000 18.19000 43.42300
C  57.73600 19.50400 44.48800
N  55.45200 24.76500 45.07500
C  56.44600 23.90400 44.87100
C  57.81500 24.70100 44.90900
C  57.34700 26.17000 45.15900
C  55.83500 26.05200 45.25500
C  58.86000 24.18100 45.96200
C  57.93600 27.18300 44.09100
C  58.25200 28.59600 44.60900
N  53.00000 26.22300 44.65300
C  53.66500 27.19200 45.34700
C  52.84200 28.41300 45.34700
C  51.65900 28.02800 44.65100
C  51.83200 26.71700 44.14000
C  53.16600 29.70300 45.93300
C  50.22400 28.44400 44.34500
O  49.62500 29.47700 44.57900
C  49.58200 27.21700 43.54200
C  49.14500 27.68500 42.25600
O  49.87300 27.95300 41.31500
O  47.77200 27.86000 42.25000
C  47.21100 28.42500 40.97200
H  51.26400 20.60000 42.99900
H  57.30900 22.00000 44.21600
H  55.32200 28.03900 46.07800
H  48.62500 24.58500 42.49700
H  49.65700 22.13800 41.54900
H  48.85200 20.92500 43.08200
H  47.89300 22.45100 43.31700
H  49.23900 22.11000 44.36300
H  50.12600 23.79400 39.97100
H  50.41500 25.39700 40.32600
H  48.50500 25.96400 39.28000
H  47.61200 25.04100 40.50300
H  52.56300 18.80400 42.07500
H  52.66300 18.23100 43.65300
H  53.95800 17.89300 42.53900
H  58.37300 20.16100 43.89600
H  58.26900 18.55500 44.42100
H  57.60500 19.72000 45.54900
H  58.24300 24.68100 43.90600
H  57.64800 26.55000 46.13500
H  58.38100 23.67300 46.79900
H  59.52200 24.99500 46.25900
H  59.66500 23.53800 45.60600
H  57.24600 27.26200 43.25100
H  58.85400 26.77200 43.67100
H  57.66900 29.28200 43.99400
H  59.30000 28.82200 44.41200
H  57.99000 28.68400 45.66300
H  53.27200 30.40000 45.10100
H  54.04300 29.61300 46.57300
H  52.37900 30.03000 46.61300
H  48.78800 26.83400 44.18300
H  47.09100 27.69400 40.17300
H  47.78500 29.29100 40.64000
H  46.16700 28.72300 41.06500
Mg 41.47600 41.29700 26.56900
C  40.82300 43.71400 29.11700
C  42.31800 39.27000 29.16700
C  42.46300 39.13700 24.26400
C  40.97900 43.73300 24.15800
N  41.69000 41.51500 28.85100
C  41.24800 42.53100 29.68600
C  41.60200 42.22000 31.15400
C  42.05300 40.76500 31.12000
C  41.98200 40.51400 29.59600
C  43.48100 40.53700 31.84100
C  40.32300 42.32000 32.09200
C  40.22200 41.53600 33.47700
H  39.46700 42.18100 34.66900
N  42.31000 39.47500 26.63400
C  42.51300 38.80000 27.83400
C  42.97900 37.44500 27.52500
C  43.07100 37.39100 26.13700
C  42.64000 38.69100 25.63600
C  43.39800 36.36100 28.61100
C  43.63200 36.24500 25.23000
O  43.71500 36.31300 23.98800
C  44.15200 35.07900 25.91500
N  41.86500 41.43600 24.49300
C  42.17300 40.35400 23.67600
C  42.06200 40.67600 22.14700
C  41.36400 42.07700 22.21900
C  41.44800 42.44600 23.71300
C  43.45800 40.65300 21.42000
C  39.86500 42.08600 21.86900
C  38.84000 41.11100 22.58300
N  41.08600 43.28000 26.56600
C  40.85600 44.10900 25.52800
C  40.65300 45.49800 26.04300
C  40.52600 45.32400 27.43600
C  40.78600 43.97200 27.72100
C  40.47600 46.80300 25.31900
C  40.14100 46.02000 28.64700
O  39.86100 47.18400 28.86700
C  40.38400 44.96400 29.74500
C  41.26600 45.43400 30.83400
O  42.48800 45.50500 30.85200
O  40.47000 45.90700 31.82800
C  41.15900 46.67900 32.96900
H  42.49200 38.59700 30.00900
H  43.01000 38.51000 23.55700
H  40.95400 44.50100 23.38200
H  42.37900 42.91300 31.47800
H  41.30400 40.17400 31.64600
H  44.26900 40.49700 31.08900
H  43.49300 39.75600 32.60100
H  43.71600 41.40100 32.46300
H  39.56000 41.93900 31.41400
H  40.14200 43.38100 32.26600
H  41.23600 41.27600 33.77800
H  39.71900 40.61500 33.17900
H  43.28700 36.78300 29.61000
H  44.44100 36.06100 28.51000
H  42.80400 35.44800 28.57400
H  44.86800 35.42800 26.65900
H  44.71000 34.46500 25.20800
H  43.31700 34.60300 26.42800
H  41.45800 39.94200 21.61400
H  41.88800 42.83500 21.63700
H  44.30900 40.34700 22.02900
H  43.64800 41.67800 21.10300
H  43.28000 39.90800 20.64400
H  39.85400 41.80700 20.81600
H  39.39300 43.06700 21.93300
H  37.79700 41.39500 22.72700
H  39.28100 40.62500 23.45300
H  38.78200 40.26600 21.89600
H  39.51800 47.27900 25.52800
H  40.49000 46.72300 24.23200
H  41.32600 47.42800 25.59100
H  39.37800 44.87200 30.15400
H  42.21000 46.93000 32.82900
H  41.13300 45.95200 33.78100
H  40.57700 47.55500 33.25400

