158

Mg 30.57500 59.80500 39.67800
C  27.76000 58.07900 38.74200
C  32.44800 56.84900 39.00800
C  33.40300 61.67900 39.65800
C  28.63000 62.64600 39.85900
N  30.10600 57.70800 38.94700
C  28.92200 57.27500 38.59200
C  28.94400 55.83100 38.10000
C  30.43100 55.38200 38.30200
C  31.06500 56.72400 38.84100
C  30.61300 54.15200 39.21700
C  28.55300 55.68900 36.52100
C  27.38300 54.72100 36.06100
H  26.69400 55.06000 34.76500
N  32.66900 59.31100 39.44500
C  33.21200 58.04100 39.20400
C  34.64200 58.16000 39.16100
C  34.90200 59.53500 39.28100
C  33.60100 60.24600 39.35700
C  35.46700 56.94100 38.99400
C  36.31300 60.23200 39.21600
O  37.35600 59.57200 39.02700
C  36.55800 61.68200 39.35700
N  30.98800 62.04000 39.61000
C  32.26100 62.47400 39.75800
C  32.13200 64.03700 39.92700
C  30.64000 64.35800 40.13800
C  30.00500 62.95200 39.90700
C  33.18500 64.62600 40.99500
C  30.01400 65.39900 39.18200
C  29.16800 66.51400 39.78100
N  28.51700 60.27400 39.54500
C  27.89500 61.45200 39.60800
C  26.46500 61.27600 39.52000
C  26.33400 59.91400 39.19300
C  27.59500 59.41300 39.16200
C  25.35100 62.27400 39.49500
C  25.35000 58.90200 38.77400
O  24.12400 59.04500 38.66900
C  26.30600 57.63100 38.45400
C  25.93300 56.47500 39.40300
O  26.42900 56.26000 40.51300
O  24.80900 55.82300 38.87900
C  24.04200 54.98400 39.74700
H  33.04900 55.95800 38.81500
H  34.28900 62.31400 39.58300
H  28.04100 63.51400 40.16200
H  28.26700 55.17100 38.64200
H  30.87200 55.19400 37.32300
H  31.19800 53.43800 38.63800
H  29.66800 53.66900 39.46400
H  31.22400 54.28600 40.11000
H  29.40900 55.28500 35.98100
H  28.42000 56.70700 36.15300
H  26.57300 54.55200 36.77200
H  27.71600 53.68300 36.06800
H  36.54300 57.11500 38.98000
H  35.12200 56.21300 38.25900
H  35.29000 56.36300 39.90100
H  37.63400 61.83100 39.26500
H  36.19500 62.12300 40.28600
H  36.20900 62.21600 38.47300
H  32.37700 64.60500 39.02900
H  30.37100 64.62400 41.16100
H  33.93800 65.22100 40.47800
H  33.64300 63.89400 41.66000
H  32.55600 65.32100 41.55000
H  29.34800 64.83500 38.52900
H  30.73000 65.77800 38.45200
H  29.87900 67.34000 39.78900
H  28.86200 66.16800 40.76800
H  28.32500 66.71000 39.11800
H  24.47900 61.77700 39.92100
H  24.98600 62.43100 38.48000
H  25.62100 63.14300 40.09500
H  26.14500 57.27000 37.43800
H  23.32100 55.65400 40.21400
H  24.72700 54.62600 40.51600
H  23.57600 54.12200 39.27000
Mg -1.45700 34.55800 26.51000
C  -3.16300 33.03200 28.93700
C  -0.24400 36.81400 28.75900
C  -0.35400 36.58600 23.83800
C  -3.06400 32.57100 24.10900
N  -1.75700 34.91300 28.55500
C  -2.37100 34.07400 29.45300
C  -1.99300 34.33200 30.91300
C  -1.11800 35.62500 30.83800
C  -0.99500 35.79000 29.26900
C  -1.62600 37.02500 31.56500
C  -1.38600 33.07100 31.57800
C  -2.00700 32.70000 32.98300
H  -1.07300 32.53500 34.16200
N  -0.44500 36.44100 26.33300
C  -0.05700 37.17000 27.39100
C  0.69700 38.32500 26.92000
C  0.85000 38.23700 25.54300
C  -0.03600 37.04300 25.16500
C  1.24500 39.37900 27.93300
C  1.60800 39.18300 24.68500
O  1.54900 39.18800 23.45100
C  2.55600 40.26700 25.29900
N  -1.75500 34.68600 24.25800
C  -1.11600 35.47300 23.40900
C  -1.33600 35.13700 21.92900
C  -2.05800 33.74400 22.06900
C  -2.36000 33.61800 23.59600
C  -2.14000 36.24000 21.17800
C  -1.31000 32.58000 21.55200
C  0.10300 32.38300 22.15600
N  -2.79900 33.07800 26.46400
C  -3.34300 32.34400 25.47300
C  -4.27700 31.34800 25.98900
C  -4.18200 31.53100 27.39400
C  -3.35400 32.63600 27.58400
C  -4.99200 30.47800 25.12500
C  -4.62600 31.04100 28.65000
O  -5.52300 30.19700 28.88000
C  -3.87200 31.86900 29.74500
C  -4.77400 32.30600 30.82100
O  -5.51500 33.29200 30.79200
O  -4.79100 31.31000 31.73700
C  -5.78900 31.56400 32.83700
H  0.26700 37.56200 29.36800
H  0.18800 37.11200 23.04900
H  -3.37000 31.83800 23.35900
H  -2.80100 34.72700 31.52900
H  -0.09400 35.39100 31.12800
H  -2.41800 36.91500 32.30500
H  -1.92200 37.82300 30.88500
H  -0.77100 37.45200 32.08900
H  -0.34500 33.25900 31.84300
H  -1.52000 32.22800 30.90000
H  -2.41100 31.69500 32.86500
H  -2.90400 33.28300 33.19300
H  0.79500 39.33600 28.92500
H  0.99900 40.39600 27.62700
H  2.33300 39.31500 27.94800
H  3.25200 39.74100 25.95200
H  1.90900 40.99700 25.78500
H  3.06700 40.82500 24.51300
H  -0.34400 34.95700 21.51400
H  -3.00900 33.71700 21.53700
H  -2.85600 35.87100 20.44300
H  -1.57000 36.78000 20.42100
H  -2.60700 36.99000 21.81600
H  -1.33100 32.88500 20.50600
H  -1.90300 31.66500 21.57000
H  0.18800 31.30100 22.25300
H  0.17800 32.83600 23.14500
H  0.81500 32.78500 21.43500
H  -4.21500 30.06200 24.48400
H  -5.70700 31.01500 24.50200
H  -5.43800 29.64500 25.66800
H  -3.17800 31.12500 30.13500
H  -6.63600 32.02600 32.33000
H  -5.34300 32.29200 33.51600
H  -6.13300 30.65600 33.33000

