158

Mg 36.09200 2.01300 28.61500
C  33.97500 3.17500 31.34300
C  38.60300 2.16300 30.90100
C  38.05800 1.34300 26.09200
C  33.32900 2.16300 26.52900
N  36.14700 2.60200 30.80900
C  35.24700 2.91000 31.76800
C  35.74600 2.85400 33.24100
C  37.29700 3.05400 32.94800
C  37.39400 2.45000 31.47600
C  37.91000 4.47700 33.15200
C  35.26100 1.61100 34.08400
C  35.00900 1.92700 35.58700
H  35.68300 3.24700 36.14000
N  38.06500 1.63800 28.49000
C  38.93500 1.81000 29.55200
C  40.26700 1.49000 29.06400
C  40.18300 1.33600 27.64700
C  38.73700 1.39200 27.36000
C  41.45100 1.42300 29.96700
C  41.26200 1.01200 26.62900
O  40.90800 0.75200 25.47300
C  42.72200 0.92400 27.01400
N  35.73800 1.56900 26.64500
C  36.68300 1.36300 25.74000
C  36.16400 1.24900 24.31600
C  34.67100 1.27800 24.47300
C  34.50100 1.65600 25.97400
C  36.78200 2.35500 23.38200
C  33.85600 0.01800 24.24600
C  32.58500 0.21500 23.30400
N  34.10900 2.62700 28.83200
C  33.06600 2.56000 27.87500
C  31.88700 3.12800 28.45000
C  32.13500 3.29400 29.83500
C  33.50700 2.96400 30.03200
C  30.64500 3.39900 27.55800
C  31.62100 3.85500 31.07600
O  30.63300 4.51300 31.24900
C  32.69400 3.54500 32.13400
C  32.85700 4.81000 32.94300
O  33.65100 5.66700 32.81700
O  31.94100 4.73100 33.97700
C  31.95400 5.76500 34.94500
H  39.45500 2.20300 31.58300
H  38.64900 1.14900 25.19500
H  32.48300 2.47100 25.91100
H  35.35900 3.75800 33.70900
H  37.99100 2.45900 33.54200
H  37.13300 5.11100 33.57900
H  38.28400 4.87200 32.20700
H  38.72000 4.39700 33.87700
H  36.09900 0.93100 33.93000
H  34.43200 1.03800 33.66900
H  35.15300 1.07600 36.25300
H  33.93200 2.08500 35.52700
H  41.30400 1.29800 31.04000
H  42.06300 2.31700 29.85000
H  41.92500 0.52000 29.58100
H  42.92200 1.70000 27.75300
H  43.35900 1.05000 26.13900
H  42.89100 -0.06700 27.43400
H  36.44200 0.24400 23.99800
H  34.31500 2.12300 23.88300
H  37.54600 2.99200 23.82900
H  35.97100 2.97500 23.00100
H  37.35500 1.87200 22.59000
H  33.48000 -0.47500 25.14300
H  34.48900 -0.72100 23.75400
H  31.67500 0.09900 23.89300
H  32.50500 -0.50000 22.48600
H  32.60000 1.20800 22.85300
H  30.39800 2.42300 27.14100
H  30.97900 4.09600 26.78900
H  29.70900 3.66400 28.05000
H  32.29900 2.71400 32.71800
H  30.97000 6.03600 35.32800
H  32.64600 6.58500 34.74700
H  32.52400 5.22600 35.70100
Mg 5.83900 54.62000 40.64400
C  5.73800 51.03600 40.43900
C  9.19500 54.29800 39.62800
C  5.85700 57.86500 40.10400
C  2.50600 54.69000 41.29400
N  7.26600 52.81800 40.00500
C  6.99200 51.50100 39.97600
C  8.22500 50.67400 39.51900
C  9.38200 51.72400 39.60900
C  8.57500 53.04700 39.70100
C  10.32000 51.62700 40.92900
C  8.16700 49.88700 38.15800
C  7.99400 50.72800 36.83200
H  6.72300 50.58200 36.02000
N  7.30200 55.90800 40.05400
C  8.63600 55.61900 39.82100
C  9.42800 56.83700 39.64100
C  8.52600 57.84700 39.84500
C  7.15300 57.27800 39.96000
C  10.83800 56.93100 39.14100
C  8.86800 59.29400 39.97500
O  10.06400 59.56200 39.94200
C  7.82900 60.31600 40.22300
N  4.24000 56.06500 40.32800
C  4.58500 57.34800 40.36300
C  3.35900 58.25000 40.69400
C  2.24900 57.16200 40.79100
C  3.02700 55.89200 40.89500
C  3.67800 59.00400 42.11000
C  1.26300 57.11900 39.56900
C  -0.16300 57.61600 39.87000
N  4.33400 53.17100 40.88900
C  3.03500 53.38500 41.26100
C  2.44800 52.04900 41.50600
C  3.49600 51.14700 41.25100
C  4.61800 51.83800 40.83700
C  1.19000 51.58400 42.09300
C  3.90300 49.70200 41.26200
O  3.23800 48.71200 41.64500
C  5.34300 49.57700 40.64700
C  5.00100 48.88500 39.34200
O  4.58100 49.39000 38.28300
O  5.29000 47.54500 39.50400
C  4.81700 46.64300 38.37400
H  10.18700 54.34900 39.17400
H  5.83000 58.95200 40.00000
H  1.49000 54.72000 41.69400
H  8.37800 49.93100 40.30200
H  10.02000 51.73500 38.72600
H  11.33100 51.51100 40.53800
H  10.06700 50.79400 41.58500
H  10.31700 52.51400 41.56200
H  7.39600 49.12200 38.24200
H  9.09600 49.33100 38.02700
H  8.90300 50.53000 36.26300
H  7.95800 51.79200 37.06400
H  10.97500 57.70300 38.38300
H  11.35000 56.00100 38.89200
H  11.49300 57.23500 39.95800
H  8.29900 61.26800 40.47000
H  7.22200 60.01400 41.07700
H  7.19800 60.39800 39.33800
H  3.18300 58.89600 39.83400
H  1.62800 57.36300 41.66500
H  2.92900 59.79500 42.13400
H  4.69600 59.38500 42.19500
H  3.42500 58.44600 43.01100
H  1.10900 56.07600 39.29400
H  1.80000 57.69000 38.81100
H  -0.85400 56.83700 39.54700
H  -0.37500 58.55300 39.35500
H  -0.23900 57.82300 40.93800
H  0.62400 52.50400 42.24400
H  1.36700 51.06600 43.03600
H  0.84700 50.92500 41.29600
H  6.06200 48.98100 41.20900
H  3.73900 46.64300 38.21600
H  5.04500 45.60400 38.61100
H  5.27000 47.06100 37.47400

