158

Mg -0.28700 7.32000 25.23200
C  0.56800 9.47700 27.91200
C  0.21100 4.69600 27.48400
C  -0.80900 5.36200 22.63200
C  0.51600 9.92900 23.03900
N  0.15400 7.16000 27.45700
C  0.26400 8.16200 28.33300
C  0.48900 7.63800 29.81000
C  0.64800 6.09100 29.59900
C  0.31300 5.98900 28.07200
C  2.07100 5.52900 29.79200
C  -0.70300 8.00600 30.64200
C  -0.61500 7.64500 32.10900
H  0.77600 7.86200 32.69100
N  -0.32500 5.30900 25.06400
C  -0.07900 4.38800 26.07700
C  -0.23300 3.07100 25.42500
C  -0.57300 3.22600 24.06200
C  -0.60400 4.65800 23.90900
C  0.07700 1.86700 26.22400
C  -0.98000 2.21000 23.03300
O  -1.26200 2.50100 21.83900
C  -0.93300 0.80800 23.31900
N  -0.19700 7.62900 23.07100
C  -0.53400 6.66700 22.21900
C  -0.78800 7.19000 20.82500
C  -0.39200 8.74800 20.91100
C  0.06200 8.78500 22.39300
C  0.03600 6.45400 19.67200
C  -1.47400 9.83700 20.53200
C  -2.65700 9.82800 21.43800
N  0.28700 9.29700 25.38500
C  0.52700 10.24800 24.38100
C  0.91000 11.58700 24.99800
C  0.91200 11.26900 26.37400
C  0.54900 9.95100 26.54000
C  1.14700 12.95500 24.33900
C  1.10500 11.83600 27.66100
O  1.40900 12.97500 28.00700
C  0.88200 10.69200 28.75000
C  2.10400 10.54400 29.49000
O  3.20200 10.26100 28.99200
O  1.83900 10.77100 30.80800
C  2.98400 11.03600 31.67200
H  0.26200 3.85600 28.18000
H  -0.92000 4.84500 21.67700
H  0.62800 10.81500 22.41000
H  1.38400 8.11900 30.20400
H  0.04700 5.52100 30.30800
H  2.64500 6.16400 30.46700
H  2.60600 5.48700 28.84400
H  2.02000 4.54900 30.26700
H  -1.58300 7.52200 30.21800
H  -0.90900 9.07500 30.57700
H  -0.90900 6.62000 32.33500
H  -1.11800 8.35300 32.76600
H  0.96700 2.08500 26.81500
H  0.38300 1.08500 25.53100
H  -0.63300 1.48900 26.96000
H  -1.55700 0.47700 24.15000
H  0.11100 0.54400 23.48500
H  -1.28000 0.18600 22.49400
H  -1.85700 7.07600 20.64400
H  0.46800 8.82800 20.24700
H  0.39200 7.17700 18.93800
H  -0.62200 5.75400 19.15700
H  0.88700 5.90800 20.07800
H  -1.76300 9.79400 19.48200
H  -1.15000 10.87800 20.53800
H  -2.43300 9.38700 22.41000
H  -3.54900 9.39500 20.98500
H  -2.84300 10.88600 21.62100
H  0.34300 13.68100 24.46300
H  1.26100 12.84700 23.26100
H  2.07300 13.39200 24.71500
H  0.03900 10.87200 29.41700
H  3.77300 11.63400 31.21600
H  3.30700 10.12300 32.17200
H  2.61000 11.63000 32.50500
Mg -11.70000 16.29000 41.91600
C  -9.00300 14.11400 41.30100
C  -10.23800 18.64600 39.91500
C  -14.54800 17.97800 41.79300
C  -13.61100 13.37600 42.73700
N  -9.82000 16.37800 40.80000
C  -8.84900 15.45000 40.75200
C  -7.56800 15.88700 39.89400
C  -7.94600 17.38700 39.58700
C  -9.47000 17.46400 40.07900
C  -6.92900 18.39600 40.18900
C  -7.27700 15.03600 38.62900
C  -5.77400 14.92700 38.45900
H  -5.32200 15.77800 37.25400
N  -12.16500 18.12200 41.26500
C  -11.41000 18.98700 40.48200
C  -12.10800 20.19800 40.19900
C  -13.34700 20.04200 40.93600
C  -13.41700 18.68400 41.46200
C  -11.70400 21.33900 39.21500
C  -14.49300 21.03900 41.08800
O  -14.34200 22.11400 40.53900
C  -15.67600 20.95200 42.03000
N  -13.84200 15.76300 42.14000
C  -14.77300 16.65600 42.15400
C  -16.16000 16.08400 42.30800
C  -15.90200 14.60500 42.54300
C  -14.39900 14.51200 42.48100
C  -17.09300 16.88500 43.33600
C  -16.56700 13.59200 41.54600
C  -18.11800 13.56000 41.49000
N  -11.38200 14.23200 42.08400
C  -12.24400 13.16100 42.47400
C  -11.53200 11.89700 42.66800
C  -10.22000 12.23200 42.19500
C  -10.25500 13.61900 41.78200
C  -12.01000 10.49000 43.08000
C  -8.86400 11.73100 41.90900
O  -8.34200 10.60400 41.83900
C  -8.04800 12.95300 41.37600
C  -6.85900 13.34800 42.23800
O  -6.86700 13.42900 43.45800
O  -5.79300 13.58500 41.35900
C  -4.54600 13.73700 42.13300
H  -9.65500 19.27000 39.23600
H  -15.53200 18.45300 41.78200
H  -14.10700 12.47200 43.09700
H  -6.77300 15.88500 40.63900
H  -7.95700 17.49500 38.50200
H  -7.58700 19.00200 40.81100
H  -6.47900 18.91000 39.34000
H  -6.15100 17.92400 40.79000
H  -7.73800 15.62800 37.83800
H  -7.67800 14.02300 38.65100
H  -5.42300 13.91700 38.24900
H  -5.29900 15.27800 39.37500
H  -12.47700 21.51200 38.46600
H  -10.70800 21.15100 38.81600
H  -11.71700 22.18500 39.90200
H  -16.04700 21.96300 42.19800
H  -15.27700 20.54500 42.95900
H  -16.46400 20.31100 41.63500
H  -16.68200 16.22700 41.36200
H  -16.30800 14.33000 43.51700
H  -17.52800 16.11300 43.97200
H  -17.94200 17.33500 42.82300
H  -16.50300 17.56900 43.94600
H  -16.37500 12.59300 41.93600
H  -16.06600 13.61700 40.57800
H  -18.42500 14.31100 42.21700
H  -18.62200 12.60800 41.66200
H  -18.33100 13.86200 40.46400
H  -12.03800 9.78700 42.24800
H  -12.99100 10.44800 43.55400
H  -11.28300 10.04200 43.75800
H  -7.65600 12.60400 40.42000
H  -4.43200 14.56700 42.83000
H  -3.82300 13.86300 41.32800
H  -4.38000 12.83800 42.72800

