158

Mg 5.11100 53.93300 41.02500
C  4.98600 50.37000 40.90500
C  8.42500 53.72700 39.71900
C  4.88100 57.19100 40.25200
C  1.79500 53.85700 42.04700
N  6.42900 52.21200 40.15700
C  6.24900 50.87600 40.39900
C  7.50600 50.01700 40.10900
C  8.53000 51.11200 39.87400
C  7.76200 52.47600 39.92900
C  9.72200 51.10600 40.92300
C  7.54200 49.01400 38.87800
C  6.80400 49.42100 37.65000
H  7.42100 50.23100 36.48000
N  6.54500 55.22900 40.21900
C  7.82000 55.01700 39.74900
C  8.39600 56.21600 39.27400
C  7.39300 57.26800 39.34200
C  6.16800 56.58300 39.99600
C  9.79300 56.34200 38.86100
C  7.61400 58.65900 38.84700
O  8.55500 58.99000 38.15400
C  6.69200 59.83400 39.20600
N  3.43500 55.36000 41.03700
C  3.64600 56.70100 40.82500
C  2.39800 57.56500 41.03100
C  1.36300 56.46600 41.52100
C  2.26000 55.11500 41.56600
C  2.48900 58.87000 41.98800
C  0.03000 56.35300 40.80100
C  -1.19000 56.70900 41.50800
N  3.62500 52.39800 41.44500
C  2.36400 52.56000 41.95200
C  1.79700 51.25000 42.36000
C  2.86400 50.35600 41.98600
C  3.87800 51.10000 41.37400
C  0.37800 50.94400 42.83200
C  3.29300 48.95600 42.04300
O  2.81600 47.97400 42.56700
C  4.67900 48.92900 41.25700
C  4.36200 48.13300 40.10700
O  3.91900 48.58100 39.02100
O  4.65700 46.81400 40.44900
C  4.35400 45.78400 39.53400
H  9.44600 53.67900 39.33400
H  4.75500 58.24700 40.00500
H  0.76100 53.82900 42.39600
H  7.76900 49.46000 41.00800
H  9.07600 51.10600 38.93000
H  10.05400 52.07600 41.29400
H  10.56800 50.50100 40.59700
H  9.33000 50.66700 41.84000
H  7.20700 48.03500 39.22300
H  8.56900 48.98600 38.51600
H  5.92800 49.97500 37.98700
H  6.34400 48.53800 37.20600
H  10.19000 57.33800 38.66900
H  9.87500 55.60300 38.06400
H  10.35700 55.75300 39.58400
H  5.97000 59.92200 38.39400
H  7.42400 60.64200 39.21400
H  6.21900 59.73500 40.18300
H  2.00800 58.03800 40.12900
H  1.17200 56.78000 42.54700
H  2.05300 58.55400 42.93500
H  1.87800 59.67300 41.57600
H  3.49100 59.28800 42.09000
H  -0.18200 55.38200 40.35400
H  0.22700 56.99300 39.94100
H  -1.88300 55.87200 41.42100
H  -1.69800 57.56200 41.05800
H  -1.04700 56.84300 42.58000
H  -0.09200 50.23800 42.14800
H  -0.15600 51.89100 42.76200
H  0.47200 50.59800 43.86200
H  5.45900 48.44300 41.84500
H  4.99200 44.92600 39.74800
H  4.33400 46.15700 38.51000
H  3.32500 45.47000 39.70900
Mg 9.22200 48.36300 26.07400
C  7.17900 48.61100 28.94800
C  11.89400 49.51100 28.11200
C  11.23400 48.17000 23.39400
C  6.55600 47.81900 24.18700
N  9.52700 48.87000 28.30600
C  8.54600 48.79500 29.26600
C  9.15600 49.11700 30.66500
C  10.41200 49.88000 30.25200
C  10.65500 49.39900 28.78600
C  10.48700 51.44100 30.42000
C  9.41300 47.88400 31.67800
C  8.92300 48.12400 33.09700
H  8.98000 46.90100 34.09700
N  11.28100 48.83100 25.79200
C  12.16600 49.27500 26.81200
C  13.42000 49.39900 26.14000
C  13.26200 49.03200 24.78500
C  11.86700 48.60400 24.59600
C  14.72800 49.84700 26.91600
C  14.30900 49.05700 23.65100
O  13.95500 48.67400 22.53200
C  15.72100 49.42100 23.95400
N  8.95500 48.08100 24.12300
C  9.91100 47.99200 23.16400
C  9.36700 47.65900 21.76300
C  7.83200 47.62400 22.02500
C  7.79500 47.85100 23.57400
C  9.77800 48.60500 20.58000
C  7.17900 46.22500 21.57500
C  5.74200 46.27500 21.10200
N  7.22100 48.21100 26.44400
C  6.18100 48.03400 25.51700
C  4.93700 48.06400 26.13300
C  5.28500 48.21900 27.52600
C  6.68700 48.33000 27.64200
C  3.57300 47.79800 25.45100
C  4.75900 48.30600 28.82600
O  3.57700 48.26500 29.17300
C  5.92900 48.56500 29.81500
C  5.84600 47.53000 30.80900
O  6.39200 46.42100 30.81400
O  4.97900 47.94200 31.81500
C  4.77900 46.94700 32.86200
H  12.71600 49.83600 28.75400
H  11.82400 48.13900 22.47500
H  5.72700 47.84700 23.47700
H  8.55200 49.84000 31.21300
H  11.26800 49.61900 30.87300
H  10.44800 51.87800 29.42200
H  11.38500 51.75500 30.95100
H  9.70800 51.86000 31.05600
H  10.46600 47.60300 31.67900
H  8.71700 47.10600 31.36500
H  7.88100 48.44200 33.05700
H  9.46700 48.98200 33.49200
H  14.70700 49.76800 28.00300
H  15.04400 50.86600 26.69400
H  15.50000 49.14700 26.59600
H  15.60700 50.28500 24.60800
H  16.30500 49.79800 23.11500
H  16.08900 48.51800 24.44200
H  9.60600 46.63600 21.47400
H  7.28500 48.50200 21.68200
H  9.07800 48.65500 19.74700
H  10.65300 48.04800 20.24600
H  9.95800 49.63800 20.87900
H  7.24800 45.54500 22.42500
H  7.87100 45.89200 20.80200
H  5.16800 45.80700 21.90200
H  5.57800 45.74300 20.16500
H  5.28900 47.26600 21.06400
H  3.42600 48.66600 24.80800
H  2.75500 47.64700 26.15600
H  3.60500 46.90900 24.82100
H  5.67400 49.54100 30.22800
H  3.94400 47.17500 33.52600
H  5.67900 47.08200 33.46300
H  4.59300 45.94000 32.49000

