158

Mg 46.78900 25.15300 28.40700
C  47.72500 27.32000 30.92600
C  46.17700 22.74000 30.84600
C  46.16500 22.85400 25.95200
C  48.00700 27.27800 26.03200
N  46.98100 25.07600 30.63400
C  47.26500 26.13300 31.44100
C  47.06600 25.79200 32.98500
C  46.70400 24.21900 32.90900
C  46.61800 23.97400 31.38800
C  47.54400 23.27400 33.80800
C  46.07700 26.71200 33.71500
C  45.38000 26.19500 34.97400
H  45.35900 27.09200 36.23600
N  46.17600 23.08800 28.42700
C  45.94100 22.28100 29.53300
C  45.43500 20.97200 29.07000
C  45.58700 20.96600 27.68300
C  45.95900 22.35000 27.27900
C  44.90300 19.85500 29.99900
C  45.33600 19.78000 26.80600
O  45.39200 19.81600 25.56200
C  44.84400 18.48200 27.40200
N  46.95900 25.15600 26.21600
C  46.56200 24.16100 25.43300
C  46.90600 24.40900 23.94800
C  47.24000 25.88400 23.99100
C  47.42900 26.11900 25.46800
C  48.00900 23.47400 23.40900
C  46.08500 26.78900 23.44400
C  46.44600 27.96000 22.52500
N  47.74900 26.86500 28.44000
C  48.19100 27.64200 27.38800
C  48.67900 28.84500 27.91200
C  48.58000 28.80000 29.29800
C  48.00000 27.54200 29.60100
C  49.34800 29.94600 27.14700
C  48.70800 29.56700 30.52000
O  49.15700 30.67400 30.73800
C  47.99200 28.66100 31.57500
C  48.98600 28.76000 32.78400
O  49.88300 27.98000 33.02900
O  48.53200 29.71000 33.71000
C  48.94000 29.70200 35.12600
H  46.08000 22.03600 31.67500
H  45.80800 22.16600 25.18300
H  48.44900 27.87900 25.23400
H  47.99300 26.14400 33.43700
H  45.65700 24.18000 33.20900
H  48.31900 22.69900 33.30100
H  46.85200 22.72700 34.44800
H  48.02900 24.05800 34.39000
H  45.27200 27.03700 33.05600
H  46.54500 27.69600 33.76400
H  45.84000 25.24400 35.24200
H  44.31600 26.08300 34.76800
H  44.86800 20.25600 31.01200
H  45.52200 18.96000 30.06000
H  43.87500 19.64200 29.70600
H  44.46600 17.79200 26.64700
H  43.82700 18.57600 27.78200
H  45.57800 18.01400 28.05800
H  45.99900 24.22600 23.37200
H  48.13800 25.98400 23.38100
H  48.08200 22.61000 24.06900
H  48.93500 24.04600 23.35000
H  47.67300 23.18700 22.41300
H  45.44600 27.11900 24.26400
H  45.44400 26.24900 22.74700
H  45.98400 27.85300 21.54400
H  47.51900 28.13100 22.43600
H  46.10400 28.93300 22.87600
H  48.79400 30.14300 26.22900
H  50.42500 29.79600 27.07400
H  49.36000 30.86500 27.73300
H  47.02500 29.10100 31.81700
H  48.66100 30.58700 35.69700
H  49.98700 29.55100 35.39100
H  48.39100 28.84600 35.51900
Mg -4.95000 25.41900 26.16100
C  -3.84100 26.86400 29.21200
C  -6.86700 23.21200 28.01200
C  -5.57900 23.90200 23.23600
C  -2.69400 27.60100 24.50500
N  -5.22300 25.02200 28.30600
C  -4.77200 25.78700 29.34200
C  -5.37500 25.34700 30.63600
C  -6.06200 24.02400 30.31100
C  -6.04200 24.05400 28.75300
C  -5.27400 22.81800 30.89800
C  -6.40200 26.40500 31.20500
C  -6.39700 26.53900 32.76800
H  -5.84500 25.43300 33.62400
N  -6.24000 23.88500 25.65100
C  -6.92200 23.09400 26.60000
C  -7.57100 21.99800 25.86700
C  -7.20600 22.16000 24.46600
C  -6.30500 23.34200 24.35400
C  -8.56400 21.02600 26.52900
C  -7.56900 21.27500 23.30700
O  -7.13400 21.40000 22.17500
C  -8.50600 20.24800 23.50700
N  -4.27700 25.69800 24.24600
C  -4.65800 24.86100 23.23400
C  -3.89900 25.22100 21.97200
C  -3.28000 26.61800 22.33000
C  -3.42600 26.63500 23.78500
C  -2.92500 24.24600 21.40900
C  -3.89200 27.91600 21.70300
C  -3.58800 28.19500 20.22100
N  -3.50500 26.87000 26.68000
C  -2.69700 27.73800 25.89900
C  -1.99700 28.55700 26.73600
C  -2.37500 28.32800 28.06900
C  -3.23600 27.26500 27.96000
C  -0.84300 29.49300 26.27200
C  -2.23600 28.70300 29.46500
O  -1.57100 29.61800 29.93900
C  -3.24900 27.77000 30.30900
C  -2.46000 27.03200 31.31500
O  -1.94900 25.93000 31.16900
O  -2.31500 27.81500 32.41800
C  -1.70600 27.27400 33.62900
H  -7.33900 22.40100 28.57000
H  -5.69000 23.36900 22.28900
H  -1.98600 28.15900 23.88900
H  -4.58800 25.27500 31.38700
H  -7.05400 24.18700 30.73300
H  -4.27500 23.13600 31.19500
H  -5.10300 22.08400 30.11000
H  -5.74800 22.41700 31.79400
H  -7.44900 26.20900 30.97800
H  -6.16400 27.33500 30.68800
H  -7.38100 26.73100 33.19700
H  -5.95700 27.51400 32.97700
H  -9.51100 21.08600 25.99300
H  -8.64600 21.11300 27.61300
H  -8.15300 20.04700 26.28500
H  -9.51200 20.61100 23.71700
H  -8.03800 19.54600 24.19700
H  -8.59400 19.66200 22.59200
H  -4.63200 25.35200 21.17600
H  -2.22600 26.56300 22.06000
H  -2.09700 24.74300 20.90500
H  -3.39000 23.55400 20.70700
H  -2.42200 23.69800 22.20600
H  -3.64900 28.80800 22.28100
H  -4.96000 27.86100 21.91300
H  -3.15700 29.19600 20.25300
H  -4.35800 28.23000 19.45000
H  -2.88600 27.44000 19.86700
H  -0.10500 29.78400 27.02000
H  -1.20400 30.28400 25.61400
H  -0.21600 28.86000 25.64300
H  -4.06500 28.34900 30.74200
H  -0.74400 27.77600 33.73300
H  -1.58100 26.19100 33.62200
H  -2.25200 27.54900 34.53200

