158

Mg 52.70900 23.81000 43.95500
C  49.63400 25.67500 43.33500
C  50.92200 20.89100 43.35300
C  55.71200 21.99700 43.56700
C  54.41100 26.78900 44.33700
N  50.60100 23.33400 43.20000
C  49.53200 24.24100 43.25300
C  48.21800 23.48300 43.18100
C  48.60100 21.96500 43.32400
C  50.14100 21.99700 43.32400
C  47.88000 21.21800 44.45900
C  47.27700 23.62300 41.92600
C  47.99000 23.91300 40.56200
H  47.26200 23.35900 39.26500
N  53.27600 21.73100 43.45500
C  52.35800 20.70200 43.32100
C  53.09400 19.48600 43.00900
C  54.47400 19.82600 42.87000
C  54.56200 21.19900 43.35500
C  52.46200 18.15400 42.82800
C  55.59000 18.94000 42.38400
O  55.37500 17.76800 42.11600
C  57.02300 19.46000 42.15700
N  54.70200 24.31800 43.95700
C  55.76600 23.42900 43.89000
C  57.10400 24.16800 43.93100
C  56.64700 25.62300 44.35800
C  55.16500 25.61000 44.23200
C  58.21900 23.57800 44.85700
C  57.17600 26.70100 43.42600
C  56.61100 27.02600 42.04100
N  52.16100 25.82600 44.00000
C  53.01100 26.90300 44.17600
C  52.17600 28.08100 44.27400
C  50.88300 27.61500 44.03900
C  50.91200 26.23800 43.72200
C  52.67300 29.44500 44.57300
C  49.53900 28.07900 44.07000
O  49.05400 29.15500 44.34400
C  48.71200 26.81900 43.42300
C  48.27400 27.29200 42.10700
O  49.01600 27.56400 41.18400
O  46.94400 27.36300 42.05800
C  46.43200 27.58600 40.68100
H  50.32000 19.98500 43.26300
H  56.70100 21.55200 43.70100
H  54.97700 27.68500 44.59900
H  47.59200 23.75100 44.03300
H  48.37500 21.45500 42.38800
H  48.35700 21.19000 45.43900
H  47.68200 20.18400 44.17800
H  46.91600 21.71700 44.55400
H  46.92300 24.62300 42.17600
H  46.54700 22.81900 41.83000
H  48.91300 23.34000 40.65600
H  48.25200 24.96000 40.41100
H  53.07500 17.47400 43.42000
H  52.31200 17.95300 41.76800
H  51.56800 18.02300 43.43900
H  56.97900 20.32400 41.49300
H  57.61500 18.59300 41.86500
H  57.35500 19.78900 43.14200
H  57.59100 24.12500 42.95700
H  56.93300 25.77700 45.39900
H  58.14500 24.10600 45.80700
H  59.22800 23.74100 44.47900
H  58.06000 22.51300 45.02900
H  58.23900 26.45900 43.42100
H  57.21800 27.57100 44.08100
H  56.64500 28.11200 41.96600
H  55.61700 26.69400 41.73900
H  57.28700 26.61600 41.29100
H  53.75300 29.45700 44.72200
H  52.17400 29.91800 45.41800
H  52.48300 30.12300 43.74100
H  47.82400 26.68100 44.04000
H  46.15200 26.70200 40.10800
H  46.99000 28.15800 39.94000
H  45.46900 28.09500 40.71300
Mg 47.32900 16.53100 28.28600
C  45.47300 15.44700 31.01000
C  48.92900 18.71300 30.36500
C  49.01500 17.59800 25.52800
C  45.24800 14.58600 26.22600
N  47.39600 16.84500 30.47100
C  46.57400 16.27600 31.35900
C  46.98300 16.64400 32.81300
C  47.85300 17.89900 32.54300
C  48.12100 17.80700 31.04300
C  47.35400 19.32500 33.17600
C  47.53200 15.40400 33.63800
C  47.21500 15.28800 35.09700
H  48.29600 15.08600 36.15100
N  48.77000 17.92900 28.03100
C  49.25200 18.80900 29.02900
C  50.07900 19.81200 28.38100
C  50.13900 19.48800 26.99800
C  49.32200 18.26500 26.77600
C  50.73700 20.88100 29.23200
C  50.83000 20.22500 25.86600
O  50.59200 19.94600 24.72300
C  51.88400 21.26200 26.11400
N  47.12300 16.21200 26.15400
C  48.14700 16.58600 25.25600
C  48.08400 15.63300 23.98300
C  46.81700 14.72800 24.22100
C  46.38700 15.17600 25.63400
C  48.10300 16.24700 22.60200
C  47.10600 13.16000 24.09700
C  46.27900 12.36700 23.18600
N  45.62900 15.33500 28.52500
C  44.90500 14.61300 27.60200
C  43.81500 13.95400 28.28300
C  43.95400 14.27000 29.61000
C  45.10300 15.06800 29.72100
C  42.86300 13.14900 27.59900
C  43.46200 14.16100 31.01300
O  42.43800 13.54100 31.38600
C  44.44800 14.88100 31.89300
C  43.66500 15.96900 32.59700
O  43.26000 17.02100 32.19000
O  43.41100 15.49500 33.87000
C  42.86300 16.44200 34.81900
H  49.45300 19.43800 30.99000
H  49.53000 17.83400 24.59500
H  44.74000 13.88300 25.56200
H  46.08500 16.96500 33.34000
H  48.75000 17.63700 33.10300
H  46.67000 19.00600 33.96200
H  46.90200 19.87600 32.35100
H  48.29700 19.81400 33.42000
H  48.62100 15.43200 33.66700
H  47.20800 14.45400 33.21200
H  46.56000 14.42800 35.23700
H  46.57200 16.14100 35.31200
H  51.53400 20.44100 29.83300
H  49.92500 21.27300 29.84400
H  51.10100 21.67200 28.57700
H  52.52900 21.50800 25.27100
H  52.54000 20.83800 26.87400
H  51.46100 22.21100 26.44500
H  48.97700 15.02800 24.13300
H  46.02200 14.87200 23.48900
H  48.83900 15.74700 21.97100
H  48.53500 17.24700 22.56900
H  47.18000 16.08200 22.04600
H  47.18700 12.68500 25.07500
H  48.13500 13.12800 23.73900
H  46.76300 12.12800 22.23900
H  45.34000 12.84500 22.90400
H  45.99000 11.38700 23.56400
H  42.50400 12.34400 28.24000
H  43.46700 12.76800 26.77600
H  41.96400 13.69500 27.31400
H  44.65300 14.13700 32.66300
H  41.90200 16.76400 34.41900
H  43.48400 17.31700 35.01500
H  42.57200 15.89900 35.71800

