158

Mg -2.45100 17.20600 25.66100
C  -3.00500 15.01600 28.30000
C  -2.58300 19.81700 27.69200
C  -2.57100 19.18200 22.90400
C  -3.06600 14.51000 23.48800
N  -2.76100 17.34200 27.81400
C  -2.78700 16.34400 28.73900
C  -2.80100 16.89800 30.15900
C  -2.93300 18.42400 29.87600
C  -2.75900 18.54700 28.33700
C  -4.25400 19.03500 30.33600
C  -1.64800 16.43300 31.07100
C  -1.53400 17.26700 32.32100
H  -1.22700 16.61200 33.69100
N  -2.48800 19.25000 25.33700
C  -2.44000 20.15700 26.32300
C  -2.30600 21.47900 25.77500
C  -2.34500 21.32300 24.46200
C  -2.43700 19.83700 24.18100
C  -2.14500 22.73200 26.70300
C  -2.11600 22.47500 23.40000
O  -2.07900 22.26000 22.22900
C  -2.10200 23.93800 23.85100
N  -2.82200 16.89100 23.45800
C  -2.75300 17.87700 22.51900
C  -2.70900 17.39100 21.04000
C  -2.94800 15.89900 21.31500
C  -2.88600 15.70300 22.84200
C  -3.73200 18.08900 20.02700
C  -1.99900 14.92300 20.49900
C  -2.71100 13.73900 19.85500
N  -2.95200 15.07200 25.79000
C  -3.13400 14.14100 24.83400
C  -3.18700 12.82900 25.46800
C  -3.19600 13.14200 26.80700
C  -3.04300 14.53500 26.95500
C  -3.27600 11.38500 24.75400
C  -3.25400 12.52000 28.08500
O  -3.47000 11.40700 28.36700
C  -3.09700 13.68800 29.06800
C  -1.94500 13.32700 29.96100
O  -0.74300 13.35100 29.63200
O  -2.52100 13.05900 31.20700
C  -1.48900 12.81000 32.25900
H  -2.51000 20.68000 28.35800
H  -2.58900 19.92400 22.10400
H  -3.34400 13.74500 22.76000
H  -3.72900 16.53400 30.60000
H  -2.11500 18.99800 30.31100
H  -4.85300 18.34000 30.92400
H  -4.83400 19.35500 29.47000
H  -4.06900 19.94000 30.91400
H  -0.65800 16.45600 30.61400
H  -1.88600 15.43300 31.43300
H  -2.45500 17.84300 32.41200
H  -0.74600 17.99400 32.12600
H  -3.11300 23.22900 26.63400
H  -1.32800 23.40500 26.44100
H  -1.97400 22.43900 27.73800
H  -2.84800 24.19100 24.60400
H  -2.13200 24.67600 23.04900
H  -1.07800 23.99700 24.22100
H  -1.69500 17.65000 20.73600
H  -3.98800 15.67600 21.07600
H  -3.93000 19.07100 20.45800
H  -4.65400 17.51100 19.96400
H  -3.33000 18.23600 19.02400
H  -1.33800 14.55800 21.28500
H  -1.44700 15.41800 19.69900
H  -2.14700 13.51700 18.94900
H  -3.75900 13.94400 19.63400
H  -2.67600 12.87500 20.51800
H  -2.36000 11.22400 24.18700
H  -4.15500 11.53400 24.12700
H  -3.40200 10.62300 25.52300
H  -4.04700 13.63800 29.59900
H  -0.57200 13.36700 32.06400
H  -1.38900 11.77300 32.58100
H  -1.85600 13.15900 33.22500
Mg 43.15000 41.94500 26.19600
C  42.22100 44.30000 28.74000
C  44.40000 39.93400 28.71100
C  44.20400 39.94000 23.87400
C  42.41300 44.42400 23.82500
N  43.28400 42.13100 28.53100
C  42.78500 43.12900 29.33300
C  42.74700 42.79300 30.84300
C  43.68500 41.54600 30.75100
C  43.87400 41.17800 29.25100
C  45.04000 41.70500 31.49800
C  41.31100 42.58000 31.52700
C  40.94200 43.41900 32.80000
H  41.87500 43.62000 33.92600
N  44.00800 40.10400 26.27900
C  44.53300 39.44500 27.39800
C  45.11800 38.14300 26.95100
C  44.83900 38.06600 25.55000
C  44.31400 39.33900 25.18000
C  45.82100 37.29200 27.96000
C  44.92700 36.93400 24.64300
O  44.68900 36.97300 23.45500
C  45.33100 35.59900 25.20500
N  43.46000 42.29700 24.18400
C  43.71700 41.21100 23.43100
C  43.41500 41.37100 21.92500
C  42.90600 42.81400 21.92400
C  43.02900 43.27900 23.37100
C  44.68800 41.28500 20.97600
C  41.52100 42.95000 21.37100
C  40.51700 42.13500 22.07300
N  42.46800 44.00000 26.18500
C  42.25200 44.84400 25.14600
C  41.73500 46.11800 25.70300
C  41.60500 45.94500 27.10700
C  42.15700 44.64000 27.38000
C  41.49900 47.42900 24.82900
C  41.21500 46.56400 28.36100
O  40.73500 47.67200 28.56000
C  41.66600 45.53100 29.49400
C  42.63300 46.15400 30.42100
O  43.82300 46.21800 30.21800
O  42.02100 46.76100 31.45100
C  42.82100 47.57700 32.42800
H  44.65700 39.18700 29.46400
H  44.57700 39.25700 23.10800
H  42.38300 45.25900 23.12300
H  43.40900 43.48400 31.36500
H  43.26700 40.63100 31.16900
H  44.74200 41.97800 32.51100
H  45.64800 42.48500 31.04100
H  45.70800 40.84600 31.44000
H  41.25600 41.52400 31.79000
H  40.61100 42.72800 30.70400
H  40.01200 42.93300 33.09900
H  40.72400 44.42400 32.43800
H  45.09800 36.63600 28.44500
H  46.33200 37.82300 28.76400
H  46.59000 36.65300 27.52700
H  46.39200 35.58300 25.45500
H  45.14700 34.80600 24.48000
H  44.69100 35.36000 26.05500
H  42.74200 40.57200 21.61600
H  43.66100 43.41200 21.41400
H  44.61600 41.72300 19.98100
H  44.92900 40.22600 20.88200
H  45.61700 41.71500 21.35100
H  41.55200 42.55100 20.35700
H  41.14600 43.96700 21.25400
H  40.93500 41.69200 22.97700
H  40.26800 41.33600 21.37500
H  39.62300 42.69600 22.34300
H  41.37700 47.10500 23.79600
H  42.37600 48.07600 24.84800
H  40.58000 47.91600 25.15600
H  40.76400 45.26000 30.04200
H  43.16200 47.00500 33.29100
H  42.19200 48.30900 32.93600
H  43.66700 48.07900 31.96100

