158

Mg 42.41200 40.99300 27.10000
C  41.42900 43.35100 29.42300
C  42.68900 38.64400 29.63700
C  43.59300 38.87000 24.77100
C  42.26500 43.46700 24.61900
N  42.22100 40.99500 29.30700
C  41.70000 42.09300 30.00400
C  41.51700 41.75800 31.44400
C  42.20100 40.37400 31.66400
C  42.39900 39.93900 30.10900
C  43.52000 40.28000 32.46500
C  40.00500 41.86900 31.94400
C  39.86200 42.55000 33.27500
H  39.58300 41.59800 34.50300
N  43.05500 39.05000 27.20600
C  43.10100 38.17000 28.28700
C  43.61600 36.90400 27.82700
C  43.86200 37.03100 26.40100
C  43.40800 38.36200 26.03900
C  44.13600 35.86200 28.82100
C  44.59900 35.99600 25.46300
O  45.02400 36.29400 24.36300
C  44.72100 34.53500 25.84600
N  43.11200 41.17700 25.08800
C  43.41500 40.12700 24.28200
C  43.69300 40.44200 22.83200
C  43.16900 41.88900 22.80500
C  42.82300 42.24200 24.29800
C  45.30100 40.29200 22.42900
C  41.98600 42.17600 21.91900
C  40.70800 41.48300 22.30200
N  42.04000 43.06700 27.00700
C  41.99800 43.94200 25.89800
C  41.50600 45.24300 26.29200
C  41.23300 45.04400 27.69300
C  41.61000 43.71600 28.04700
C  41.23600 46.42000 25.40500
C  40.68500 45.62200 28.85200
O  40.29600 46.77500 28.94800
C  40.92500 44.65300 30.05700
C  41.90100 45.08800 31.05400
O  43.11700 45.11400 30.81300
O  41.30100 45.45800 32.17700
C  42.18400 45.89000 33.28700
H  42.58000 37.76300 30.27200
H  43.62600 38.12000 23.97900
H  42.02900 44.25700 23.90300
H  42.17800 42.46100 31.95000
H  41.42800 39.79100 32.16500
H  44.38000 40.46100 31.82000
H  43.73800 39.25900 32.78100
H  43.48600 40.88600 33.37000
H  39.58000 40.86900 32.03800
H  39.34500 42.31500 31.20100
H  39.02500 43.23600 33.14100
H  40.70300 43.19400 33.53200
H  43.35400 35.16900 29.13100
H  44.31000 36.39600 29.75500
H  45.01000 35.24700 28.60700
H  45.75100 34.45500 26.19500
H  44.47100 33.95500 24.95800
H  43.98700 34.28000 26.61100
H  43.15100 39.72700 22.21300
H  43.97200 42.59000 22.57700
H  45.93000 39.86700 23.21100
H  45.69800 41.23600 22.05500
H  45.50900 39.60100 21.61300
H  42.19600 41.80000 20.91800
H  41.77900 43.24300 21.84100
H  40.46100 40.60300 21.70900
H  39.96000 42.24900 22.09800
H  40.73000 41.14900 23.34000
H  42.23100 46.80700 25.18600
H  40.58100 47.17100 25.84600
H  40.80100 46.21700 24.42600
H  39.99000 44.38700 30.55100
H  42.08000 46.92000 33.62800
H  43.22000 45.83600 32.95300
H  42.08100 45.24700 34.16100
Mg -2.50100 33.87200 27.88700
C  -4.13200 31.98400 30.23600
C  -1.54300 35.96600 30.45800
C  -1.16000 35.81400 25.56700
C  -4.03700 31.89100 25.38300
N  -2.73000 33.86000 30.18400
C  -3.47600 33.04200 30.96300
C  -3.46900 33.42100 32.38000
C  -2.89600 34.92800 32.31700
C  -2.36900 34.91300 30.91600
C  -3.89100 36.08600 32.55600
C  -2.82200 32.50800 33.46500
C  -3.58500 32.27600 34.82300
H  -2.76900 32.22800 36.14100
N  -1.41400 35.67800 27.95200
C  -1.05600 36.29200 29.18300
C  -0.11600 37.34500 28.80900
C  0.03200 37.32400 27.39300
C  -0.88200 36.28200 26.87200
C  0.44400 38.39800 29.75200
C  1.01400 38.08800 26.56800
O  1.18100 37.88700 25.37300
C  1.94700 39.03700 27.24900
N  -2.63400 33.87800 25.70300
C  -1.92800 34.82400 25.00700
C  -2.12400 34.66200 23.48100
C  -2.85700 33.29700 23.42300
C  -3.18900 32.94700 24.89800
C  -2.94100 35.80500 22.78100
C  -2.00500 32.20500 22.71500
C  -0.99000 31.40400 23.61100
N  -3.86600 32.33900 27.77800
C  -4.28000 31.54200 26.73900
C  -5.14800 30.48300 27.21200
C  -5.10300 30.65300 28.57300
C  -4.19700 31.68900 28.85100
C  -5.99200 29.49600 26.40900
C  -5.69400 30.04300 29.74400
O  -6.56500 29.21800 29.84400
C  -5.07000 30.98100 30.83300
C  -6.10400 31.73300 31.68000
O  -6.70600 32.75100 31.30900
O  -6.27400 31.21700 32.95200
C  -7.11400 32.04600 33.86600
H  -1.11000 36.57000 31.25800
H  -0.64200 36.37100 24.78300
H  -4.44700 31.34000 24.53400
H  -4.52700 33.52600 32.62000
H  -2.04300 35.15500 32.95600
H  -3.55000 36.82300 33.28300
H  -4.86100 35.75500 32.92500
H  -3.96800 36.75100 31.69600
H  -1.90900 32.97700 33.83200
H  -2.54900 31.53400 33.05900
H  -3.86000 31.24500 34.60300
H  -4.50700 32.83400 34.98900
H  -0.12400 38.32800 30.68000
H  0.35400 39.42800 29.40900
H  1.50400 38.28500 29.98100
H  2.76000 39.34700 26.59300
H  2.50500 38.61800 28.08600
H  1.43000 39.93800 27.58000
H  -1.12100 34.56600 23.06500
H  -3.85900 33.38000 23.00300
H  -3.78100 35.41300 22.20800
H  -2.32800 36.45300 22.15500
H  -3.29600 36.51600 23.52700
H  -1.40900 32.53000 21.86300
H  -2.72200 31.54500 22.22700
H  -1.24100 30.34300 23.59000
H  -1.04700 31.80000 24.62500
H  0.03700 31.51600 23.26100
H  -5.58400 29.31200 25.41500
H  -6.97400 29.94100 26.24800
H  -6.00300 28.56300 26.97300
H  -4.47700 30.38100 31.52300
H  -7.97600 32.38000 33.28800
H  -6.64100 32.94300 34.26600
H  -7.50300 31.45100 34.69300

