158

Mg 25.16400 -7.81400 48.62300
C  27.52100 -5.53200 47.16500
C  23.14700 -7.04700 45.99400
C  23.53500 -10.31200 49.56800
C  27.90800 -8.69000 50.92400
N  25.34000 -6.34800 46.80900
C  26.32400 -5.49300 46.40600
C  25.91500 -4.66700 45.23100
C  24.39700 -5.00500 45.08500
C  24.28400 -6.21200 46.01800
C  23.36000 -3.96500 45.36800
C  26.74500 -5.13400 44.01000
C  27.48000 -4.02700 43.27300
H  27.28800 -3.80000 41.76900
N  23.56600 -8.62300 47.74800
C  22.83600 -8.17600 46.71900
C  21.63700 -9.01700 46.61800
C  21.81600 -10.09700 47.56600
C  22.98000 -9.74200 48.31900
C  20.58400 -8.77500 45.61600
C  20.98700 -11.25900 47.83600
O  20.01600 -11.48400 47.13700
C  21.24500 -12.40400 48.86900
N  25.77600 -9.31500 50.03200
C  24.70800 -10.16900 50.34800
C  25.07400 -11.00400 51.55900
C  26.56900 -10.73300 51.72500
C  26.79800 -9.49400 50.85700
C  24.18000 -10.68000 52.77400
C  27.56900 -11.83400 51.35300
C  28.73100 -12.03800 52.31000
N  27.25700 -7.21300 49.06400
C  28.20600 -7.68000 50.00000
C  29.41600 -6.88000 49.81300
C  29.15500 -6.01500 48.71100
C  27.84500 -6.26100 48.32100
C  30.67900 -7.01200 50.44800
C  29.74900 -5.00600 47.84300
O  30.87100 -4.53900 47.83600
C  28.68100 -4.56300 46.94000
C  28.27900 -3.25700 47.38300
O  27.87300 -2.95000 48.49900
O  28.37400 -2.28900 46.45000
C  28.04100 -0.95200 46.91300
H  22.28700 -6.67900 45.43100
H  22.77600 -10.85600 50.13400
H  28.79500 -8.97700 51.49300
H  26.04600 -3.66000 45.62600
H  24.28800 -5.37700 44.06700
H  22.74600 -3.89400 44.47000
H  23.92200 -3.03200 45.39800
H  22.88300 -4.22300 46.31400
H  26.10200 -5.64200 43.29100
H  27.49500 -5.87500 44.28600
H  28.52800 -4.30800 43.36700
H  27.20000 -3.12400 43.81600
H  20.51400 -7.71400 45.37600
H  19.58700 -8.92000 46.03400
H  20.72100 -9.38600 44.72500
H  22.22900 -12.86600 48.79600
H  20.53900 -13.16700 48.54100
H  20.87900 -12.07100 49.84000
H  24.90400 -12.07000 51.41000
H  26.81500 -10.50000 52.76100
H  23.97300 -11.59700 53.32500
H  23.22000 -10.38400 52.35000
H  24.64900 -9.90100 53.37500
H  28.11900 -11.48000 50.48100
H  26.99300 -12.75900 51.32800
H  29.39200 -12.80000 51.89900
H  28.18600 -12.34300 53.20300
H  29.27300 -11.10700 52.47600
H  31.33700 -6.37300 49.85800
H  30.97200 -8.05900 50.37700
H  30.63400 -6.76100 51.50700
H  28.90500 -4.42700 45.88200
H  28.82500 -0.54000 47.54800
H  27.05700 -0.86800 47.37500
H  28.14800 -0.34800 46.01300
Mg 47.21500 34.98300 27.43900
C  45.66800 33.25100 30.12700
C  47.52300 37.75400 29.40300
C  48.65100 36.66400 24.93200
C  46.49100 32.35600 25.43200
N  46.64900 35.43500 29.50700
C  46.17200 34.54400 30.48600
C  46.37500 35.22000 31.90200
C  46.44300 36.66300 31.49400
C  46.89400 36.64100 30.09300
C  45.09100 37.42500 31.53900
C  47.60500 34.76000 32.67700
C  47.40900 34.63500 34.19100
H  46.39300 35.45800 34.90600
N  48.14600 36.96800 27.18600
C  48.16500 37.91900 28.16100
C  48.93400 39.07400 27.77300
C  49.27100 38.77800 26.40200
C  48.75200 37.43900 26.13500
C  49.06900 40.34000 28.56700
C  50.08800 39.62200 25.45200
O  50.49600 39.11600 24.39800
C  50.65700 41.00200 25.83600
N  47.53100 34.55600 25.52300
C  48.15100 35.39700 24.66300
C  47.95300 34.98200 23.16500
C  47.59000 33.45900 23.34500
C  47.13200 33.46000 24.84100
C  46.99700 35.88700 22.34700
C  48.70300 32.39700 22.97400
C  48.31100 31.33500 22.01100
N  46.26800 33.17700 27.71400
C  46.06000 32.19400 26.77400
C  45.47200 30.99000 27.34700
C  45.23100 31.44200 28.71900
C  45.79800 32.74100 28.82700
C  45.09400 29.70200 26.74400
C  44.67600 31.10300 30.05800
O  44.16200 29.99700 30.29100
C  44.74600 32.35200 30.93400
C  45.16300 31.86600 32.26900
O  46.27700 31.44900 32.52400
O  44.07500 31.71100 33.03500
C  44.18600 31.37300 34.48500
H  47.60500 38.63300 30.04600
H  49.07000 37.22000 24.09100
H  46.27300 31.55900 24.71800
H  45.53600 34.91700 32.52800
H  47.17900 37.15300 32.13100
H  44.34800 36.79100 32.02300
H  44.87800 37.86100 30.56300
H  45.24100 38.19700 32.29400
H  48.57000 35.22300 32.47000
H  47.73900 33.75600 32.27500
H  48.38300 34.91500 34.59500
H  47.28400 33.59100 34.47700
H  50.11000 40.63400 28.43900
H  48.81700 40.11900 29.60500
H  48.46900 41.15900 28.17100
H  51.37500 41.29000 25.06800
H  51.29400 40.78600 26.69300
H  49.94000 41.80800 25.99600
H  48.90900 35.01800 22.64200
H  46.71700 33.14300 22.77400
H  47.59700 36.73800 22.02800
H  46.18300 36.33700 22.91600
H  46.65000 35.38900 21.44100
H  48.96200 32.03200 23.96800
H  49.48600 33.02800 22.55400
H  47.22900 31.20900 21.95800
H  48.76100 30.39200 22.32100
H  48.79400 31.62400 21.07800
H  45.46300 29.61300 25.72200
H  44.04300 29.42200 26.81500
H  45.64700 28.96800 27.33000
H  43.80100 32.89200 30.87000
H  43.75300 32.22700 35.00600
H  45.20600 31.27300 34.85700
H  43.63000 30.47500 34.75200

