158

Mg 30.28100 59.97000 39.30100
C  27.23900 58.35400 38.04900
C  32.01900 57.25400 38.21400
C  33.14600 61.66000 39.75000
C  28.25700 62.79200 39.76600
N  29.67500 58.10300 37.98800
C  28.42400 57.61900 37.78600
C  28.58600 56.31800 37.02100
C  29.94500 55.82000 37.51700
C  30.60700 57.12200 37.95400
C  30.02300 54.70600 38.64600
C  28.29200 56.53400 35.47900
C  27.14200 55.74900 34.78400
H  26.25400 56.41700 33.81600
N  32.33600 59.50600 39.04200
C  32.80300 58.32700 38.65200
C  34.19600 58.37400 38.65800
C  34.62000 59.61000 39.15900
C  33.38300 60.33800 39.38000
C  35.09000 57.30800 38.02700
C  36.03800 60.05500 39.39900
O  36.94100 59.33900 39.06000
C  36.32200 61.27000 40.13500
N  30.63400 61.93000 39.62000
C  31.86800 62.37700 39.83400
C  31.80100 63.94600 39.82100
C  30.29600 64.21200 40.19600
C  29.66000 62.88500 39.88000
C  32.81500 64.68200 40.79900
C  29.68600 65.42800 39.47000
C  28.83600 66.39900 40.43200
N  28.13000 60.52100 39.05300
C  27.51600 61.70100 39.33800
C  26.05300 61.56400 39.16000
C  25.88100 60.18700 38.67600
C  27.18100 59.64400 38.64800
C  24.90300 62.60000 39.22000
C  24.89800 59.24900 38.21000
O  23.66700 59.33300 38.11200
C  25.80600 57.94600 37.84000
C  25.26700 56.83500 38.58200
O  25.72300 56.43600 39.67300
O  24.18600 56.32200 37.93400
C  23.49400 55.22500 38.61000
H  32.55600 56.37900 37.84100
H  33.98900 62.35400 39.73300
H  27.68000 63.70900 39.89700
H  27.94000 55.51600 37.38000
H  30.53700 55.44700 36.68100
H  30.79800 55.03100 39.34000
H  30.39300 53.76300 38.24300
H  29.12500 54.66900 39.26400
H  29.17500 56.26400 34.89800
H  28.02800 57.59000 35.43100
H  26.44400 55.26500 35.46800
H  27.59400 54.86500 34.33400
H  34.57400 56.68600 37.29500
H  35.59900 56.79500 38.84300
H  35.92500 57.72200 37.46100
H  37.25900 61.24300 40.69100
H  35.57000 61.27700 40.92400
H  36.27600 62.19700 39.56300
H  32.05600 64.38100 38.85400
H  30.22000 64.30300 41.28000
H  33.50800 64.01900 41.31700
H  32.24000 65.17300 41.58300
H  33.32800 65.44700 40.21600
H  29.04100 65.11200 38.65100
H  30.55800 66.03400 39.22500
H  28.74700 66.01600 41.44900
H  27.83900 66.59900 40.03800
H  29.45400 67.24400 40.73400
H  24.02700 62.11700 38.78800
H  25.27600 63.51400 38.75700
H  24.75000 62.78000 40.28400
H  25.66100 57.69300 36.78900
H  23.99800 54.32300 38.26500
H  22.44500 55.19000 38.31500
H  23.62000 55.30400 39.69000
Mg 0.24600 42.79100 26.06200
C  2.56800 42.20700 28.66000
C  -2.28500 41.88200 28.29200
C  -2.01900 42.42700 23.53500
C  2.77100 43.07900 23.80700
N  0.22400 42.10600 28.21300
C  1.24400 42.08900 29.14800
C  0.73000 41.88200 30.60800
C  -0.82000 41.85300 30.35000
C  -1.02100 42.03600 28.89000
C  -1.45400 40.52400 30.87900
C  1.25800 42.97700 31.54000
C  1.89300 42.50500 32.83900
H  1.28800 41.21400 33.46700
N  -1.84300 42.35400 25.94600
C  -2.69400 42.01700 26.99100
C  -4.04300 41.75700 26.52600
C  -3.95200 41.86800 25.11200
C  -2.54200 42.24200 24.80700
C  -5.24600 41.34700 27.51600
C  -5.10000 41.67700 24.12400
O  -4.96700 42.04700 22.97800
C  -6.56100 41.34700 24.57300
N  0.36800 42.77100 23.93200
C  -0.70000 42.67100 23.12700
C  -0.24000 42.67700 21.62100
C  1.26800 43.09400 21.77800
C  1.49900 43.09300 23.28900
C  -0.47200 41.33000 20.86000
C  1.81900 44.31900 21.06100
C  1.63200 45.71400 21.71000
N  2.27900 42.76100 26.16800
C  3.16500 42.83600 25.09200
C  4.51700 42.67500 25.64600
C  4.35100 42.49000 27.02000
C  2.93800 42.42600 27.32700
C  5.73300 42.71000 24.89700
C  5.04300 42.34700 28.26200
O  6.25300 42.29400 28.49000
C  3.91300 42.25900 29.38600
C  4.13700 40.93600 30.08100
O  3.62400 39.87300 29.80600
O  4.90400 41.18500 31.15300
C  5.13900 40.02900 32.02000
H  -2.97400 41.64500 29.10600
H  -2.71100 42.45000 22.69000
H  3.63800 43.26200 23.16900
H  1.20400 40.94100 30.88900
H  -1.34000 42.71700 30.76500
H  -0.76500 39.94900 31.49700
H  -1.58600 39.77700 30.09600
H  -2.31600 40.74000 31.51100
H  0.45800 43.60800 31.92700
H  1.94400 43.69700 31.09300
H  1.73400 43.22200 33.64500
H  2.92200 42.39800 32.49600
H  -5.46900 40.29000 27.37300
H  -6.11100 41.99400 27.37400
H  -5.01100 41.40200 28.57900
H  -6.62500 40.45700 25.20000
H  -7.23800 41.29300 23.72000
H  -6.87000 42.26700 25.06900
H  -0.85100 43.49600 21.24300
H  1.94600 42.26000 21.59800
H  -1.09000 40.64000 21.43600
H  0.35300 40.67300 20.58700
H  -1.05100 41.58500 19.97200
H  1.49700 44.36300 20.02100
H  2.89300 44.14600 20.99300
H  2.53700 45.99400 22.25000
H  0.81500 45.59600 22.42200
H  1.29700 46.44600 20.97500
H  6.55800 43.14200 25.46300
H  5.56300 43.35900 24.03800
H  5.88700 41.68200 24.56800
H  3.96900 43.13100 30.03700
H  5.85800 40.31200 32.78900
H  5.55600 39.16600 31.50000
H  4.18100 39.76600 32.46900

