158

Mg 30.89000 58.12000 40.23200
C  28.16400 55.99400 39.28200
C  33.02600 55.60700 39.55700
C  33.29400 60.38400 40.13100
C  28.40100 60.71800 40.50700
N  30.64600 56.16800 39.35400
C  29.45800 55.44400 39.12500
C  29.77800 54.01100 38.78400
C  31.17100 53.86100 39.38300
C  31.69200 55.26300 39.45500
C  31.25200 53.19300 40.78900
C  29.76700 53.77200 37.24700
C  28.93600 52.59400 36.75500
H  27.93000 52.94400 35.56200
N  32.95900 58.02200 39.96000
C  33.60000 56.90100 39.71900
C  35.03000 57.19100 39.54900
C  35.07100 58.61200 39.61100
C  33.72100 59.06400 39.94400
C  36.08400 56.13700 39.39200
C  36.35200 59.42300 39.23000
O  37.32100 58.82000 38.92900
C  36.28600 60.92500 39.03600
N  30.80800 60.20100 40.45800
C  31.98900 60.87000 40.46700
C  31.78100 62.42400 40.67100
C  30.18900 62.49200 40.91300
C  29.74800 61.06400 40.63700
C  32.67800 63.19600 41.60800
C  29.55000 63.61600 40.02500
C  28.30000 64.34300 40.59100
N  28.71300 58.36600 39.91300
C  27.85600 59.48600 40.07400
C  26.50900 59.10400 39.68800
C  26.55000 57.73800 39.39200
C  27.89800 57.34000 39.50000
C  25.33700 59.96000 39.76500
C  25.78100 56.54600 39.05700
O  24.56100 56.39900 38.84600
C  26.84300 55.39400 39.09900
C  26.43600 54.45000 40.23700
O  27.01900 54.30400 41.31900
O  25.31800 53.73900 39.83000
C  24.68500 52.79500 40.78100
H  33.60900 54.69200 39.43300
H  33.94400 61.26200 40.16100
H  27.73900 61.56700 40.69000
H  29.10100 53.34300 39.31600
H  31.81400 53.33300 38.67800
H  31.63300 53.94200 41.48200
H  31.78100 52.24200 40.72400
H  30.23700 53.09100 41.17400
H  30.72000 53.51500 36.78300
H  29.32500 54.63400 36.74800
H  28.31000 52.31200 37.60200
H  29.51100 51.73700 36.40300
H  36.22000 55.90600 38.33500
H  35.93200 55.20200 39.93100
H  36.99900 56.52400 39.84100
H  35.66600 61.25800 38.20400
H  37.32400 61.19900 38.84900
H  36.13800 61.50800 39.94500
H  32.03800 62.91700 39.73300
H  29.85800 62.61500 41.94400
H  32.10800 63.53000 42.47600
H  32.98700 64.11700 41.11400
H  33.53800 62.60500 41.92500
H  29.15900 63.13400 39.12900
H  30.29500 64.40100 39.89800
H  28.48200 65.41000 40.46200
H  28.01400 63.97100 41.57500
H  27.41200 64.14200 39.99200
H  24.54300 59.46500 39.20500
H  25.68700 60.94100 39.44100
H  25.00200 60.11000 40.79100
H  26.59300 54.91700 38.15200
H  24.43800 51.87300 40.25500
H  23.80800 53.14500 41.32400
H  25.43800 52.50300 41.51300
Mg 9.42400 47.25700 27.72800
C  7.35100 47.35700 30.45100
C  12.10400 47.97200 29.73800
C  11.42200 47.37700 24.88100
C  6.59800 47.52800 25.56400
N  9.63700 47.55900 29.78700
C  8.69600 47.56800 30.74600
C  9.35100 47.73800 32.14800
C  10.80700 48.23300 31.79100
C  10.86300 47.91400 30.33900
C  10.93900 49.82900 32.11400
C  9.35900 46.41700 32.90900
C  8.75700 46.41800 34.30700
H  8.66600 45.19800 35.30000
N  11.53400 47.49900 27.37400
C  12.49400 47.63700 28.38000
C  13.82600 47.68600 27.68500
C  13.58400 47.51500 26.29200
C  12.13800 47.49200 26.15400
C  15.13500 47.90600 28.41200
C  14.63900 47.40100 25.17800
O  14.43600 47.29700 23.93400
C  16.17700 47.27300 25.54000
N  9.03500 47.43500 25.52000
C  10.04900 47.42300 24.61600
C  9.47100 47.57300 23.16300
C  7.93000 47.54800 23.38200
C  7.81600 47.55600 24.90500
C  10.01000 48.85100 22.50800
C  7.07000 46.36600 22.80000
C  6.28300 46.81600 21.57600
N  7.34700 47.42500 27.88000
C  6.39900 47.47200 26.98200
C  5.09700 47.40700 27.65200
C  5.41500 47.32500 28.99500
C  6.80400 47.32300 29.09800
C  3.71200 47.60800 27.01300
C  4.80300 47.32500 30.39900
O  3.61700 47.55100 30.73700
C  6.09100 47.24500 31.35400
C  5.95400 45.98600 32.10200
O  6.24200 44.89200 31.68700
O  5.44200 46.24600 33.38500
C  5.40800 45.07700 34.23600
H  12.97600 48.23900 30.34000
H  11.99100 47.58300 23.97200
H  5.73000 47.52700 24.90300
H  8.71800 48.51300 32.58100
H  11.62200 47.71400 32.29600
H  11.94400 49.92000 32.52500
H  10.18100 50.22200 32.79200
H  11.05200 50.42300 31.20700
H  10.32900 45.94400 33.05900
H  8.68200 45.73700 32.39200
H  7.75900 46.83900 34.18700
H  9.37700 47.23100 34.68400
H  15.04800 47.80900 29.49400
H  15.51000 48.90100 28.17500
H  15.78900 47.06600 28.18000
H  16.79000 46.96400 24.69300
H  16.30600 46.37500 26.14300
H  16.56000 48.21800 25.92600
H  9.68500 46.65100 22.62300
H  7.64900 48.51100 22.95600
H  9.23500 49.23600 21.84600
H  10.84100 48.45000 21.92900
H  10.33600 49.61900 23.20900
H  6.34000 45.97100 23.50600
H  7.75800 45.58100 22.48600
H  5.24400 46.53600 21.74800
H  6.66200 46.35200 20.66500
H  6.30300 47.90100 21.48400
H  2.89500 47.51400 27.72800
H  3.44000 46.80600 26.32700
H  3.75600 48.60200 26.56700
H  6.13400 48.07200 32.06300
H  5.32700 45.35600 35.28600
H  6.25400 44.39900 34.12400
H  4.52100 44.57200 33.85300

