158

Mg 2.13500 -0.25400 42.89600
C  5.66100 -0.03800 42.61400
C  1.82700 2.53400 40.93200
C  -1.08100 -0.98800 42.41800
C  2.67400 -3.46000 44.23600
N  3.55700 1.09500 41.87800
C  4.98300 1.03200 41.91800
C  5.57300 2.12700 41.06500
C  4.36800 3.12300 40.89700
C  3.20100 2.20100 41.18200
C  4.39500 4.37100 41.90500
C  6.04200 1.58500 39.67200
C  7.46300 2.06200 39.23800
H  7.55500 2.52200 37.77500
N  0.54200 0.69500 41.97000
C  0.64800 1.85000 41.23400
C  -0.70900 2.20000 40.83600
C  -1.59900 1.32600 41.38900
C  -0.74500 0.25900 41.93500
C  -1.04200 3.57100 40.03200
C  -3.21900 1.46400 41.41200
O  -3.75200 2.38100 40.87200
C  -4.07500 0.39500 42.00600
N  0.96200 -2.07400 43.14200
C  -0.36700 -2.04300 43.00100
C  -0.98000 -3.32400 43.52500
C  0.11700 -4.02200 44.31700
C  1.34800 -3.18100 43.85700
C  -2.26200 -3.08400 44.42200
C  0.41800 -5.54100 43.97500
C  -0.28200 -6.57300 44.87400
N  3.77600 -1.47300 43.47200
C  3.78000 -2.73200 43.96500
C  5.21400 -3.22800 44.06700
C  5.98100 -2.13800 43.58800
C  5.04500 -1.13700 43.26200
C  5.71500 -4.58700 44.61200
C  7.28300 -1.68700 43.35400
O  8.34000 -2.31900 43.52900
C  7.14100 -0.29200 42.67900
C  7.80100 0.76500 43.54800
O  7.71500 0.82600 44.76300
O  8.59000 1.65000 42.77700
C  9.11400 2.85800 43.42400
H  1.71000 3.43000 40.31800
H  -2.14000 -1.23300 42.31600
H  2.84500 -4.39000 44.78200
H  6.33400 2.70100 41.59300
H  4.22800 3.50500 39.88600
H  5.44900 4.64200 41.95500
H  3.97200 3.96100 42.82300
H  3.83800 5.23900 41.55300
H  5.28400 1.80500 38.92000
H  5.99200 0.49800 39.73300
H  8.25800 1.34100 39.42900
H  7.75900 2.91800 39.84600
H  -0.17500 4.04600 39.57300
H  -1.44600 4.22200 40.80700
H  -1.79400 3.55100 39.24300
H  -5.13900 0.54100 41.82200
H  -3.86500 0.29200 43.07100
H  -3.91600 -0.58200 41.55100
H  -1.33600 -3.84100 42.63400
H  0.13000 -3.73000 45.36700
H  -2.29500 -2.01400 44.62600
H  -2.15400 -3.63800 45.35500
H  -3.13900 -3.42200 43.87100
H  1.46800 -5.83300 43.96900
H  0.05100 -5.72200 42.96500
H  -1.06900 -5.97600 45.33600
H  0.31900 -7.05300 45.64700
H  -0.80500 -7.29500 44.24800
H  4.98500 -5.29600 45.00200
H  6.44400 -4.42300 45.40600
H  6.26800 -5.08000 43.81200
H  7.69100 -0.33200 41.73900
H  8.61200 3.72000 42.98400
H  10.15600 2.95500 43.11800
H  9.10700 2.78200 44.51100
Mg 36.46400 48.83300 24.41600
C  36.38400 47.00900 27.36100
C  35.44600 51.54500 26.32000
C  35.82400 50.37200 21.46300
C  37.76100 46.12400 22.72800
N  35.82300 49.19200 26.63500
C  36.02100 48.31300 27.65600
C  36.02100 48.96800 29.03200
C  35.51400 50.41300 28.64900
C  35.65600 50.39800 27.11700
C  34.10600 50.69900 29.14500
C  37.45900 49.07800 29.76300
C  37.50700 48.83900 31.31800
H  36.07700 48.78000 32.00400
N  35.80900 50.68000 23.97200
C  35.37200 51.62700 24.87000
C  35.01300 52.81900 24.05400
C  34.96600 52.48600 22.65700
C  35.51800 51.10300 22.65600
C  34.70500 54.16600 24.65800
C  34.71100 53.34600 21.36200
O  34.69100 52.89600 20.20200
C  34.36500 54.83200 21.49100
N  36.74100 48.35100 22.34100
C  36.41200 49.13700 21.26500
C  36.86200 48.48100 19.89900
C  37.72000 47.19800 20.35600
C  37.42900 47.20600 21.90100
C  35.63500 48.16000 18.99100
C  39.31200 47.54000 20.20800
C  40.25800 46.39700 19.77600
N  36.90600 46.93300 24.88200
C  37.40800 45.86800 24.04900
C  37.51100 44.71300 24.82500
C  37.14800 45.08100 26.15300
C  36.80800 46.45700 26.12200
C  38.19700 43.34700 24.37300
C  37.03100 44.61300 27.50200
O  37.24500 43.51500 28.03600
C  36.58300 45.95200 28.33800
C  35.34200 45.61700 29.03700
O  34.19900 45.76200 28.57000
O  35.55700 45.07800 30.27200
C  34.34300 44.76600 31.06300
H  35.25900 52.40300 26.96900
H  35.54000 50.75500 20.48100
H  38.20800 45.25800 22.23500
H  35.39900 48.22000 29.52500
H  36.22200 51.14100 29.04400
H  33.83500 49.89600 29.83100
H  33.28900 50.68400 28.42300
H  34.02200 51.69300 29.58400
H  37.91200 50.05400 29.58800
H  38.11400 48.38200 29.24000
H  38.07300 49.65300 31.77100
H  38.03900 47.90000 31.47100
H  33.79700 54.56800 24.20800
H  35.58500 54.79100 24.50900
H  34.46100 54.08000 25.71700
H  33.38300 54.84100 21.96300
H  34.29300 55.28700 20.50300
H  35.07200 55.41600 22.08200
H  37.41700 49.20300 19.30000
H  37.46500 46.27300 19.83900
H  35.94800 47.29200 18.41000
H  35.49900 48.95400 18.25700
H  34.70000 48.06200 19.54200
H  39.70000 47.81200 21.18900
H  39.47500 48.36900 19.51900
H  39.63800 45.53300 19.53500
H  40.89800 46.02600 20.57600
H  40.88000 46.64100 18.91600
H  38.98900 43.07300 25.07100
H  38.60500 43.58500 23.39100
H  37.58600 42.44400 24.36800
H  37.42700 46.21400 28.97500
H  34.53100 43.78000 31.48800
H  33.43100 44.61600 30.48500
H  34.14100 45.50600 31.83700

