158

Mg -11.52600 38.31700 42.43100
C  -9.29800 35.83800 41.20400
C  -10.04700 40.56000 40.36600
C  -14.23000 40.25100 42.66600
C  -13.37200 35.63600 43.83000
N  -9.97500 38.20400 40.87800
C  -9.11300 37.10900 40.62900
C  -7.99100 37.43500 39.63800
C  -8.15800 38.98800 39.43600
C  -9.42000 39.32100 40.35600
C  -6.86200 39.83400 39.78800
C  -7.99300 36.54500 38.28900
C  -6.78400 35.65000 38.13600
H  -5.65300 36.18800 37.28600
N  -11.96500 40.19300 41.82300
C  -11.16000 40.99200 41.01100
C  -11.75500 42.28900 40.89100
C  -12.99600 42.31100 41.56800
C  -13.09400 40.87800 42.07200
C  -11.00200 43.48900 40.22800
C  -13.93500 43.45500 41.79600
O  -13.71500 44.50500 41.20000
C  -15.18400 43.47500 42.72200
N  -13.46900 38.00700 43.23300
C  -14.41700 38.98400 43.17600
C  -15.84400 38.47200 43.55900
C  -15.59400 36.98800 43.94400
C  -14.04500 36.83300 43.61700
C  -16.37000 39.31000 44.72500
C  -16.57000 35.97700 43.23800
C  -17.18200 34.85000 44.04000
N  -11.29900 36.16900 42.66300
C  -12.10600 35.30600 43.36300
C  -11.43300 34.02100 43.45700
C  -10.27200 34.14500 42.61700
C  -10.27700 35.46300 42.14100
C  -11.94500 32.81300 44.16300
C  -9.07800 33.49800 41.99200
O  -8.66800 32.38800 41.97400
C  -8.45700 34.59300 41.02600
C  -7.05600 34.80800 41.43300
O  -6.16600 34.05300 41.08900
O  -6.83500 35.85700 42.28400
C  -5.52200 36.03500 42.85500
H  -9.43400 41.18000 39.70900
H  -15.12800 40.87200 42.70200
H  -13.89400 34.77900 44.26000
H  -7.03500 37.32600 40.15000
H  -8.32300 39.14500 38.37000
H  -7.29300 40.68800 40.31200
H  -6.34600 40.21700 38.90700
H  -6.13200 39.34000 40.42900
H  -7.98700 37.20700 37.42300
H  -8.95300 36.03000 38.25300
H  -7.13300 34.63700 37.93500
H  -6.28600 35.49400 39.09300
H  -11.38300 43.75700 39.24200
H  -9.92000 43.37000 40.28300
H  -11.12200 44.41500 40.79100
H  -15.01500 42.96800 43.67200
H  -15.99000 42.98900 42.17300
H  -15.42900 44.52700 42.86600
H  -16.48400 38.59600 42.68600
H  -15.67400 36.85000 45.02200
H  -15.60000 40.03800 44.97800
H  -16.56600 38.77800 45.65600
H  -17.17900 39.99400 44.46500
H  -15.94600 35.59500 42.43000
H  -17.23900 36.55800 42.60400
H  -16.88400 33.91200 43.57200
H  -18.26800 34.81300 43.94600
H  -16.95000 34.89300 45.10400
H  -12.37700 33.11400 45.11700
H  -11.09900 32.13800 44.29500
H  -12.71400 32.36400 43.53400
H  -8.48800 34.22900 39.99900
H  -5.54600 36.88500 43.53700
H  -4.70200 36.14100 42.14500
H  -5.40800 35.18500 43.52800
Mg 0.88100 44.02200 23.92600
C  2.73400 43.77400 26.89700
C  -2.00800 43.64000 25.90400
C  -0.89400 43.90200 21.14200
C  3.87200 43.75400 22.07200
N  0.40800 43.83000 26.24900
C  1.37900 43.75300 27.22200
C  0.66600 43.50500 28.58800
C  -0.83800 43.43600 28.23200
C  -0.83500 43.61400 26.74000
C  -1.55900 42.14000 28.80100
C  0.88100 44.52900 29.75700
C  1.38200 44.03300 31.07600
H  1.04500 42.61500 31.63900
N  -1.17200 43.86700 23.57900
C  -2.17300 43.83400 24.49200
C  -3.44800 43.94600 23.79900
C  -3.17700 44.12900 22.43400
C  -1.69100 44.02000 22.32600
C  -4.87700 43.80800 24.42100
C  -4.03100 44.33900 21.29700
O  -3.62900 44.44900 20.15100
C  -5.55200 44.60800 21.46200
N  1.41900 43.88400 21.91100
C  0.50100 43.79900 20.95700
C  1.13000 43.68300 19.62000
C  2.63700 44.01900 19.84700
C  2.65400 43.84800 21.35700
C  0.86300 42.23100 19.13900
C  3.11100 45.51100 19.45000
C  3.97500 45.52700 18.11000
N  2.89800 43.87800 24.33300
C  4.02200 43.83400 23.49300
C  5.22300 43.83800 24.29400
C  4.75300 43.86600 25.59100
C  3.36300 43.85900 25.58700
C  6.67400 43.63000 23.73200
C  5.10700 43.77700 26.98000
O  6.20800 43.76600 27.49700
C  3.82600 43.71500 27.89100
C  3.93300 42.35900 28.56200
O  3.75000 41.24500 28.00800
O  4.20300 42.57600 29.89000
C  4.65300 41.45900 30.61200
H  -2.95300 43.59500 26.45000
H  -1.44200 43.77700 20.20600
H  4.75900 43.70900 21.43700
H  1.13100 42.57200 28.90400
H  -1.39300 44.29500 28.60800
H  -0.96700 41.61700 29.55200
H  -1.64100 41.41500 27.99000
H  -2.52000 42.30700 29.28700
H  0.06700 45.23000 29.94100
H  1.64900 45.16000 29.31000
H  0.92600 44.76300 31.74500
H  2.41300 44.35100 31.22500
H  -5.70500 44.47500 24.18100
H  -4.77400 43.93200 25.49900
H  -5.19300 42.78200 24.23000
H  -6.04900 43.65600 21.64900
H  -5.91300 44.95100 20.49200
H  -5.69300 45.36600 22.23200
H  0.73200 44.36800 18.87100
H  3.34100 43.29800 19.43200
H  0.15600 41.58700 19.66100
H  1.73800 41.63900 18.87100
H  0.37600 42.28200 18.16500
H  3.74300 45.99200 20.19600
H  2.27300 46.20400 19.37800
H  3.57600 46.22200 17.37200
H  3.91900 44.57200 17.58800
H  5.00200 45.84800 18.28300
H  7.32100 43.78500 24.59500
H  6.83100 44.40900 22.98600
H  6.72700 42.64500 23.26700
H  3.76600 44.47000 28.67400
H  5.70600 41.22100 30.45800
H  4.03200 40.61900 30.29900
H  4.67000 41.57300 31.69500

