158

Mg 54.83000 24.48500 44.71100
C  52.15700 26.62300 43.56300
C  52.94900 21.80400 43.82400
C  57.56700 22.56200 45.36400
C  56.64100 27.39000 45.37000
N  52.76300 24.24400 43.78900
C  51.85700 25.26400 43.51100
C  50.60000 24.63700 42.92800
C  50.73700 23.15600 43.42600
C  52.21600 23.00000 43.80800
C  49.86400 22.69800 44.62500
C  50.57700 24.79100 41.39800
C  49.13900 24.99000 40.75200
H  48.79300 24.48000 39.34700
N  55.23000 22.48200 44.54200
C  54.34200 21.52900 44.16100
C  54.96700 20.20600 44.20300
C  56.30100 20.48500 44.49900
C  56.41000 21.88300 44.87100
C  54.29600 18.96100 43.73700
C  57.39200 19.41600 44.37900
O  57.04500 18.26500 44.01900
C  58.94400 19.74300 44.56700
N  56.79900 24.94800 45.15900
C  57.72200 23.91700 45.53900
C  59.10800 24.55900 45.97000
C  58.86100 26.06200 45.64200
C  57.35700 26.15900 45.44400
C  59.65700 24.13300 47.46500
C  59.57800 26.65100 44.48800
C  60.97500 27.08200 44.60300
N  54.46900 26.59400 44.51700
C  55.31100 27.67100 44.84300
C  54.61200 28.97500 44.66700
C  53.33600 28.59900 44.18100
C  53.35000 27.18500 44.10100
C  55.13300 30.32300 45.09700
C  52.04100 29.02100 43.64100
O  51.58700 30.16000 43.54900
C  51.33900 27.78500 43.07800
C  51.33900 27.95100 41.63800
O  52.31700 27.78600 40.92400
O  50.11800 28.32700 41.12600
C  50.09500 28.43300 39.71200
H  52.38000 20.89600 43.61200
H  58.40600 21.98200 45.75500
H  57.21000 28.25700 45.71200
H  49.74000 25.09200 43.42000
H  50.56300 22.50100 42.57200
H  50.47300 22.52300 45.51200
H  49.32500 21.77700 44.40300
H  49.27100 23.56200 44.92500
H  50.88200 23.81100 41.03300
H  51.26900 25.55000 41.03300
H  49.07600 26.06800 40.60700
H  48.32600 24.86300 41.46600
H  54.61000 18.68200 42.73200
H  53.22100 19.09400 43.61600
H  54.40000 18.15700 44.46600
H  59.19200 20.76800 44.29200
H  59.44200 18.94800 44.01200
H  59.19700 19.62600 45.62100
H  59.80300 23.96500 45.37600
H  59.20100 26.62200 46.51300
H  60.00600 24.99300 48.03600
H  60.38600 23.32500 47.40400
H  58.88600 23.69700 48.10000
H  58.90300 27.38800 44.05300
H  59.57900 25.82200 43.78100
H  61.13100 28.07700 44.18600
H  61.59800 26.42800 43.99300
H  61.27900 27.24100 45.63800
H  56.18200 30.22400 45.37600
H  54.53400 30.73000 45.91100
H  55.11100 30.92500 44.18900
H  50.33300 27.72900 43.49400
H  49.03800 28.49700 39.45400
H  50.52900 27.59300 39.16900
H  50.46900 29.37600 39.31500
Mg 29.75000 57.76800 40.66200
C  27.05000 55.77200 39.47800
C  31.84300 55.60700 39.11600
C  32.25500 60.01500 40.98800
C  27.49400 60.26000 41.57800
N  29.41200 55.97100 39.44900
C  28.31000 55.25100 39.08400
C  28.57700 53.93200 38.29300
C  30.12400 53.86900 38.48200
C  30.48100 55.23900 39.04400
C  30.69800 52.67900 39.28300
C  28.06900 54.02800 36.78700
C  27.86400 55.35100 36.12600
H  27.03300 55.39000 34.95700
N  31.83700 57.80500 40.22600
C  32.50700 56.70800 39.70500
C  33.92700 56.96700 39.76100
C  34.07500 58.24600 40.41100
C  32.70500 58.76300 40.56300
C  35.02200 55.96600 39.44800
C  35.36500 58.94500 40.63500
O  36.45900 58.45900 40.28500
C  35.45400 60.29300 41.29000
N  29.83000 59.95100 41.13200
C  31.02000 60.55400 41.25500
C  30.80800 62.02900 41.67600
C  29.25100 62.15800 41.92800
C  28.82300 60.71000 41.58100
C  31.69700 62.56500 42.90000
C  28.54300 63.34400 41.13600
C  28.21200 64.59400 41.90800
N  27.70400 57.94300 40.74700
C  26.93500 59.00200 41.16200
C  25.55200 58.58100 41.15200
C  25.55900 57.26500 40.47800
C  26.93500 57.00300 40.24500
C  24.39500 59.49900 41.46300
C  24.69000 56.30300 39.89000
O  23.45500 56.26800 39.74800
C  25.62700 55.27500 39.27100
C  25.38700 53.97600 39.98600
O  26.02600 53.53300 40.95800
O  24.25400 53.38300 39.55500
C  23.95000 52.02600 39.86000
H  32.52100 54.87200 38.67700
H  33.02600 60.78000 41.10300
H  26.68100 60.97500 41.72600
H  28.08800 53.20800 38.94400
H  30.70100 53.86700 37.55800
H  29.96900 51.86800 39.26900
H  30.78000 53.00400 40.32000
H  31.67500 52.40500 38.88400
H  27.17900 53.40600 36.67900
H  28.87200 53.60400 36.18400
H  28.82500 55.77700 35.83900
H  27.48700 56.13000 36.78900
H  35.75900 56.43600 38.79600
H  34.64800 55.06700 38.95900
H  35.67000 55.67900 40.27600
H  35.01500 61.06500 40.65800
H  36.53200 60.41600 41.39400
H  35.04100 60.45400 42.28600
H  31.10600 62.55300 40.76900
H  29.16500 62.27700 43.00800
H  32.63200 62.00500 42.86500
H  31.28800 62.49200 43.90800
H  31.96000 63.60100 42.68100
H  27.74700 62.91100 40.53100
H  29.25400 63.70000 40.39000
H  28.76800 65.45800 41.54300
H  28.49100 64.51500 42.95900
H  27.14900 64.79800 41.78200
H  24.68500 60.18800 42.25600
H  23.49200 58.95300 41.73500
H  24.22000 60.12700 40.58800
H  25.42600 55.17200 38.20500
H  23.17400 51.84100 40.60300
H  24.84300 51.45300 40.11300
H  23.48000 51.61000 38.96900

