158

Mg 16.96500 -2.59700 27.99600
C  16.08600 -0.66300 30.84400
C  18.22800 -4.96900 29.98600
C  17.89700 -4.33800 25.13900
C  15.47800 -0.18000 26.04600
N  17.17500 -2.74300 30.15200
C  16.74800 -1.86400 31.10900
C  17.02500 -2.45400 32.56200
C  17.88300 -3.78800 32.23500
C  17.85100 -3.83100 30.67400
C  19.30800 -3.75800 32.93600
C  15.74500 -2.72400 33.40600
C  15.84900 -2.22700 34.87900
H  17.20600 -1.65600 35.43700
N  17.70100 -4.51300 27.68200
C  18.05300 -5.37700 28.64400
C  18.39200 -6.60600 28.00400
C  18.45800 -6.37600 26.56700
C  18.08700 -5.00900 26.44300
C  18.71800 -7.86600 28.84800
C  18.85700 -7.33800 25.41900
O  18.84300 -7.07500 24.23900
C  19.41900 -8.68300 25.86100
N  16.87000 -2.25000 25.88400
C  17.35500 -3.04200 24.93800
C  17.05000 -2.51600 23.58900
C  16.10400 -1.27200 23.86400
C  16.12400 -1.24800 25.32600
C  18.32400 -2.26800 22.62000
C  14.66700 -1.20000 23.24600
C  13.58200 -2.02100 23.89700
N  16.20100 -0.63300 28.28700
C  15.50300 0.10200 27.44400
C  14.90800 1.17200 28.23100
C  15.12200 0.90700 29.52800
C  15.93600 -0.20800 29.55400
C  14.00300 2.32800 27.73000
C  14.77800 1.43000 30.80800
O  14.17200 2.41900 31.17500
C  15.41000 0.37700 31.73000
C  16.39800 0.97000 32.71000
O  17.61200 0.94700 32.59600
O  15.73100 1.65400 33.62800
C  16.50900 2.54500 34.54800
H  18.60500 -5.66100 30.74200
H  18.29300 -4.85800 24.26400
H  14.99900 0.50400 25.34200
H  17.63600 -1.65600 32.98200
H  17.39500 -4.70700 32.56000
H  19.96000 -4.19000 32.17700
H  19.22900 -4.33800 33.85600
H  19.66600 -2.79200 33.29300
H  15.45300 -3.77400 33.38900
H  14.88400 -2.22900 32.95700
H  15.50000 -2.99600 35.56900
H  15.10300 -1.48500 35.16600
H  17.96900 -8.61100 28.58000
H  18.72300 -7.71900 29.92800
H  19.74200 -8.14700 28.60200
H  20.18700 -8.76800 26.63000
H  19.92400 -9.12900 25.00300
H  18.59500 -9.28700 26.24000
H  16.48700 -3.33000 23.13200
H  16.71900 -0.47000 23.45700
H  18.27000 -1.26400 22.19900
H  18.36800 -3.01800 21.83000
H  19.24900 -2.37300 23.18700
H  14.80600 -1.45100 22.19400
H  14.37900 -0.15000 23.29600
H  13.91100 -2.69100 24.69200
H  13.14800 -2.68100 23.14700
H  12.79500 -1.32500 24.18900
H  13.02400 2.19000 28.19000
H  13.93700 2.33500 26.64200
H  14.27600 3.31400 28.10400
H  14.60400 -0.07900 32.30600
H  15.93400 3.47000 34.57200
H  17.48900 2.82100 34.15900
H  16.60900 2.24000 35.59000
Mg 6.77500 53.70900 40.71700
C  6.94800 50.11900 40.56100
C  10.12100 53.71100 39.78800
C  6.44000 56.89300 40.13700
C  3.34600 53.27800 41.57100
N  8.26300 52.07400 40.23700
C  8.11200 50.72600 40.23400
C  9.49000 50.06700 39.69900
C  10.51600 51.18400 39.85300
C  9.58300 52.42800 39.95400
C  11.44500 51.16700 41.10900
C  9.44800 49.45500 38.28500
C  9.10000 50.47200 37.17600
H  7.64000 50.75100 36.72900
N  8.08600 55.11400 39.96900
C  9.46700 54.92200 39.79700
C  10.02800 56.23300 39.70400
C  8.96700 57.14500 39.58300
C  7.75100 56.39900 39.85900
C  11.58900 56.46900 39.54100
C  9.15500 58.62500 39.40300
O  10.25000 59.20600 39.31800
C  7.98100 59.63600 39.10800
N  4.95400 54.81600 40.55500
C  5.24100 56.21800 40.59000
C  3.89300 56.98000 40.83200
C  2.96500 55.90800 41.41800
C  3.76600 54.53700 41.19600
C  4.10500 58.31100 41.72900
C  1.61600 55.84500 40.69400
C  0.44300 56.80800 41.18900
N  5.37900 52.11000 41.00800
C  4.05300 52.07500 41.44900
C  3.68000 50.71300 41.82600
C  4.74300 49.93200 41.39500
C  5.75800 50.79400 40.90600
C  2.43000 50.32500 42.53300
C  5.18500 48.66700 41.32900
O  4.59700 47.62500 41.58700
C  6.48500 48.69700 40.56800
C  6.06900 48.28100 39.21900
O  5.32000 48.92200 38.46600
O  6.50500 47.00000 39.03800
C  5.82800 46.30500 37.91200
H  11.16500 53.72400 39.46700
H  6.31600 57.97800 40.15500
H  2.33800 53.17000 41.97700
H  9.75300 49.28900 40.41500
H  11.04000 51.46100 38.93800
H  11.81300 50.14300 41.04200
H  10.87100 51.31300 42.02400
H  12.34000 51.78700 41.05400
H  8.56500 48.81700 38.27800
H  10.25000 48.83000 37.89100
H  9.63800 50.33800 36.23800
H  9.48800 51.43200 37.51700
H  11.80000 56.39600 38.47500
H  12.08400 55.68600 40.11600
H  11.94700 57.43700 39.89300
H  7.14700 59.23200 38.53400
H  8.38900 60.49500 38.57400
H  7.74700 59.97200 40.11800
H  3.62400 57.21400 39.80200
H  2.71000 56.00700 42.47300
H  5.13800 58.33300 42.07900
H  3.52200 58.21700 42.64500
H  3.83200 59.19900 41.16000
H  1.29100 54.80700 40.63000
H  1.82100 56.15200 39.66900
H  -0.49600 56.40400 41.56800
H  0.19400 57.36800 40.28800
H  0.65900 57.47100 42.02700
H  2.62800 49.53500 43.25800
H  1.67800 49.95500 41.83500
H  2.08100 51.14100 43.16500
H  7.22100 48.04000 41.03100
H  6.55800 45.75000 37.32100
H  5.16100 46.88500 37.27500
H  5.02600 45.70000 38.33600

