158

Mg 25.67300 1.49000 29.04000
C  27.53800 0.78700 31.98600
C  22.86800 1.68100 30.88300
C  23.99900 1.66400 26.12300
C  28.61700 0.46600 27.21900
N  25.30200 1.24500 31.25200
C  26.17600 1.11000 32.27500
C  25.46800 1.24600 33.62700
C  23.97700 1.57000 33.18800
C  24.05200 1.58200 31.70300
C  22.95700 0.45800 33.62800
C  26.17200 2.31500 34.58100
C  26.92700 1.92900 35.90500
H  26.57800 2.81500 37.11400
N  23.68700 1.70000 28.52900
C  22.69400 1.78100 29.42200
C  21.43900 2.01200 28.75500
C  21.72500 2.04300 27.34200
C  23.17300 1.76000 27.25600
C  20.08900 2.25200 29.46900
C  20.80500 2.24300 26.11700
O  21.13900 2.03000 24.95200
C  19.25400 2.55300 26.24300
N  26.24400 0.97000 26.94100
C  25.30000 1.24200 25.97400
C  26.01900 1.26100 24.56100
C  27.48000 0.88800 24.87900
C  27.48000 0.71300 26.40300
C  25.38500 0.44200 23.45700
C  28.53000 1.80900 24.20500
C  29.02300 1.51300 22.77200
N  27.72700 0.85900 29.43500
C  28.73800 0.41000 28.62400
C  29.81800 -0.09800 29.47200
C  29.49700 0.16300 30.75900
C  28.12000 0.66800 30.74000
C  31.00400 -0.73900 28.91900
C  29.94800 0.01400 32.09600
O  31.03000 -0.27900 32.57100
C  28.68700 0.44500 32.98400
C  28.23400 -0.68000 33.73800
O  27.39900 -1.50200 33.32500
O  28.87600 -0.69300 34.95500
C  28.42200 -1.65000 35.92000
H  21.87000 1.70100 31.32600
H  23.50400 1.86400 25.17000
H  29.43900 0.23100 26.53900
H  25.59500 0.27500 34.10500
H  23.57600 2.48100 33.63100
H  22.07700 0.94100 34.05300
H  23.47500 -0.12600 34.38900
H  22.61800 -0.17500 32.80800
H  25.40300 2.99100 34.95700
H  26.76100 2.97400 33.94400
H  27.97100 1.77700 35.63000
H  26.53100 0.92100 36.03200
H  20.15400 1.60500 30.34400
H  19.17500 1.97600 28.94400
H  19.90900 3.27900 29.78700
H  18.88500 2.66500 25.22400
H  19.18900 3.50500 26.77000
H  18.68100 1.83900 26.83500
H  25.86100 2.30400 24.28500
H  27.69800 -0.09600 24.46300
H  25.65300 -0.61400 23.45100
H  25.58900 0.78600 22.44300
H  24.31200 0.48700 23.64200
H  29.44800 1.72200 24.78600
H  28.28300 2.86600 24.29800
H  30.09200 1.69200 22.65600
H  28.37300 2.18100 22.20500
H  28.65500 0.51000 22.55500
H  30.82100 -1.05200 27.89100
H  31.36100 -1.59600 29.49000
H  31.78500 0.00300 29.09000
H  28.82700 1.32000 33.61800
H  29.24400 -1.80500 36.61900
H  28.29400 -2.63500 35.47000
H  27.59800 -1.31400 36.54900
Mg 7.22400 53.59000 41.47500
C  7.00800 50.02100 40.89600
C  10.50500 53.44700 40.33700
C  7.01500 56.86700 40.86100
C  3.71900 53.52500 41.76400
N  8.51500 51.90100 40.54800
C  8.30000 50.57600 40.60300
C  9.56800 49.76000 40.29800
C  10.64500 50.91000 40.55200
C  9.89000 52.19900 40.45400
C  11.41700 50.73300 41.83700
C  9.55700 49.11300 38.89000
C  9.46400 50.00900 37.64500
H  8.05700 50.05400 37.03800
N  8.61200 54.98700 40.84600
C  9.89000 54.72000 40.49400
C  10.56300 56.05200 40.45300
C  9.54600 57.10200 40.54700
C  8.29200 56.35000 40.73400
C  12.04000 56.17100 40.37500
C  9.84100 58.52300 40.60600
O  10.98300 58.94700 40.41200
C  8.82700 59.60200 40.72200
N  5.48700 55.03900 41.19200
C  5.77200 56.32500 41.08100
C  4.62400 57.13300 41.60600
C  3.48700 56.12000 41.50300
C  4.22900 54.78300 41.51000
C  4.84600 57.75800 43.01800
C  2.56300 56.28400 40.17200
C  1.06400 55.87300 40.34300
N  5.72500 52.07200 41.61100
C  4.32800 52.25300 41.66500
C  3.76700 51.05000 41.69200
C  4.80400 50.10900 41.42100
C  5.96400 50.79000 41.39300
C  2.35800 50.67800 41.90000
C  5.06900 48.70500 41.27700
O  4.28500 47.71000 41.37500
C  6.51400 48.59300 40.91000
C  6.41000 48.06100 39.52500
O  6.13900 48.76100 38.59100
O  6.54300 46.74800 39.50500
C  6.46100 46.06100 38.14200
H  11.58200 53.33100 40.20600
H  7.03500 57.95800 40.89500
H  2.64500 53.36300 41.87400
H  9.53000 49.00700 41.08600
H  11.42300 50.80000 39.79600
H  12.41200 51.17900 41.83800
H  11.48900 49.72000 42.23200
H  10.95800 51.34900 42.61000
H  8.79900 48.33400 38.81800
H  10.53100 48.62400 38.86800
H  10.13400 49.56800 36.90700
H  9.89500 50.97000 37.92600
H  12.30700 55.42600 39.62600
H  12.47500 55.87500 41.33000
H  12.36900 57.15000 40.02600
H  8.11100 59.44400 39.91600
H  9.22300 60.60600 40.56600
H  8.34800 59.61100 41.70100
H  4.49000 57.99700 40.95500
H  2.85300 56.22100 42.38400
H  5.45400 57.05000 43.58100
H  3.89100 57.79100 43.54200
H  5.24500 58.77100 43.06100
H  2.94600 55.52100 39.49500
H  2.76800 57.25800 39.72800
H  0.95200 55.72700 41.41800
H  0.74200 55.01700 39.75100
H  0.42700 56.71800 40.08400
H  2.03400 50.95100 42.90500
H  2.07900 49.72400 41.45500
H  1.75000 51.38500 41.33600
H  7.14100 47.97500 41.55100
H  7.04400 45.15500 38.30600
H  7.05800 46.61400 37.41600
H  5.46200 46.00100 37.71100

