158

Mg 1.39400 -0.30500 44.31100
C  4.78000 0.15700 43.65600
C  0.80100 2.52800 42.55800
C  -1.80100 -1.20900 44.31800
C  2.17900 -3.45000 45.69300
N  2.71300 1.13400 43.18100
C  4.02200 1.17500 43.11300
C  4.49600 2.52200 42.41700
C  3.17300 3.38500 42.41400
C  2.16600 2.28600 42.71400
C  3.16800 4.54800 43.40400
C  4.98400 2.19000 40.90900
C  6.44100 2.62400 40.57000
H  6.47600 3.53200 39.30200
N  -0.28800 0.49800 43.44000
C  -0.37300 1.73500 42.82300
C  -1.77700 2.00500 42.57200
C  -2.47400 0.79800 42.87700
C  -1.48900 -0.10700 43.56100
C  -2.30900 3.29800 42.05000
C  -3.89000 0.48500 42.48800
O  -4.65500 1.34100 42.04500
C  -4.33000 -0.92200 42.42700
N  0.29600 -1.99800 45.21200
C  -1.04200 -2.13600 45.04100
C  -1.59600 -3.53000 45.53000
C  -0.22400 -4.22200 45.92000
C  0.82800 -3.14600 45.67500
C  -2.66600 -3.35600 46.64900
C  0.13100 -5.60400 45.15100
C  0.34600 -6.75200 46.16600
N  3.11600 -1.37400 44.76800
C  3.30600 -2.66900 45.22700
C  4.72400 -2.99200 45.26400
C  5.34200 -1.87300 44.71600
C  4.32500 -0.97500 44.33800
C  5.22900 -4.28500 45.84500
C  6.65000 -1.38500 44.38200
O  7.80500 -1.85400 44.49200
C  6.32000 0.05600 43.79900
C  6.93800 1.12100 44.63600
O  6.32100 1.83100 45.41500
O  8.32200 1.14600 44.43000
C  8.98300 2.24900 45.16600
H  0.69900 3.54100 42.16400
H  -2.83600 -1.52400 44.47000
H  2.39100 -4.47500 46.00400
H  5.35200 2.94800 42.94000
H  2.94700 3.81800 41.44000
H  2.93400 5.45600 42.84900
H  4.13100 4.70600 43.89000
H  2.54500 4.53200 44.29800
H  4.33800 2.68900 40.18700
H  4.98200 1.13300 40.64500
H  7.03300 1.71800 40.43700
H  7.01300 3.15200 41.33400
H  -1.56100 4.05800 42.27500
H  -3.20100 3.50200 42.64300
H  -2.48400 3.23500 40.97600
H  -5.25400 -0.93300 41.84900
H  -4.50400 -1.17300 43.47400
H  -3.52200 -1.51400 41.99800
H  -2.17900 -4.03700 44.76100
H  -0.11500 -4.37800 46.99300
H  -2.34800 -3.91800 47.52700
H  -3.67400 -3.72200 46.45200
H  -2.78300 -2.36400 47.08500
H  1.04200 -5.64000 44.55400
H  -0.64400 -5.85200 44.42600
H  -0.34500 -6.60600 46.99600
H  1.39100 -6.84400 46.46200
H  -0.09200 -7.67700 45.79100
H  6.31400 -4.29700 45.94100
H  4.78400 -5.06600 45.22800
H  4.85800 -4.26400 46.87000
H  6.80700 0.12800 42.82600
H  8.85200 2.13100 46.24100
H  8.67100 3.23400 44.81700
H  10.04600 2.05900 45.01600
Mg 26.33100 50.35300 25.46700
C  24.11800 51.64400 28.11800
C  28.32800 49.25000 28.08900
C  28.44400 49.57300 23.16300
C  24.25800 52.05400 23.17200
N  26.25300 50.45500 27.89300
C  25.24100 50.95900 28.69900
C  25.58000 50.79700 30.18500
C  26.88800 50.00800 30.16400
C  27.15900 49.85200 28.61600
C  28.08900 50.64800 30.87900
C  24.44100 50.19900 31.04700
C  24.72100 49.56400 32.43200
H  24.36900 50.32400 33.69100
N  28.05800 49.47700 25.54500
C  28.75600 49.06700 26.66100
C  30.07400 48.63000 26.27600
C  30.13000 48.69000 24.86200
C  28.89600 49.27400 24.47400
C  31.21400 48.30100 27.25800
C  31.26400 48.38400 23.84700
O  31.14900 48.56200 22.61900
C  32.56400 47.94400 24.45100
N  26.39800 50.81300 23.34900
C  27.34000 50.26000 22.59500
C  26.98600 50.45300 21.07400
C  25.53000 51.10400 21.10200
C  25.39400 51.42700 22.60400
C  28.03600 51.43600 20.35000
C  24.37100 50.18300 20.52200
C  23.92400 50.62100 19.17000
N  24.54100 51.58200 25.56600
C  23.85100 52.20600 24.55500
C  22.66800 52.88300 25.14800
C  22.77500 52.68300 26.48400
C  23.92700 51.87500 26.78200
C  21.65900 53.72000 24.34600
C  22.10000 52.95900 27.78400
O  21.03700 53.55900 28.04500
C  23.01400 52.32900 28.82000
C  23.44900 53.32100 29.78500
O  24.54600 53.86200 29.95100
O  22.40600 53.46000 30.73000
C  22.65600 54.01800 32.04900
H  28.85900 48.66100 28.84000
H  29.05300 49.15000 22.36100
H  23.56600 52.39500 22.39900
H  25.75200 51.75400 30.67900
H  26.68700 48.99600 30.51500
H  28.56900 49.91300 31.52500
H  27.71300 51.48900 31.46200
H  28.93000 51.02200 30.29400
H  23.92100 49.46000 30.43700
H  23.77200 51.03500 31.24700
H  25.79200 49.38000 32.52400
H  24.26400 48.58200 32.30900
H  31.71800 47.37600 26.97800
H  30.89400 47.99900 28.25600
H  31.96100 49.08800 27.34900
H  32.63000 46.99200 24.97800
H  32.94600 48.74700 25.08200
H  33.15900 47.78100 23.55200
H  27.17800 49.47300 20.63700
H  25.45300 52.10500 20.67800
H  28.71400 51.68200 21.16800
H  27.56000 52.29500 19.87900
H  28.61100 50.84900 19.63300
H  23.52900 50.13100 21.21300
H  24.74500 49.16400 20.42100
H  24.66400 50.45000 18.38800
H  23.64500 51.66900 19.07100
H  23.02400 50.05100 18.94200
H  21.79900 53.65000 23.26700
H  21.55900 54.76900 24.62400
H  20.71100 53.20700 24.50700
H  22.40300 51.65900 29.42500
H  23.51300 54.69100 32.01100
H  23.03600 53.23600 32.70600
H  21.74700 54.43200 32.48500

