158

Mg 26.67100 49.48800 26.29800
C  24.85000 50.56800 29.11000
C  29.22500 48.56300 28.51800
C  28.59300 48.73400 23.62900
C  24.18200 50.90200 24.25300
N  26.94700 49.46200 28.60800
C  25.98300 49.80500 29.48400
C  26.36600 49.48900 30.88700
C  27.92000 49.13300 30.67700
C  28.08000 49.04100 29.18400
C  28.85700 50.13700 31.39500
C  25.39300 48.58100 31.64800
C  24.91600 48.82000 33.08500
H  25.84900 49.36500 34.13700
N  28.62000 48.75300 26.10600
C  29.44900 48.42100 27.11300
C  30.70600 48.06900 26.57900
C  30.58400 48.11800 25.16400
C  29.20100 48.52200 24.92400
C  31.85800 47.70200 27.35600
C  31.60300 47.87800 24.09700
O  31.33600 47.96000 22.91000
C  32.96100 47.68700 24.56400
N  26.53100 49.93400 24.26800
C  27.41200 49.37300 23.35400
C  26.84700 49.49200 21.91300
C  25.40800 50.07300 22.19000
C  25.37500 50.31500 23.59800
C  27.78000 50.40300 21.01300
C  24.32000 49.15400 21.64200
C  22.96500 49.84600 21.17600
N  24.86500 50.54400 26.54200
C  23.97800 51.08100 25.64600
C  22.88800 51.72000 26.32700
C  23.15500 51.47900 27.65200
C  24.43000 50.80400 27.74400
C  21.73500 52.41500 25.68700
C  22.69700 51.78300 28.99300
O  21.67400 52.36400 29.38100
C  23.75400 51.21300 30.04400
C  24.16100 52.38900 30.94300
O  24.96200 53.23200 30.63400
O  23.46300 52.26500 32.09500
C  23.98700 53.06200 33.21200
H  30.02300 48.32800 29.22500
H  29.17000 48.54500 22.72100
H  23.37200 51.17100 23.57200
H  26.22500 50.43100 31.41600
H  28.04700 48.16500 31.16100
H  29.78600 50.17600 30.82800
H  29.17000 49.79600 32.38200
H  28.38900 51.11400 31.51800
H  25.76100 47.56400 31.51100
H  24.45600 48.66100 31.09800
H  24.56500 47.85100 33.44000
H  24.04000 49.46200 32.98800
H  31.72200 47.66300 28.43700
H  32.70300 48.37900 27.23000
H  32.08700 46.71100 26.96700
H  33.74400 47.59800 23.81100
H  33.02400 46.71700 25.05600
H  33.29800 48.49400 25.21500
H  26.86500 48.53600 21.39000
H  25.35600 51.05700 21.72400
H  28.42000 49.82500 20.34600
H  28.50500 51.00200 21.56400
H  27.13600 51.06900 20.43800
H  24.29600 48.43100 22.45800
H  24.70000 48.64000 20.75900
H  23.08500 50.87900 20.85000
H  22.28000 49.80800 22.02300
H  22.47700 49.25100 20.40400
H  20.98700 52.43900 26.47900
H  21.38500 52.01200 24.73700
H  21.95100 53.47400 25.54300
H  23.18700 50.41800 30.52900
H  24.09900 54.11800 32.96900
H  24.94800 52.65600 33.52900
H  23.32700 52.98600 34.07600
Mg 10.06500 47.54600 26.60600
C  8.30300 47.45900 29.53200
C  12.69500 48.93200 28.32700
C  11.70400 47.77300 23.66300
C  7.14200 46.50400 24.88400
N  10.43500 48.07200 28.67800
C  9.58800 47.97400 29.73100
C  10.26000 48.36100 31.04400
C  11.38700 49.30900 30.51800
C  11.49500 48.75100 29.02200
C  11.22000 50.79500 30.51600
C  10.88700 47.18600 31.86400
C  11.06400 47.57900 33.36900
H  11.06300 46.46400 34.40700
N  11.94900 48.27900 26.07200
C  12.96400 48.59300 26.96200
C  14.25800 48.61500 26.31500
C  13.93000 48.28900 24.96200
C  12.49400 48.16100 24.83700
C  15.56700 48.95100 27.00100
C  14.95800 48.06600 23.92700
O  14.71000 47.93100 22.71100
C  16.43600 48.00100 24.25600
N  9.36100 47.58400 24.56200
C  10.32200 47.53300 23.54400
C  9.63700 47.16300 22.24800
C  8.51300 46.24000 22.74100
C  8.29600 46.80800 24.14300
C  9.14600 48.36800 21.52800
C  8.94300 44.70300 22.78800
C  9.06400 43.85300 21.46500
N  8.09500 47.15800 27.01700
C  6.96900 46.74000 26.27100
C  5.86600 46.34700 27.10800
C  6.37300 46.71400 28.42900
C  7.68800 47.16300 28.28500
C  4.46100 45.93600 26.72300
C  5.95600 46.76900 29.78900
O  4.95600 46.37500 30.37200
C  7.27600 47.15300 30.60400
C  7.55300 45.97400 31.46900
O  7.85900 44.93500 31.00600
O  7.44800 46.30600 32.82000
C  7.60800 45.17700 33.72100
H  13.53200 49.44700 28.80300
H  12.38400 47.68300 22.81300
H  6.37400 45.96300 24.32900
H  9.54600 48.95000 31.62000
H  12.28600 49.12400 31.10600
H  10.24200 50.92700 30.97800
H  11.23000 51.08200 29.46500
H  11.93000 51.33800 31.14000
H  11.91500 47.06200 31.52500
H  10.37500 46.22600 31.80000
H  10.56700 48.47700 33.73500
H  12.07700 47.96500 33.48200
H  15.38800 49.09800 28.06600
H  15.96600 49.89100 26.62000
H  16.32600 48.19400 26.79800
H  16.58800 47.09200 24.83900
H  16.85800 48.89400 24.71600
H  17.05200 47.71300 23.40400
H  10.35000 46.68100 21.57900
H  7.70200 46.45600 22.04600
H  9.81400 48.35700 20.66700
H  9.32200 49.32700 22.01500
H  8.10900 48.24100 21.21600
H  8.29500 44.11100 23.43500
H  9.92700 44.77200 23.25200
H  8.89500 44.54300 20.63800
H  8.27500 43.10200 21.45300
H  10.12300 43.59800 21.43000
H  3.79600 45.79900 27.57500
H  4.51700 45.01000 26.15100
H  4.15200 46.67000 25.97900
H  7.10900 48.01400 31.25200
H  7.56200 44.17100 33.30500
H  6.77300 45.25800 34.41700
H  8.54100 45.16700 34.28500

