158

Mg 47.22400 35.10300 28.29800
C  45.38300 33.50700 30.72900
C  47.53400 37.72900 30.50000
C  48.80800 36.91000 25.75800
C  46.59000 32.60100 26.09300
N  46.66500 35.43700 30.40300
C  45.99500 34.58300 31.20500
C  45.97900 35.02500 32.65500
C  46.41700 36.58100 32.47700
C  46.88200 36.60100 31.04000
C  45.42600 37.68100 32.77400
C  47.04400 34.22600 33.45300
C  47.20300 34.50500 34.95700
H  46.15000 35.36600 35.78900
N  48.04800 36.94500 28.17200
C  48.08100 37.89700 29.21600
C  48.63300 39.09000 28.72300
C  48.97400 38.88900 27.35400
C  48.63000 37.47600 27.01600
C  49.06000 40.29300 29.55500
C  49.58000 39.95800 26.41300
O  50.15000 39.62400 25.35300
C  49.41800 41.37400 26.73200
N  47.70300 34.84100 26.29000
C  48.36300 35.64100 25.42700
C  48.29800 35.10800 23.96100
C  47.82100 33.61400 24.15100
C  47.31500 33.68200 25.56000
C  47.40200 36.07700 23.14700
C  48.92000 32.52500 24.01000
C  48.51000 31.38400 23.02100
N  46.14900 33.36300 28.39000
C  46.03100 32.42300 27.35400
C  45.25800 31.32200 28.00600
C  44.86200 31.75300 29.24800
C  45.53500 32.96600 29.47800
C  44.97800 29.96300 27.33400
C  44.14900 31.36200 30.43000
O  43.53500 30.34400 30.72000
C  44.36000 32.53100 31.38300
C  44.59100 32.02000 32.75000
O  45.41300 31.21100 33.11100
O  43.70000 32.60900 33.58300
C  43.77300 32.10500 34.95000
H  47.63100 38.57500 31.18200
H  49.14800 37.58200 24.96700
H  46.45300 31.68900 25.50700
H  44.98100 34.85300 33.05700
H  47.11700 36.83300 33.27400
H  44.43200 37.23400 32.78400
H  45.48400 38.51000 32.06900
H  45.55900 38.10100 33.77100
H  47.93100 34.48500 32.87500
H  47.05100 33.14000 33.35800
H  48.22300 34.88900 34.96900
H  47.16800 33.52700 35.43700
H  50.14100 40.38100 29.44500
H  48.77000 40.20500 30.60200
H  48.43300 41.12200 29.22700
H  49.52700 41.94600 25.81000
H  50.08200 41.71000 27.52900
H  48.38100 41.45700 27.05600
H  49.29200 34.97900 23.53200
H  46.88400 33.43500 23.62300
H  48.15100 36.33000 22.39600
H  46.98500 36.90800 23.71600
H  46.57500 35.57700 22.64200
H  49.23800 32.09800 24.96200
H  49.80200 32.96400 23.54300
H  49.27500 31.35200 22.24500
H  47.54200 31.59600 22.56700
H  48.48600 30.44400 23.57300
H  43.94500 29.69200 27.55100
H  45.66700 29.23200 27.75900
H  45.07400 29.99600 26.24900
H  43.44200 33.11800 31.34900
H  43.74800 31.01500 34.96600
H  42.97300 32.55100 35.54000
H  44.77000 32.39400 35.28400
Mg -8.85000 18.49800 43.27200
C  -5.44100 18.36000 43.32800
C  -8.67500 21.86000 42.45000
C  -12.32300 18.66400 43.06200
C  -9.09700 15.10200 43.73300
N  -7.15800 19.97100 42.79000
C  -5.85500 19.67100 42.97600
C  -4.92500 20.90900 42.73600
C  -6.08300 22.11000 42.76300
C  -7.42500 21.26900 42.60000
C  -6.13800 22.90000 44.09300
C  -3.98600 20.78300 41.52700
C  -4.45400 20.00400 40.26100
H  -4.33700 20.73100 38.89900
N  -10.33300 20.03200 42.73100
C  -9.99300 21.37800 42.57300
C  -11.23300 22.16300 42.40200
C  -12.31400 21.27800 42.65600
C  -11.69700 19.96500 42.87200
C  -11.25500 23.68100 42.14900
C  -13.78500 21.65600 42.84500
O  -14.16900 22.78400 42.97000
C  -14.83800 20.69200 43.11600
N  -10.48000 17.08600 43.21000
C  -11.80100 17.41700 43.22200
C  -12.77800 16.20800 43.36500
C  -11.72100 15.00100 43.41300
C  -10.35300 15.71200 43.42200
C  -13.74100 16.18500 44.52600
C  -11.89700 13.94000 42.25600
C  -11.00300 13.99200 40.96000
N  -7.61000 16.98800 43.47400
C  -7.79800 15.72600 43.77700
C  -6.53400 15.12900 44.07300
C  -5.55700 16.13900 43.95000
C  -6.30800 17.23500 43.52000
C  -6.31900 13.67700 44.40300
C  -4.11400 16.43700 44.06800
O  -3.15600 15.74900 44.29300
C  -4.02300 17.90100 43.55800
C  -3.38900 18.61500 44.73700
O  -3.95600 18.95400 45.75800
O  -2.09700 18.98100 44.31700
C  -1.52700 20.02500 45.14100
H  -8.51600 22.93100 42.59200
H  -13.41200 18.70600 42.99400
H  -9.10900 14.03200 43.94900
H  -4.38200 20.99600 43.67700
H  -5.85200 22.76200 41.92000
H  -6.89400 22.41200 44.70800
H  -6.35300 23.94700 43.87800
H  -5.22000 22.91800 44.68000
H  -3.05100 20.38100 41.91800
H  -3.79800 21.81200 41.21800
H  -5.50900 20.00300 40.53400
H  -4.00800 19.01000 40.23500
H  -11.62200 23.99200 41.17100
H  -10.24800 24.06600 42.30600
H  -11.79200 24.20700 42.93800
H  -14.57100 20.03700 43.94500
H  -14.85800 20.13900 42.17700
H  -15.77500 21.23100 43.25100
H  -13.45000 16.10300 42.51300
H  -11.83400 14.53100 44.38900
H  -14.72300 16.44000 44.12900
H  -13.50300 16.86500 45.34500
H  -13.98100 15.18300 44.88100
H  -12.86100 14.20000 41.81800
H  -11.96600 12.93700 42.67800
H  -11.00600 12.95400 40.62800
H  -9.97700 14.34900 41.04500
H  -11.60200 14.43100 40.16200
H  -5.58600 13.64300 45.20900
H  -5.92500 13.21100 43.50000
H  -7.21200 13.14200 44.72500
H  -3.42500 17.84300 42.64800
H  -0.44700 19.87300 45.15200
H  -1.83800 20.13000 46.18100
H  -1.65800 20.98900 44.65000

