158

Mg 46.87800 16.64700 28.31700
C  44.86700 16.25000 31.14600
C  49.20600 18.24500 30.25900
C  48.64300 17.26300 25.60900
C  44.40700 14.96900 26.42700
N  46.93900 17.22300 30.40400
C  46.08500 16.92900 31.40500
C  46.67600 17.29900 32.79400
C  47.89500 18.16000 32.39800
C  48.06500 17.84900 30.89800
C  47.71300 19.71600 32.69600
C  46.97500 16.05800 33.62600
C  46.27200 16.00400 35.06200
H  46.63900 17.19600 35.98600
N  48.70000 17.59000 27.94000
C  49.57800 17.98200 28.92000
C  50.71300 18.52700 28.30600
C  50.52000 18.38600 26.88800
C  49.20700 17.77500 26.71200
C  51.97300 19.15300 29.06100
C  51.35000 18.91000 25.71900
O  50.91500 18.91200 24.57900
C  52.72400 19.53600 25.95300
N  46.47400 16.49300 26.31200
C  47.40100 16.67600 25.34500
C  46.98900 16.18700 23.96300
C  45.70900 15.47500 24.29900
C  45.49300 15.65500 25.80000
C  46.85200 17.27100 22.85200
C  45.66800 14.05800 23.77500
C  46.52100 12.97100 24.63700
N  45.00800 15.79000 28.66400
C  44.13900 15.09800 27.83800
C  42.97700 14.58200 28.60500
C  43.27100 14.95500 29.90700
C  44.46100 15.77200 29.88300
C  41.81100 13.76200 28.15900
C  42.74300 14.98500 31.27600
O  41.71600 14.54200 31.76000
C  43.92000 15.73400 32.12100
C  43.22300 16.80800 32.88600
O  43.13000 17.99900 32.54200
O  42.93100 16.32200 34.11100
C  42.07200 17.10700 35.04700
H  50.01000 18.56600 30.92500
H  49.27300 17.12400 24.72800
H  43.70900 14.42500 25.78800
H  45.84800 17.83100 33.26300
H  48.76200 17.81800 32.96300
H  46.93300 19.98700 33.40700
H  47.33100 20.16100 31.77700
H  48.69000 20.14200 32.92400
H  48.05600 15.96900 33.73500
H  46.73100 15.19600 33.00500
H  46.76900 15.11700 35.45400
H  45.18500 15.92000 35.02900
H  52.88300 18.66200 28.71700
H  52.07300 18.94900 30.12700
H  52.07500 20.21000 28.81500
H  52.62900 20.40900 26.59900
H  53.11800 19.75300 24.96000
H  53.41300 18.76000 26.28500
H  47.69900 15.45800 23.57200
H  44.85000 15.84100 23.73700
H  45.93700 17.06000 22.29800
H  47.62900 17.20800 22.09000
H  46.76400 18.23400 23.35500
H  46.20900 14.03300 22.82800
H  44.63400 13.74600 23.63200
H  47.42200 13.38600 25.08700
H  46.84400 12.20500 23.93300
H  45.83800 12.60900 25.40600
H  41.90600 13.71900 27.07400
H  40.84200 14.26200 28.13800
H  41.82400 12.75100 28.56600
H  44.31400 14.97600 32.79700
H  42.60200 17.39200 35.95500
H  41.26800 16.47400 35.42400
H  41.69100 18.00400 34.55900
Mg 26.93600 50.64800 26.76100
C  24.94300 51.72600 29.36900
C  29.40700 49.73300 29.18100
C  29.06500 49.83000 24.23700
C  24.67000 51.86800 24.46100
N  27.17600 50.83600 28.98000
C  26.16600 51.21800 29.82200
C  26.56600 50.88300 31.30200
C  28.06600 50.31800 31.24700
C  28.23800 50.31000 29.69000
C  29.11200 51.21600 31.92000
C  25.64200 49.84800 31.78800
C  25.04400 50.10500 33.15700
H  25.87300 50.57900 34.40900
N  28.93900 49.84700 26.69100
C  29.72700 49.54900 27.76100
C  31.04300 48.95700 27.29600
C  31.05100 49.18500 25.84800
C  29.65500 49.64300 25.51800
C  32.10900 48.36000 28.24300
C  32.13700 48.88600 24.87500
O  32.08700 49.21900 23.73000
C  33.35800 48.21600 25.40500
N  26.86400 50.63200 24.67300
C  27.81400 50.25800 23.84000
C  27.43100 50.41000 22.32500
C  26.04400 51.02900 22.44300
C  25.86300 51.23700 23.95800
C  28.46200 51.22100 21.48100
C  24.90700 50.16900 21.76000
C  24.08900 49.11900 22.64400
N  25.15800 51.52500 26.86200
C  24.33600 51.98000 25.81900
C  23.19000 52.56900 26.38200
C  23.32200 52.42600 27.79600
C  24.59100 51.82000 28.03900
C  21.93600 53.14100 25.64300
C  22.73600 52.76500 29.08300
O  21.69900 53.37700 29.30000
C  23.71300 52.22800 30.11500
C  24.03000 53.36700 31.11800
O  24.91400 54.20000 30.92400
O  23.25300 53.18200 32.20900
C  23.41900 54.18200 33.23900
H  30.03200 49.21200 29.90900
H  29.70300 49.45600 23.43400
H  23.96300 52.23100 23.71200
H  26.46200 51.81300 31.86100
H  28.17700 49.30200 31.62800
H  28.62600 52.12300 32.28000
H  29.67100 51.55900 31.05000
H  29.76400 50.84200 32.71100
H  26.05600 48.86500 32.01400
H  24.85800 49.71200 31.04200
H  24.57200 49.18000 33.48500
H  24.24900 50.82400 32.95600
H  32.18700 47.27600 28.16200
H  31.90100 48.55500 29.29600
H  33.14500 48.68900 28.16100
H  33.06900 47.36600 26.02200
H  33.97300 48.96700 25.90000
H  33.90400 47.98000 24.49200
H  27.36600 49.37300 21.99500
H  25.99400 52.01800 21.98700
H  28.75100 50.65800 20.59400
H  29.26800 51.69700 22.04100
H  27.97400 52.04800 20.96500
H  25.29700 49.57400 20.93500
H  24.26100 50.94500 21.34900
H  23.03800 49.40900 22.64300
H  24.42900 49.03900 23.67700
H  24.25200 48.14200 22.19100
H  21.69500 52.57700 24.74200
H  22.20500 54.16100 25.36900
H  21.16200 53.03200 26.40300
H  23.20300 51.43200 30.65700
H  23.72700 53.70500 34.17000
H  22.43300 54.58900 33.46000
H  24.23700 54.88700 33.08800

