158

Mg -0.25000 6.74400 26.06000
C  0.58800 8.52100 28.80900
C  -0.22300 3.85700 27.94000
C  -0.88500 4.92900 23.20100
C  0.33100 9.58300 24.02200
N  0.03900 6.20800 28.09700
C  0.31500 7.18300 29.05000
C  0.26800 6.58800 30.51200
C  0.03400 5.05600 30.22900
C  -0.12200 4.99500 28.65100
C  1.16000 4.19200 30.66000
C  -0.82500 7.23100 31.37800
C  -0.55400 7.22000 32.95700
H  0.77300 6.86200 33.55400
N  -0.52500 4.66800 25.64300
C  -0.33800 3.65300 26.53500
C  -0.45100 2.34100 25.86900
C  -0.79500 2.66100 24.51000
C  -0.70400 4.13000 24.36900
C  -0.37500 1.07500 26.67400
C  -1.17300 1.68600 23.40300
O  -1.51600 2.10900 22.31100
C  -0.95900 0.26800 23.78900
N  -0.24000 7.14800 23.95100
C  -0.74200 6.29800 23.04700
C  -0.91900 6.96200 21.70100
C  -0.36900 8.34800 21.90200
C  -0.02600 8.37100 23.38300
C  -0.22100 6.22100 20.49700
C  -1.31800 9.52200 21.47100
C  -2.54200 9.87600 22.44400
N  0.33000 8.71600 26.27800
C  0.53700 9.75300 25.39900
C  0.89800 10.91100 26.19000
C  0.91000 10.48400 27.47600
C  0.57400 9.13800 27.51400
C  1.29200 12.26400 25.64800
C  1.15900 10.88100 28.84400
O  1.70800 11.89000 29.29500
C  0.91000 9.69800 29.74400
C  2.01700 9.54300 30.77000
O  3.02200 8.85700 30.70100
O  1.74300 10.19900 31.92400
C  2.89500 10.58800 32.77000
H  -0.31000 2.99300 28.60200
H  -1.05400 4.32800 22.30500
H  0.45400 10.52000 23.47400
H  1.23300 6.87000 30.93100
H  -0.89300 4.70100 30.67900
H  1.90100 4.76700 31.21500
H  1.55300 3.72200 29.75800
H  0.88700 3.40400 31.36100
H  -1.61600 6.49900 31.21300
H  -1.22800 8.22000 31.15800
H  -1.34400 6.56900 33.33100
H  -0.74300 8.22000 33.34600
H  0.31000 0.39700 26.16600
H  -1.37400 0.63800 26.67500
H  -0.00500 1.20700 27.69000
H  -1.70000 0.02100 24.54900
H  0.08600 0.11500 24.06100
H  -1.14100 -0.43700 22.97700
H  -1.98600 7.15000 21.58700
H  0.59000 8.58900 21.44400
H  0.59700 5.57000 20.80500
H  0.25100 6.97200 19.86400
H  -0.90300 5.75300 19.78700
H  -1.70000 9.20300 20.50100
H  -0.71000 10.41500 21.32700
H  -2.47300 9.30700 23.37100
H  -3.42000 9.66100 21.83600
H  -2.43500 10.94900 22.60200
H  0.42600 12.81900 25.28700
H  2.03100 12.24200 24.84700
H  1.78900 12.94400 26.34000
H  0.03500 9.92300 30.35300
H  3.39400 9.79100 33.32300
H  2.60000 11.31100 33.53000
H  3.67000 11.01200 32.13100
Mg 42.40300 41.85500 26.41700
C  41.57800 44.24800 28.85000
C  43.85100 39.90700 28.85300
C  43.43800 39.97700 23.98400
C  41.60300 44.40600 23.92600
N  42.84900 42.22900 28.59500
C  42.22600 43.14400 29.41500
C  42.28400 42.70500 30.87600
C  43.27400 41.46800 30.85800
C  43.40300 41.19000 29.36000
C  44.66600 41.80200 31.43900
C  40.84700 42.39300 31.60800
C  40.56000 43.31600 32.86300
H  41.40300 43.07500 34.10700
N  43.21100 40.03600 26.42700
C  43.79700 39.36600 27.51700
C  44.22400 38.04300 26.96400
C  43.84800 38.04900 25.58700
C  43.44000 39.40900 25.26300
C  44.78600 36.96200 27.80500
C  43.96800 36.83600 24.65100
O  43.60200 36.92900 23.45400
C  44.67100 35.57900 25.05500
N  42.61000 42.27000 24.29500
C  42.98600 41.21500 23.51700
C  42.73500 41.46600 22.00100
C  41.86800 42.73500 22.00100
C  42.05700 43.19800 23.46900
C  44.05200 41.67300 21.11200
C  40.31600 42.45300 21.63500
C  39.55100 41.56900 22.66100
N  41.83000 43.96400 26.36600
C  41.48000 44.81700 25.29100
C  40.91400 46.06600 25.84200
C  40.91800 45.83000 27.28600
C  41.53000 44.64800 27.53600
C  40.32300 47.21300 25.05500
C  40.49400 46.43800 28.48900
O  39.92900 47.51600 28.70600
C  40.94800 45.41900 29.60700
C  41.92000 46.18900 30.44900
O  43.09000 46.29400 30.21300
O  41.23400 46.57100 31.60000
C  41.89200 47.12500 32.73400
H  44.08800 39.23800 29.68300
H  43.64900 39.25800 23.19000
H  41.08900 45.04600 23.20500
H  42.73700 43.53600 31.41700
H  42.92700 40.60000 31.41900
H  45.45600 41.24900 30.93000
H  44.75800 41.25800 32.37900
H  44.94300 42.83400 31.65600
H  40.96200 41.40400 32.05200
H  40.04300 42.53100 30.88500
H  39.50600 43.37000 33.13500
H  40.81300 44.30400 32.47700
H  45.08700 37.34500 28.78000
H  45.74400 36.60000 27.43100
H  44.00100 36.24000 28.03100
H  45.71300 35.89600 25.09300
H  44.59900 34.85400 24.24400
H  44.32200 35.13200 25.98600
H  42.20500 40.62700 21.54800
H  42.20100 43.57400 21.39000
H  44.40000 42.69700 20.97400
H  43.74200 41.31100 20.13100
H  44.81900 40.93800 21.35400
H  40.23400 41.97100 20.66100
H  39.76000 43.38900 21.60000
H  38.88300 42.28300 23.14200
H  40.15100 41.22200 23.50200
H  38.98000 40.83700 22.08900
H  41.08900 47.75600 24.50100
H  39.80200 47.86600 25.75500
H  39.59200 46.79100 24.36600
H  40.06500 45.01300 30.10000
H  41.52100 46.68400 33.66000
H  41.62400 48.18100 32.76800
H  42.97100 47.06600 32.58700

