158

Mg -2.02200 33.81600 27.24000
C  -3.56200 32.00500 29.75800
C  -0.51900 35.74200 29.66900
C  -0.76400 35.92300 24.86300
C  -3.56500 32.01700 24.76400
N  -2.11400 33.82300 29.46500
C  -2.74200 32.96200 30.32700
C  -2.61200 33.31400 31.74800
C  -1.77900 34.67600 31.63600
C  -1.34700 34.73600 30.15200
C  -2.53400 35.90600 32.16100
C  -1.98800 32.18400 32.61400
C  -2.71000 31.84900 33.93200
H  -1.92500 32.14200 35.18700
N  -0.68200 35.49700 27.30100
C  -0.11400 36.10400 28.39600
C  0.70200 37.24400 27.95300
C  0.68000 37.26500 26.54400
C  -0.32500 36.22100 26.18800
C  1.47400 38.18600 28.94400
C  1.42200 38.10200 25.52700
O  1.22200 38.13900 24.28200
C  2.47100 39.20300 26.08500
N  -2.21300 33.94500 25.17300
C  -1.57700 34.90700 24.42000
C  -1.79800 34.68300 22.90600
C  -2.52100 33.30600 22.89800
C  -2.78300 33.06500 24.37600
C  -2.73600 35.82100 22.25600
C  -1.71000 32.14900 22.18800
C  -2.51500 30.92400 21.69800
N  -3.43800 32.40100 27.22400
C  -3.91700 31.70800 26.09800
C  -4.85600 30.71600 26.65500
C  -4.72100 30.72600 28.10400
C  -3.76600 31.76700 28.36800
C  -5.72400 29.80800 25.86100
C  -5.04800 30.09400 29.32600
O  -5.80500 29.12500 29.50200
C  -4.28300 30.84300 30.45300
C  -5.31200 31.31500 31.38900
O  -6.04700 32.29300 31.28500
O  -5.44800 30.38300 32.37400
C  -6.25100 30.81100 33.44700
H  -0.19600 36.50000 30.38700
H  -0.34600 36.57400 24.09300
H  -3.96000 31.30600 24.03500
H  -3.54400 33.58300 32.24600
H  -0.94200 34.60700 32.33000
H  -2.52000 36.75600 31.47900
H  -1.95600 36.19300 33.03900
H  -3.56700 35.66800 32.41600
H  -1.04100 32.66100 32.86800
H  -1.75100 31.24400 32.11600
H  -2.93900 30.78500 33.86000
H  -3.60600 32.46900 33.93100
H  2.52200 37.96200 28.74700
H  1.24800 37.87700 29.96500
H  1.22200 39.24000 28.83000
H  3.19400 38.61600 26.65200
H  2.01600 40.03000 26.63000
H  2.95000 39.59200 25.18700
H  -0.80800 34.71500 22.45100
H  -3.44800 33.36500 22.32800
H  -2.89500 36.49100 23.10200
H  -3.69600 35.53900 21.82300
H  -2.23200 36.31500 21.42600
H  -0.97600 31.82300 22.92600
H  -1.13500 32.53100 21.34400
H  -3.56900 31.13600 21.51600
H  -2.50100 30.12700 22.44200
H  -2.16500 30.48300 20.76400
H  -5.10900 28.95900 25.56300
H  -5.88800 30.29600 24.90000
H  -6.61200 29.45900 26.38900
H  -3.62100 30.16200 30.98700
H  -6.19400 30.04700 34.22200
H  -7.31500 30.83100 33.21200
H  -5.89700 31.79300 33.76100
Mg -5.35400 24.61600 26.08000
C  -4.09100 26.05600 29.04900
C  -7.16600 22.45500 28.19000
C  -5.99800 22.76600 23.43500
C  -3.37200 26.77900 24.27100
N  -5.52600 24.33500 28.31700
C  -5.03300 25.10300 29.32900
C  -5.40100 24.66400 30.67100
C  -6.29900 23.35400 30.40300
C  -6.35100 23.38200 28.83700
C  -5.79500 21.96700 30.96500
C  -6.19300 25.81900 31.43300
C  -5.78200 25.99400 32.89200
H  -5.36200 24.76600 33.74400
N  -6.45200 22.86200 25.80400
C  -7.18700 22.19400 26.80000
C  -7.98100 21.15100 26.14400
C  -7.73000 21.27100 24.74500
C  -6.59700 22.28900 24.61600
C  -8.98500 20.29600 26.85700
C  -8.34200 20.49200 23.54700
O  -7.97900 20.67400 22.38300
C  -9.55400 19.53600 23.70700
N  -4.79600 24.88400 24.19200
C  -5.17700 23.88800 23.27600
C  -4.61800 24.25300 21.85700
C  -4.00200 25.62100 22.13800
C  -4.06700 25.79500 23.62200
C  -3.79400 23.12400 21.05000
C  -4.56600 26.79200 21.24600
C  -3.47200 27.35700 20.38500
N  -4.04300 26.26200 26.55400
C  -3.27000 26.96900 25.65700
C  -2.43200 27.94300 26.40900
C  -2.67500 27.59600 27.78400
C  -3.71600 26.56500 27.80900
C  -1.46400 28.98200 25.91700
C  -2.33600 27.84400 29.16400
O  -1.65700 28.71600 29.67600
C  -3.27400 26.81800 30.05700
C  -2.26000 26.00200 30.85500
O  -1.78900 24.97300 30.38000
O  -1.99500 26.56200 32.06400
C  -1.21000 25.83700 33.09800
H  -7.73200 21.82600 28.88000
H  -6.20800 22.18000 22.53800
H  -2.65600 27.31000 23.64000
H  -4.45500 24.46200 31.17300
H  -7.28900 23.47500 30.84300
H  -6.73700 21.53100 31.29900
H  -5.04300 21.90500 31.75200
H  -5.36200 21.24400 30.27400
H  -7.20600 25.41800 31.44100
H  -6.22900 26.79500 30.94900
H  -6.64500 26.44700 33.38000
H  -4.91700 26.65500 32.93900
H  -8.82900 19.26500 26.53700
H  -10.01500 20.65200 26.84700
H  -8.67700 20.22000 27.90000
H  -10.28800 20.12600 24.25500
H  -9.18700 18.70200 24.30500
H  -9.73700 19.11900 22.71700
H  -5.49800 24.56100 21.29300
H  -2.93300 25.43200 22.03100
H  -3.69000 22.30300 21.75900
H  -2.79000 23.38200 20.71400
H  -4.47500 22.91800 20.22400
H  -4.99000 27.57900 21.87000
H  -5.44300 26.58900 20.63000
H  -3.74700 27.34100 19.33000
H  -2.50600 26.88500 20.56000
H  -3.33400 28.39700 20.67800
H  -1.90300 29.97900 25.87800
H  -1.02400 28.62200 24.98700
H  -0.63700 29.07700 26.62100
H  -3.73100 27.51900 30.75400
H  -1.78600 25.86900 34.02300
H  -0.21000 26.23500 33.27100
H  -1.12500 24.75400 33.00400

