158

Mg 1.77100 -1.44300 44.54900
C  5.24500 -0.82200 44.04400
C  1.11800 1.22900 42.65100
C  -1.48800 -2.34800 44.78300
C  2.77600 -4.46600 46.19100
N  3.04100 -0.11200 43.24400
C  4.41700 -0.00000 43.25900
C  4.90500 1.16700 42.39400
C  3.56700 2.01200 42.25100
C  2.51000 0.99600 42.69900
C  3.41500 3.30200 43.06900
C  5.49300 0.61700 41.08500
C  6.86500 1.23600 40.72900
H  7.16600 1.61100 39.30100
N  0.06900 -0.66800 43.80400
C  0.02200 0.52500 43.09000
C  -1.33900 0.88900 42.93200
C  -2.15500 -0.12300 43.57200
C  -1.20300 -1.08700 44.12300
C  -1.78700 2.17800 42.25800
C  -3.73100 -0.12700 43.65100
O  -4.30400 0.77900 43.07300
C  -4.52800 -1.18900 44.27900
N  0.74200 -3.20800 45.27300
C  -0.61500 -3.36400 45.27000
C  -1.09500 -4.76700 45.91400
C  0.35700 -5.30400 46.39700
C  1.34600 -4.29500 45.85300
C  -2.19900 -4.73800 46.99400
C  0.55000 -6.78700 45.80300
C  -0.38400 -7.96300 46.36900
N  3.60300 -2.44400 45.19400
C  3.84200 -3.63700 45.84000
C  5.29700 -3.76400 46.05900
C  5.87600 -2.68300 45.39900
C  4.81600 -1.96000 44.86600
C  6.01100 -4.91700 46.79200
C  7.13400 -2.03100 44.99200
O  8.25100 -2.46000 45.22500
C  6.73300 -0.76600 44.16200
C  7.14800 0.49100 44.90800
O  6.89400 0.71900 46.05100
O  7.82100 1.39100 44.07200
C  8.03100 2.72700 44.66800
H  0.83800 2.17000 42.17300
H  -2.54600 -2.55700 44.95300
H  2.94300 -5.44800 46.63700
H  5.62800 1.79700 42.91100
H  3.43300 2.36100 41.22700
H  4.34500 3.73200 43.44000
H  2.76000 3.19900 43.93400
H  2.91800 4.09300 42.50800
H  4.84100 0.83500 40.23800
H  5.60200 -0.46300 41.18800
H  7.61600 0.45800 40.86800
H  7.16400 2.07300 41.36100
H  -2.69300 2.49900 42.77100
H  -2.05900 1.87300 41.24700
H  -0.99600 2.92700 42.31600
H  -4.41600 -2.17200 43.81900
H  -5.60600 -1.03500 44.32500
H  -4.16200 -1.19900 45.30500
H  -1.36600 -5.31500 45.01100
H  0.34600 -5.27400 47.48600
H  -1.88200 -5.09200 47.97500
H  -3.12400 -5.29400 46.84000
H  -2.43700 -3.67500 46.95600
H  1.59500 -7.01700 46.01300
H  0.44600 -6.70100 44.72100
H  -1.03800 -7.56000 47.14300
H  0.28900 -8.72300 46.76600
H  -1.04000 -8.39000 45.61100
H  5.46700 -5.84300 46.97800
H  6.29100 -4.57000 47.78600
H  6.83900 -5.22900 46.15500
H  7.03400 -0.87300 43.12000
H  7.84200 3.49300 43.91500
H  9.05300 2.72100 45.04600
H  7.40900 2.97000 45.53000
Mg 16.23200 -1.62000 26.80100
C  15.06700 0.19600 29.65600
C  18.18500 -3.48600 28.97500
C  17.46900 -3.14000 24.17000
C  14.43400 0.65600 24.73500
N  16.78400 -1.47200 29.00100
C  16.08800 -0.73400 29.97100
C  16.57300 -1.12700 31.39100
C  17.72800 -2.15400 31.09500
C  17.54900 -2.38900 29.56600
C  19.22000 -1.76500 31.43200
C  15.41500 -1.69000 32.27100
C  15.10700 -0.99800 33.60900
H  16.23300 -0.24100 34.33600
N  17.61400 -3.04400 26.61900
C  18.19400 -3.84200 27.62700
C  18.97700 -4.87900 27.05500
C  18.84200 -4.74100 25.63900
C  17.94000 -3.67300 25.41300
C  19.74400 -5.96000 27.82700
C  19.36600 -5.69800 24.57900
O  19.03000 -5.56500 23.41100
C  20.15500 -6.95100 24.93100
N  16.02700 -1.20000 24.57900
C  16.58900 -2.04900 23.76900
C  16.06600 -1.69100 22.38700
C  14.97700 -0.53700 22.50200
C  15.16400 -0.33000 24.05900
C  17.19500 -1.35400 21.45700
C  13.56800 -0.89800 22.10800
C  12.83700 0.09600 21.25000
N  15.00900 0.06300 27.06400
C  14.28300 0.82000 26.12100
C  13.52600 1.79300 26.85600
C  13.65700 1.54400 28.26100
C  14.68100 0.53000 28.34400
C  12.61000 2.81500 26.21400
C  13.21200 1.96500 29.62100
O  12.40900 2.83000 29.93800
C  14.10600 1.04900 30.59400
C  14.92300 2.10900 31.34100
O  15.95800 2.63600 30.94900
O  14.31200 2.31200 32.53700
C  14.79500 3.50000 33.32000
H  18.72500 -4.08800 29.70900
H  17.80100 -3.49700 23.19300
H  13.79400 1.29900 24.12800
H  16.88100 -0.21800 31.90800
H  17.56400 -3.10000 31.61100
H  19.72900 -2.45000 32.10900
H  19.25100 -0.87600 32.06300
H  19.78100 -1.64900 30.50500
H  15.58700 -2.75000 32.45700
H  14.50600 -1.65100 31.67200
H  14.81500 -1.82600 34.25500
H  14.35200 -0.22800 33.45300
H  20.75500 -6.23700 27.53200
H  19.22700 -6.90400 27.65600
H  19.66700 -5.60100 28.85300
H  20.45900 -7.46800 24.02100
H  19.47400 -7.66400 25.39800
H  21.10100 -6.69100 25.40600
H  15.64100 -2.59100 21.94200
H  15.33900 0.33200 21.95500
H  17.32100 -0.30300 21.19500
H  17.23200 -1.99600 20.57700
H  18.14900 -1.55100 21.94600
H  13.15800 -0.77200 23.11000
H  13.44700 -1.88400 21.66100
H  13.55300 0.60700 20.60500
H  12.34200 0.72200 21.99200
H  12.08600 -0.45600 20.68500
H  12.37400 3.59600 26.93500
H  11.68100 2.41700 25.80700
H  13.12100 3.28500 25.37400
H  13.48100 0.58100 31.35500
H  14.48800 4.49300 32.99400
H  15.88300 3.43800 33.34400
H  14.58300 3.32600 34.37500

