158

Mg -1.12000 17.58300 27.26200
C  -1.64000 15.17500 29.74200
C  -1.59000 20.03100 29.48800
C  -0.55900 19.87100 24.71400
C  -0.50900 14.95000 24.90900
N  -1.57900 17.60600 29.35400
C  -1.79200 16.48400 30.23500
C  -2.02100 16.98000 31.71800
C  -2.05700 18.51600 31.49700
C  -1.83700 18.75700 30.00200
C  -3.31400 19.26400 32.18600
C  -0.86700 16.50000 32.65700
C  -0.55400 17.33700 33.92200
H  -0.12600 16.45100 35.12800
N  -1.19400 19.65400 27.07300
C  -1.43200 20.50300 28.13300
C  -1.38800 21.91200 27.67300
C  -0.99500 21.80600 26.27400
C  -0.97100 20.37700 25.94700
C  -1.73700 23.08300 28.53500
C  -0.88600 22.92200 25.25900
O  -0.66900 22.81700 24.03200
C  -1.24600 24.29500 25.85100
N  -0.71700 17.43800 25.12400
C  -0.57600 18.54000 24.26500
C  -0.37400 18.03600 22.82400
C  -0.14000 16.53400 23.01300
C  -0.43100 16.28200 24.46800
C  -1.62800 18.46900 21.89400
C  1.26700 16.04100 22.58100
C  2.46300 16.20700 23.50100
N  -1.17500 15.50900 27.25400
C  -0.83600 14.55400 26.29300
C  -1.11500 13.21400 26.76600
C  -1.37800 13.36600 28.13000
C  -1.38000 14.78700 28.36200
C  -0.96800 11.92000 26.01200
C  -1.65600 12.74600 29.40900
O  -1.69500 11.55900 29.68000
C  -1.88000 13.89100 30.47000
C  -0.94600 13.42400 31.57400
O  0.26600 13.47100 31.51200
O  -1.67000 12.69700 32.50000
C  -0.82000 12.17900 33.56300
H  -1.86500 20.82200 30.18900
H  -0.47200 20.45000 23.79200
H  -0.18400 14.18400 24.20200
H  -2.96500 16.57700 32.08500
H  -1.15200 18.98600 31.88200
H  -2.98300 19.97100 32.94700
H  -3.87800 18.48800 32.70400
H  -3.99100 19.78400 31.50800
H  -0.03100 16.26700 31.99700
H  -1.25300 15.57300 33.08100
H  -1.46100 17.91300 34.10500
H  0.20900 18.08800 33.71700
H  -2.55000 23.60300 28.02900
H  -0.86400 23.71500 28.70000
H  -2.09700 22.83500 29.53300
H  -2.31500 24.34300 26.05400
H  -1.09900 25.05800 25.08600
H  -0.53600 24.45900 26.66200
H  0.50100 18.52800 22.39900
H  -0.92000 15.96000 22.51300
H  -1.81200 19.52500 22.09400
H  -2.45900 17.94800 22.36800
H  -1.50900 18.29100 20.82500
H  1.57600 16.52200 21.65300
H  1.29500 14.96300 22.42600
H  3.38500 16.39500 22.95100
H  2.54900 15.43500 24.26600
H  2.43400 17.15600 24.03700
H  -0.31600 12.11100 25.15900
H  -1.98400 11.68200 25.69800
H  -0.72400 11.06600 26.64400
H  -2.90200 13.90200 30.84900
H  -0.37800 11.21100 33.32300
H  -1.35500 12.14600 34.51200
H  0.01500 12.84600 33.77800
Mg 10.01800 48.94900 26.04800
C  7.90000 49.02700 28.81500
C  12.54200 49.97000 28.04900
C  11.97800 49.02700 23.24600
C  7.23400 48.47800 24.00500
N  10.12600 49.52600 28.13800
C  9.24300 49.24200 29.16700
C  9.77900 49.51800 30.59900
C  11.27200 49.98700 30.30500
C  11.30700 49.82900 28.75900
C  11.61500 51.43000 30.81300
C  9.83400 48.25600 31.56600
C  9.17100 48.44100 32.97600
H  9.44000 47.43900 34.08000
N  11.98300 49.46400 25.68700
C  12.87700 49.87400 26.66100
C  14.24700 49.99700 26.10800
C  14.04300 49.67800 24.75200
C  12.62700 49.32900 24.49200
C  15.43000 50.34000 26.99000
C  15.10900 49.67700 23.64000
O  14.90300 49.45600 22.46500
C  16.50600 50.17200 24.00300
N  9.60700 48.90200 23.87800
C  10.61500 48.79500 22.96700
C  10.09200 48.59400 21.59800
C  8.62800 48.12200 21.90700
C  8.46500 48.50800 23.36700
C  10.25500 49.78400 20.60000
C  8.24300 46.64300 21.50300
C  8.62000 45.53600 22.58400
N  7.96900 48.72500 26.30100
C  6.98700 48.62100 25.37600
C  5.71800 48.49100 26.05700
C  5.99200 48.68600 27.39500
C  7.39600 48.87700 27.47700
C  4.32600 48.12200 25.41000
C  5.40800 48.70000 28.64300
O  4.24000 48.61700 29.08600
C  6.64200 48.75900 29.62800
C  6.65400 47.44200 30.29000
O  7.24600 46.47800 29.95100
O  6.00600 47.53900 31.50500
C  6.04200 46.39700 32.41200
H  13.37500 50.14400 28.73300
H  12.52200 49.09000 22.30100
H  6.37300 48.13000 23.43000
H  9.12900 50.21900 31.12200
H  12.14000 49.48100 30.72900
H  12.39100 51.30100 31.56700
H  10.84600 51.87700 31.44400
H  11.94400 52.09800 30.01800
H  10.87700 48.01900 31.77700
H  9.40600 47.34700 31.14200
H  8.09300 48.56300 32.87600
H  9.51200 49.41000 33.34000
H  16.19100 49.56900 26.86200
H  15.31700 50.60800 28.04100
H  15.84800 51.31100 26.72500
H  17.16800 50.27700 23.14300
H  16.98700 49.33400 24.50800
H  16.54700 51.11800 24.54200
H  10.64000 47.68200 21.36200
H  7.93000 48.78600 21.39700
H  9.21500 50.11100 20.61700
H  10.46000 49.32000 19.63500
H  11.03500 50.48900 20.88400
H  8.85400 46.37500 20.64100
H  7.19700 46.48500 21.24500
H  8.53100 45.83200 23.62900
H  9.63800 45.18000 22.42600
H  7.96400 44.70400 22.33000
H  3.45400 47.99100 26.05000
H  4.50300 47.09200 25.09800
H  4.25000 48.72100 24.50300
H  6.64000 49.61200 30.30600
H  6.04200 46.84200 33.40700
H  6.87500 45.69300 32.43100
H  5.17400 45.75100 32.28100

