158

Mg 17.26400 52.13900 26.86400
C  19.08600 50.57400 29.42500
C  14.90200 52.97900 29.13000
C  15.58200 53.49900 24.33200
C  19.50800 50.77300 24.55900
N  16.97200 51.79100 29.05900
C  17.99800 51.27700 29.91200
C  17.46900 51.24400 31.38800
C  15.93400 51.66200 31.18300
C  15.92100 52.17100 29.70300
C  14.98200 50.43600 31.40400
C  18.26600 52.24900 32.32300
C  17.63700 52.72300 33.67700
H  16.63400 51.88800 34.44300
N  15.51000 53.21200 26.73100
C  14.64800 53.44100 27.80100
C  13.55800 54.32900 27.34500
C  13.84900 54.60200 25.94600
C  14.97000 53.70400 25.57600
C  12.35000 54.77900 28.22100
C  13.10600 55.57000 24.94800
O  13.58200 55.93200 23.88400
C  11.96300 56.28400 25.41400
N  17.41300 51.93700 24.72100
C  16.59200 52.66700 23.91500
C  17.05400 52.67600 22.48500
C  18.47700 51.94800 22.61900
C  18.49200 51.55100 24.03300
C  16.06400 51.90900 21.52300
C  19.68500 52.90800 22.21200
C  20.92100 52.34000 21.43900
N  18.89300 50.82700 26.94600
C  19.72700 50.44300 25.93500
C  20.83500 49.71500 26.49500
C  20.67300 49.70800 27.91200
C  19.46200 50.41500 28.09700
C  21.84000 49.09600 25.77200
C  21.16400 49.34000 29.11900
O  22.20100 48.77100 29.47400
C  20.18100 49.94600 30.21700
C  19.74400 48.83200 31.06600
O  19.43600 47.71400 30.61800
O  19.84000 49.24900 32.38400
C  19.10800 48.31300 33.24700
H  14.08200 53.12300 29.83500
H  15.02600 54.09500 23.60500
H  20.26800 50.44000 23.84800
H  17.43100 50.22100 31.76200
H  15.57400 52.44500 31.85100
H  14.11900 50.83700 31.93500
H  15.31100 49.72800 32.16500
H  14.72700 49.86900 30.50800
H  18.39200 53.06100 31.60700
H  19.26000 51.83500 32.49300
H  17.29500 53.75100 33.56100
H  18.49200 52.91600 34.32300
H  11.48700 54.12300 28.10800
H  12.20300 55.83600 28.00000
H  12.63700 54.83300 29.27100
H  11.53500 56.58300 24.45700
H  12.26300 57.12800 26.03500
H  11.25700 55.65600 25.95700
H  17.14800 53.75500 22.36200
H  18.56700 50.94400 22.20500
H  16.59900 51.07600 21.06700
H  15.75400 52.58300 20.72500
H  15.17600 51.59900 22.07400
H  19.97700 53.24400 23.20700
H  19.42800 53.81100 21.65900
H  21.82200 52.42900 22.04500
H  21.17600 52.94000 20.56500
H  20.64100 51.31900 21.17900
H  21.45500 48.18900 25.30500
H  22.70100 49.11100 26.43900
H  22.11900 49.75700 24.95200
H  20.62900 50.71600 30.84600
H  18.92800 48.78700 34.21200
H  19.59400 47.35500 33.43500
H  18.10200 48.16400 32.85500
Mg -1.69900 34.40500 26.83900
C  -3.35600 32.46300 29.25500
C  -0.30300 36.16100 29.34500
C  -0.37700 36.25100 24.47600
C  -3.07500 32.24400 24.28800
N  -2.03300 34.33900 29.09300
C  -2.69000 33.50400 29.88200
C  -2.52000 33.81100 31.37500
C  -1.69900 35.18000 31.27900
C  -1.30100 35.22700 29.83200
C  -2.40600 36.49200 31.71500
C  -1.77100 32.74600 32.27700
C  -2.44500 32.50900 33.65900
H  -1.63800 32.27200 35.01800
N  -0.57900 36.05800 26.95100
C  -0.00600 36.62200 28.05400
C  1.02900 37.64900 27.67900
C  0.93200 37.70800 26.22500
C  -0.05700 36.61500 25.80400
C  1.82100 38.40400 28.65200
C  1.65200 38.76000 25.31700
O  1.50900 38.77500 24.09800
C  2.58200 39.83000 25.99000
N  -1.70600 34.25500 24.70800
C  -1.24700 35.30100 23.98100
C  -1.58800 35.14800 22.48600
C  -2.16000 33.67500 22.39400
C  -2.34600 33.33400 23.89300
C  -2.58100 36.23100 21.90500
C  -1.35000 32.60400 21.63300
C  -0.55500 31.60800 22.44500
N  -3.00300 32.75700 26.71900
C  -3.35400 31.90700 25.64800
C  -4.09200 30.79200 26.14400
C  -4.16300 31.04900 27.53000
C  -3.42200 32.17700 27.80800
C  -4.80200 29.78400 25.38100
C  -4.68200 30.41100 28.76500
O  -5.28400 29.35400 28.86400
C  -4.10900 31.27500 29.95200
C  -5.17400 31.66200 30.91200
O  -5.55800 32.82500 31.03500
O  -5.60300 30.65200 31.78400
C  -6.39800 31.26800 32.90100
H  0.19400 36.59800 30.21300
H  0.08100 36.98500 23.80900
H  -3.36400 31.54700 23.49900
H  -3.51400 34.09600 31.71900
H  -0.76100 35.08900 31.82600
H  -3.41600 36.25800 32.05200
H  -2.42100 37.21000 30.89500
H  -1.86900 36.90000 32.57100
H  -0.75400 33.11900 32.39400
H  -1.63400 31.77600 31.79800
H  -3.05300 31.61000 33.55600
H  -3.19500 33.26500 33.89300
H  2.11900 37.82000 29.52200
H  1.25500 39.27800 28.97400
H  2.76700 38.80500 28.28900
H  2.09900 40.40300 26.78200
H  3.02200 40.42100 25.18700
H  3.33100 39.13700 26.37300
H  -0.67900 35.10200 21.88600
H  -3.18100 33.57500 22.02700
H  -3.56600 35.80300 21.71800
H  -2.18900 36.53000 20.93300
H  -2.56100 37.05800 22.61600
H  -0.62800 33.11400 20.99600
H  -1.99700 32.01600 20.98300
H  0.13300 31.08100 21.78400
H  -1.31900 30.92900 22.82400
H  0.03200 32.08200 23.23100
H  -4.31300 29.61800 24.42100
H  -5.81500 30.14600 25.20800
H  -4.85200 28.84900 25.93800
H  -3.45000 30.67100 30.57600
H  -5.79200 32.03900 33.37700
H  -6.77900 30.52100 33.59800
H  -7.33900 31.60800 32.47000

