158

Mg 35.80200 0.63500 28.85200
C  33.73000 1.85300 31.28800
C  38.38000 0.36900 31.24600
C  37.97900 -0.02300 26.37000
C  33.42300 1.54100 26.33800
N  36.02700 1.20200 30.98300
C  34.98100 1.55100 31.78500
C  35.38700 1.51500 33.26300
C  36.93400 1.35400 33.18300
C  37.15600 0.92000 31.75100
C  37.81600 2.50700 33.71200
C  34.59800 0.53600 34.22200
C  34.34900 1.01900 35.63800
H  34.87000 2.41000 36.13900
N  37.91000 0.11200 28.84500
C  38.75400 0.02500 29.93300
C  40.06700 -0.49300 29.47900
C  39.95500 -0.57300 27.98500
C  38.56400 -0.14600 27.69500
C  41.20800 -0.86000 30.37700
C  41.04900 -0.90400 27.03700
O  40.89200 -0.94600 25.85300
C  42.31500 -1.38400 27.59400
N  35.62100 0.42000 26.66300
C  36.69200 0.22400 25.89200
C  36.26000 0.28300 24.37000
C  34.77700 0.48400 24.51200
C  34.54400 0.83300 25.91700
C  37.06600 1.38400 23.63500
C  33.87800 -0.76700 24.12100
C  32.61700 -0.40300 23.40200
N  33.97400 1.52600 28.76100
C  33.08400 1.80900 27.65300
C  31.99700 2.41500 28.17200
C  32.06100 2.40100 29.62600
C  33.35100 1.88900 29.85100
C  30.83500 2.87100 27.39300
C  31.39000 2.72000 30.91100
O  30.33300 3.31600 31.10600
C  32.43500 2.36000 32.00900
C  32.74400 3.62800 32.79200
O  33.52300 4.50600 32.48900
O  31.74300 3.73700 33.80900
C  31.78300 5.02800 34.54300
H  39.21900 0.29900 31.94200
H  38.69700 -0.20500 25.56800
H  32.83300 1.87500 25.48200
H  35.14100 2.53100 33.57300
H  37.26900 0.57000 33.86400
H  37.20300 3.33000 34.08000
H  38.39100 2.84300 32.84900
H  38.41900 2.21800 34.57200
H  35.12900 -0.40900 34.33500
H  33.65500 0.37500 33.70100
H  34.81500 0.26300 36.27000
H  33.30300 0.94500 35.93600
H  41.03600 -0.51300 31.39600
H  41.93400 -0.16900 29.94600
H  41.48100 -1.91400 30.43300
H  42.88000 -0.58100 28.06700
H  42.91400 -1.77300 26.77000
H  42.07100 -2.21700 28.25400
H  36.53600 -0.66100 23.90200
H  34.58800 1.41700 23.98200
H  37.52700 2.13400 24.27700
H  36.38100 1.96200 23.01400
H  37.84000 0.93500 23.01200
H  33.54600 -1.29200 25.01700
H  34.37000 -1.41600 23.39700
H  32.79000 -0.85300 22.42500
H  32.48900 0.67700 23.32600
H  31.76900 -0.84400 23.92700
H  30.28900 2.01600 26.99200
H  31.19200 3.49800 26.57700
H  30.09100 3.45800 27.93100
H  32.07600 1.56200 32.65900
H  32.53700 4.87000 35.31400
H  30.85200 5.20500 35.08100
H  31.89700 6.00700 34.07700
Mg 47.84000 34.05900 27.08300
C  45.91100 32.97500 29.93600
C  48.74600 36.84300 28.85500
C  49.05400 35.44500 24.25700
C  46.74900 31.24500 25.41600
N  47.37800 34.76900 29.09000
C  46.56700 34.25800 30.09600
C  46.61100 35.11000 31.36900
C  47.13800 36.41700 30.74600
C  47.82600 35.98800 29.45300
C  46.05400 37.52500 30.57000
C  47.50800 34.56600 32.56100
C  46.91800 34.91500 33.90100
H  47.87200 35.42000 35.00400
N  48.78600 35.90600 26.58000
C  49.20600 36.78400 27.54800
C  50.07400 37.76600 26.85200
C  50.26200 37.43300 25.49200
C  49.32300 36.22300 25.36900
C  50.66900 38.99700 27.52600
C  51.15500 38.05400 24.37500
O  51.11000 37.61600 23.20800
C  52.15700 39.18600 24.77800
N  47.74300 33.49200 25.20100
C  48.37300 34.20500 24.22600
C  48.09600 33.61500 22.82500
C  47.43500 32.27300 23.14200
C  47.21600 32.35900 24.68600
C  47.23100 34.48100 21.93200
C  48.47600 31.15300 22.80700
C  49.66200 30.74700 23.70200
N  46.74100 32.40600 27.51700
C  46.37600 31.27400 26.75800
C  45.55500 30.37500 27.48900
C  45.33100 31.02900 28.70200
C  46.05700 32.22800 28.69000
C  44.99700 29.08900 27.00600
C  44.55000 30.91400 30.01300
O  43.80800 29.99600 30.43200
C  44.82000 32.19900 30.70800
C  44.96600 32.00200 32.19500
O  45.97600 31.70800 32.73200
O  43.74800 31.92700 32.73100
C  43.81200 31.68900 34.23500
H  49.08400 37.65300 29.50500
H  49.52500 35.69600 23.30400
H  46.35900 30.38600 24.86400
H  45.58400 35.27800 31.69400
H  47.95300 36.84700 31.32700
H  45.99900 37.89400 29.54600
H  46.19900 38.43000 31.15900
H  45.10200 37.03100 30.76800
H  48.50000 35.01300 32.49000
H  47.75700 33.50800 32.48000
H  46.42500 34.00300 34.24000
H  46.05900 35.57800 33.79700
H  51.75500 38.92200 27.55800
H  50.27400 38.92500 28.53900
H  50.36700 39.95300 27.09600
H  52.92300 39.34300 24.01900
H  52.63900 38.83600 25.69100
H  51.79500 40.20100 24.94200
H  49.10200 33.51000 22.41900
H  46.50000 32.11000 22.60500
H  47.24200 35.50100 22.31800
H  46.22400 34.07000 21.86500
H  47.65400 34.47200 20.92800
H  49.01900 31.41900 21.90000
H  47.88000 30.25000 22.67800
H  49.74000 31.42900 24.54900
H  50.62800 30.89100 23.21900
H  49.42300 29.76500 24.11000
H  44.62600 28.43900 27.79800
H  45.68000 28.55100 26.34800
H  44.12600 29.24000 26.36800
H  43.91800 32.80600 30.63800
H  42.92600 32.20200 34.60900
H  44.61600 32.09400 34.85100
H  43.89100 30.61600 34.40900

