158

Mg 1.12600 7.78400 26.10500
C  1.78500 9.76700 28.79500
C  1.41800 4.99400 28.18500
C  0.49500 5.91300 23.36700
C  1.56800 10.68100 23.92500
N  1.52400 7.46500 28.25200
C  1.76800 8.45100 29.18200
C  1.90600 7.87400 30.60200
C  1.97000 6.31900 30.32900
C  1.59200 6.23400 28.82500
C  3.24200 5.52500 30.69500
C  0.76300 8.27300 31.50400
C  1.06000 8.25400 32.99900
H  2.20200 7.41200 33.59100
N  0.90600 5.71600 25.80200
C  1.23200 4.76500 26.77500
C  0.87500 3.47700 26.16800
C  0.53400 3.71700 24.78900
C  0.68100 5.16000 24.58800
C  1.08400 2.13900 26.87700
C  -0.03900 2.85800 23.76800
O  -0.42800 3.19200 22.63900
C  -0.08900 1.37800 24.12500
N  0.99700 8.26600 23.96500
C  0.61800 7.25600 23.07400
C  0.27300 7.87200 21.65400
C  0.89700 9.35700 21.82000
C  1.19200 9.43700 23.29100
C  0.94900 7.14300 20.49600
C  0.00100 10.46200 21.18300
C  -1.19200 10.80900 22.02900
N  1.62600 9.79500 26.24700
C  1.73200 10.77600 25.26100
C  2.17500 11.98400 25.92900
C  2.15700 11.74600 27.34000
C  1.75100 10.35100 27.46000
C  2.64100 13.22900 25.21600
C  2.34500 12.22100 28.72000
O  2.70700 13.30800 29.06800
C  2.05800 10.98900 29.70800
C  3.18600 10.86900 30.64300
O  4.37400 10.68600 30.26900
O  2.75300 10.91200 31.96600
C  3.78600 10.82200 32.98600
H  1.54300 4.11400 28.82000
H  0.14700 5.39700 22.47000
H  1.67400 11.62000 23.37800
H  2.83700 8.25400 31.02400
H  1.16900 5.78700 30.84300
H  3.05600 4.62900 31.28700
H  3.92900 6.00900 31.38900
H  3.72900 5.18400 29.78100
H  -0.08300 7.64000 31.23500
H  0.31100 9.24900 31.32400
H  0.12500 7.95000 33.46900
H  1.26100 9.25100 33.39000
H  1.71100 2.23200 27.76500
H  1.54800 1.36200 26.27000
H  0.19300 1.75000 27.37100
H  -0.55800 1.17300 25.08700
H  0.95200 1.06600 24.05300
H  -0.77900 0.81100 23.49900
H  -0.80900 7.93500 21.53900
H  1.87600 9.23300 21.35700
H  0.81300 7.76300 19.60900
H  0.53600 6.14000 20.39000
H  1.99900 6.91800 20.68300
H  -0.26800 10.13500 20.17800
H  0.67200 11.31200 21.06100
H  -2.15000 10.85300 21.51100
H  -1.00600 11.82800 22.36700
H  -1.28600 10.31600 22.99700
H  3.61100 12.97400 24.78900
H  2.58900 14.06100 25.91800
H  2.10300 13.43400 24.29100
H  1.13100 11.01500 30.28000
H  4.00300 11.85100 33.27300
H  4.66500 10.23700 32.71500
H  3.29500 10.42000 33.87200
Mg 25.47700 0.52500 28.85500
C  27.46200 0.34000 31.62200
C  22.70700 0.99400 30.82300
C  23.75800 0.46000 25.96600
C  28.38600 -0.38100 26.87100
N  25.12400 0.55900 31.00600
C  26.10100 0.64000 31.93300
C  25.51200 1.01500 33.35000
C  23.94600 1.10800 33.00900
C  23.89700 0.87200 31.52000
C  23.05600 0.21500 33.90400
C  26.14800 2.32000 33.98300
C  25.59500 2.71500 35.38400
H  26.42000 2.36700 36.64200
N  23.51400 0.64800 28.43000
C  22.52100 0.91300 29.38700
C  21.21000 1.01900 28.73300
C  21.46000 0.62100 27.36700
C  22.98900 0.57300 27.19200
C  19.99800 1.37200 29.50400
C  20.48200 0.41100 26.21900
O  20.80100 -0.10400 25.12700
C  19.07500 0.72800 26.48100
N  26.03200 0.23000 26.67800
C  25.11100 0.37700 25.64700
C  25.66700 0.19400 24.26000
C  27.13500 0.04300 24.61500
C  27.25500 -0.12000 26.10600
C  25.02200 -0.90200 23.33700
C  28.19500 1.05400 24.07800
C  29.48600 0.51200 23.46700
N  27.50800 0.06600 29.13900
C  28.47900 -0.33400 28.23900
C  29.62400 -0.79800 29.06300
C  29.29300 -0.39200 30.35600
C  27.96300 0.05700 30.35400
C  30.81900 -1.42300 28.55500
C  29.80000 -0.42100 31.72000
O  30.90700 -0.73700 32.15900
C  28.59100 -0.05300 32.61000
C  28.09200 -1.22200 33.39700
O  27.19200 -1.91000 33.04100
O  28.55500 -1.11800 34.64700
C  28.13200 -2.11900 35.63100
H  21.94800 1.21700 31.57600
H  23.00900 0.48600 25.17200
H  29.25100 -0.67500 26.27200
H  25.64100 0.21700 34.08200
H  23.65200 2.15400 33.09400
H  22.45400 -0.50500 33.35000
H  22.36900 0.89500 34.40800
H  23.56600 -0.24100 34.75300
H  25.94400 3.20200 33.37600
H  27.22800 2.20100 34.07800
H  24.59800 2.31300 35.56600
H  25.53100 3.80000 35.46100
H  19.34300 2.08400 29.00300
H  20.28900 1.87100 30.42800
H  19.35400 0.50600 29.65800
H  18.87200 0.04800 27.30800
H  18.40500 0.53700 25.64300
H  18.97800 1.67100 27.01900
H  25.60400 1.16500 23.76700
H  27.40900 -0.94800 24.25400
H  24.64600 -1.76200 23.89200
H  25.69100 -1.36000 22.60900
H  24.26700 -0.50500 22.65900
H  28.46200 1.78900 24.83800
H  27.80200 1.67100 23.27000
H  29.60600 0.94600 22.47400
H  29.35200 -0.57000 23.46700
H  30.37000 0.77800 24.04700
H  30.49000 -2.25100 27.92600
H  31.51200 -1.83100 29.29000
H  31.23400 -0.60000 27.97400
H  28.85100 0.83900 33.18100
H  28.96200 -2.57100 36.17500
H  27.66700 -2.99100 35.17200
H  27.44000 -1.72900 36.37700

