158

Mg 24.04000 -5.57500 45.31800
C  26.40300 -3.19400 43.80800
C  21.71500 -4.20400 43.42200
C  22.32800 -8.31400 46.09100
C  26.86200 -6.73900 47.15100
N  24.09500 -3.85000 43.89500
C  25.12500 -3.13700 43.36300
C  24.61500 -2.19200 42.26600
C  23.09000 -2.27600 42.39300
C  22.92100 -3.49300 43.33400
C  22.39500 -1.05800 42.86600
C  25.24300 -2.44800 40.89800
C  25.95600 -1.21100 40.30800
H  25.42200 -0.74500 38.97500
N  22.12400 -6.10500 44.97000
C  21.30100 -5.43900 44.11200
C  20.02000 -6.09800 44.10500
C  20.13000 -7.28700 44.87300
C  21.56800 -7.30900 45.32700
C  18.79200 -5.69800 43.26200
C  18.98400 -8.26200 45.15400
O  17.87700 -8.17700 44.74900
C  19.28200 -9.51100 45.96400
N  24.58500 -7.35500 46.34600
C  23.66300 -8.32300 46.54900
C  24.23200 -9.46900 47.39600
C  25.76100 -9.00500 47.70200
C  25.79200 -7.61500 47.00500
C  23.41800 -9.89600 48.62000
C  26.88000 -9.97200 47.13000
C  27.62300 -10.97700 48.14200
N  26.30000 -5.06800 45.53500
C  27.23300 -5.59100 46.34600
C  28.48700 -4.90700 46.25700
C  28.25600 -4.03400 45.17800
C  26.89200 -4.14800 44.82000
C  29.72600 -5.22600 47.08500
C  28.82500 -2.95100 44.30600
O  29.95100 -2.56300 44.14900
C  27.65400 -2.38700 43.44400
C  27.42000 -1.00100 43.77900
O  26.47600 -0.53300 44.42200
O  28.57000 -0.24500 43.48000
C  28.68900 1.07600 43.92800
H  20.94000 -3.63200 42.90800
H  21.76500 -9.20500 46.37500
H  27.79800 -6.97700 47.66000
H  24.86500 -1.17800 42.57800
H  22.66600 -2.54400 41.42600
H  22.52500 -0.15700 42.26700
H  22.53800 -0.70800 43.88800
H  21.33500 -1.30600 42.80200
H  24.43000 -2.60100 40.18800
H  25.93700 -3.28600 40.83900
H  26.99600 -1.45100 40.08800
H  25.96400 -0.37100 41.00200
H  18.04100 -5.20100 43.87600
H  18.44900 -6.58200 42.72600
H  19.07700 -4.96300 42.50900
H  18.34400 -10.02400 46.17800
H  19.68900 -9.08700 46.88200
H  19.89600 -10.20800 45.39300
H  24.27900 -10.29800 46.69000
H  25.95800 -8.90700 48.77000
H  22.91300 -9.02400 49.03600
H  24.00400 -10.38700 49.39700
H  22.80000 -10.71300 48.24900
H  27.63400 -9.38900 46.60200
H  26.42300 -10.50900 46.29800
H  28.68600 -10.80000 48.30500
H  27.52400 -11.99500 47.76600
H  27.07900 -10.85000 49.07800
H  30.39800 -5.98900 46.69200
H  29.65300 -5.55100 48.12200
H  30.39300 -4.36400 47.08800
H  27.93300 -2.53900 42.40100
H  28.94700 1.75300 43.11400
H  29.59000 1.19200 44.53000
H  27.76500 1.50800 44.31200
Mg -9.53800 38.33400 41.00600
C  -8.26700 35.08900 40.76100
C  -6.51400 39.44700 39.78600
C  -10.89700 41.48500 40.51600
C  -12.71400 37.09800 41.68400
N  -7.60800 37.36000 40.43300
C  -7.24800 36.01000 40.48700
C  -5.83100 35.77800 40.19800
C  -5.20800 37.26100 40.30600
C  -6.48900 38.09300 40.10800
C  -4.44200 37.67200 41.68000
C  -5.79800 34.93100 38.83100
C  -5.89700 35.78000 37.57500
H  -7.08800 35.53900 36.56700
N  -8.84500 40.20700 40.28400
C  -7.54700 40.45900 39.88400
C  -7.39200 41.82900 39.43000
C  -8.58600 42.51700 39.74200
C  -9.52000 41.40100 40.19100
C  -6.10000 42.40300 38.95600
C  -8.69700 43.94900 39.57000
O  -7.75000 44.56600 39.13100
C  -9.98800 44.73300 39.83200
N  -11.57000 39.16100 41.02800
C  -11.83600 40.51700 40.89000
C  -13.34700 40.78100 41.17000
C  -13.88000 39.35000 41.54800
C  -12.65600 38.50500 41.50700
C  -13.41100 41.86300 42.25200
C  -15.12100 38.88300 40.69800
C  -16.46900 39.07400 41.40300
N  -10.39100 36.49000 41.26600
C  -11.65100 36.15900 41.63800
C  -11.72400 34.73800 41.98400
C  -10.43400 34.26300 41.57300
C  -9.62100 35.39600 41.13900
C  -12.88700 33.97700 42.48500
C  -9.59100 33.18200 41.55700
O  -9.75400 31.98600 41.83300
C  -8.27000 33.62200 40.87000
C  -7.05600 32.91800 41.33000
O  -6.18600 32.45300 40.62200
O  -7.02800 32.83500 42.71900
C  -5.81500 32.26800 43.29800
H  -5.60400 39.85900 39.34300
H  -11.32900 42.48700 40.46900
H  -13.68900 36.72200 42.00000
H  -5.29000 35.23400 40.97200
H  -4.51100 37.39100 39.47800
H  -3.39700 37.92200 41.49900
H  -4.55100 36.92600 42.46800
H  -4.93200 38.57700 42.03900
H  -6.63400 34.23400 38.76900
H  -4.82800 34.43700 38.88100
H  -4.99000 35.60100 36.99800
H  -5.95000 36.84700 37.78900
H  -6.30600 42.96100 38.04300
H  -5.34500 41.66600 38.67900
H  -5.55500 43.08200 39.61200
H  -9.71200 45.77500 39.99400
H  -10.60500 44.31600 40.62800
H  -10.62400 44.75100 38.94700
H  -13.70800 40.94000 40.15400
H  -14.08400 39.35000 42.61800
H  -13.74200 42.73600 41.69000
H  -12.47500 42.23700 42.66800
H  -14.07800 41.55300 43.05600
H  -15.04900 37.81600 40.48400
H  -15.12300 39.42500 39.75300
H  -16.54200 39.75800 42.24900
H  -16.71900 38.09800 41.81700
H  -17.15200 39.30800 40.58600
H  -12.54200 33.57700 43.43900
H  -13.17000 33.20100 41.77300
H  -13.68100 34.71700 42.58100
H  -8.29400 33.21300 39.86000
H  -5.65900 31.22700 43.01500
H  -5.89200 32.26700 44.38600
H  -4.94600 32.86000 43.01200

