158

Mg 2.44800 -1.45900 44.17600
C  5.78700 -0.31900 43.96600
C  1.54200 1.41500 42.48700
C  -0.60400 -2.75600 43.71300
C  3.65100 -4.55300 45.29000
N  3.51600 0.28000 43.34300
C  4.86800 0.57800 43.42200
C  5.26300 1.85600 42.61200
C  3.90600 2.53000 42.42800
C  2.89500 1.30800 42.78700
C  3.55900 3.88600 43.20900
C  5.97500 1.42400 41.29600
C  7.20800 2.24200 40.85800
H  6.94200 3.32300 39.81300
N  0.68200 -0.64500 43.36400
C  0.53400 0.49800 42.69700
C  -0.80100 0.56800 42.33300
C  -1.52100 -0.52200 42.74900
C  -0.45700 -1.31700 43.32100
C  -1.39500 1.86300 41.74500
C  -3.03900 -0.69300 42.56400
O  -3.72700 0.16100 42.02400
C  -3.79000 -1.79900 43.27000
N  1.66700 -3.41000 44.51000
C  0.33400 -3.64700 44.24200
C  0.00700 -5.16900 44.60200
C  1.30100 -5.65200 45.35800
C  2.25300 -4.44200 45.12400
C  -1.28100 -5.35700 45.41700
C  1.85000 -7.08000 44.85100
C  2.26700 -8.09800 45.90400
N  4.35100 -2.33200 44.59800
C  4.61600 -3.60600 45.02700
C  6.06100 -3.61300 45.28100
C  6.58500 -2.36700 44.83200
C  5.50800 -1.66000 44.34300
C  6.83200 -4.75500 45.94300
C  7.76300 -1.48200 44.74700
O  8.98400 -1.74400 44.88600
C  7.30100 -0.21300 43.93600
C  7.85100 0.89800 44.73900
O  7.46900 1.11900 45.85000
O  8.78300 1.58200 44.03000
C  9.20700 2.88500 44.63800
H  1.38300 2.33900 41.92800
H  -1.49400 -3.36800 43.55500
H  3.97700 -5.52700 45.66100
H  5.90500 2.57600 43.11900
H  3.74000 2.73500 41.37000
H  3.00100 4.57900 42.57900
H  4.50700 4.32700 43.51700
H  3.00500 3.69800 44.12900
H  5.21100 1.47200 40.52000
H  6.40500 0.42400 41.34800
H  8.00400 1.53700 40.61700
H  7.60000 2.87400 41.65500
H  -1.74400 1.55300 40.76100
H  -0.62900 2.60700 41.52400
H  -2.08800 2.30100 42.46400
H  -4.86400 -1.63600 43.18400
H  -3.45600 -1.77100 44.30700
H  -3.53300 -2.70500 42.72000
H  -0.11500 -5.77400 43.70300
H  1.17600 -5.60500 46.44000
H  -1.94500 -6.08100 44.94400
H  -1.82700 -4.44700 45.66600
H  -0.98200 -5.81600 46.35900
H  2.68000 -6.92300 44.16200
H  1.08500 -7.58600 44.26100
H  1.69600 -9.02500 45.86000
H  1.88700 -7.72000 46.85300
H  3.34600 -8.12200 45.74900
H  6.19600 -5.31800 46.62700
H  7.69700 -4.37200 46.48400
H  7.15300 -5.48400 45.19900
H  7.70900 -0.13200 42.92800
H  8.27900 3.45600 44.63600
H  10.03000 3.40500 44.14600
H  9.35000 2.89600 45.71900
Mg 36.38900 2.45600 30.54600
C  34.02800 3.63500 32.71900
C  38.62000 2.24000 33.01700
C  38.78800 1.64800 28.14100
C  34.03100 2.61200 27.84600
N  36.38000 3.09400 32.62700
C  35.25200 3.38800 33.35600
C  35.44400 3.22500 34.83400
C  37.02900 3.05200 34.88800
C  37.39500 2.77700 33.44500
C  37.91700 4.16100 35.59200
C  34.68400 2.00000 35.44900
C  34.12500 2.29100 36.84200
H  34.64000 3.48700 37.64300
N  38.42000 1.95100 30.63200
C  39.14900 1.84500 31.74800
C  40.44100 1.34400 31.42200
C  40.55700 1.17600 30.05200
C  39.22700 1.67200 29.53600
C  41.36600 1.02800 32.59400
C  41.78600 0.65000 29.25900
O  41.81900 0.67300 28.00800
C  43.00400 0.06800 30.04700
N  36.39300 2.26100 28.19300
C  37.51000 1.92800 27.53400
C  37.21700 1.78400 26.07900
C  35.63200 1.98300 25.97800
C  35.27000 2.28900 27.40300
C  38.14600 2.81800 25.23500
C  34.86700 0.87100 25.16900
C  34.72700 -0.46700 25.91800
N  34.42000 2.98400 30.27800
C  33.60000 2.96300 29.20100
C  32.21800 3.24300 29.59900
C  32.44000 3.51300 31.00300
C  33.78600 3.42900 31.32800
C  31.01300 3.23400 28.68500
C  31.70900 3.93100 32.16400
O  30.49200 4.14100 32.25500
C  32.69000 3.98700 33.29400
C  32.72600 5.29700 34.00700
O  33.24300 6.32800 33.54200
O  32.09500 5.14400 35.21900
C  32.19700 6.42600 35.92500
H  39.25900 2.10200 33.89200
H  39.62200 1.36500 27.49600
H  33.29200 2.63400 27.04200
H  35.11700 4.19700 35.20500
H  37.18500 2.08600 35.36800
H  38.90000 4.20400 35.12200
H  38.01100 3.79700 36.61500
H  37.37000 5.10400 35.60100
H  35.24700 1.07400 35.56400
H  33.86100 1.67600 34.81200
H  34.40500 1.41600 37.42900
H  33.06600 2.40300 36.61100
H  41.11800 1.36600 33.60000
H  42.33400 1.38400 32.24000
H  41.23200 -0.05200 32.66500
H  43.39600 1.04900 30.31600
H  43.50900 -0.56400 29.31700
H  42.63800 -0.59400 30.83200
H  37.41600 0.80300 25.64600
H  35.33800 2.90300 25.47200
H  38.99800 2.25100 24.86000
H  38.49900 3.73800 25.70000
H  37.49700 3.15100 24.42500
H  35.33700 0.68400 24.20300
H  33.95400 1.40900 24.91400
H  34.74800 -1.20100 25.11300
H  33.80600 -0.55400 26.49400
H  35.60400 -0.78500 26.48300
H  30.04900 3.15900 29.18900
H  31.13000 2.43800 27.95000
H  31.03300 4.19500 28.17100
H  32.37500 3.26500 34.04700
H  31.72900 7.28200 35.43800
H  33.25400 6.59300 36.13400
H  31.74300 6.25500 36.90100

