158

Mg 34.95800 2.58700 29.36400
C  32.81400 3.50900 31.96700
C  37.53500 2.15000 31.57500
C  36.94800 1.70600 26.74300
C  32.36100 3.40900 26.98200
N  35.11700 2.92700 31.51100
C  34.09000 3.24000 32.46100
C  34.68900 3.33900 33.94700
C  36.18300 3.03500 33.63100
C  36.31900 2.61000 32.16200
C  37.21000 4.22800 33.85300
C  34.03000 2.45300 34.95500
C  33.55400 3.07500 36.27900
H  34.56900 3.83400 37.03000
N  36.96300 1.97700 29.14300
C  37.84900 1.94200 30.14800
C  39.12500 1.48500 29.62800
C  39.02500 1.31100 28.23700
C  37.59000 1.59100 27.99300
C  40.33000 1.09100 30.56300
C  39.99600 0.79500 27.21200
O  39.66000 0.42500 26.10300
C  41.57300 0.57100 27.59100
N  34.69900 2.56800 27.20900
C  35.65300 2.11600 26.35600
C  35.09800 1.97400 24.89300
C  33.59300 2.34500 25.03300
C  33.54600 2.83700 26.48900
C  35.84600 2.80500 23.88700
C  32.68200 1.09400 24.78900
C  31.74200 1.21700 23.58100
N  33.01500 3.33600 29.37100
C  32.06400 3.59900 28.34700
C  30.80900 3.88300 29.01100
C  31.02800 3.88700 30.42000
C  32.39700 3.49400 30.59900
C  29.54300 3.92700 28.34500
C  30.38600 4.09500 31.76400
O  29.24300 4.43000 32.07000
C  31.53400 3.85100 32.82300
C  31.62000 5.06300 33.54600
O  32.33300 6.02800 33.28100
O  30.66700 5.02800 34.50100
C  30.54400 6.29100 35.22200
H  38.38500 1.98200 32.24100
H  37.57700 1.43200 25.89300
H  31.59200 3.68400 26.25800
H  34.56000 4.40200 34.15400
H  36.49300 2.20100 34.26100
H  37.80600 4.33900 32.94700
H  37.87100 4.01000 34.69200
H  36.74700 5.20900 33.96100
H  34.63600 1.56900 35.15300
H  33.08700 2.18200 34.48200
H  33.24100 2.23100 36.89300
H  32.65700 3.68700 36.18400
H  40.38400 0.07600 30.95700
H  40.36200 1.78300 31.40500
H  41.28000 1.33300 30.08700
H  41.66700 -0.14000 28.41300
H  42.11300 1.48500 27.83600
H  42.06700 0.20800 26.69000
H  35.26700 0.89900 24.83500
H  33.36500 3.10200 24.28200
H  36.47900 2.19300 23.24400
H  36.45100 3.58400 24.35100
H  35.26900 3.39100 23.17100
H  31.96100 0.95200 25.59400
H  33.25300 0.18800 24.58500
H  31.93300 0.45200 22.82800
H  31.91100 2.16000 23.06000
H  30.70600 1.10000 23.89700
H  29.37100 4.79700 27.71100
H  28.77100 3.91700 29.11500
H  29.34800 3.04200 27.73900
H  31.20600 3.05900 33.49500
H  30.16600 7.07700 34.56800
H  31.51600 6.68600 35.51800
H  29.95000 6.14000 36.12300
Mg 49.53000 35.18900 27.86500
C  47.14800 34.03000 30.32100
C  49.90700 37.99000 29.74300
C  51.29700 36.31000 25.34300
C  48.70600 32.30900 25.93600
N  48.63000 35.89200 29.94200
C  47.87200 35.20300 30.80400
C  48.00700 35.83700 32.18000
C  48.46900 37.35400 31.87500
C  49.09400 37.04100 30.44600
C  47.41200 38.50100 31.85500
C  49.12400 35.13200 33.07600
C  48.92400 35.17400 34.55400
H  48.10100 36.36500 35.20900
N  50.38700 36.90500 27.56200
C  50.52200 37.92500 28.43800
C  51.39300 38.95200 27.92100
C  51.83900 38.52300 26.64000
C  51.16700 37.21800 26.42200
C  51.47600 40.27400 28.66000
C  52.90900 39.17300 25.75900
O  53.30500 38.77700 24.62800
C  53.65900 40.31600 26.41700
N  49.87000 34.35800 25.83600
C  50.79300 35.05900 25.09900
C  51.29900 34.13800 23.96500
C  50.58700 32.74900 24.20400
C  49.63200 33.12200 25.31800
C  51.18800 34.83300 22.56600
C  51.60000 31.61900 24.65900
C  51.29700 30.27300 24.04700
N  48.22200 33.51400 28.00100
C  48.00600 32.43900 27.16600
C  47.08900 31.47500 27.82600
C  46.70700 32.04300 29.03500
C  47.39900 33.29300 29.09500
C  46.74600 30.09900 27.26100
C  45.82300 31.94200 30.24500
O  45.02200 31.03300 30.53500
C  46.03900 33.18000 31.17200
C  46.40300 32.80400 32.54800
O  47.30100 32.05400 32.84700
O  45.56900 33.42100 33.39200
C  45.61600 33.20400 34.80700
H  50.20500 38.83100 30.37300
H  52.13800 36.57500 24.69900
H  48.54600 31.44300 25.29000
H  47.03700 35.78500 32.67500
H  49.28900 37.73300 32.48500
H  47.30900 38.68300 30.78600
H  47.63900 39.38400 32.45300
H  46.50000 38.07900 32.27700
H  50.02700 35.59800 32.68100
H  49.04100 34.06800 32.85500
H  49.81700 35.19900 35.17800
H  48.52000 34.18300 34.75900
H  51.68300 41.09300 27.97100
H  52.15800 40.27900 29.51000
H  50.56200 40.61100 29.14900
H  53.15000 41.23400 26.12400
H  54.57500 40.33800 25.82700
H  53.79400 40.10700 27.47800
H  52.35800 34.13600 24.21900
H  49.91000 32.38700 23.43000
H  52.18800 34.94400 22.14500
H  50.68900 35.80000 22.62100
H  50.74700 34.22700 21.77500
H  51.74700 31.50800 25.73400
H  52.54600 31.93000 24.21700
H  51.26200 29.56400 24.87400
H  52.11200 30.01000 23.37300
H  50.36800 30.29300 23.47600
H  47.16500 29.87200 26.28100
H  45.66300 29.98300 27.22100
H  47.21900 29.46100 28.00800
H  45.13100 33.78200 31.21200
H  46.62800 33.51700 35.06600
H  45.44900 32.13700 34.95600
H  44.90000 33.80300 35.36900

