158

Mg 9.13500 48.59300 26.02200
C  7.07900 48.95100 28.90700
C  11.76500 49.86300 27.80000
C  11.00700 48.59000 23.16600
C  6.13800 48.33700 24.04200
N  9.28700 49.21800 28.16700
C  8.41900 49.25100 29.17100
C  9.05100 49.55600 30.51000
C  10.41300 50.22000 30.02500
C  10.50900 49.73500 28.57500
C  10.41800 51.79400 30.08600
C  9.20700 48.27100 31.36900
C  8.81700 48.49000 32.85900
H  8.50000 47.32600 33.77200
N  11.16100 48.83500 25.60800
C  12.07300 49.40200 26.50300
C  13.38300 49.28700 25.90500
C  13.20000 48.76600 24.59200
C  11.73500 48.73800 24.40100
C  14.67800 49.65700 26.61600
C  14.20200 48.30500 23.52900
O  13.84400 47.84300 22.44400
C  15.66100 48.21300 23.91000
N  8.61500 48.75000 23.89000
C  9.61900 48.60200 22.93800
C  9.06000 47.97200 21.64200
C  7.49100 47.90300 21.88300
C  7.37400 48.51500 23.32600
C  9.44900 48.59100 20.25800
C  6.86800 46.46400 21.73800
C  7.45100 45.41400 22.72900
N  7.09300 48.56200 26.36300
C  6.02800 48.38200 25.44100
C  4.78900 48.36700 26.16600
C  5.15900 48.52900 27.55500
C  6.55900 48.58800 27.61800
C  3.40800 48.44800 25.61200
C  4.59600 48.71300 28.90000
O  3.40300 48.82800 29.10900
C  5.85100 48.94600 29.83900
C  5.70800 47.86600 30.89500
O  6.16700 46.73800 30.71200
O  4.96600 48.26200 31.94500
C  4.36300 47.17300 32.76800
H  12.61200 50.30300 28.33000
H  11.64000 48.60800 22.27600
H  5.22400 48.29900 23.44600
H  8.41200 50.31200 30.96600
H  11.24300 49.91400 30.66200
H  9.51300 52.08600 30.61900
H  10.44100 52.27300 29.10700
H  11.32600 51.99500 30.65400
H  10.27900 48.11600 31.24100
H  8.85700 47.34500 30.91400
H  7.87600 49.03300 32.76800
H  9.67900 48.95900 33.33300
H  15.25400 50.50300 26.24100
H  15.22000 48.72100 26.48300
H  14.56700 49.61200 27.69900
H  16.30800 47.69900 23.19900
H  15.82400 47.60100 24.79700
H  16.09700 49.20000 24.06700
H  9.33300 46.92500 21.51200
H  6.94100 48.60100 21.25200
H  10.22700 49.31600 20.49700
H  8.55400 49.11200 19.91900
H  9.61600 47.82300 19.50200
H  7.00100 46.13900 20.70600
H  5.78300 46.56500 21.75000
H  7.53100 45.85300 23.72300
H  8.37700 45.07600 22.26300
H  6.80800 44.53500 22.77300
H  3.08700 49.48900 25.61700
H  2.72700 47.87900 26.24500
H  3.45300 48.16900 24.55900
H  5.90900 49.91000 30.34300
H  3.50000 46.92000 32.15100
H  3.89500 47.49300 33.69900
H  4.98700 46.30200 32.97100
Mg -0.18600 43.73600 26.76900
C  1.87800 43.56300 29.62300
C  -2.93700 43.00400 28.83500
C  -2.10300 43.44400 24.05600
C  2.62000 44.31200 24.81300
N  -0.41700 43.35600 28.90000
C  0.50400 43.49000 29.86700
C  -0.10200 43.60800 31.24600
C  -1.56600 43.27700 31.00100
C  -1.70000 43.22200 29.48000
C  -2.15000 41.93600 31.69000
C  0.12600 44.92100 32.03100
C  0.38200 44.72000 33.54100
H  -0.18400 43.42700 34.27700
N  -2.24200 43.19700 26.49500
C  -3.21800 43.01500 27.45300
C  -4.54300 42.86400 26.78300
C  -4.29700 42.92000 25.38400
C  -2.85500 43.22200 25.28600
C  -5.88300 42.77500 27.52200
C  -5.26700 42.66900 24.12500
O  -4.85900 42.72700 22.93600
C  -6.69600 42.16900 24.39200
N  0.19900 43.79500 24.75200
C  -0.77400 43.62100 23.82000
C  -0.17100 43.63400 22.42600
C  1.27500 44.08000 22.62300
C  1.39200 44.06300 24.12500
C  -0.40100 42.25900 21.63900
C  1.61500 45.49400 22.08400
C  2.46300 45.54000 20.83000
N  1.79400 43.99500 27.12000
C  2.81700 44.22400 26.19000
C  4.06200 44.25900 26.95100
C  3.76800 44.05500 28.34600
C  2.36000 43.85400 28.29200
C  5.42500 44.29500 26.30100
C  4.21000 43.92000 29.64000
O  5.31600 44.00600 30.09000
C  3.01500 43.69800 30.56100
C  3.26100 42.54500 31.31500
O  3.54300 41.44500 30.84400
O  3.28100 42.78600 32.67300
C  3.70500 41.67500 33.49000
H  -3.85900 42.80000 29.38400
H  -2.68800 43.37800 23.13600
H  3.55700 44.48300 24.27900
H  0.34700 42.80000 31.82300
H  -2.28100 44.06200 31.24500
H  -2.77900 41.29700 31.07000
H  -2.74300 42.19200 32.56800
H  -1.29400 41.32900 31.98600
H  -0.75500 45.56000 32.09300
H  0.83400 45.51400 31.45200
H  0.10000 45.61500 34.09400
H  1.43500 44.80900 33.80700
H  -6.42000 41.90400 27.14400
H  -6.49700 43.65000 27.31000
H  -5.78000 42.74500 28.60700
H  -6.68900 41.28100 25.02300
H  -7.26200 41.96600 23.48200
H  -7.37800 42.86100 24.88600
H  -0.66600 44.33800 21.75700
H  2.03800 43.39300 22.25600
H  -0.99700 41.56600 22.23400
H  0.57500 41.77300 21.61900
H  -0.77000 42.35200 20.61800
H  2.04400 46.19200 22.80400
H  0.67200 46.01100 21.90800
H  1.74500 45.60800 20.01300
H  3.08000 44.64100 20.81600
H  3.18100 46.36000 20.82200
H  5.57800 43.39500 25.70500
H  6.13600 44.30000 27.12700
H  5.39000 45.16700 25.64800
H  2.83500 44.57100 31.18800
H  4.72400 41.35100 33.28200
H  3.01400 40.85800 33.28400
H  3.46800 41.82600 34.54400

