158

Mg -0.21000 7.65900 27.36000
C  0.47500 9.98800 29.83700
C  -0.64200 5.28500 29.59300
C  -0.74100 5.58600 24.66800
C  0.81800 10.14000 25.04500
N  0.11500 7.69500 29.54500
C  0.06600 8.74500 30.38000
C  -0.17400 8.33100 31.77100
C  -0.39400 6.77700 31.68900
C  -0.27500 6.54400 30.17400
C  0.64400 5.93700 32.35700
C  -1.29800 9.06200 32.47400
C  -1.35800 8.94100 34.01900
H  -0.16700 8.47900 34.82300
N  -0.53300 5.73200 27.14700
C  -0.81600 4.92600 28.21800
C  -1.10900 3.59400 27.71800
C  -1.09500 3.60900 26.31800
C  -0.80100 5.05600 26.01600
C  -1.36100 2.40500 28.69300
C  -1.34300 2.47700 25.22200
O  -1.39100 2.64700 23.99900
C  -1.63700 1.02600 25.85400
N  0.10600 7.83100 25.12500
C  -0.28800 6.84900 24.28800
C  -0.29600 7.39200 22.85000
C  -0.08600 8.88500 22.97100
C  0.36200 8.95500 24.43800
C  0.65800 6.46200 22.03100
C  -1.46300 9.63900 22.84000
C  -1.79300 10.29800 21.41900
N  0.55100 9.63100 27.40100
C  0.98200 10.50300 26.40000
C  1.37700 11.82100 26.95400
C  1.22300 11.68000 28.33400
C  0.86500 10.28800 28.52100
C  1.80300 13.01400 26.15900
C  1.33900 12.28100 29.58100
O  1.61400 13.43600 29.93000
C  0.92400 11.20900 30.61100
C  1.92800 11.18300 31.64600
O  3.02300 10.65500 31.48800
O  1.48300 11.82800 32.75100
C  2.38400 11.81000 33.86700
H  -0.80100 4.58100 30.41300
H  -0.90400 4.87400 23.85700
H  0.96900 10.90000 24.27600
H  0.73100 8.41500 32.37300
H  -1.36000 6.40200 32.02800
H  1.45400 5.73500 31.65700
H  0.27300 4.95000 32.63700
H  1.07600 6.38800 33.25000
H  -2.17500 8.50700 32.14000
H  -1.39300 10.13500 32.30600
H  -2.25700 8.36200 34.22800
H  -1.62200 9.91300 34.43600
H  -2.41600 2.32600 28.95600
H  -0.87600 2.69000 29.62600
H  -0.99900 1.42500 28.38100
H  -1.99800 0.45100 25.00100
H  -2.42800 1.11700 26.59800
H  -0.73000 0.59300 26.27800
H  -1.32000 7.30600 22.48900
H  0.72200 9.19600 22.30900
H  0.95700 5.52100 22.49300
H  1.46300 7.00700 21.53700
H  0.04300 6.03200 21.24000
H  -1.40600 10.49200 23.51700
H  -2.35400 9.09500 23.15300
H  -2.79600 10.00100 21.11300
H  -1.00200 10.16200 20.68200
H  -1.74000 11.36800 21.62300
H  0.86600 13.33000 25.70100
H  2.55800 12.75100 25.41800
H  2.32100 13.69300 26.83700
H  0.02900 11.63900 31.06000
H  2.53600 10.76200 34.12400
H  2.07100 12.36300 34.75200
H  3.41400 12.11800 33.68600
Mg 17.02600 -1.60400 28.49600
C  15.93000 0.36400 31.20400
C  19.06300 -3.20400 30.67000
C  17.87100 -3.53200 25.89900
C  14.87900 0.28800 26.43100
N  17.54900 -1.40000 30.70000
C  16.95200 -0.53900 31.59400
C  17.59800 -0.78300 32.97200
C  18.78600 -1.75500 32.70200
C  18.47000 -2.09700 31.23500
C  20.20900 -1.17200 32.81900
C  16.41100 -1.22000 34.00400
C  16.44700 -0.50200 35.36500
H  17.72100 0.12900 35.89300
N  18.21300 -3.17300 28.29500
C  19.00900 -3.74400 29.34900
C  19.59200 -4.93100 28.81800
C  19.21000 -5.06300 27.42100
C  18.38800 -3.87200 27.12500
C  20.45800 -5.81400 29.65300
C  19.61600 -6.19200 26.43300
O  19.27700 -6.11800 25.25200
C  20.33700 -7.42200 26.92800
N  16.47500 -1.63500 26.38400
C  17.03300 -2.40600 25.51400
C  16.53200 -2.13000 24.08900
C  15.45900 -1.02300 24.34000
C  15.68700 -0.69900 25.78400
C  17.74800 -1.83400 23.08600
C  13.99400 -1.45300 24.14500
C  13.17100 -0.51900 23.28000
N  15.61900 -0.09900 28.71500
C  14.78100 0.52100 27.77500
C  13.95400 1.51000 28.40300
C  14.41900 1.59100 29.69000
C  15.42400 0.54300 29.87600
C  13.00500 2.41100 27.71300
C  14.19400 2.26900 31.03800
O  13.40800 3.21400 31.34800
C  15.17900 1.45500 32.01200
C  16.04700 2.45400 32.70200
O  16.58900 3.33400 32.10600
O  15.85000 2.33600 34.11200
C  16.34700 3.54800 34.77700
H  19.76500 -3.76600 31.28900
H  18.09600 -4.21700 25.08000
H  14.10300 0.78600 25.84600
H  18.07300 0.14900 33.27900
H  18.65700 -2.59600 33.38300
H  20.80600 -1.89900 33.37100
H  20.22700 -0.26700 33.42600
H  20.68700 -0.89800 31.87800
H  16.53200 -2.26400 34.29300
H  15.39200 -0.97600 33.70300
H  16.12700 -1.20100 36.13800
H  15.61900 0.20400 35.41600
H  20.42400 -6.88400 29.44400
H  20.30400 -5.69100 30.72500
H  21.47700 -5.45900 29.49900
H  19.73300 -8.03400 27.59800
H  21.30500 -7.16900 27.36100
H  20.59000 -7.93900 26.00300
H  16.10800 -3.02200 23.62700
H  15.73200 -0.22600 23.64800
H  17.60500 -0.89800 22.54500
H  18.00200 -2.63700 22.39400
H  18.62200 -1.53000 23.66100
H  13.51200 -1.47300 25.12300
H  13.85300 -2.47900 23.80700
H  12.55600 0.02500 23.99700
H  12.41000 -1.06800 22.72500
H  13.62800 0.11300 22.51900
H  12.40800 1.90600 26.95400
H  13.64700 3.11100 27.17800
H  12.29400 2.95700 28.33300
H  14.48800 0.93700 32.67800
H  17.42200 3.69300 34.66700
H  16.08600 3.53300 35.83500
H  15.87700 4.44400 34.37100

