158

Mg 3.05300 -1.56000 44.70300
C  6.55200 -0.84500 44.51200
C  2.59600 1.16300 42.65600
C  -0.07500 -2.59600 44.69700
C  3.99200 -4.85300 46.06800
N  4.51800 0.07900 43.80000
C  5.84400 0.06500 43.69100
C  6.34800 1.23600 42.76300
C  4.96700 1.90200 42.27600
C  3.92900 1.01800 42.96400
C  4.76600 3.44500 42.64100
C  7.15500 0.74700 41.54000
C  8.54200 1.31300 41.30400
H  8.58100 2.30000 40.04600
N  1.51900 -0.82900 43.74400
C  1.44400 0.31900 43.06100
C  0.09800 0.57700 42.75500
C  -0.68900 -0.47000 43.25300
C  0.21100 -1.37800 43.98400
C  -0.32500 1.95400 42.11300
C  -2.18000 -0.52100 43.18300
O  -2.80300 0.36200 42.60000
C  -3.04100 -1.61700 43.85400
N  2.12100 -3.54200 45.37100
C  0.81700 -3.60000 45.17300
C  0.30300 -5.00700 45.73300
C  1.61200 -5.76300 45.94500
C  2.62400 -4.68600 45.83300
C  -0.58900 -4.78600 46.98400
C  1.86300 -6.93400 44.89400
C  2.84800 -8.06200 45.15800
N  4.84400 -2.62400 45.23600
C  5.00300 -3.85300 45.88800
C  6.44200 -3.90900 46.22200
C  7.04000 -2.73700 45.73400
C  5.99900 -2.05000 45.10800
C  7.07800 -4.97300 47.04500
C  8.26900 -2.02600 45.65600
O  9.37800 -2.32900 46.06500
C  8.02600 -0.75900 44.83000
C  8.22200 0.37400 45.70700
O  7.46800 0.73400 46.60200
O  9.21200 1.23600 45.28700
C  9.08900 2.69800 45.68500
H  2.45600 1.87200 41.83800
H  -1.09400 -2.98600 44.74400
H  4.21400 -5.77600 46.60700
H  6.90000 1.92800 43.39900
H  4.87700 1.78900 41.19600
H  4.45600 3.57800 43.67800
H  4.03600 3.95800 42.01600
H  5.70900 3.99000 42.67500
H  6.60500 0.82200 40.60200
H  7.20100 -0.33800 41.63000
H  9.08000 0.48900 40.83600
H  9.01300 1.63500 42.23300
H  0.51300 2.39300 41.57100
H  -0.60000 2.64200 42.91300
H  -1.15900 1.84300 41.42000
H  -4.11200 -1.41700 43.84100
H  -2.74200 -1.41900 44.88300
H  -2.79300 -2.66600 43.68900
H  -0.21300 -5.40100 44.85700
H  1.90200 -6.04400 46.95700
H  -1.06500 -3.84900 47.27400
H  -0.06000 -5.08000 47.89000
H  -1.35500 -5.55100 46.85500
H  2.26700 -6.45800 44.00100
H  0.87300 -7.32500 44.65500
H  3.44400 -7.91600 46.05900
H  3.45000 -8.19000 44.25900
H  2.41800 -9.06000 45.24900
H  7.20000 -5.79700 46.34100
H  6.33100 -5.07300 47.83200
H  8.03700 -4.58500 47.39000
H  8.71000 -0.77800 43.98100
H  8.14100 2.92600 46.17100
H  9.15400 3.31700 44.79100
H  9.97200 2.99900 46.24900
Mg 16.07000 51.23700 26.02000
C  17.91800 50.02400 28.66000
C  13.70300 52.26000 28.20600
C  14.55500 52.79800 23.37300
C  18.52700 50.13200 23.83100
N  15.93000 51.32300 28.12100
C  16.82400 50.75100 29.01600
C  16.38700 51.08000 30.47900
C  14.85600 51.35400 30.27100
C  14.81100 51.68200 28.77800
C  13.88900 50.13200 30.56800
C  17.37100 52.18200 31.07700
C  17.55400 51.93900 32.65400
H  16.60100 52.63000 33.63900
N  14.37800 52.41000 25.79400
C  13.51300 52.67900 26.84800
C  12.48700 53.54600 26.34300
C  12.71600 53.70200 24.94400
C  13.90000 52.89700 24.61800
C  11.31900 54.12600 27.20800
C  11.90300 54.49200 23.90300
O  12.29800 54.57200 22.75200
C  10.64500 55.20200 24.24700
N  16.30100 51.17900 23.86600
C  15.68500 52.11300 23.03400
C  16.36300 52.07000 21.66100
C  17.69300 51.34900 21.81000
C  17.47400 50.77700 23.23900
C  15.49900 51.38800 20.58400
C  18.92000 52.31800 21.75900
C  20.16000 51.81400 20.95900
N  17.74200 50.09200 26.06700
C  18.65100 49.76900 25.15500
C  19.77700 49.07400 25.75200
C  19.50200 49.22100 27.12500
C  18.32100 49.82900 27.29900
C  21.08000 48.51500 25.21700
C  20.07200 48.87600 28.42300
O  21.05400 48.19600 28.70900
C  19.08000 49.44500 29.47100
C  18.75000 48.40600 30.47600
O  18.51300 47.20800 30.23700
O  18.95900 48.87400 31.76100
C  18.89200 47.88500 32.90400
H  12.83900 52.48000 28.83600
H  14.24500 53.42200 22.53200
H  19.36800 49.95600 23.15800
H  16.55200 50.19000 31.08500
H  14.60600 52.26200 30.82000
H  13.39900 50.46700 31.48300
H  14.36900 49.17300 30.76200
H  13.18900 50.01300 29.74200
H  16.69600 53.01400 30.87700
H  18.30700 52.37500 30.55300
H  18.58000 52.23300 32.87600
H  17.45200 50.86600 32.81500
H  10.41700 53.82900 26.67200
H  11.40400 55.21200 27.21700
H  11.32400 53.84500 28.26100
H  10.30200 55.76100 23.37600
H  10.91300 55.91800 25.02500
H  9.85600 54.55100 24.62200
H  16.48900 53.10200 21.33400
H  17.77900 50.52400 21.10300
H  16.04100 50.91100 19.76800
H  14.72400 52.05000 20.19700
H  14.94600 50.54900 21.00600
H  19.32200 52.58700 22.73600
H  18.68300 53.22100 21.19600
H  19.92800 51.71300 19.89800
H  20.56000 50.83400 21.21900
H  20.93400 52.56800 21.10100
H  21.25700 47.49000 25.54500
H  21.94800 49.12100 25.47700
H  21.03600 48.64800 24.13700
H  19.65300 50.25600 29.92000
H  19.12100 48.44700 33.80900
H  19.57000 47.05600 32.70100
H  17.93300 47.41300 33.11800

