158

Mg 26.98600 49.62500 25.71200
C  25.22200 50.87300 28.61700
C  29.52900 48.45900 27.91100
C  28.90400 48.99200 23.06800
C  24.73700 51.30500 23.70300
N  27.42100 49.87400 27.97700
C  26.44100 50.20600 28.95700
C  26.93600 49.81300 30.38400
C  28.47800 49.39000 30.15600
C  28.53200 49.23300 28.55800
C  29.51900 50.57200 30.54900
C  25.94800 48.83000 31.06400
C  25.48300 49.11000 32.52100
H  26.46900 49.51500 33.54700
N  28.78100 48.56900 25.53000
C  29.66300 48.15100 26.54700
C  30.85300 47.56700 25.91700
C  30.73200 47.83100 24.49400
C  29.44700 48.49800 24.31500
C  31.88200 46.78900 26.65300
C  31.69700 47.46200 23.40700
O  31.53500 47.77200 22.22700
C  32.96100 46.80500 23.67600
N  26.89000 50.20000 23.63700
C  27.76300 49.76000 22.75800
C  27.34700 50.03600 21.30400
C  25.91800 50.75100 21.59200
C  25.82100 50.72900 23.09200
C  28.29500 50.95300 20.56100
C  24.71600 50.10400 20.86800
C  24.23300 48.66200 21.18100
N  25.30000 50.83600 26.07500
C  24.50700 51.41600 25.10300
C  23.48400 52.09600 25.75400
C  23.65900 51.86800 27.08800
C  24.85100 51.18500 27.26400
C  22.26800 52.84000 25.17300
C  23.13400 52.08200 28.50200
O  22.07600 52.65100 28.77900
C  24.14300 51.38700 29.46700
C  24.49700 52.32500 30.57900
O  25.38200 53.10200 30.62800
O  23.67200 52.12100 31.61800
C  23.87200 53.07500 32.74700
H  30.23300 48.11600 28.67100
H  29.55200 48.80500 22.20900
H  24.06500 51.81900 23.01300
H  26.97900 50.74500 30.94700
H  28.80900 48.51500 30.71400
H  29.97400 51.02700 29.66800
H  30.34400 50.12900 31.10600
H  29.02200 51.35800 31.11800
H  26.27900 47.79100 31.03800
H  25.08800 48.90700 30.39800
H  25.10600 48.15100 32.87600
H  24.66700 49.82700 32.43400
H  32.11200 45.80200 26.25200
H  31.44800 46.64000 27.64200
H  32.82600 47.32700 26.74600
H  33.44500 47.38000 24.46500
H  33.55500 46.63800 22.77700
H  32.77100 45.86000 24.18600
H  27.19100 49.01800 20.94700
H  25.96600 51.82400 21.40600
H  28.50200 50.53400 19.57600
H  29.18900 51.20400 21.13300
H  27.92700 51.95100 20.32300
H  24.92800 50.04200 19.80100
H  23.95100 50.88100 20.85100
H  24.78100 47.92600 20.59300
H  23.21000 48.43400 20.88000
H  24.34300 48.39700 22.23300
H  22.56400 53.76500 24.68000
H  21.48900 52.99600 25.92000
H  21.74600 52.27700 24.39900
H  23.68900 50.52700 29.95900
H  24.58400 52.59300 33.41800
H  22.91700 53.07000 33.27200
H  24.27500 54.03500 32.42500
Mg 6.72600 54.37700 41.45900
C  5.92900 50.90700 41.29600
C  9.71700 53.78900 40.08600
C  7.28000 57.66400 41.46500
C  3.28200 54.92200 42.52100
N  7.66100 52.51500 40.53700
C  7.22500 51.20900 40.79500
C  8.28700 50.23400 40.30300
C  9.56700 51.21100 40.32800
C  8.98200 52.62700 40.28100
C  10.43000 51.10000 41.57000
C  8.06700 49.58900 38.82900
C  7.21400 50.39200 37.82100
H  6.57700 49.67800 36.65500
N  8.30400 55.60400 40.77600
C  9.43000 55.18700 40.22000
C  10.33100 56.31300 40.09400
C  9.66500 57.45300 40.58700
C  8.38900 56.98000 41.00400
C  11.70200 56.33200 39.53500
C  10.20200 58.92600 40.52800
O  11.22300 59.31100 39.97500
C  9.31700 60.02800 41.07600
N  5.35800 56.06900 41.76900
C  5.90100 57.28500 41.76900
C  4.82500 58.39500 42.11800
C  3.52200 57.50300 42.34000
C  4.08400 56.05000 42.24800
C  5.30500 59.35700 43.25600
C  2.34700 57.85800 41.35200
C  0.91900 57.38800 41.74700
N  4.95800 53.21200 41.94500
C  3.70300 53.62000 42.37000
C  2.90100 52.43000 42.59500
C  3.70600 51.35700 42.33000
C  4.94700 51.83800 41.75500
C  1.44200 52.41000 43.11400
C  3.77400 49.88900 42.27300
O  2.93500 49.11600 42.65800
C  5.22700 49.58000 41.52300
C  5.04700 48.70000 40.39300
O  4.40900 48.94500 39.33800
O  5.80100 47.57300 40.70800
C  5.70400 46.54300 39.64900
H  10.76300 53.62800 39.81500
H  7.42400 58.73100 41.64300
H  2.26700 55.12700 42.86500
H  8.41100 49.41000 41.00500
H  10.13500 51.09500 39.40500
H  10.08500 50.20500 42.08700
H  10.39700 51.94000 42.26400
H  11.47600 50.94800 41.30200
H  7.60900 48.62300 39.04200
H  9.03900 49.47900 38.34900
H  7.97100 50.98900 37.31200
H  6.56700 51.10100 38.33600
H  11.97400 55.36400 39.11400
H  12.42700 56.64700 40.28600
H  11.71900 56.99200 38.66700
H  9.91300 60.94000 41.05900
H  9.03700 59.82600 42.11000
H  8.37400 60.17000 40.54900
H  4.68200 59.02700 41.24200
H  3.23800 57.59700 43.38800
H  4.84600 59.13400 44.21900
H  5.02800 60.35300 42.91100
H  6.36800 59.27400 43.48300
H  2.56400 57.32700 40.42500
H  2.38700 58.94200 41.24800
H  0.56300 56.81900 40.88800
H  0.26000 58.20700 42.03200
H  0.90800 56.75800 42.63600
H  0.94500 51.57900 42.61500
H  0.94000 53.33800 42.84100
H  1.43800 52.19200 44.18200
H  5.82500 49.08500 42.28900
H  6.08000 46.93300 38.70400
H  4.66600 46.22100 39.56100
H  6.37400 45.69800 39.80600

