158

Mg 24.20500 -5.19100 45.72000
C  26.05200 -2.63300 44.13000
C  21.57000 -4.29300 43.72100
C  22.74900 -8.07400 46.56600
C  27.18400 -6.20800 47.39900
N  23.94800 -3.71500 43.96600
C  24.79100 -2.74200 43.62800
C  24.19300 -1.95100 42.47000
C  22.62600 -2.16100 42.72800
C  22.70500 -3.45500 43.50900
C  22.01300 -0.90700 43.47900
C  24.72600 -2.30800 41.06300
C  24.98400 -1.06000 40.18300
H  24.96300 -1.48000 38.73400
N  22.39700 -6.09100 45.20100
C  21.40400 -5.53000 44.40000
C  20.25200 -6.41900 44.30900
C  20.58000 -7.53400 45.14000
C  21.95400 -7.27100 45.72000
C  19.04100 -6.16400 43.45800
C  19.51900 -8.64500 45.48200
O  18.37700 -8.61400 45.00500
C  19.89300 -9.65700 46.50300
N  24.87400 -6.86500 46.96200
C  23.99000 -7.98000 47.13700
C  24.68700 -9.08200 47.90300
C  26.08700 -8.46000 48.22200
C  26.07800 -7.11200 47.46800
C  23.84400 -9.59100 49.07100
C  27.38100 -9.34800 47.91300
C  28.25800 -9.67900 49.15800
N  26.21900 -4.57000 45.83600
C  27.29400 -5.02100 46.63000
C  28.31500 -4.14500 46.42700
C  27.87500 -3.17900 45.49500
C  26.58900 -3.51800 45.13000
C  29.55100 -4.13400 47.11100
C  28.28700 -2.01800 44.77400
O  29.31600 -1.44200 44.70200
C  27.14000 -1.61700 43.81100
C  26.85500 -0.21000 44.03400
O  26.21600 0.20600 44.97500
O  27.46500 0.58000 43.07300
C  27.36400 2.01200 43.21200
H  20.63100 -3.89400 43.33200
H  22.25000 -8.99000 46.88800
H  28.04200 -6.64500 47.91500
H  24.45700 -0.90300 42.61800
H  22.16800 -2.40600 41.77000
H  21.11300 -0.54400 42.98300
H  22.70700 -0.06700 43.51200
H  21.86100 -1.26000 44.49900
H  24.08300 -2.99300 40.50900
H  25.67900 -2.83600 41.06800
H  26.01200 -0.81400 40.44900
H  24.36400 -0.18000 40.35500
H  19.33900 -5.74000 42.49900
H  18.41000 -5.44300 43.97900
H  18.43300 -6.98800 43.08600
H  18.99900 -10.28000 46.54200
H  20.14500 -9.27100 47.49000
H  20.74400 -10.20000 46.09300
H  24.71400 -9.93300 47.22300
H  26.06100 -8.13000 49.26100
H  24.28100 -9.48100 50.06400
H  23.55800 -10.62900 48.90100
H  23.00900 -8.89300 49.12800
H  27.85600 -8.93200 47.02500
H  27.09800 -10.37300 47.67200
H  29.15000 -10.19900 48.80700
H  27.72000 -10.22200 49.93400
H  28.48600 -8.73300 49.64900
H  30.04200 -3.16400 47.19800
H  30.27100 -4.61900 46.45200
H  29.38100 -4.64000 48.06100
H  27.56000 -1.73100 42.81100
H  26.75400 2.37400 42.38500
H  28.35400 2.46600 43.25700
H  26.76700 2.25800 44.09000
Mg 49.21100 46.54800 42.40400
C  45.86000 47.43600 41.48000
C  48.74000 43.67600 40.74800
C  52.52100 46.19200 42.46600
C  49.61700 49.96200 43.39900
N  47.45800 45.62300 41.36600
C  46.27800 46.16900 41.04700
C  45.40800 45.18600 40.14000
C  46.30300 43.93100 40.08600
C  47.62000 44.43100 40.74200
C  45.76800 42.58400 40.63700
C  45.01900 45.76300 38.73400
C  43.47100 45.68700 38.47000
H  43.08000 45.70100 36.94400
N  50.46400 45.08300 41.78300
C  50.10800 43.93200 41.15000
C  51.19800 43.07700 40.93900
C  52.29500 43.71000 41.60200
C  51.82300 45.07000 41.93100
C  51.04000 41.70400 40.30000
C  53.65900 43.08300 41.73300
O  53.96500 42.00300 41.27900
C  54.65200 43.74900 42.69000
N  50.90000 47.91300 42.98700
C  52.13300 47.47300 42.89100
C  53.12600 48.58600 43.15800
C  52.19500 49.73000 43.62700
C  50.79800 49.19600 43.29300
C  54.31900 48.20000 44.08700
C  52.61200 51.21700 43.26100
C  52.38000 51.70600 41.81500
N  47.90300 48.28100 42.66200
C  48.26400 49.52300 43.02300
C  47.03800 50.36300 43.04300
C  46.07300 49.48300 42.45000
C  46.70000 48.31700 42.16000
C  46.88800 51.80400 43.37900
C  44.70800 49.47300 41.96300
O  43.76900 50.27600 42.01300
C  44.58400 48.09900 41.30000
C  43.56600 47.34100 42.09500
O  43.71500 46.81800 43.18700
O  42.48200 47.07200 41.33100
C  41.61700 45.93300 41.78100
H  48.64300 42.67400 40.32600
H  53.60500 46.08200 42.39400
H  49.69000 50.94200 43.87600
H  44.51600 45.02500 40.74500
H  46.60100 43.69800 39.06400
H  45.60800 41.85200 39.84600
H  44.83500 42.76500 41.17200
H  46.35800 42.19400 41.46600
H  45.37000 45.07100 37.96800
H  45.43100 46.76600 38.62600
H  42.97700 46.60800 38.77900
H  43.04100 44.78300 38.90100
H  51.40800 41.60300 39.27900
H  50.02400 41.33500 40.44200
H  51.69000 40.97700 40.78500
H  54.13400 43.82600 43.64500
H  55.13100 44.68800 42.41000
H  55.41000 42.98900 42.87900
H  53.55400 48.86300 42.19400
H  52.19200 49.70800 44.71700
H  54.05500 47.20300 44.43900
H  54.41500 48.90800 44.91000
H  55.22100 48.09700 43.48300
H  53.70000 51.24400 43.32700
H  52.29000 51.98900 43.96000
H  51.85100 51.00000 41.17500
H  53.27900 52.06900 41.31700
H  51.84600 52.65300 41.89100
H  45.86800 51.92700 43.74300
H  46.95700 52.30900 42.41500
H  47.59800 52.14000 44.13500
H  44.14900 48.18600 40.30400
H  41.14100 45.64500 40.84400
H  40.76000 46.31400 42.33700
H  42.02700 45.02200 42.21800

