158

Mg 35.24400 1.90300 29.27800
C  33.04800 2.98500 31.88900
C  37.78000 1.85300 31.72700
C  37.40500 0.96800 26.89400
C  32.68500 2.31100 27.07200
N  35.39600 2.27400 31.49100
C  34.31100 2.68800 32.33800
C  34.80200 2.70600 33.80800
C  36.35200 2.69700 33.69500
C  36.55600 2.22200 32.25200
C  37.00600 4.17000 33.85700
C  34.20600 1.66000 34.81200
C  33.81800 2.15300 36.24600
H  34.60800 3.29400 36.83400
N  37.32200 1.45000 29.38200
C  38.17200 1.55400 30.41300
C  39.47900 1.06900 29.98900
C  39.36900 0.70400 28.59900
C  38.00800 1.08800 28.20700
C  40.67900 1.15100 30.83600
C  40.44800 0.26000 27.66800
O  40.18400 -0.03500 26.50000
C  41.88300 0.00600 28.11900
N  35.16400 1.80700 27.20700
C  36.18100 1.34700 26.44700
C  35.72200 1.24000 24.97700
C  34.14200 1.36800 25.08500
C  33.97800 1.90600 26.54300
C  36.41600 2.27700 24.01500
C  33.34900 0.10100 24.91100
C  32.02000 0.23400 24.26700
N  33.31400 2.57000 29.41600
C  32.40800 2.67600 28.41500
C  31.17400 3.12100 28.93000
C  31.31100 3.21500 30.30300
C  32.62100 2.84600 30.54300
C  29.84300 3.20800 28.18000
C  30.62900 3.55300 31.60000
O  29.48800 3.78700 31.93900
C  31.80800 3.41400 32.68000
C  31.92200 4.68200 33.39000
O  32.68600 5.65200 33.17300
O  31.05000 4.63000 34.48300
C  31.33400 5.55100 35.59300
H  38.55400 1.94800 32.49000
H  38.03400 0.58800 26.08600
H  31.90100 2.33600 26.31300
H  34.56300 3.72000 34.13000
H  36.77700 2.08200 34.48800
H  36.29100 4.77900 34.41100
H  37.21900 4.71300 32.93600
H  37.89800 4.09500 34.47900
H  34.96000 0.88200 34.92800
H  33.30100 1.12100 34.53100
H  34.12200 1.32300 36.88300
H  32.77300 2.33300 36.50000
H  41.21800 0.20800 30.74500
H  40.45100 1.48900 31.84700
H  41.36200 1.92400 30.48300
H  42.21000 0.81000 28.77900
H  42.52700 -0.06900 27.24200
H  41.84600 -0.88400 28.74700
H  36.02900 0.22300 24.73300
H  33.90700 2.11400 24.32600
H  36.88500 1.89400 23.10900
H  37.27700 2.60100 24.59900
H  35.75200 3.11800 23.81700
H  33.25500 -0.34000 25.90400
H  33.88900 -0.55400 24.22800
H  31.95100 -0.34700 23.34700
H  31.80900 1.29600 24.14200
H  31.18500 -0.18300 24.83000
H  29.40400 2.21400 28.09000
H  30.01600 3.52000 27.15000
H  29.14400 3.88300 28.67300
H  31.56900 2.51700 33.25100
H  30.92700 5.16300 36.52700
H  30.67400 6.41600 35.52500
H  32.28900 6.06400 35.70500
Mg 17.26400 52.13900 26.86400
C  19.08600 50.57400 29.42500
C  14.90200 52.97900 29.13000
C  15.58200 53.49900 24.33200
C  19.50800 50.77300 24.55900
N  16.97200 51.79100 29.05900
C  17.99800 51.27700 29.91200
C  17.46900 51.24400 31.38800
C  15.93400 51.66200 31.18300
C  15.92100 52.17100 29.70300
C  14.98200 50.43600 31.40400
C  18.26600 52.24900 32.32300
C  17.63700 52.72300 33.67700
H  16.63400 51.88800 34.44300
N  15.51000 53.21200 26.73100
C  14.64800 53.44100 27.80100
C  13.55800 54.32900 27.34500
C  13.84900 54.60200 25.94600
C  14.97000 53.70400 25.57600
C  12.35000 54.77900 28.22100
C  13.10600 55.57000 24.94800
O  13.58200 55.93200 23.88400
C  11.96300 56.28400 25.41400
N  17.41300 51.93700 24.72100
C  16.59200 52.66700 23.91500
C  17.05400 52.67600 22.48500
C  18.47700 51.94800 22.61900
C  18.49200 51.55100 24.03300
C  16.06400 51.90900 21.52300
C  19.68500 52.90800 22.21200
C  20.92100 52.34000 21.43900
N  18.89300 50.82700 26.94600
C  19.72700 50.44300 25.93500
C  20.83500 49.71500 26.49500
C  20.67300 49.70800 27.91200
C  19.46200 50.41500 28.09700
C  21.84000 49.09600 25.77200
C  21.16400 49.34000 29.11900
O  22.20100 48.77100 29.47400
C  20.18100 49.94600 30.21700
C  19.74400 48.83200 31.06600
O  19.43600 47.71400 30.61800
O  19.84000 49.24900 32.38400
C  19.10800 48.31300 33.24700
H  14.08200 53.12300 29.83500
H  15.02600 54.09500 23.60500
H  20.26800 50.44000 23.84800
H  17.43100 50.22100 31.76200
H  15.57400 52.44500 31.85100
H  14.11900 50.83700 31.93500
H  15.31100 49.72800 32.16500
H  14.72700 49.86900 30.50800
H  18.39200 53.06100 31.60700
H  19.26000 51.83500 32.49300
H  17.29500 53.75100 33.56100
H  18.49200 52.91600 34.32300
H  11.48700 54.12300 28.10800
H  12.20300 55.83600 28.00000
H  12.63700 54.83300 29.27100
H  11.53500 56.58300 24.45700
H  12.26300 57.12800 26.03500
H  11.25700 55.65600 25.95700
H  17.14800 53.75500 22.36200
H  18.56700 50.94400 22.20500
H  16.59900 51.07600 21.06700
H  15.75400 52.58300 20.72500
H  15.17600 51.59900 22.07400
H  19.97700 53.24400 23.20700
H  19.42800 53.81100 21.65900
H  21.82200 52.42900 22.04500
H  21.17600 52.94000 20.56500
H  20.64100 51.31900 21.17900
H  21.45500 48.18900 25.30500
H  22.70100 49.11100 26.43900
H  22.11900 49.75700 24.95200
H  20.62900 50.71600 30.84600
H  18.92800 48.78700 34.21200
H  19.59400 47.35500 33.43500
H  18.10200 48.16400 32.85500

