158

Mg 47.30800 44.16800 42.37800
C  43.81000 43.77700 41.86800
C  47.58800 40.72800 42.07000
C  50.69000 44.45100 41.95600
C  46.85400 47.51100 42.36100
N  45.81700 42.39700 41.90300
C  44.47900 42.52700 41.86400
C  43.83600 41.12100 41.81800
C  45.01700 40.23200 42.38100
C  46.22400 41.13100 42.06200
C  44.93800 39.74500 43.84100
C  43.28200 40.74400 40.42900
C  43.95700 39.74300 39.46000
H  43.76500 39.90500 37.95300
N  48.89700 42.80700 41.94700
C  48.77100 41.43900 41.91500
C  50.10600 40.87800 41.82600
C  51.04300 41.93100 41.69800
C  50.19700 43.11700 41.80800
C  50.34800 39.45400 41.58900
C  52.54400 41.78200 41.51400
O  53.02600 40.66100 41.43500
C  53.46800 42.91800 41.67100
N  48.56400 45.72400 42.11200
C  49.92300 45.60800 42.06800
C  50.60700 47.04100 42.17900
C  49.31000 48.02800 42.25700
C  48.21500 47.05800 42.22500
C  51.66700 47.26000 43.36100
C  49.11600 48.96400 40.99100
C  49.05400 50.47800 41.27300
N  45.70100 45.45200 42.29300
C  45.65100 46.82100 42.30900
C  44.29500 47.26200 42.23700
C  43.52100 46.10000 42.12100
C  44.42800 45.02600 42.11500
C  43.73200 48.62600 42.25900
C  42.18600 45.53100 41.98400
O  41.08500 46.03700 42.00500
C  42.32900 44.00400 41.88800
C  41.65400 43.43100 43.16100
O  40.57800 42.88900 43.13000
O  42.31400 43.71500 44.33400
C  41.68100 43.62200 45.60300
H  47.74100 39.66000 42.23700
H  51.73800 44.73500 41.83700
H  46.71800 48.58200 42.53000
H  43.00700 41.09000 42.52600
H  45.07400 39.31500 41.79400
H  44.04200 40.12000 44.33700
H  45.74600 40.27100 44.35000
H  45.01200 38.65800 43.82500
H  43.22900 41.59300 39.74800
H  42.28500 40.47000 40.77400
H  43.67500 38.71900 39.70600
H  45.04500 39.73900 39.53400
H  50.90800 39.44400 40.65400
H  49.43100 38.88600 41.43000
H  50.97800 38.99800 42.35300
H  53.31400 43.67600 40.90200
H  54.42400 42.44300 41.45300
H  53.31500 43.28100 42.68700
H  51.16000 47.30000 41.27600
H  49.27300 48.59600 43.18600
H  51.45300 48.17400 43.91500
H  52.68100 47.38600 42.97900
H  51.71300 46.33400 43.93400
H  48.27500 48.77700 40.32400
H  49.98200 48.82200 40.34500
H  48.04200 50.85200 41.12200
H  49.60800 51.07900 40.55300
H  49.42800 50.67700 42.27800
H  42.98500 48.79700 41.48400
H  44.43600 49.36900 41.88400
H  43.27300 48.73500 43.24200
H  41.84300 43.51200 41.04500
H  41.68700 42.53800 45.71100
H  40.70000 44.09600 45.57200
H  42.36500 43.89100 46.40800
Mg 0.14300 43.11400 26.58600
C  2.56400 42.85000 29.20900
C  -2.12500 41.79700 28.74600
C  -1.91600 43.01000 23.98200
C  2.93200 43.66800 24.37800
N  0.20800 42.40800 28.78800
C  1.24400 42.44700 29.64800
C  0.68000 42.49400 31.03400
C  -0.78800 41.77700 30.92600
C  -0.90000 41.95100 29.39000
C  -0.79900 40.26400 31.23400
C  0.70100 43.95300 31.63200
C  1.20600 44.03100 33.11100
H  0.88700 42.81500 34.04300
N  -1.75400 42.62400 26.44700
C  -2.57400 42.05600 27.42000
C  -3.84900 41.83100 26.88900
C  -3.86800 42.32200 25.54900
C  -2.41000 42.67600 25.27200
C  -4.93600 41.32600 27.80100
C  -5.10900 42.37600 24.55900
O  -4.96400 42.89400 23.47100
C  -6.49300 41.84600 24.95200
N  0.52400 43.04500 24.40700
C  -0.57000 43.23500 23.64800
C  -0.14900 43.86400 22.33200
C  1.30100 44.25800 22.49800
C  1.60300 43.63700 23.86200
C  -0.47000 42.90100 21.13400
C  1.55600 45.78600 22.41800
C  1.80800 46.39400 21.03800
N  2.25900 43.13100 26.68800
C  3.22400 43.33800 25.73700
C  4.58200 43.30000 26.37500
C  4.32600 43.12000 27.72500
C  2.94600 43.08100 27.84100
C  5.93200 43.30300 25.69300
C  4.98000 43.03700 29.05200
O  6.17800 43.10500 29.25400
C  3.84300 42.97800 30.05800
C  4.00400 41.83300 31.03400
O  3.97700 40.61200 30.72100
O  4.34800 42.26800 32.27100
C  4.36900 41.27700 33.32400
H  -2.92300 41.46800 29.41400
H  -2.68300 43.20000 23.22900
H  3.71900 43.91800 23.66300
H  1.38600 41.94000 31.65300
H  -1.54600 42.32000 31.49100
H  -1.06400 39.64100 30.38000
H  -1.49600 39.84800 31.96100
H  0.17800 39.95700 31.60700
H  -0.34600 44.24400 31.72700
H  1.28700 44.68400 31.07600
H  0.64200 44.81500 33.61600
H  2.26600 44.28100 33.08600
H  -5.29800 40.45900 27.24900
H  -5.77500 42.02000 27.85700
H  -4.69300 41.00500 28.81400
H  -7.22100 42.05200 24.16800
H  -6.73600 42.43200 25.83800
H  -6.36300 40.77800 25.12700
H  -0.76000 44.75000 22.16000
H  1.88600 43.74000 21.73800
H  0.39200 42.59900 20.54000
H  -1.25100 43.38800 20.55000
H  -0.90400 41.96000 21.47400
H  2.40700 46.07300 23.03700
H  0.77300 46.31000 22.96700
H  0.90000 46.83800 20.62800
H  2.25500 45.71700 20.31100
H  2.56100 47.13000 21.32100
H  6.12700 44.29200 25.27900
H  5.90300 42.47400 24.98600
H  6.70900 43.05500 26.41600
H  3.89100 43.76600 30.80900
H  5.31500 40.73700 33.34500
H  3.46000 40.67600 33.29800
H  4.26200 41.81900 34.26400

