158

Mg 36.80400 49.82600 25.54000
C  36.98100 47.90200 28.44400
C  35.41500 52.46400 27.38200
C  36.20100 51.61000 22.67900
C  37.57000 47.03200 23.69200
N  36.27800 50.08000 27.63000
C  36.52100 49.22200 28.68400
C  36.22300 49.88000 30.03200
C  35.63000 51.30800 29.62200
C  35.78300 51.28200 28.07600
C  34.22000 51.71300 30.12200
C  37.43700 49.92900 31.03200
C  37.16000 49.67900 32.48600
H  35.81400 49.92600 33.20900
N  35.94300 51.74600 25.11600
C  35.46600 52.63400 26.01200
C  35.11100 53.89800 25.39400
C  35.41000 53.67100 23.99600
C  35.90500 52.30600 23.89400
C  34.61700 55.16300 26.05700
C  35.27300 54.76400 22.90700
O  35.63400 54.57000 21.79400
C  34.82500 56.12100 23.20000
N  36.68300 49.33900 23.49300
C  36.59600 50.24900 22.49100
C  37.02300 49.65100 21.15700
C  37.48100 48.21400 21.48700
C  37.15900 48.18700 22.94400
C  35.93200 49.87000 20.10000
C  39.00000 47.84500 21.15200
C  39.13000 47.23000 19.72100
N  37.20500 47.86700 25.90600
C  37.49200 46.82400 25.03900
C  37.86700 45.68400 25.80200
C  37.62000 46.02700 27.15200
C  37.20900 47.34600 27.12400
C  38.17100 44.28200 25.37500
C  37.65000 45.49400 28.58000
O  37.91600 44.37800 28.99600
C  37.29600 46.79700 29.44700
C  36.12300 46.44200 30.24300
O  34.97400 46.66900 29.88500
O  36.51100 45.80600 31.36500
C  35.47800 45.48600 32.33500
H  35.00800 53.23000 28.04600
H  36.21200 52.26100 21.80200
H  37.84600 46.11200 23.17200
H  35.39000 49.29800 30.42700
H  36.30700 52.12500 29.87100
H  34.09900 51.10200 31.01700
H  33.49200 51.37500 29.38400
H  34.09700 52.75600 30.41300
H  37.96200 50.88400 31.00500
H  38.17300 49.20700 30.67800
H  37.68200 50.40700 33.10800
H  37.59800 48.68600 32.59100
H  33.60100 55.32300 25.69800
H  35.10300 56.11100 25.82600
H  34.73000 55.19200 27.14000
H  34.01600 56.28500 23.91300
H  34.45100 56.63100 22.31200
H  35.75000 56.65400 23.41800
H  37.82300 50.24600 20.71500
H  36.78600 47.46900 21.09900
H  35.36700 48.94000 20.04900
H  36.39900 50.15500 19.15700
H  35.39400 50.71800 20.52500
H  39.43600 47.10100 21.81900
H  39.59400 48.73200 21.37100
H  39.47100 48.01400 19.04500
H  38.12400 46.91500 19.44600
H  39.83500 46.40200 19.65200
H  39.22400 44.03700 25.24100
H  37.58300 44.26500 24.45700
H  37.68400 43.51300 25.97400
H  38.08800 46.98900 30.17000
H  35.45300 44.40600 32.18800
H  34.49900 45.90600 32.10600
H  35.75800 45.88100 33.31100
Mg 16.71300 51.97600 26.08300
C  18.69200 50.85800 28.73700
C  14.30300 52.66300 28.28700
C  14.73500 52.84100 23.48200
C  19.21700 50.79300 23.94500
N  16.46700 51.51300 28.21900
C  17.49100 51.30600 29.10300
C  17.04300 51.53500 30.56200
C  15.50700 51.76800 30.34100
C  15.41800 52.03100 28.85300
C  14.50200 50.71900 30.91800
C  17.79700 52.76900 31.17500
C  18.44000 52.74400 32.53500
H  17.65300 52.00300 33.63800
N  14.79500 52.74800 25.91500
C  13.93100 53.06800 26.94800
C  12.83900 53.84000 26.44900
C  12.99100 53.91000 25.03300
C  14.17900 53.14000 24.74300
C  11.59900 54.25000 27.35200
C  12.21100 54.70800 24.00300
O  12.47200 54.81200 22.83100
C  10.92900 55.38300 24.48200
N  16.88000 51.74600 24.00100
C  15.95400 52.27700 23.12000
C  16.45000 52.03300 21.67600
C  18.01000 51.72100 21.89800
C  18.04200 51.35700 23.39300
C  15.59900 50.87400 20.94300
C  18.93500 52.95500 21.51000
C  20.07100 52.70900 20.41900
N  18.52700 50.85800 26.24300
C  19.40200 50.43800 25.30100
C  20.58800 49.83300 25.94100
C  20.42300 50.04400 27.30700
C  19.07900 50.62000 27.44800
C  21.80100 49.32300 25.29600
C  20.95000 49.87000 28.64000
O  21.98400 49.31400 28.96500
C  19.87500 50.41600 29.63400
C  19.54000 49.25300 30.42700
O  18.70800 48.39900 30.14700
O  20.20300 49.32100 31.66100
C  20.12500 48.09900 32.43800
H  13.57600 52.92300 29.05900
H  14.11000 53.09000 22.62200
H  19.97800 50.55000 23.20100
H  17.24200 50.61700 31.11500
H  15.14500 52.65400 30.86200
H  13.82600 50.24500 30.20600
H  13.81800 51.21000 31.61000
H  15.07700 49.90000 31.35100
H  17.17500 53.66300 31.22200
H  18.62000 52.94400 30.48200
H  18.51900 53.77400 32.88400
H  19.35500 52.15200 32.51900
H  11.63400 55.34000 27.37200
H  11.77400 53.92000 28.37600
H  10.71300 53.76900 26.93900
H  10.20300 54.59000 24.65700
H  10.68700 56.04700 23.65200
H  11.22900 55.93000 25.37600
H  16.28900 52.99100 21.18200
H  18.29000 50.80300 21.38300
H  14.82900 50.48300 21.60800
H  16.23400 50.06100 20.59000
H  15.18600 51.50400 20.15600
H  19.38900 53.49100 22.34300
H  18.19200 53.60100 21.04100
H  20.51000 53.64500 20.07500
H  19.57200 52.07600 19.68500
H  20.88000 52.13600 20.87100
H  21.45700 48.34600 24.95600
H  22.60300 49.11900 26.00500
H  22.18400 49.92300 24.47100
H  20.19100 51.23400 30.28100
H  19.31900 48.05300 33.16900
H  21.03800 48.00800 33.02700
H  20.07100 47.17500 31.86300

