158

Mg 37.03000 48.70100 25.72800
C  37.00700 46.72700 28.60500
C  36.12700 51.52600 27.57900
C  36.52800 50.42400 22.87500
C  37.69900 45.78200 23.88700
N  36.44200 49.05800 27.84100
C  36.69700 48.10600 28.81700
C  36.72600 48.79900 30.19800
C  36.18000 50.24600 29.83100
C  36.27700 50.26300 28.31200
C  34.72000 50.47800 30.27800
C  38.06600 48.83300 30.99900
C  38.05700 48.06100 32.34200
H  37.88300 48.95200 33.55300
N  36.59500 50.74700 25.35500
C  36.21600 51.70800 26.19500
C  36.03600 53.01200 25.50000
C  36.21600 52.76800 24.09300
C  36.37300 51.27100 24.07500
C  35.88200 54.32300 26.32800
C  36.14000 53.74700 22.98200
O  36.26100 53.43400 21.77000
C  35.89400 55.23400 23.22100
N  37.14000 48.22000 23.68400
C  36.90100 49.06900 22.67400
C  36.97400 48.37200 21.32000
C  37.65000 46.96400 21.64100
C  37.46300 46.93300 23.14100
C  35.58400 48.37100 20.65600
C  39.13200 47.10800 21.20400
C  39.62300 45.97900 20.30800
N  37.34700 46.70200 26.04600
C  37.64700 45.62600 25.23400
C  37.66700 44.39800 25.95900
C  37.61200 44.86500 27.30100
C  37.25100 46.20800 27.32100
C  37.85400 43.16100 25.20500
C  37.55000 44.36300 28.64800
O  37.67600 43.24900 29.09700
C  37.06800 45.54300 29.50700
C  35.73000 45.17700 30.14000
O  34.91300 44.41000 29.60000
O  35.58300 45.78300 31.36000
C  34.27100 45.52100 31.89500
H  35.90900 52.40000 28.19600
H  36.30500 50.90500 21.92000
H  37.81200 44.97300 23.16200
H  36.02000 48.29600 30.85900
H  36.80100 51.07400 30.17600
H  34.03600 49.66200 30.04700
H  34.20500 51.25600 29.71500
H  34.78400 50.69100 31.34500
H  38.40600 49.86800 31.05000
H  38.83800 48.34100 30.40800
H  38.95300 47.46200 32.50400
H  37.30600 47.27200 32.30000
H  36.47600 55.09100 25.83300
H  36.24200 54.20100 27.35000
H  34.82800 54.54100 26.50000
H  35.52200 55.63300 22.27800
H  36.84900 55.70000 23.46600
H  35.07700 55.37300 23.92800
H  37.67100 48.92500 20.69000
H  37.15500 46.12900 21.14300
H  34.85400 49.07300 21.05800
H  35.11800 47.39800 20.49700
H  35.56500 48.69800 19.61700
H  39.68100 46.99000 22.13800
H  39.41900 48.06800 20.77300
H  40.61800 45.60500 20.54600
H  39.65500 46.36700 19.28900
H  38.91300 45.15200 20.29800
H  37.35600 42.44600 25.85900
H  38.90500 42.91400 25.05300
H  37.30100 43.14600 24.26500
H  37.79700 45.66900 30.30700
H  34.35200 45.76000 32.95500
H  34.00500 44.46700 31.81200
H  33.51700 46.18000 31.46300
Mg -1.98400 35.82800 27.09600
C  -4.05000 34.03300 29.29600
C  -1.38700 38.09000 29.68200
C  0.05800 37.60300 25.18100
C  -3.33600 34.13100 24.39300
N  -2.63200 36.01900 29.24700
C  -3.36800 35.11100 29.91700
C  -3.37700 35.40000 31.43300
C  -2.70100 36.83000 31.45800
C  -2.20300 37.01600 30.05100
C  -3.63200 37.96800 32.01200
C  -2.81100 34.27400 32.32700
C  -2.10700 34.69400 33.69300
H  -2.43900 33.77800 34.94200
N  -0.82200 37.62000 27.43200
C  -0.63500 38.31400 28.56500
C  0.33500 39.39400 28.37300
C  0.75700 39.25200 27.01500
C  -0.01600 38.14400 26.45300
C  0.80100 40.37600 29.43700
C  1.72000 40.12100 26.20000
O  1.93800 39.91000 25.04900
C  2.68800 41.14000 26.86500
N  -1.80800 35.93800 24.97500
C  -0.76800 36.65300 24.45100
C  -0.63200 36.34600 22.97600
C  -1.49200 35.03600 22.78300
C  -2.30200 35.01800 24.10200
C  -1.03800 37.67600 22.11000
C  -0.70500 33.75200 22.71100
C  -1.39700 32.69300 21.73200
N  -3.45700 34.40300 26.86200
C  -3.91500 33.83700 25.70500
C  -4.91400 32.85400 26.04600
C  -4.98300 32.93700 27.41300
C  -4.07500 33.83200 27.84500
C  -5.53700 31.74800 25.24400
C  -5.58400 32.25900 28.66100
O  -6.27700 31.23200 28.82300
C  -5.05800 33.08800 29.89000
C  -6.22700 33.77200 30.43400
O  -7.03700 34.52500 29.84000
O  -6.40800 33.52600 31.77400
C  -7.51300 34.09300 32.62300
H  -1.29500 38.80600 30.50100
H  0.94100 37.90800 24.61600
H  -3.84000 33.66600 23.54200
H  -4.39700 35.57000 31.77700
H  -1.81200 36.80100 32.08800
H  -3.00100 38.85700 32.02200
H  -3.98500 37.79300 33.02800
H  -4.53000 38.02800 31.39700
H  -2.17500 33.63800 31.71200
H  -3.68300 33.65800 32.54500
H  -2.44800 35.71400 33.87100
H  -1.04400 34.62400 33.46400
H  1.69600 39.98000 29.91800
H  -0.04300 40.60200 30.08900
H  0.93600 41.32600 28.92000
H  3.50200 41.48900 26.22800
H  3.18000 40.78600 27.77100
H  2.18600 42.07400 27.11500
H  0.40600 36.11400 22.73700
H  -2.10900 35.20400 21.90000
H  -1.77000 37.52500 21.31600
H  -0.06700 38.02900 21.76300
H  -1.46600 38.45600 22.73900
H  -0.45700 33.35100 23.69400
H  0.29500 33.97000 22.33600
H  -0.80400 32.46000 20.84800
H  -2.25300 33.15600 21.24000
H  -1.59200 31.72500 22.19400
H  -4.75200 31.41500 24.56500
H  -6.35600 32.17600 24.66600
H  -5.82200 30.96100 25.94200
H  -4.57800 32.44800 30.63100
H  -8.47000 33.67900 32.30700
H  -7.55700 35.18200 32.63800
H  -7.34200 33.90400 33.68200

