158

Mg 2.39600 -2.19200 44.18500
C  5.91400 -1.55100 43.80000
C  1.71500 0.48300 42.17400
C  -0.66900 -3.45600 43.65600
C  3.33600 -5.32200 45.61000
N  3.74800 -0.83400 43.04900
C  5.11400 -0.65800 43.11400
C  5.48200 0.55500 42.33200
C  4.04700 1.40300 42.10900
C  3.08100 0.25500 42.44200
C  3.85600 2.62400 43.13100
C  6.18500 0.09000 40.99700
C  7.50600 0.83400 40.64600
H  7.46000 1.69100 39.33900
N  0.71500 -1.44100 43.13700
C  0.63700 -0.29300 42.42700
C  -0.67600 -0.13600 41.99600
C  -1.49700 -1.23500 42.41600
C  -0.51600 -2.12600 43.10700
C  -1.12900 1.02200 41.18500
C  -2.89900 -1.50900 42.03700
O  -3.52900 -0.71000 41.37000
C  -3.69300 -2.74800 42.48100
N  1.51500 -4.08700 44.41200
C  0.22700 -4.38700 44.19000
C  -0.22500 -5.82900 44.61800
C  1.13500 -6.43600 45.07300
C  2.03400 -5.21900 45.12600
C  -1.22000 -5.94600 45.84900
C  1.70200 -7.69200 44.23400
C  1.61400 -9.09400 45.01300
N  4.23400 -3.15400 44.86400
C  4.45200 -4.43300 45.44900
C  5.83100 -4.53000 45.86900
C  6.43900 -3.45100 45.27400
C  5.40600 -2.63300 44.62000
C  6.52800 -5.65600 46.64300
C  7.70700 -2.67500 45.07100
O  8.83300 -2.90000 45.51100
C  7.37300 -1.38900 44.11700
C  7.70800 -0.12600 44.86000
O  7.07900 0.16700 45.83100
O  8.69600 0.60500 44.33100
C  9.00700 1.88900 44.94600
H  1.71300 1.49800 41.76900
H  -1.65100 -3.93000 43.59100
H  3.62600 -6.28900 46.02600
H  6.21700 1.08400 42.93900
H  4.01500 1.69700 41.06000
H  2.88400 2.71000 43.61600
H  3.99500 3.56000 42.59000
H  4.55500 2.62200 43.96600
H  5.37100 0.19800 40.28000
H  6.29500 -0.99300 41.04600
H  8.31100 0.10000 40.61300
H  7.76000 1.60100 41.37800
H  -1.66500 0.76100 40.27200
H  -0.24900 1.58300 40.87200
H  -1.64000 1.72600 41.84100
H  -4.74200 -2.64600 42.20600
H  -3.58300 -2.80300 43.56500
H  -3.29100 -3.60200 41.93500
H  -0.58000 -6.42600 43.77800
H  1.11500 -6.85100 46.08000
H  -1.37700 -5.03100 46.42100
H  -0.90100 -6.76500 46.49400
H  -2.20100 -6.30300 45.53500
H  2.73900 -7.63500 43.90300
H  1.16300 -7.84700 43.30000
H  1.01000 -8.92600 45.90500
H  2.56900 -9.43300 45.41500
H  1.16000 -9.86000 44.38500
H  7.61200 -5.54400 46.68500
H  6.38300 -6.62000 46.15600
H  6.33400 -5.72700 47.71300
H  7.94400 -1.31800 43.19200
H  8.10300 2.42500 45.23600
H  9.58300 2.43500 44.19900
H  9.64200 1.72800 45.81700
Mg -11.90300 38.99800 41.87400
C  -9.88000 36.14500 41.22400
C  -9.45100 41.03500 40.61700
C  -14.17100 41.51500 42.02800
C  -14.49400 36.68600 42.69400
N  -9.93600 38.62400 40.91100
C  -9.30700 37.39700 40.80200
C  -7.97000 37.61300 40.10300
C  -7.73000 39.13900 40.07100
C  -9.12500 39.69100 40.55100
C  -6.50900 39.77000 40.73600
C  -7.71600 36.74100 38.78400
C  -6.50700 35.72600 38.74500
H  -5.53500 35.99100 37.67100
N  -11.77000 41.06200 41.47700
C  -10.64100 41.72500 40.90700
C  -10.93300 43.12700 40.92900
C  -12.32900 43.28000 41.15700
C  -12.85400 41.94500 41.58900
C  -9.97600 44.17000 40.38500
C  -13.04200 44.61700 41.10500
O  -12.44900 45.65200 40.85800
C  -14.56400 44.72300 41.39000
N  -14.04600 39.05700 42.18600
C  -14.65400 40.20900 42.34200
C  -16.08900 40.03000 42.90900
C  -16.22000 38.52000 43.03800
C  -14.82300 38.05400 42.61100
C  -16.30700 40.95200 44.13400
C  -17.42500 37.96400 42.14100
C  -18.72200 37.43600 42.90300
N  -12.21900 36.86300 41.90500
C  -13.30900 36.10900 42.31400
C  -12.95300 34.75400 42.31600
C  -11.61500 34.70900 41.93000
C  -11.19600 36.00000 41.68600
C  -13.84200 33.66300 42.81500
C  -10.47800 33.87000 41.66600
O  -10.30500 32.64800 41.74100
C  -9.28400 34.83200 41.20200
C  -8.19300 34.65100 42.20800
O  -8.29000 34.80800 43.41800
O  -7.12200 34.05100 41.61000
C  -5.97300 33.99500 42.44900
H  -8.70500 41.65300 40.11400
H  -14.90600 42.31100 42.16400
H  -15.28400 36.06700 43.12600
H  -7.26600 37.17300 40.80900
H  -7.69500 39.32400 38.99700
H  -5.69900 39.09200 41.00300
H  -6.75700 40.24200 41.68600
H  -6.09300 40.61400 40.18500
H  -7.72700 37.36000 37.88600
H  -8.56200 36.06100 38.68400
H  -6.90300 34.72700 38.56200
H  -6.03000 35.76700 39.72400
H  -8.94500 43.84700 40.52900
H  -10.12900 45.15800 40.81800
H  -10.18800 44.22600 39.31700
H  -14.96000 43.87000 40.83800
H  -14.81000 45.66400 40.89900
H  -14.85500 44.82400 42.43600
H  -16.83200 40.31500 42.16400
H  -16.39700 38.37300 44.10300
H  -15.39700 41.43500 44.48800
H  -16.70400 40.33400 44.94000
H  -16.99300 41.79700 44.07600
H  -17.07500 37.10500 41.56900
H  -17.76100 38.60800 41.32800
H  -19.56500 37.94900 42.43800
H  -18.71600 37.65200 43.97100
H  -18.94800 36.38500 42.72600
H  -14.46300 33.97800 43.65400
H  -13.21700 32.78900 43.00200
H  -14.55000 33.45800 42.01300
H  -8.90200 34.46800 40.24800
H  -5.23000 34.63100 41.96700
H  -5.60000 32.97200 42.50600
H  -6.00200 34.24100 43.51000

