158

Mg 25.06400 -8.05600 47.35300
C  27.43000 -5.80600 46.06100
C  22.90600 -7.11200 44.90000
C  23.36900 -10.83600 48.01100
C  27.92400 -9.56700 49.18500
N  25.29700 -6.80300 45.34200
C  26.23600 -5.75900 45.26100
C  25.84200 -4.75400 44.16200
C  24.34300 -5.13600 43.97600
C  24.15900 -6.43700 44.75900
C  23.32400 -4.01100 44.36300
C  26.63900 -4.87900 42.82700
C  27.73200 -3.78300 42.64900
H  27.83400 -3.21200 41.23400
N  23.25100 -8.77200 46.79600
C  22.52100 -8.19500 45.79400
C  21.27900 -8.85500 45.77600
C  21.37000 -9.90700 46.76000
C  22.73600 -9.86700 47.27200
C  20.09500 -8.37400 44.88400
C  20.37400 -10.89100 47.16300
O  19.33100 -10.93300 46.53300
C  20.37500 -11.75200 48.46300
N  25.59000 -9.93000 48.47500
C  24.64200 -10.88500 48.58400
C  25.20500 -12.22000 49.24500
C  26.48900 -11.63700 49.86400
C  26.69000 -10.26100 49.19000
C  24.30600 -12.92900 50.25600
C  27.70100 -12.54900 49.82600
C  28.53900 -12.68700 51.19000
N  27.16600 -7.80600 47.69600
C  28.18100 -8.37400 48.50600
C  29.44300 -7.58900 48.38500
C  29.12400 -6.61100 47.44800
C  27.77700 -6.77000 47.07500
C  30.71400 -7.80600 49.29100
C  29.77600 -5.48000 46.85400
O  30.85600 -4.99400 47.10300
C  28.65000 -4.81000 46.02200
C  28.30800 -3.43200 46.61800
O  27.54300 -3.27900 47.58500
O  28.95800 -2.43000 45.90800
C  28.44700 -1.04100 46.04700
H  22.25800 -6.71900 44.11300
H  22.80400 -11.75400 48.18400
H  28.78000 -10.02700 49.68300
H  25.98900 -3.77800 44.62500
H  24.19200 -5.36900 42.92200
H  22.41600 -4.03200 43.76000
H  23.93200 -3.10800 44.29500
H  23.01900 -4.10000 45.40500
H  25.99100 -4.92600 41.95200
H  27.07200 -5.87100 42.95100
H  28.69600 -4.23600 42.87900
H  27.58800 -2.91900 43.29800
H  20.13200 -7.30400 44.67800
H  19.17100 -8.57800 45.42500
H  20.04200 -8.96600 43.97100
H  20.88900 -12.68800 48.24400
H  19.32200 -11.81400 48.74000
H  20.99100 -11.20600 49.17800
H  25.52100 -12.86600 48.42600
H  26.20500 -11.37600 50.88400
H  24.46800 -12.58500 51.27800
H  24.33700 -14.01700 50.18800
H  23.27100 -12.66600 50.03700
H  28.35300 -12.31100 48.98500
H  27.32900 -13.54200 49.57300
H  29.46600 -12.12000 51.10000
H  28.70300 -13.74600 51.39000
H  27.90000 -12.27000 51.96800
H  30.48400 -8.34600 50.20900
H  31.13500 -6.84800 49.59500
H  31.49700 -8.26700 48.68800
H  28.91500 -4.50000 45.01100
H  28.79200 -0.50900 46.93300
H  27.35800 -1.01900 46.09300
H  28.79500 -0.52100 45.15400
Mg 44.05000 3.43800 47.44400
C  41.70300 6.12400 47.16700
C  41.50900 1.18100 47.19000
C  46.34900 0.96500 47.13300
C  46.54300 5.84300 46.88600
N  41.85800 3.64500 47.03100
C  41.10800 4.80600 47.08100
C  39.65300 4.48500 46.71800
C  39.56800 2.98500 47.14400
C  41.07700 2.53000 47.06700
C  39.01200 2.64900 48.60600
C  39.39600 4.75900 45.18200
C  38.44500 5.81300 44.79800
H  38.90100 6.64000 43.58300
N  44.00700 1.36700 47.32300
C  42.84800 0.68700 47.18400
C  43.15900 -0.74000 47.14100
C  44.59100 -0.92700 47.08300
C  45.05300 0.49500 47.10100
C  42.05200 -1.75900 47.20100
C  45.35200 -2.23100 46.93400
O  44.87200 -3.34600 47.05400
C  46.78300 -2.17700 46.65000
N  46.16000 3.39500 46.89800
C  46.88400 2.26500 47.06400
C  48.41200 2.51700 46.97200
C  48.50400 4.08300 46.84700
C  46.96700 4.48300 46.78800
C  49.16500 1.90600 48.15300
C  49.32900 4.51600 45.57900
C  50.78100 4.80800 45.85700
N  44.14300 5.60700 47.16900
C  45.19500 6.47000 46.94800
C  44.81300 7.82300 46.92900
C  43.39600 7.71900 47.11000
C  43.05900 6.40900 47.20600
C  45.76600 9.00000 46.86900
C  42.12200 8.54000 47.14100
O  41.96300 9.76700 47.01400
C  40.94100 7.40900 47.07400
C  40.06000 7.71100 48.21400
O  40.02700 7.18800 49.31300
O  39.26200 8.72200 47.76400
C  38.63600 9.57100 48.79900
H  40.68900 0.46500 47.28500
H  47.12700 0.19900 47.14100
H  47.24200 6.68100 46.84800
H  38.96900 5.01900 47.37800
H  39.07800 2.38500 46.37700
H  38.66400 3.58300 49.04800
H  39.78100 2.15100 49.19700
H  38.14000 2.02500 48.41000
H  39.17100 3.86500 44.60100
H  40.39300 5.05900 44.85900
H  38.35700 6.48900 45.64900
H  37.45300 5.40200 44.61200
H  42.53100 -2.69200 46.90200
H  41.30100 -1.35200 46.52400
H  41.77700 -1.81100 48.25500
H  47.11600 -1.71400 45.72100
H  47.19500 -3.18500 46.66900
H  47.28100 -1.75600 47.52300
H  48.88100 2.09700 46.08300
H  48.95400 4.57800 47.70700
H  49.51700 2.79600 48.67400
H  50.07300 1.38000 47.85900
H  48.54800 1.23300 48.74900
H  48.96700 5.45300 45.15600
H  49.29800 3.81100 44.74800
H  50.80500 5.89300 45.95000
H  51.34300 4.49100 44.97800
H  51.12400 4.32800 46.77300
H  46.29100 9.10000 45.91900
H  46.56600 8.96100 47.60700
H  45.18800 9.88200 47.14600
H  40.37200 7.62100 46.16900
H  38.96800 10.60900 48.78500
H  38.83200 9.13900 49.78000
H  37.56000 9.62000 48.63000

