158

Mg 16.37200 -2.45900 27.99800
C  15.35600 -0.45000 30.66700
C  18.53200 -4.17700 30.22400
C  17.94900 -3.99300 25.39900
C  14.68200 -0.37100 25.82600
N  16.90400 -2.33500 30.15900
C  16.30100 -1.42000 31.00800
C  16.81300 -1.69700 32.42300
C  18.00400 -2.79900 32.28700
C  17.80700 -3.17600 30.80800
C  19.36500 -2.13900 32.58600
C  15.68000 -2.07700 33.38400
C  15.57300 -1.34900 34.74400
H  16.88500 -0.67200 35.18800
N  18.07800 -3.85100 27.87200
C  18.71200 -4.51100 28.88100
C  19.50000 -5.58900 28.39200
C  19.40300 -5.48100 26.93300
C  18.43100 -4.37400 26.64200
C  20.11100 -6.65500 29.28900
C  20.13600 -6.26600 25.90600
O  20.01900 -6.10700 24.69900
C  21.16900 -7.37800 26.35300
N  16.30100 -2.30100 25.98100
C  16.98600 -3.00600 25.02900
C  16.68100 -2.62100 23.62900
C  15.53800 -1.52700 23.80500
C  15.48800 -1.39400 25.31100
C  17.81100 -2.26000 22.67100
C  14.19400 -1.99700 23.13600
C  13.13000 -0.93800 22.97100
N  15.09400 -0.83500 28.16000
C  14.41900 -0.10800 27.20300
C  13.55300 0.92200 27.86000
C  13.87300 0.81300 29.20100
C  14.83100 -0.19400 29.34100
C  12.77900 1.97200 27.09200
C  13.59400 1.37000 30.54300
O  12.87900 2.32200 30.88400
C  14.50500 0.51100 31.52300
C  15.39500 1.53200 32.17800
O  16.29200 2.17800 31.59400
O  14.81100 1.80000 33.34600
C  15.01800 3.16300 33.75400
H  19.15500 -4.62000 31.00400
H  18.30700 -4.61800 24.57900
H  14.19100 0.38100 25.20600
H  17.31700 -0.77000 32.69700
H  17.90000 -3.66100 32.94600
H  19.90400 -1.91400 31.66500
H  20.00300 -2.92700 32.98500
H  19.25000 -1.30500 33.27800
H  15.79100 -3.15600 33.49100
H  14.68600 -1.87800 32.98300
H  15.18200 -2.04700 35.48400
H  14.80200 -0.57800 34.76700
H  21.17700 -6.48400 29.13900
H  19.73100 -7.62000 28.95400
H  19.88400 -6.43300 30.33200
H  20.71200 -7.99900 27.12300
H  22.09700 -6.94200 26.72500
H  21.47100 -8.01200 25.52000
H  16.17000 -3.46500 23.16600
H  15.95100 -0.55700 23.53000
H  18.65700 -1.94000 23.27900
H  17.56200 -1.40300 22.04600
H  18.13000 -3.08800 22.03800
H  13.84700 -2.73600 23.85900
H  14.28500 -2.47800 22.16200
H  13.70500 -0.03200 22.78100
H  12.44500 -0.88700 23.81700
H  12.51600 -1.34300 22.16700
H  13.18500 2.18600 26.10300
H  12.68000 2.88400 27.68200
H  11.74800 1.64900 26.94800
H  13.98500 0.04600 32.36100
H  14.42600 3.87000 33.17200
H  16.04500 3.52900 33.73700
H  14.64300 3.11300 34.77600
Mg 49.39900 34.85200 27.18500
C  47.06600 33.62700 29.57600
C  50.47200 37.22900 29.49000
C  51.07300 36.23800 24.75900
C  48.20100 32.41900 24.95300
N  48.73400 35.38300 29.24400
C  47.90900 34.68000 30.06500
C  48.00300 35.24500 31.53200
C  48.81100 36.56100 31.43200
C  49.40100 36.35100 29.96800
C  47.97800 37.80500 31.69400
C  48.85300 34.27200 32.46700
C  48.44100 34.18800 33.96400
H  47.77100 35.40800 34.63300
N  50.61300 36.57500 27.10900
C  51.02800 37.31600 28.18300
C  51.92100 38.32700 27.70600
C  52.21300 38.03200 26.31100
C  51.29000 36.90400 25.99000
C  52.42800 39.45000 28.62400
C  53.09600 38.63300 25.29700
O  53.29100 38.24200 24.14700
C  53.93600 39.80300 25.59900
N  49.47000 34.50200 25.02800
C  50.35100 35.11200 24.32700
C  50.45300 34.49600 22.89800
C  49.78500 33.13600 23.06400
C  49.10500 33.29500 24.41600
C  49.88900 35.40500 21.81400
C  50.63900 31.89600 22.99200
C  51.40700 31.64600 21.68500
N  47.90900 33.32200 27.20200
C  47.54800 32.49000 26.16400
C  46.55600 31.53200 26.69400
C  46.30100 31.92400 28.01800
C  47.14300 33.08000 28.27100
C  45.83800 30.36600 25.97400
C  45.50000 31.72800 29.22600
O  44.65200 30.84100 29.41500
C  45.86700 32.90000 30.21000
C  45.94300 32.41200 31.59800
O  46.87400 31.72000 32.03200
O  44.88000 32.67400 32.42000
C  44.99100 32.36800 33.87200
H  50.87000 37.88200 30.27000
H  51.64700 36.63100 23.91600
H  47.98000 31.50700 24.39500
H  46.98500 35.44400 31.86600
H  49.65300 36.52100 32.12400
H  48.10700 38.31500 30.73900
H  48.36800 38.36100 32.54700
H  46.97700 37.43600 31.92100
H  49.92100 34.49200 32.43800
H  48.76000 33.26900 32.05200
H  49.34500 34.08300 34.56400
H  47.90900 33.26200 34.18000
H  51.75200 40.30200 28.56400
H  53.43600 39.76200 28.34900
H  52.52300 39.14000 29.66500
H  54.86200 39.48700 26.08000
H  53.22600 40.39000 26.18000
H  54.20300 40.27400 24.65300
H  51.46900 34.24000 22.60100
H  48.99100 32.89500 22.35600
H  50.64800 35.87500 21.19000
H  49.48500 36.26200 22.35300
H  49.09000 34.99900 21.19400
H  50.11100 31.00200 23.32600
H  51.34400 32.08500 23.80100
H  51.01500 32.33500 20.93700
H  51.25900 30.62000 21.34800
H  52.44500 31.90100 21.89900
H  46.39700 29.43600 25.86900
H  45.54800 30.76100 25.00000
H  44.99700 30.16000 26.63600
H  45.06000 33.63200 30.26300
H  44.08600 31.79500 34.07500
H  44.87400 33.29800 34.42800
H  45.81800 31.81100 34.31300

