158

Mg 0.79200 7.25400 26.90600
C  1.45400 9.14200 29.68600
C  1.19100 4.38300 28.69500
C  0.99100 5.57600 24.01300
C  1.23700 10.33500 25.06800
N  1.34500 6.87700 28.90400
C  1.29300 7.75900 29.93100
C  1.21700 7.07500 31.25400
C  1.46200 5.58800 30.93700
C  1.34500 5.60000 29.41400
C  2.80200 4.89800 31.43500
C  -0.09200 7.38400 32.03800
C  0.05300 7.70800 33.50400
H  1.26600 7.10300 34.24400
N  0.88400 5.21000 26.41800
C  1.01800 4.13500 27.30000
C  0.96800 2.87300 26.54700
C  1.00700 3.23000 25.10400
C  0.96200 4.71100 25.12600
C  0.91000 1.57900 27.35400
C  1.04900 2.36600 23.98600
O  0.91700 2.78500 22.81400
C  1.18100 0.88300 24.15100
N  0.98800 7.88500 24.79800
C  0.98100 6.97200 23.79300
C  0.89300 7.60800 22.38300
C  0.93800 9.14100 22.78800
C  0.99900 9.12200 24.33600
C  1.97300 7.22900 21.38300
C  -0.30000 10.01800 22.33500
C  -0.04900 11.12000 21.32200
N  1.09700 9.30700 27.24100
C  1.31900 10.39500 26.39200
C  1.55600 11.62000 27.22400
C  1.66500 11.15300 28.50700
C  1.40300 9.74200 28.44000
C  1.59900 13.00500 26.75200
C  1.93100 11.49900 29.90600
O  2.28300 12.59300 30.36200
C  1.62400 10.27700 30.74500
C  2.66900 10.19300 31.73000
O  3.71400 9.68100 31.63000
O  2.29200 11.06300 32.69000
C  3.33700 11.35100 33.75300
H  1.33400 3.53700 29.37000
H  1.11600 5.09100 23.04200
H  1.45200 11.21600 24.46000
H  2.10100 7.42300 31.78800
H  0.69000 4.92400 31.32600
H  3.38300 5.58100 32.05500
H  3.45800 4.66400 30.59600
H  2.54000 4.02000 32.02500
H  -0.82300 6.58500 31.91700
H  -0.63700 8.15600 31.49600
H  -0.79700 7.31800 34.06200
H  0.06500 8.78600 33.66600
H  1.10700 1.76400 28.41000
H  1.84000 1.06900 27.10600
H  0.00100 0.99500 27.20900
H  0.32300 0.48700 24.69300
H  2.16900 0.63000 24.53500
H  1.14100 0.47600 23.14000
H  -0.08000 7.33200 21.97700
H  1.87100 9.59600 22.45600
H  2.80000 6.98500 22.05000
H  2.05800 8.14200 20.79400
H  1.58100 6.39300 20.80400
H  -0.85300 10.28200 23.23600
H  -1.01800 9.31700 21.91000
H  -0.51400 10.84900 20.37400
H  1.03000 11.14400 21.16600
H  -0.49800 12.06100 21.63900
H  1.70100 12.97600 25.66700
H  2.41500 13.55100 27.22700
H  0.63800 13.47100 26.97200
H  0.68500 10.56600 31.21700
H  2.90500 11.80700 34.64400
H  3.96100 12.10200 33.27000
H  3.80500 10.41500 34.06000
Mg 42.79000 41.61500 26.02300
C  42.10600 43.77700 28.67500
C  44.36000 39.62800 28.33700
C  43.81000 39.68100 23.51100
C  41.53100 43.95700 23.86700
N  43.02400 41.65800 28.25700
C  42.57600 42.52600 29.12700
C  42.89300 42.22400 30.57900
C  44.03100 41.14200 30.42400
C  43.83300 40.75300 28.90200
C  45.40500 41.55400 30.86000
C  41.58700 41.66600 31.23200
C  41.06800 42.46800 32.42700
H  41.78400 42.40300 33.66300
N  43.80000 39.82600 25.90600
C  44.33200 39.15500 26.95500
C  44.91000 37.95200 26.47700
C  44.82400 37.94800 25.05900
C  44.18100 39.20400 24.77300
C  45.48400 36.93700 27.39700
C  45.25400 36.98800 24.02600
O  45.31500 37.27200 22.80700
C  45.46200 35.55600 24.36900
N  42.71400 41.79500 24.02400
C  43.12200 40.85800 23.16300
C  42.81300 41.31900 21.75800
C  41.92100 42.61300 21.86700
C  42.02400 42.78900 23.34900
C  44.01600 41.45100 20.79400
C  40.41700 42.45200 21.32500
C  39.43600 41.53000 22.14000
N  42.01700 43.47200 26.17900
C  41.59900 44.34900 25.18900
C  41.33600 45.62100 25.77000
C  41.40300 45.38200 27.15800
C  41.83000 44.09800 27.34300
C  41.08800 46.96400 25.11000
C  41.18300 45.98200 28.43300
O  40.71500 47.07900 28.67500
C  41.56000 44.97100 29.51900
C  42.46000 45.63800 30.50800
O  43.62700 45.95700 30.31200
O  41.60300 46.03200 31.48700
C  42.24800 46.89100 32.49300
H  44.81200 39.06700 29.15800
H  43.87400 39.07000 22.60800
H  41.08200 44.58600 23.09500
H  43.13000 43.04900 31.25000
H  43.77800 40.23600 30.97500
H  45.44000 42.60400 31.15100
H  45.88600 41.61300 29.88400
H  45.81200 40.76200 31.48700
H  41.73200 40.59400 31.36100
H  40.88300 41.82100 30.41500
H  40.13100 42.03300 32.77700
H  40.97600 43.50600 32.10900
H  45.46400 37.08900 28.47600
H  46.50400 36.67600 27.11600
H  44.83900 36.05800 27.38900
H  45.17300 34.86000 23.58100
H  44.82400 35.39100 25.23700
H  46.47000 35.36300 24.73700
H  42.12100 40.61400 21.29700
H  42.38600 43.47100 21.38300
H  44.95000 41.12600 21.25100
H  44.19200 42.50500 20.58100
H  43.88600 41.06600 19.78300
H  40.35800 42.04400 20.31600
H  40.04600 43.47600 21.37300
H  39.79200 41.07700 23.06600
H  39.19800 40.64600 21.54900
H  38.49900 42.07900 22.22900
H  42.04500 47.18000 24.63400
H  40.96600 47.73900 25.86600
H  40.18200 46.83800 24.51800
H  40.68300 44.53700 29.99900
H  41.54700 47.65600 32.82700
H  43.24700 47.22700 32.21500
H  42.53500 46.25400 33.33000

