158

Mg 1.45800 -1.80300 42.93200
C  4.98200 -1.08000 42.57900
C  0.85700 0.94600 40.87100
C  -1.68400 -2.84800 42.62200
C  2.40000 -4.94300 44.10000
N  2.76800 -0.24100 41.91600
C  4.17500 -0.20700 41.84500
C  4.60600 0.88900 40.86100
C  3.30300 1.64300 40.44800
C  2.25000 0.76000 41.19800
C  3.16100 3.21500 40.72000
C  5.29700 0.24000 39.71600
C  6.39500 1.10300 38.94300
H  6.16100 1.35600 37.44400
N  -0.24400 -0.90900 42.14700
C  -0.28300 0.22300 41.33200
C  -1.62600 0.49200 40.94300
C  -2.40900 -0.59800 41.45700
C  -1.44800 -1.52600 42.13900
C  -2.01600 1.75800 40.30900
C  -3.92600 -0.82800 41.14300
O  -4.58500 -0.06000 40.45800
C  -4.54300 -2.00800 41.79100
N  0.48500 -3.63700 43.20400
C  -0.82800 -3.75900 43.18900
C  -1.23800 -5.22400 43.44300
C  0.05800 -5.82200 44.07100
C  1.06700 -4.74200 43.75700
C  -2.55000 -5.37600 44.25600
C  0.40200 -7.36200 43.75400
C  1.52600 -7.60200 42.79900
N  3.21400 -2.76100 43.36600
C  3.41100 -4.04200 43.88600
C  4.76300 -4.21900 44.22500
C  5.47200 -3.07000 43.75100
C  4.47000 -2.20500 43.22500
C  5.40400 -5.40500 44.94700
C  6.77700 -2.50000 43.53900
O  7.88000 -2.92800 43.73300
C  6.43400 -1.13500 42.76700
C  6.89100 -0.07700 43.73800
O  6.44200 0.16000 44.86200
O  7.97900 0.59400 43.29200
C  8.52300 1.75100 44.09000
H  0.64100 1.81800 40.25100
H  -2.60500 -3.41400 42.46700
H  2.42300 -5.84900 44.70900
H  5.22500 1.64000 41.35200
H  3.06800 1.59900 39.38400
H  2.27400 3.46000 41.30300
H  3.23900 3.76300 39.78100
H  4.06500 3.47800 41.27000
H  4.60500 -0.19600 38.99600
H  5.95000 -0.57000 40.04200
H  7.39900 0.69300 39.05000
H  6.38100 2.06700 39.45200
H  -1.33700 2.57600 40.55100
H  -3.02300 2.00100 40.64700
H  -2.16000 1.59100 39.24100
H  -4.21000 -2.90800 41.27400
H  -5.62100 -1.92200 41.92400
H  -4.24000 -2.12600 42.83200
H  -1.51000 -5.64200 42.47400
H  -0.05700 -5.76100 45.15300
H  -3.44300 -5.12500 43.68300
H  -2.63700 -4.73500 45.13300
H  -2.61500 -6.39500 44.63900
H  -0.47800 -7.90800 43.41500
H  0.69500 -7.82500 44.69600
H  1.15700 -8.35900 42.10800
H  2.38300 -8.06500 43.28800
H  1.80300 -6.74700 42.18200
H  4.79500 -5.98900 45.63700
H  6.26800 -5.01900 45.48800
H  5.79000 -6.14600 44.24600
H  6.99600 -1.16700 41.83300
H  9.51600 1.60000 44.51500
H  7.95100 2.05500 44.96600
H  8.53700 2.57500 43.37700
Mg 9.82600 47.69400 26.09200
C  8.15800 47.53800 29.22400
C  12.61700 48.71000 27.80200
C  11.32000 47.76700 23.14600
C  6.76900 46.82500 24.53600
N  10.34500 48.00600 28.32100
C  9.49900 47.84400 29.35100
C  10.12800 48.32000 30.68300
C  11.53500 48.86000 30.21800
C  11.50900 48.60500 28.68600
C  11.71600 50.38300 30.59700
C  10.25900 47.18800 31.78200
C  9.87900 47.58000 33.23300
H  10.00600 46.43300 34.26300
N  11.70600 48.27500 25.51000
C  12.68700 48.54100 26.34600
C  13.94600 48.52700 25.62000
C  13.58900 48.34300 24.25500
C  12.16300 48.17000 24.25300
C  15.35700 48.60200 26.25300
C  14.42800 48.07800 22.99900
O  13.95000 48.06800 21.85700
C  15.90000 48.15100 23.10200
N  9.09000 47.57400 24.10000
C  9.95900 47.50100 23.05200
C  9.23100 47.00000 21.76700
C  7.87400 46.52000 22.25900
C  7.88200 46.97400 23.69800
C  9.27600 48.01200 20.53800
C  7.55600 45.01000 22.11600
C  8.61900 44.14800 22.77900
N  7.93700 47.26000 26.72000
C  6.75100 46.94000 25.97300
C  5.62200 46.71500 26.81800
C  6.11000 46.94000 28.10100
C  7.55500 47.19800 28.00200
C  4.26800 46.33500 26.43700
C  5.74000 47.04800 29.47500
O  4.67300 47.04800 30.03200
C  7.08000 47.28600 30.31600
C  7.30700 45.92400 31.01800
O  7.95100 44.97100 30.59000
O  6.51600 45.87300 32.14400
C  6.65900 44.70400 33.03100
H  13.52600 48.98900 28.33900
H  11.72900 47.62400 22.14400
H  5.83300 46.37300 24.20200
H  9.45800 49.06100 31.11900
H  12.33000 48.20600 30.57500
H  12.66200 50.45200 31.13300
H  10.92300 50.76000 31.24400
H  11.81000 51.04200 29.73400
H  11.26200 46.79900 31.95600
H  9.76800 46.25100 31.51900
H  8.82600 47.85200 33.16200
H  10.55700 48.37800 33.53500
H  15.35000 48.86100 27.31200
H  15.96800 49.39400 25.82000
H  15.99100 47.71600 26.22900
H  16.19600 47.41800 23.85300
H  16.25200 49.10400 23.49800
H  16.41900 47.84000 22.19600
H  9.81300 46.16900 21.36600
H  6.97800 46.88800 21.75900
H  9.68700 48.95300 20.90500
H  8.23400 48.32300 20.45700
H  9.59900 47.58100 19.59100
H  7.47700 44.80400 21.04800
H  6.57400 44.85000 22.56100
H  8.22100 43.66100 23.67000
H  9.43800 44.75300 23.16900
H  9.08100 43.47800 22.05400
H  3.74300 47.28400 26.33600
H  3.97700 45.76600 27.32000
H  4.09700 45.75600 25.53000
H  6.97800 48.11900 31.01200
H  5.94300 43.90600 32.83500
H  6.28500 45.03100 34.00100
H  7.70400 44.39900 33.08000

