158

Mg -0.90000 17.81500 27.49300
C  -1.65300 15.23400 30.02200
C  -1.55200 20.05300 30.05100
C  -0.94400 20.08400 25.17200
C  -0.84000 15.20300 25.21200
N  -1.47800 17.61300 29.79200
C  -1.67600 16.54700 30.52600
C  -1.76500 16.92200 32.06800
C  -1.93400 18.50900 32.03900
C  -1.46900 18.77300 30.57600
C  -3.39300 19.02500 32.41900
C  -0.59400 16.34200 32.86900
C  -0.01300 17.07200 34.13600
H  0.63300 16.27900 35.26300
N  -1.22600 19.73500 27.57400
C  -1.56800 20.47700 28.66800
C  -1.73100 21.87600 28.29100
C  -1.57000 21.96400 26.90200
C  -1.15200 20.57100 26.51300
C  -2.04800 22.94800 29.24000
C  -1.72700 23.15300 25.93000
O  -1.55100 23.12800 24.71100
C  -1.96500 24.46300 26.48100
N  -0.86000 17.60500 25.51400
C  -0.78500 18.78800 24.74800
C  -0.66500 18.36600 23.23300
C  -0.39600 16.78300 23.30400
C  -0.67100 16.49500 24.77300
C  -1.89200 18.80100 22.37300
C  0.98700 16.20100 22.88200
C  2.11700 16.40300 23.96600
N  -1.11000 15.61800 27.60400
C  -1.14100 14.74000 26.49500
C  -1.31100 13.35800 27.00300
C  -1.57200 13.51500 28.39200
C  -1.41400 14.91700 28.65100
C  -1.32500 12.11400 26.25800
C  -1.94700 12.84500 29.59600
O  -2.16600 11.62800 29.78400
C  -1.97300 13.92100 30.73900
C  -0.85800 13.48000 31.60000
O  0.35800 13.72200 31.42500
O  -1.35500 12.83900 32.68400
C  -0.32500 12.28500 33.65100
H  -1.78500 20.81200 30.80100
H  -0.84800 20.88200 24.43300
H  -0.68700 14.49500 24.39500
H  -2.74000 16.55700 32.38900
H  -1.17100 18.97300 32.66500
H  -3.92700 18.40800 33.14200
H  -3.98700 19.18800 31.51900
H  -3.36100 19.99000 32.92500
H  0.30600 16.23300 32.26400
H  -0.89000 15.41100 33.35200
H  -0.85900 17.61300 34.56000
H  0.77800 17.76600 33.85400
H  -3.12300 22.93100 29.41900
H  -1.84600 23.96500 28.90700
H  -1.67600 22.82500 30.25700
H  -2.87000 24.31300 27.07000
H  -2.14500 25.06000 25.58700
H  -1.06800 24.78700 27.00800
H  0.11000 18.97600 22.76900
H  -1.19300 16.32500 22.71900
H  -2.47600 17.98700 21.94500
H  -1.60600 19.40700 21.51300
H  -2.59100 19.33300 23.01900
H  1.25600 16.62600 21.91500
H  0.96600 15.11400 22.80300
H  2.19600 15.49500 24.56400
H  2.09300 17.23400 24.67000
H  3.07200 16.56400 23.46600
H  -0.64300 12.13900 25.40800
H  -2.32600 11.96500 25.85300
H  -1.05400 11.24300 26.85500
H  -2.92800 13.85900 31.26100
H  0.68400 12.25300 33.23900
H  -0.64100 11.29700 33.98700
H  -0.38900 12.92500 34.53100
Mg 2.28900 -1.69200 44.23100
C  5.70100 -1.05600 43.98100
C  1.52600 1.17100 42.66100
C  -1.04200 -2.65600 44.37400
C  3.16600 -4.96900 45.25700
N  3.53000 -0.21800 43.33300
C  4.87600 -0.13400 43.35800
C  5.35000 1.13600 42.61600
C  4.02100 1.94000 42.32300
C  2.92000 0.87100 42.69400
C  3.83900 3.35100 43.01100
C  6.11800 0.71700 41.29000
C  7.28200 1.60300 40.96600
H  7.46200 2.12700 39.43700
N  0.50800 -0.87800 43.51600
C  0.43100 0.41200 43.03300
C  -0.97400 0.72000 42.79800
C  -1.73100 -0.44700 43.19700
C  -0.77000 -1.38900 43.77700
C  -1.40600 1.99600 42.12700
C  -3.26700 -0.62400 43.07800
O  -3.85400 0.24000 42.46400
C  -4.02800 -1.76400 43.55200
N  1.19100 -3.53700 44.61000
C  -0.18700 -3.70200 44.76800
C  -0.64700 -5.07500 45.25900
C  0.77100 -5.75400 45.62500
C  1.80200 -4.66200 45.13900
C  -1.62200 -5.05300 46.36900
C  0.87800 -7.06100 44.70100
C  0.11200 -8.35100 45.21300
N  4.02300 -2.84300 44.62700
C  4.21100 -4.09600 45.02000
C  5.54000 -4.32100 45.25300
C  6.16500 -3.13800 45.01700
C  5.20500 -2.25900 44.51400
C  6.14700 -5.57600 45.71000
C  7.43400 -2.48500 44.92400
O  8.57500 -2.82500 45.27800
C  7.17200 -1.12400 44.22300
C  7.62100 -0.01000 45.05800
O  7.39700 0.14600 46.22300
O  8.45400 0.76200 44.27700
C  8.84500 2.08500 44.84300
H  1.34800 2.21300 42.38600
H  -2.06200 -3.03600 44.45400
H  3.36300 -5.92300 45.75100
H  6.02500 1.77500 43.18500
H  3.99100 2.09200 41.24400
H  4.69100 3.58300 43.65100
H  2.88300 3.54000 43.50000
H  3.84400 4.00800 42.14200
H  5.36500 0.67800 40.50300
H  6.57000 -0.27400 41.33900
H  8.18800 1.03500 41.17900
H  7.41200 2.50500 41.56500
H  -2.12600 1.76000 41.34400
H  -0.59200 2.51000 41.61700
H  -1.80500 2.60900 42.93500
H  -5.00100 -1.97500 43.10800
H  -4.15300 -1.71300 44.63400
H  -3.62000 -2.73600 43.27700
H  -1.01400 -5.64200 44.40400
H  0.85000 -5.97500 46.68900
H  -2.23300 -4.15200 46.33100
H  -1.09300 -5.17800 47.31400
H  -2.26000 -5.91700 46.18200
H  1.94800 -7.25600 44.77200
H  0.56900 -6.80700 43.68800
H  0.79800 -9.08700 45.63200
H  -0.38300 -8.68700 44.30100
H  -0.52900 -7.98400 46.01400
H  6.38900 -6.28900 44.92200
H  5.53100 -6.11500 46.43000
H  7.07600 -5.30500 46.21300
H  7.73100 -1.17600 43.28900
H  8.57900 2.18100 45.89600
H  8.42500 2.83100 44.16900
H  9.91300 2.28900 44.76000

