158

Mg 17.07900 -2.08600 27.68900
C  16.15500 -0.06800 30.24300
C  19.18300 -3.84200 29.83100
C  18.45000 -3.81900 25.03200
C  15.77000 0.16200 25.40200
N  17.56300 -1.98600 29.79100
C  16.97700 -1.09800 30.69600
C  17.45900 -1.33300 32.15100
C  18.63700 -2.30600 31.88700
C  18.41600 -2.77300 30.38600
C  20.08800 -1.71500 32.05000
C  16.21200 -1.91700 32.91000
C  16.13500 -1.40800 34.41600
H  17.23300 -0.75600 35.19900
N  18.51200 -3.70400 27.43300
C  19.14000 -4.34800 28.44100
C  19.91200 -5.46100 27.96600
C  19.79100 -5.38800 26.57100
C  18.93000 -4.26700 26.25900
C  20.71900 -6.44900 28.85100
C  20.50600 -6.28800 25.47800
O  20.59200 -6.00000 24.29800
C  21.14900 -7.57200 25.97700
N  16.99700 -2.00300 25.52100
C  17.72300 -2.73300 24.65800
C  17.82600 -2.08500 23.24600
C  16.94500 -0.81700 23.35000
C  16.47200 -0.92000 24.85100
C  19.28300 -1.78000 22.78200
C  15.70200 -0.78900 22.37400
C  14.66400 -1.93400 22.42000
N  16.16100 -0.37800 27.69800
C  15.64000 0.53400 26.77600
C  14.95900 1.66100 27.35600
C  15.07900 1.39400 28.77800
C  15.86900 0.21600 28.89600
C  14.09700 2.63000 26.60600
C  14.76400 1.90000 30.08300
O  14.12200 2.89300 30.33600
C  15.53600 1.09000 31.11700
C  16.36100 2.07400 31.85900
O  17.51300 2.37300 31.54100
O  15.65700 2.48800 32.97300
C  16.43100 3.21500 33.99400
H  19.84700 -4.43800 30.46100
H  18.88400 -4.33700 24.17400
H  15.42100 0.94000 24.72000
H  17.88700 -0.41400 32.55000
H  18.49900 -3.01400 32.70300
H  20.61100 -2.03000 31.14700
H  20.46800 -2.28500 32.89800
H  20.03000 -0.65900 32.31200
H  16.15200 -3.00500 32.92400
H  15.22700 -1.77500 32.46500
H  15.83500 -2.26700 35.01700
H  15.30000 -0.71800 34.29600
H  21.74100 -6.07600 28.77900
H  20.59300 -7.48000 28.51800
H  20.27900 -6.48400 29.84700
H  21.60700 -8.20300 25.21500
H  20.30700 -8.05600 26.47100
H  21.94800 -7.16000 26.59400
H  17.33700 -2.86200 22.65900
H  17.47400 0.11300 23.14400
H  19.41800 -2.18000 21.77700
H  19.97000 -2.27400 23.46900
H  19.43000 -0.70000 22.75700
H  16.05900 -0.45500 21.40000
H  15.15300 0.09400 22.70000
H  15.10000 -2.80700 22.90500
H  14.47300 -2.22900 21.38900
H  13.69000 -1.71500 22.86000
H  13.69400 2.19600 25.69000
H  14.61200 3.45000 26.10500
H  13.38400 3.09500 27.28700
H  14.83500 0.49700 31.70600
H  15.73200 3.64500 34.71100
H  17.08200 3.94300 33.51000
H  17.02800 2.49000 34.54700
Mg 46.20900 24.76900 28.53000
C  46.39700 27.21900 31.10900
C  45.06300 22.51500 30.85500
C  46.21700 22.52600 26.13000
C  48.00900 26.95500 26.48000
N  45.58600 24.93100 30.70300
C  45.83100 25.99600 31.58200
C  45.45500 25.58700 33.00500
C  45.28300 24.01300 32.88400
C  45.37000 23.78400 31.37100
C  46.29500 23.20700 33.73800
C  44.31200 26.42600 33.57500
C  44.71100 27.09100 34.86900
H  45.11700 26.28900 36.20100
N  45.63200 22.90000 28.48900
C  45.12800 22.13900 29.53000
C  44.75200 20.85200 28.96200
C  45.02500 20.82600 27.55800
C  45.64700 22.10000 27.34900
C  44.13200 19.71400 29.77000
C  44.75500 19.82800 26.52100
O  45.03100 19.95500 25.33600
C  43.87700 18.58600 26.87500
N  46.95800 24.79000 26.60500
C  46.84700 23.68500 25.77800
C  47.31500 23.99800 24.27900
C  47.98500 25.41800 24.42600
C  47.56600 25.80700 25.88000
C  48.20000 23.01600 23.46200
C  47.58800 26.49900 23.39200
C  46.08000 26.95400 23.21100
N  47.04600 26.74100 28.67400
C  47.73600 27.45300 27.75500
C  48.13700 28.72600 28.31600
C  47.65500 28.62400 29.63400
C  46.98400 27.40900 29.84300
C  49.04300 29.76700 27.72800
C  47.62900 29.34800 30.92700
O  48.02100 30.45500 31.17400
C  46.86300 28.42200 31.95900
C  47.93200 28.00000 32.86700
O  48.62300 26.94500 32.78100
O  47.94800 28.71600 34.06200
C  48.95400 28.31000 35.06600
H  44.68300 21.97100 31.72300
H  46.17400 21.85700 25.26800
H  48.56200 27.51200 25.72100
H  46.32500 25.69800 33.65400
H  44.29900 23.76200 33.27700
H  47.19100 23.75400 34.03200
H  46.62600 22.54700 32.93600
H  45.84900 22.72200 34.60600
H  43.48700 25.78400 33.88200
H  44.07300 27.20300 32.84800
H  43.84500 27.67400 35.17900
H  45.62400 27.67800 34.76400
H  44.60500 18.73500 29.69200
H  43.05800 19.71300 29.58300
H  44.33800 19.92900 30.81800
H  44.41100 17.91300 27.54600
H  43.59800 18.20200 25.89400
H  42.99000 18.92200 27.41200
H  46.33400 24.12600 23.82000
H  49.06300 25.28400 24.33300
H  49.00500 23.58500 22.99800
H  47.66200 22.36500 22.77300
H  48.78700 22.37500 24.12100
H  47.90000 25.98800 22.48100
H  48.20200 27.38700 23.54000
H  45.64600 26.50600 22.31700
H  46.03800 28.03100 23.04600
H  45.40500 26.64900 24.01000
H  49.95500 29.27000 27.39800
H  49.36400 30.42400 28.53600
H  48.54300 30.25500 26.89100
H  46.06700 28.87300 32.55300
H  48.38600 27.56900 35.62800
H  49.03900 29.24800 35.61500
H  49.88600 27.94200 34.63600

