158

Mg -2.02900 17.66900 25.81900
C  -2.21000 15.57100 28.53200
C  -2.50500 20.36300 27.90500
C  -2.05300 19.72900 23.08000
C  -1.54800 14.95300 23.59700
N  -2.31100 17.86700 27.92100
C  -2.37700 16.89600 28.90400
C  -2.94400 17.42000 30.25200
C  -3.23000 18.89300 29.89500
C  -2.61400 19.04100 28.44100
C  -4.78400 19.25500 29.86700
C  -1.94800 17.03000 31.42100
C  -1.99900 17.97500 32.63600
H  -2.13200 17.32400 34.01300
N  -2.18700 19.73000 25.56700
C  -2.26400 20.64700 26.52500
C  -2.24100 22.02700 25.99700
C  -2.05600 21.88600 24.60300
C  -2.12000 20.35200 24.34600
C  -2.38000 23.28900 26.81700
C  -1.84800 22.92600 23.61500
O  -1.77000 22.69700 22.40900
C  -1.60300 24.33100 23.97500
N  -1.74100 17.43600 23.64100
C  -1.85600 18.41100 22.74800
C  -1.69600 17.92100 21.25700
C  -1.29100 16.41000 21.46100
C  -1.52000 16.22800 22.99500
C  -3.01500 18.08800 20.44200
C  0.10300 16.05900 21.06600
C  1.28700 16.58400 21.95600
N  -2.00800 15.65500 25.89800
C  -1.77000 14.69600 24.97700
C  -1.79800 13.42400 25.67500
C  -1.90000 13.74400 27.03300
C  -2.09300 15.10000 27.14200
C  -1.70900 12.07400 25.17800
C  -1.98300 13.19800 28.34800
O  -1.94800 11.99800 28.73600
C  -2.30500 14.36000 29.37600
C  -1.30500 14.22300 30.46100
O  -0.18100 14.71700 30.47200
O  -1.76700 13.33400 31.38200
C  -0.81700 12.97100 32.52800
H  -2.67800 21.28100 28.47200
H  -1.94600 20.40300 22.22800
H  -1.47200 14.21600 22.79500
H  -3.79800 16.77700 30.46500
H  -2.65900 19.53700 30.56500
H  -5.00000 19.99900 29.10000
H  -5.10300 19.75200 30.78300
H  -5.34800 18.32900 29.75600
H  -0.92400 16.98300 31.04900
H  -2.15700 16.02700 31.79300
H  -2.74000 18.77300 32.60300
H  -1.02100 18.45200 32.56400
H  -3.38100 23.71300 26.73200
H  -1.74800 24.10200 26.46000
H  -2.19500 23.16700 27.88400
H  -1.30300 25.02300 23.18800
H  -0.67900 24.39500 24.55100
H  -2.55000 24.52200 24.47900
H  -0.80700 18.40800 20.85500
H  -1.99700 15.72600 20.98900
H  -3.86600 18.24400 21.10600
H  -3.01600 17.15500 19.87900
H  -2.97300 18.89900 19.71500
H  0.41900 16.32600 20.05800
H  0.11800 14.97800 21.20700
H  0.97700 17.27100 22.74300
H  1.96100 17.21200 21.37200
H  1.73300 15.75900 22.51000
H  -0.97000 11.49000 25.72700
H  -1.55200 12.07400 24.10000
H  -2.69700 11.61700 25.23600
H  -3.28400 14.26500 29.84600
H  -1.28100 13.24400 33.47600
H  0.11000 13.53000 32.40300
H  -0.49400 11.93100 32.53300
Mg 16.44300 51.30200 25.28300
C  18.26300 50.24000 28.11100
C  14.00900 52.39500 27.39100
C  14.49200 51.68700 22.54000
C  18.93500 49.81500 23.30600
N  16.18900 51.21300 27.52900
C  17.12800 50.93400 28.43900
C  16.61400 51.26800 29.91500
C  15.18900 51.83200 29.65300
C  15.11300 51.81900 28.11600
C  13.96900 51.05100 30.17900
C  17.48200 52.30500 30.61900
C  18.13800 51.93200 31.96600
H  17.29400 51.18100 32.94100
N  14.52200 51.97800 24.98400
C  13.68900 52.42600 25.99000
C  12.52000 52.98500 25.38600
C  12.69700 52.94700 23.98500
C  13.97800 52.17400 23.75900
C  11.28100 53.52900 26.15600
C  11.80900 53.54800 22.86600
O  12.09600 53.36400 21.66400
C  10.44100 54.26600 23.18300
N  16.74400 50.87600 23.25500
C  15.71200 51.07700 22.35300
C  16.18400 50.80500 20.84500
C  17.70200 50.39400 21.06300
C  17.81100 50.34400 22.60200
C  15.33100 49.73400 20.23100
C  18.72200 51.39400 20.41300
C  19.03900 51.14800 18.92700
N  18.28800 50.24800 25.59500
C  19.13700 49.64200 24.69300
C  20.32300 49.14400 25.39500
C  19.92100 49.32600 26.69300
C  18.78100 50.04500 26.78600
C  21.56000 48.56600 24.86800
C  20.37800 49.00000 28.05400
O  21.35500 48.31300 28.42500
C  19.37800 49.68600 28.97600
C  18.92200 48.59700 29.90300
O  18.09000 47.72900 29.59900
O  19.62700 48.63300 31.06700
C  19.17200 47.67500 32.05200
H  13.22100 52.71700 28.07500
H  13.97900 51.85900 21.59200
H  19.64300 49.40400 22.58400
H  16.60400 50.34000 30.48700
H  15.10200 52.86400 29.99300
H  13.24600 51.75100 30.59900
H  14.25700 50.32000 30.93500
H  13.45400 50.48000 29.40700
H  16.96400 53.25500 30.75200
H  18.44600 52.35500 30.11400
H  18.46400 52.86200 32.43300
H  19.04300 51.35200 31.78500
H  11.46100 53.59300 27.22900
H  10.45500 52.81800 26.14300
H  11.03700 54.53400 25.81200
H  9.99400 54.48000 22.21300
H  10.64400 55.12000 23.82800
H  9.74000 53.64100 23.73700
H  16.07100 51.75300 20.32000
H  17.81400 49.34400 20.79500
H  14.47000 50.04900 19.64200
H  15.02300 49.04800 21.02000
H  15.85800 49.08800 19.52900
H  19.64800 51.40300 20.98700
H  18.26300 52.38200 20.44800
H  19.06700 50.12500 18.55200
H  20.03100 51.54700 18.71800
H  18.23600 51.68000 18.41500
H  21.64200 47.48100 24.94200
H  22.27200 49.16500 25.43600
H  21.61700 48.88300 23.82700
H  19.85700 50.51200 29.50100
H  19.68800 47.82200 33.00100
H  19.42700 46.69900 31.63700
H  18.13100 47.73400 32.36900

