158

Mg 1.16600 7.51200 26.29000
C  1.46400 9.73300 29.05700
C  1.80400 5.01100 28.42300
C  1.17100 5.64300 23.68400
C  1.19600 10.44600 24.21800
N  1.64200 7.43700 28.54500
C  1.55300 8.36400 29.48400
C  1.63400 7.80400 30.91800
C  2.09200 6.28900 30.60000
C  1.89200 6.23700 29.11300
C  3.53200 5.85800 31.13000
C  0.25400 7.91000 31.67900
C  0.27500 8.05200 33.19900
H  1.40300 7.39600 33.98000
N  1.27800 5.55400 26.08000
C  1.61400 4.67900 27.09300
C  1.58700 3.33000 26.53600
C  1.38900 3.50300 25.09800
C  1.29400 4.95300 24.88700
C  1.71800 2.05500 27.30900
C  1.34300 2.46100 23.92000
O  1.23500 2.70100 22.67900
C  1.48800 0.95300 24.18600
N  1.29300 7.99400 24.19700
C  1.14600 6.98000 23.33500
C  0.99100 7.55900 21.92200
C  0.64200 9.05300 22.16300
C  0.96000 9.19200 23.63900
C  2.35700 7.40800 21.08000
C  -0.87400 9.42200 21.87000
C  -1.13700 10.33300 20.63100
N  1.37900 9.57300 26.50800
C  1.41100 10.64400 25.59000
C  1.49100 11.91300 26.23500
C  1.47600 11.61600 27.56600
C  1.46300 10.21100 27.68300
C  1.34600 13.25800 25.74500
C  1.55800 12.25500 28.87500
O  1.70000 13.39900 29.18300
C  1.56900 10.99700 29.92700
C  2.63800 11.05700 30.91900
O  3.83000 11.25000 30.59300
O  2.26100 10.78400 32.20400
C  3.27100 10.99600 33.20400
H  1.99200 4.16800 29.09200
H  1.16500 5.05500 22.76300
H  1.18200 11.26800 23.49900
H  2.46000 8.30800 31.42000
H  1.55000 5.46100 31.05700
H  4.13600 6.69300 31.48500
H  4.08100 5.35200 30.33600
H  3.52700 5.17600 31.98000
H  -0.34600 7.00900 31.55400
H  -0.30600 8.65800 31.11800
H  -0.63300 7.63300 33.63200
H  0.32500 9.10400 33.48100
H  0.74400 1.76200 27.70200
H  2.38700 2.25500 28.14600
H  2.26500 1.28900 26.75900
H  0.72000 0.68700 24.91200
H  2.37500 0.51500 24.64400
H  1.37900 0.23500 23.37200
H  0.19200 6.99200 21.44300
H  1.44900 9.52500 21.60200
H  2.14900 6.70300 20.27600
H  3.14100 6.92100 21.66100
H  2.70100 8.29600 20.55100
H  -1.21100 9.97800 22.74400
H  -1.44000 8.49300 21.79800
H  -1.92100 9.90300 20.00800
H  -0.20100 10.45800 20.08700
H  -1.45100 11.33700 20.91600
H  2.25200 13.86100 25.69200
H  0.67500 13.77900 26.42800
H  0.97800 13.28000 24.71900
H  0.65100 11.08000 30.50800
H  3.44900 12.06400 33.08400
H  4.16900 10.44500 32.92300
H  3.03400 10.80200 34.25000
Mg 44.12400 3.42200 47.30000
C  41.57700 5.68700 46.48500
C  41.66500 0.83100 47.22400
C  46.62200 1.10600 47.26200
C  46.43900 5.99800 47.07300
N  41.92800 3.19500 46.65800
C  41.11900 4.32400 46.44300
C  39.67200 3.88400 46.33400
C  39.67700 2.45600 46.85000
C  41.16800 2.07200 46.91500
C  38.92200 2.17000 48.14200
C  39.13200 3.98000 44.86500
C  38.11300 5.08200 44.38500
H  38.53900 5.83100 43.16300
N  44.20200 1.26500 47.28000
C  43.03800 0.49000 47.41500
C  43.46500 -0.85900 47.67400
C  44.90400 -0.81900 47.70400
C  45.29300 0.53500 47.39900
C  42.57500 -2.08500 47.91300
C  45.78000 -1.98600 48.11900
O  45.25500 -3.05000 48.35300
C  47.25700 -2.00000 48.16500
N  46.20700 3.50300 46.97500
C  47.00800 2.40300 47.11600
C  48.53700 2.84700 47.10000
C  48.45700 4.39900 47.23600
C  46.94400 4.67200 47.09700
C  49.36600 2.08500 48.23700
C  49.42000 5.11600 46.16900
C  50.85900 5.48000 46.68500
N  44.06500 5.41000 46.89500
C  45.09800 6.34400 46.79900
C  44.54200 7.61300 46.53800
C  43.14300 7.46800 46.51900
C  42.89400 6.10400 46.65100
C  45.29400 8.91900 46.41100
C  41.83000 8.18100 46.36700
O  41.56000 9.33900 46.16600
C  40.81200 6.96900 46.33900
C  39.85800 7.13300 47.48500
O  40.00200 6.65600 48.61900
O  38.76200 7.83100 47.08000
C  37.68000 8.12700 48.05700
H  40.88600 0.07400 47.33100
H  47.38800 0.33300 47.35100
H  47.17400 6.80000 47.17000
H  39.01000 4.57100 46.86200
H  39.24900 1.68400 46.21100
H  38.58700 3.10300 48.59700
H  39.61500 1.64100 48.79600
H  38.01900 1.58800 47.95900
H  38.66600 3.02300 44.62900
H  39.88900 4.15900 44.10100
H  37.85200 5.72600 45.22500
H  37.18400 4.53200 44.23200
H  42.57700 -2.29400 48.98200
H  42.82700 -2.99300 47.36400
H  41.51900 -1.95800 47.67200
H  47.61000 -1.82000 47.14900
H  47.54800 -2.93900 48.63500
H  47.67300 -1.23000 48.81500
H  48.96200 2.51200 46.15400
H  48.62300 4.80800 48.23300
H  48.69500 1.66700 48.98800
H  50.08600 2.79700 48.64100
H  50.01400 1.32500 47.80200
H  48.82800 5.97000 45.83900
H  49.59400 4.45600 45.31800
H  51.57900 5.07900 45.97200
H  51.04900 4.98800 47.63900
H  50.98600 6.55900 46.78200
H  46.23800 8.67000 45.92700
H  45.55700 9.26100 47.41200
H  44.77000 9.63500 45.77800
H  40.35600 7.14100 45.36400
H  38.01500 8.11400 49.09400
H  36.80700 7.49900 47.88200
H  37.49800 9.19800 47.95900

