158

Mg 16.47200 51.25200 26.17900
C  18.31900 49.75400 28.74500
C  14.19400 52.24400 28.45500
C  14.96700 52.65100 23.72400
C  19.02400 50.03300 24.07700
N  16.23800 50.97800 28.36600
C  17.16200 50.53000 29.25900
C  16.75600 50.83700 30.70300
C  15.24200 51.19800 30.61600
C  15.22400 51.52300 29.04400
C  14.17000 50.07800 30.97100
C  17.79900 51.71900 31.33000
C  17.81100 51.87800 32.82300
H  16.77500 51.12800 33.65600
N  14.75800 52.32600 26.06000
C  14.01300 52.62900 27.09400
C  13.01000 53.57100 26.63700
C  13.16800 53.75800 25.20400
C  14.30500 52.85800 24.91600
C  11.91100 54.08800 27.53100
C  12.31000 54.46600 24.17400
O  12.57000 54.48700 22.94000
C  10.93300 54.96100 24.50100
N  16.83600 51.06800 24.20700
C  16.03300 51.85400 23.37600
C  16.64300 51.92100 21.97700
C  17.95700 51.06400 22.14600
C  17.98400 50.67200 23.57900
C  15.61800 51.47800 20.95700
C  19.19500 51.79200 21.58500
C  19.69000 53.06000 22.31400
N  18.21000 49.98600 26.32500
C  19.16200 49.59800 25.38600
C  20.31000 48.90100 25.95900
C  19.94900 48.84200 27.36300
C  18.72700 49.59000 27.49300
C  21.56800 48.47300 25.23500
C  20.36200 48.44300 28.71800
O  21.34800 47.87200 29.14300
C  19.40700 49.18600 29.66700
C  18.95600 48.25000 30.68900
O  17.96200 47.51400 30.48200
O  19.61500 48.43100 31.85700
C  19.11800 47.53500 32.99100
H  13.54900 52.66400 29.23000
H  14.58500 53.36300 22.99000
H  19.85700 49.83900 23.39800
H  16.90400 49.82500 31.07900
H  15.03800 52.12500 31.15300
H  14.74700 49.17800 31.18300
H  13.58000 49.96000 30.06200
H  13.44400 50.17600 31.77900
H  17.69600 52.73700 30.95400
H  18.76900 51.38700 30.96100
H  17.74200 52.95300 32.98900
H  18.80800 51.53500 33.09900
H  11.72500 55.13200 27.28000
H  12.12400 53.84900 28.57300
H  11.00400 53.51200 27.34900
H  10.98100 55.68500 25.31400
H  10.50800 54.04100 24.90200
H  10.38100 55.22300 23.59800
H  16.94500 52.96200 21.86800
H  17.87700 50.14200 21.57100
H  15.10600 52.30600 20.46600
H  14.87100 50.87700 21.47700
H  16.08600 50.91500 20.15000
H  18.88000 52.09900 20.58800
H  20.08200 51.16200 21.52500
H  19.51000 53.95200 21.71500
H  20.70900 53.02800 22.69800
H  19.06900 53.23500 23.19300
H  21.94000 49.24600 24.56300
H  21.43600 47.51700 24.72800
H  22.33000 48.36000 26.00600
H  20.01200 50.03700 29.98200
H  18.78600 48.22200 33.76900
H  20.02000 46.96800 33.22300
H  18.21400 46.94900 32.82400
Mg -5.57100 25.25200 26.11700
C  -4.31800 26.88100 28.92900
C  -7.11500 23.02500 28.16200
C  -6.31300 23.41500 23.33600
C  -3.58400 27.34100 24.09600
N  -5.68000 24.99100 28.33900
C  -5.19900 25.82800 29.29600
C  -5.97100 25.59300 30.62100
C  -6.68000 24.22100 30.37800
C  -6.54600 24.06100 28.86900
C  -6.02200 23.00600 31.00800
C  -6.84100 26.76300 31.10100
C  -7.08000 26.99900 32.60300
H  -6.39900 26.08900 33.67500
N  -6.70300 23.57100 25.77400
C  -7.30700 22.85600 26.76400
C  -8.11300 21.83200 26.15100
C  -7.89400 21.92300 24.75100
C  -6.94900 23.01900 24.56100
C  -8.96000 20.81200 26.91600
C  -8.44500 21.02400 23.70400
O  -8.25400 21.21000 22.52600
C  -9.28100 19.83500 23.98800
N  -4.82500 25.16600 24.07800
C  -5.39700 24.41500 23.07700
C  -4.70900 24.76700 21.75000
C  -4.17500 26.17300 21.96700
C  -4.15700 26.25800 23.52300
C  -3.56400 23.78600 21.34700
C  -4.95000 27.33800 21.25400
C  -4.24800 28.32800 20.32900
N  -4.19700 26.84100 26.37900
C  -3.56100 27.70800 25.48000
C  -2.82800 28.70100 26.24000
C  -3.07800 28.39300 27.60200
C  -3.96000 27.27400 27.62900
C  -1.91600 29.78100 25.55500
C  -2.81500 28.84800 28.93600
O  -2.06200 29.74400 29.27800
C  -3.66700 27.99200 29.82000
C  -2.86600 27.39300 30.98000
O  -2.31200 26.31800 31.03000
O  -2.98800 28.24700 32.03900
C  -2.29200 27.81700 33.25300
H  -7.56000 22.30000 28.84600
H  -6.67900 22.84400 22.48000
H  -3.10700 28.09900 23.47000
H  -5.21200 25.42200 31.38500
H  -7.73500 24.30200 30.64100
H  -5.28900 23.23400 31.78200
H  -5.46200 22.52400 30.20600
H  -6.76400 22.26100 31.29600
H  -7.84500 26.70300 30.68100
H  -6.34100 27.61700 30.64500
H  -8.14100 26.83200 32.79000
H  -6.71000 28.00600 32.79400
H  -10.03800 20.85500 26.75700
H  -8.76700 20.86200 27.98800
H  -8.60300 19.79600 26.74900
H  -8.64400 19.17400 24.57500
H  -9.46900 19.34400 23.03300
H  -10.18600 20.13000 24.52000
H  -5.39800 24.76900 20.90500
H  -3.13800 26.30300 21.65500
H  -2.61500 24.32200 21.34600
H  -3.67100 23.59100 20.28000
H  -3.49200 22.91200 21.99600
H  -5.42500 28.00200 21.97600
H  -5.67300 26.86100 20.59300
H  -3.19800 28.20700 20.59300
H  -4.50400 29.35000 20.60800
H  -4.46700 28.15100 19.27600
H  -0.87100 29.54400 25.75500
H  -2.13300 30.83600 25.72000
H  -2.04000 29.75900 24.47200
H  -4.42100 28.66400 30.22900
H  -2.95400 27.76700 34.11800
H  -1.48500 28.52800 33.42700
H  -1.85700 26.82300 33.14700

