158

Mg 16.94200 -2.24000 28.32700
C  15.99300 -0.39600 31.01300
C  18.90400 -4.27100 30.50400
C  18.55500 -3.67700 25.68600
C  15.66600 0.06700 26.08700
N  17.35500 -2.34000 30.54900
C  16.87100 -1.43000 31.45000
C  17.36900 -1.73600 32.88700
C  18.39600 -2.91700 32.67100
C  18.23000 -3.22200 31.13600
C  19.92400 -2.55400 33.00800
C  16.13300 -2.19500 33.80400
C  16.35400 -2.18200 35.27700
H  17.62100 -1.52700 35.90800
N  18.30500 -3.85100 28.13100
C  18.97800 -4.52000 29.13100
C  19.61300 -5.68200 28.59800
C  19.58400 -5.53000 27.15400
C  18.84400 -4.30300 26.97000
C  20.30400 -6.86200 29.40300
C  20.11800 -6.42400 26.02500
O  19.96000 -6.25000 24.82800
C  20.65900 -7.75700 26.42800
N  17.15300 -1.81300 26.08700
C  17.78400 -2.56800 25.27000
C  17.52000 -2.25600 23.80600
C  16.38700 -1.17800 23.97400
C  16.36500 -0.96800 25.50400
C  18.78200 -1.72700 23.12000
C  15.05000 -1.62100 23.16800
C  13.71000 -1.76900 23.97100
N  15.87200 -0.64300 28.43600
C  15.45900 0.25000 27.45400
C  14.73000 1.24700 28.12800
C  14.94800 1.06500 29.54300
C  15.65000 -0.15900 29.66800
C  13.94600 2.45400 27.39100
C  14.71100 1.65500 30.81600
O  14.18500 2.70200 31.08800
C  15.35500 0.72300 31.81900
C  16.34200 1.52600 32.55900
O  17.47100 1.77100 32.22000
O  15.79900 1.90900 33.74500
C  16.65400 2.74500 34.51400
H  19.43900 -4.95000 31.17000
H  18.96700 -4.11300 24.77400
H  15.09400 0.61300 25.33300
H  17.79900 -0.78700 33.20700
H  18.01100 -3.75200 33.25600
H  20.36000 -3.17100 33.79400
H  20.03900 -1.56700 33.45600
H  20.50900 -2.55400 32.08800
H  15.84100 -3.16400 33.39900
H  15.29700 -1.51100 33.65500
H  16.27900 -3.18300 35.70300
H  15.43900 -1.69700 35.61500
H  19.75300 -7.74300 29.07500
H  20.10000 -6.79300 30.47200
H  21.35400 -7.06200 29.18700
H  21.51300 -7.51300 27.06100
H  21.03600 -8.43800 25.66500
H  19.93200 -8.39000 26.93600
H  17.19100 -3.10400 23.20500
H  16.70600 -0.28700 23.43200
H  18.60900 -0.91900 22.40900
H  19.23400 -2.57500 22.60600
H  19.54700 -1.39600 23.82200
H  15.33400 -2.52100 22.62300
H  14.82200 -0.82300 22.46200
H  13.92500 -1.72300 25.03800
H  13.25400 -2.74000 23.77900
H  13.14200 -0.91100 23.61200
H  13.49500 3.09100 28.15200
H  13.13300 2.01900 26.80900
H  14.49800 2.94200 26.58800
H  14.58400 0.46600 32.54500
H  16.33100 2.98300 35.52700
H  16.67600 3.70400 33.99600
H  17.65600 2.31800 34.56200
Mg -10.57900 40.21100 42.18200
C  -9.02400 37.33300 40.99200
C  -8.13000 41.97800 40.42800
C  -12.29000 43.02200 42.64900
C  -13.31600 38.30700 43.12200
N  -8.74600 39.61900 40.84200
C  -8.33400 38.42800 40.51500
C  -7.05000 38.44200 39.66300
C  -6.70300 40.06000 39.57500
C  -7.98500 40.56300 40.29900
C  -5.40600 40.47600 40.23600
C  -7.30500 37.90600 38.19400
C  -6.61600 36.52900 37.84200
H  -5.62900 36.49200 36.75000
N  -10.13400 42.28600 41.83800
C  -9.09700 42.76300 41.05700
C  -9.03100 44.19400 41.36200
C  -10.34500 44.56600 41.81800
C  -10.99200 43.28100 42.11700
C  -7.92900 45.11900 40.95100
C  -10.90100 45.97700 42.12100
O  -10.24200 46.94100 41.88200
C  -12.27500 46.22200 42.86100
N  -12.53500 40.59800 42.79800
C  -13.02200 41.84400 42.94600
C  -14.54400 41.95000 43.29600
C  -14.86200 40.39700 43.47700
C  -13.51600 39.65700 43.06400
C  -14.83300 42.83600 44.59000
C  -16.17100 39.98900 42.63100
C  -17.10800 39.00200 43.32500
N  -11.05600 38.18600 42.22900
C  -12.18300 37.55900 42.64400
C  -11.89800 36.15700 42.68400
C  -10.68400 36.01600 41.99900
C  -10.25300 37.34100 41.77000
C  -12.83100 35.04900 43.16100
C  -9.69100 35.03600 41.56700
O  -9.62700 33.83900 41.63100
C  -8.62200 35.87200 40.82700
C  -7.39300 35.61600 41.54600
O  -6.97400 36.17300 42.55100
O  -6.68500 34.61500 40.86300
C  -5.77300 33.77700 41.67200
H  -7.33000 42.59900 40.01900
H  -12.86000 43.88800 42.99200
H  -14.14400 37.67800 43.45600
H  -6.30900 37.87300 40.22300
H  -6.62900 40.48400 38.57400
H  -4.98400 39.74600 40.92700
H  -5.48200 41.40100 40.80700
H  -4.64400 40.77900 39.51700
H  -7.01600 38.61000 37.41400
H  -8.38800 37.81800 38.11500
H  -7.45300 35.86700 37.62100
H  -6.06500 36.17200 38.71200
H  -6.88000 44.83100 40.89000
H  -7.95400 45.96100 41.64200
H  -8.22700 45.53500 39.98800
H  -13.04900 46.12100 42.10000
H  -12.21600 47.25300 43.21000
H  -12.47800 45.65600 43.77100
H  -14.92900 42.48800 42.42900
H  -15.01500 40.08500 44.51100
H  -15.25100 42.29300 45.43800
H  -15.43400 43.72600 44.40700
H  -13.93900 43.26600 45.04100
H  -15.76600 39.61600 41.69000
H  -16.73100 40.91000 42.47300
H  -16.53700 38.57900 44.15100
H  -17.32400 38.28100 42.53600
H  -17.97100 39.54000 43.71900
H  -12.31700 34.62500 44.02400
H  -13.00300 34.35200 42.34100
H  -13.73600 35.54800 43.50900
H  -8.52800 35.71600 39.75200
H  -6.29700 33.47100 42.57800
H  -4.95300 34.42900 41.97500
H  -5.42000 32.92200 41.09500

