158

Mg 35.25700 2.68100 30.09900
C  33.19200 4.21100 32.48000
C  37.88400 2.72400 32.30200
C  37.31600 1.78700 27.57000
C  32.64200 2.91000 27.77700
N  35.53200 3.43500 32.10200
C  34.52900 3.91400 32.94300
C  34.97300 4.00900 34.43600
C  36.53200 3.89500 34.17400
C  36.71000 3.33100 32.75600
C  37.50000 5.05300 34.50300
C  34.29000 2.80000 35.21800
C  33.84900 3.12100 36.60300
H  34.56700 4.17800 37.46200
N  37.30400 2.19500 30.02300
C  38.12500 2.20300 31.05000
C  39.43800 1.85400 30.54800
C  39.36000 1.51300 29.15300
C  37.94300 1.80200 28.86000
C  40.72100 1.78600 31.43100
C  40.50000 0.97300 28.23100
O  40.22000 0.53700 27.06900
C  41.92700 0.90800 28.70600
N  34.99700 2.53200 27.99800
C  35.98000 1.99400 27.21200
C  35.54200 1.94700 25.75500
C  33.97200 2.00300 25.85800
C  33.84700 2.47700 27.29300
C  36.25400 2.97700 24.80100
C  33.26400 0.62300 25.50600
C  32.45300 0.64400 24.13700
N  33.37000 3.48700 30.07300
C  32.36100 3.39600 29.11200
C  31.10200 3.88200 29.60800
C  31.36300 4.15900 30.97700
C  32.71500 3.95300 31.19100
C  29.83200 3.97800 28.92300
C  30.76500 4.60200 32.19500
O  29.60200 4.95600 32.43600
C  31.92500 4.61000 33.23900
C  31.98600 5.75600 34.15300
O  32.78900 6.65900 34.09900
O  31.20500 5.41800 35.26000
C  31.41800 6.54000 36.23200
H  38.64700 2.67100 33.08200
H  38.04300 1.49500 26.80900
H  31.77400 2.69600 27.15000
H  34.70500 4.94600 34.92400
H  36.83100 3.05100 34.79500
H  37.09300 5.95100 34.96800
H  37.97900 5.40900 33.59100
H  38.26400 4.69800 35.19400
H  34.96000 1.94300 35.16300
H  33.54400 2.43300 34.51300
H  33.94200 2.17400 37.13400
H  32.77700 3.31800 36.62100
H  40.60700 2.53800 32.21200
H  41.64200 2.23100 31.05400
H  40.90100 0.81500 31.89200
H  41.99200 0.16800 29.50300
H  42.22700 1.90400 29.03300
H  42.52500 0.76700 27.80500
H  35.80400 0.96300 25.36600
H  33.67400 2.76900 25.14100
H  37.03400 3.48800 25.36400
H  35.52700 3.67200 24.38100
H  36.76700 2.46600 23.98600
H  32.61600 0.30400 26.32300
H  34.02200 -0.12300 25.26800
H  31.36900 0.60600 24.23900
H  32.88500 -0.05100 23.41700
H  32.61900 1.58100 23.60500
H  29.19100 3.24800 29.41700
H  29.89900 3.91300 27.83700
H  29.50600 5.00000 29.11200
H  31.76900 3.76100 33.90400
H  30.95200 7.40700 35.76400
H  32.47100 6.74900 36.41800
H  30.90000 6.38800 37.17900
Mg -11.70100 37.53900 42.44300
C  -9.33500 34.99000 41.66300
C  -9.56400 39.77100 40.85500
C  -14.05800 39.89700 42.43900
C  -13.74500 35.08300 43.66000
N  -9.69300 37.37700 41.35200
C  -8.97700 36.20600 41.06300
C  -7.73900 36.57200 40.24800
C  -7.71800 38.13100 40.18500
C  -9.14100 38.43400 40.81000
C  -6.39800 38.76000 40.85600
C  -7.86300 35.84600 38.89000
C  -6.67100 34.95600 38.39100
H  -5.66700 35.38700 37.26400
N  -11.71100 39.60900 41.92800
C  -10.72700 40.34200 41.36400
C  -11.12600 41.73000 41.32900
C  -12.49200 41.83600 41.70300
C  -12.79900 40.45500 42.03500
C  -10.29500 42.86000 40.84500
C  -13.35500 43.04400 41.87300
O  -12.79300 44.12300 41.67000
C  -14.78200 43.04200 42.34300
N  -13.67800 37.42800 42.83200
C  -14.47900 38.60500 42.78700
C  -15.88900 38.21200 43.25900
C  -15.79700 36.67700 43.67900
C  -14.35200 36.36700 43.36500
C  -16.44000 39.22600 44.28600
C  -16.89700 35.78700 42.94000
C  -18.04300 35.41800 43.82800
N  -11.62900 35.49900 42.65700
C  -12.49500 34.64200 43.27200
C  -11.91100 33.34200 43.46000
C  -10.70600 33.40300 42.80900
C  -10.56300 34.76600 42.33000
C  -12.53800 32.19500 44.15000
C  -9.50300 32.70700 42.46600
O  -9.06700 31.60400 42.72000
C  -8.55500 33.66700 41.65100
C  -7.24600 33.76900 42.26600
O  -6.23400 33.15600 41.96300
O  -7.11500 34.84700 43.14800
C  -5.77700 35.03100 43.75900
H  -8.89300 40.40400 40.27000
H  -14.84200 40.64500 42.57500
H  -14.37100 34.40000 44.23700
H  -6.84300 36.15300 40.70700
H  -7.68400 38.51800 39.16700
H  -5.84500 39.40000 40.16900
H  -5.72500 37.98400 41.21900
H  -6.79500 39.41600 41.63100
H  -7.95600 36.58700 38.09600
H  -8.81400 35.31600 38.96000
H  -7.18200 34.06500 38.02800
H  -6.16400 34.46500 39.22200
H  -9.52100 42.41000 40.22400
H  -9.83600 43.38200 41.68400
H  -10.84600 43.52900 40.18400
H  -15.34700 42.30100 41.77600
H  -14.97900 44.10600 42.21300
H  -14.67700 42.91300 43.42100
H  -16.50600 38.36900 42.37500
H  -15.88400 36.68000 44.76500
H  -16.51800 38.72600 45.25200
H  -17.41400 39.58600 43.95500
H  -15.89800 40.16600 44.38500
H  -16.32100 34.96500 42.51500
H  -17.36100 36.40400 42.17100
H  -19.01600 35.70400 43.42900
H  -18.09200 35.80500 44.84600
H  -18.02500 34.34600 44.02900
H  -13.44000 32.45700 44.70300
H  -11.76900 31.89300 44.86200
H  -12.71300 31.52100 43.31100
H  -8.42400 33.25200 40.65200
H  -5.04200 35.05500 42.95400
H  -5.45800 34.30500 44.50700
H  -5.84100 36.01600 44.22200

