158

Mg 46.85200 44.64300 44.01700
C  43.39400 44.22000 43.52600
C  47.22500 41.20300 43.15900
C  50.13900 45.00900 43.53000
C  46.32900 48.10600 43.99400
N  45.50000 42.98500 43.33000
C  44.11000 43.06800 43.27900
C  43.51500 41.71300 43.02300
C  44.69400 40.74300 42.97400
C  45.89200 41.67600 43.19800
C  44.61000 39.54200 43.93400
C  42.54300 41.53800 41.80300
C  43.13200 42.23300 40.57300
H  42.90300 41.54700 39.21000
N  48.51100 43.29300 43.70700
C  48.44800 41.91200 43.42300
C  49.80900 41.38200 43.22800
C  50.70900 42.51700 43.43500
C  49.79400 43.67000 43.67100
C  50.17300 40.02700 42.88700
C  52.20200 42.44300 43.47100
O  52.83000 41.38900 43.33000
C  53.09600 43.58400 43.85100
N  48.04000 46.37900 43.69200
C  49.39200 46.23300 43.49600
C  50.09200 47.57700 43.17000
C  48.83000 48.53400 43.39800
C  47.65500 47.63700 43.66800
C  51.35400 47.68100 44.17800
C  48.55000 49.64300 42.30900
C  48.12100 51.13000 42.71200
N  45.18900 45.92200 43.86100
C  45.12000 47.26800 44.02300
C  43.79500 47.71600 44.22200
C  42.97700 46.50500 43.99800
C  43.95800 45.48500 43.69600
C  43.39500 49.14000 44.49300
C  41.65100 45.88900 43.91200
O  40.54700 46.38700 43.94400
C  41.89000 44.43100 43.59400
C  41.24800 43.59800 44.65600
O  40.31100 42.78100 44.50800
O  41.80700 43.91300 45.89500
C  41.17100 43.22200 47.06000
H  47.27600 40.18100 42.77800
H  51.14600 45.19600 43.15300
H  46.24000 49.18200 44.15800
H  42.91000 41.45600 43.89200
H  44.90200 40.29400 42.00200
H  44.53300 38.70700 43.23700
H  43.68500 39.54500 44.51000
H  45.46600 39.46000 44.60400
H  41.60100 41.97100 42.13800
H  42.52000 40.46200 41.62800
H  44.21100 42.33400 40.68900
H  42.64900 43.18600 40.79100
H  50.18700 39.33400 43.72800
H  51.18800 39.87800 42.51900
H  49.40900 39.66400 42.19900
H  52.72400 44.21000 44.66300
H  53.08900 44.33700 43.06300
H  54.07900 43.25400 44.18600
H  50.48300 47.57500 42.15300
H  49.18500 49.11800 44.24700
H  52.30500 47.73200 43.64700
H  51.38100 46.86700 44.90100
H  51.33800 48.50300 44.89400
H  47.62300 49.35400 41.81600
H  49.33200 49.55000 41.55500
H  48.50900 51.74300 41.89900
H  48.65500 51.45000 43.60700
H  47.05400 51.22700 42.91300
H  42.31300 49.04100 44.57400
H  43.57500 49.82700 43.66600
H  43.91800 49.37200 45.42100
H  41.33500 44.32600 42.66200
H  40.09900 43.36100 47.20200
H  41.69100 43.41500 47.99900
H  41.19900 42.15800 46.82300
Mg 6.19900 56.65300 42.52800
C  4.90800 53.52300 41.73800
C  9.23400 55.69700 41.15300
C  7.09700 59.94300 42.19500
C  2.99600 57.57500 43.56400
N  6.92100 54.91300 41.36700
C  6.25100 53.70000 41.25100
C  7.15200 52.63200 40.68800
C  8.56200 53.28600 40.87900
C  8.24900 54.76500 41.15300
C  9.43200 52.67000 42.04900
C  6.88400 52.11200 39.15000
C  7.11400 50.61700 38.94700
H  6.46500 50.12600 37.77500
N  7.97600 57.67700 41.87600
C  9.08700 57.11900 41.47400
C  10.10700 58.12600 41.30200
C  9.55700 59.33000 41.69500
C  8.17400 59.00400 41.97900
C  11.52500 57.76200 40.96900
C  10.35500 60.62500 41.91300
O  11.48600 60.77000 41.56000
C  9.76300 61.72600 42.74000
N  5.22800 58.47500 42.80000
C  5.78500 59.74100 42.45400
C  4.71400 60.84800 42.57400
C  3.39400 60.05500 42.95000
C  3.85500 58.58400 43.12400
C  4.94200 62.11400 43.41900
C  2.10500 60.19000 41.98900
C  0.74800 60.62100 42.63000
N  4.34700 55.76900 42.81500
C  3.15200 56.23100 43.30500
C  2.20300 55.15600 43.46200
C  2.87500 54.02200 42.91500
C  4.12300 54.49800 42.40500
C  0.80800 55.23900 43.93900
C  2.74700 52.63100 42.61700
O  1.82600 51.81700 42.81300
C  4.11700 52.25100 41.89700
C  3.75100 51.64200 40.65100
O  3.65800 52.19600 39.60800
O  3.50100 50.28100 40.85600
C  3.11100 49.38800 39.73500
H  10.27600 55.42000 40.98200
H  7.37100 60.99500 42.08900
H  2.02700 57.91200 43.93600
H  7.06000 51.73600 41.30200
H  9.08500 53.24800 39.92300
H  8.89600 51.87600 42.57000
H  9.61200 53.50500 42.72600
H  10.34300 52.28800 41.58700
H  7.53200 52.64500 38.45400
H  5.90400 52.52600 38.91400
H  6.78000 50.08700 39.83900
H  8.20300 50.62800 38.90400
H  11.87400 58.57100 40.32800
H  11.64200 56.78600 40.49800
H  12.13600 57.72100 41.87100
H  9.08800 61.29400 43.47800
H  9.20900 62.43000 42.12000
H  10.53100 62.34200 43.20800
H  4.73300 61.24600 41.56000
H  3.14500 60.31500 43.97900
H  5.99800 62.28400 43.62800
H  4.44900 62.02900 44.38800
H  4.64900 63.02700 42.90100
H  2.05300 59.17100 41.60400
H  2.34400 60.96600 41.26200
H  -0.03000 59.85900 42.58600
H  0.33900 61.52300 42.17500
H  1.05600 60.86200 43.64800
H  0.16000 55.57000 43.12700
H  0.80100 56.02000 44.69900
H  0.46800 54.26700 44.29500
H  4.60800 51.49400 42.50900
H  3.02500 49.92000 38.78800
H  2.10800 49.02200 39.95200
H  3.89600 48.63400 39.66800

