158

Mg 0.06800 8.14200 26.77400
C  0.97900 10.23300 29.41000
C  -0.52300 5.69400 29.00600
C  -0.38900 6.15500 24.21600
C  0.65500 10.87700 24.61400
N  0.37000 7.93400 28.98700
C  0.61600 8.96900 29.86100
C  0.30600 8.59800 31.38100
C  0.16000 6.99600 31.17300
C  -0.16800 6.90400 29.64200
C  1.41200 6.25200 31.61700
C  -0.96900 9.28200 32.06900
C  -0.98700 9.56100 33.54700
H  0.17300 9.06000 34.37500
N  -0.22500 6.17300 26.58400
C  -0.48400 5.33800 27.59800
C  -0.91900 3.98600 27.07600
C  -0.94400 4.12700 25.65700
C  -0.53200 5.51100 25.43800
C  -1.40300 2.83400 27.90100
C  -1.26000 3.06700 24.62100
O  -1.17400 3.37000 23.41400
C  -1.55700 1.59800 25.04200
N  0.25400 8.43400 24.69000
C  -0.00100 7.41500 23.81500
C  -0.05200 7.92300 22.34600
C  -0.08100 9.47000 22.59700
C  0.40800 9.59500 24.04700
C  1.10300 7.44100 21.41900
C  -1.45900 10.11700 22.34400
C  -1.44500 11.20700 21.27900
N  0.86000 10.13500 26.88900
C  0.98600 11.12100 25.94000
C  1.48500 12.35500 26.52200
C  1.53900 12.08100 27.86100
C  1.09000 10.71300 28.08400
C  1.65500 13.67700 25.87100
C  1.77500 12.61400 29.19400
O  2.03100 13.69600 29.63600
C  1.37200 11.44900 30.21400
C  2.49600 11.16500 31.15000
O  3.49000 10.46400 30.86400
O  2.45300 12.03500 32.19700
C  3.65200 12.08500 33.06500
H  -0.75500 4.90500 29.72400
H  -0.68600 5.56200 23.34800
H  0.54900 11.72800 23.93700
H  1.20600 8.94700 31.88800
H  -0.58200 6.55700 31.83900
H  2.04500 6.83600 32.28500
H  1.97200 6.02000 30.71100
H  1.15500 5.36600 32.19600
H  -1.83600 8.64700 31.88900
H  -1.19200 10.11400 31.40100
H  -1.92700 9.19800 33.96300
H  -0.88100 10.62500 33.75900
H  -0.80100 2.01700 27.50300
H  -2.45400 2.62700 27.70000
H  -1.16800 3.02500 28.94800
H  -1.92700 1.00000 24.20900
H  -2.32800 1.64600 25.81200
H  -0.71500 1.04000 25.45300
H  -1.04300 7.51500 22.14800
H  0.66400 9.95500 21.96600
H  0.67400 6.63900 20.81800
H  1.85100 7.12800 22.14800
H  1.45300 8.15900 20.67800
H  -1.85300 10.64100 23.21500
H  -2.14800 9.34900 21.99200
H  -1.98000 10.78100 20.43100
H  -0.42600 11.42000 20.95300
H  -1.93100 12.12400 21.61200
H  0.83100 14.33300 26.15000
H  1.80800 13.64300 24.79200
H  2.59000 14.02200 26.31200
H  0.59800 11.78700 30.90300
H  4.40500 12.32200 32.31300
H  3.94900 11.12000 33.47600
H  3.65000 12.79800 33.89000
Mg 34.69100 2.75100 31.09100
C  32.50200 3.67500 33.71400
C  37.25500 2.85300 33.49700
C  36.90700 2.38400 28.63400
C  32.16100 3.14500 28.94900
N  34.89800 3.50400 33.34200
C  33.80900 3.54900 34.17300
C  34.26400 3.68900 35.61500
C  35.85000 3.62100 35.58800
C  36.01900 3.30000 34.02300
C  36.55200 5.01500 35.90700
C  33.71900 2.64000 36.53700
C  33.52900 3.13900 37.98100
H  34.35000 4.36400 38.49900
N  36.76700 2.44300 31.09500
C  37.63100 2.49700 32.17100
C  38.97100 2.28000 31.65200
C  38.88400 2.14000 30.22600
C  37.47900 2.36500 29.91100
C  40.12500 1.93900 32.63300
C  39.95100 1.77600 29.17300
O  39.69600 1.57900 27.99000
C  41.35800 1.68800 29.69600
N  34.57400 2.87500 29.10100
C  35.58600 2.63400 28.26100
C  35.15700 2.54000 26.79400
C  33.58700 2.59000 26.90700
C  33.43800 2.88100 28.37900
C  35.75800 3.68500 25.98600
C  32.91300 1.29300 26.40600
C  31.69500 1.47200 25.42900
N  32.67500 3.21400 31.23900
C  31.80400 3.46600 30.25300
C  30.49000 3.79500 30.74800
C  30.74000 3.88000 32.11700
C  32.05600 3.52500 32.36600
C  29.23900 3.88400 29.87800
C  30.15300 4.17500 33.36000
O  28.95700 4.46900 33.63400
C  31.23600 4.12600 34.42600
C  31.48800 5.42800 35.09900
O  32.03000 6.46300 34.66800
O  30.86700 5.38200 36.36500
C  30.68500 6.64300 37.07000
H  38.10100 2.77500 34.18200
H  37.48800 2.20600 27.72700
H  31.39000 3.03200 28.18400
H  34.00500 4.71200 35.88900
H  36.22000 2.89200 36.31000
H  37.11100 4.86300 36.83000
H  35.74600 5.74000 36.01800
H  37.27200 5.36100 35.16500
H  34.37400 1.77100 36.60600
H  32.74200 2.26900 36.22700
H  33.82600 2.35400 38.67700
H  32.45500 3.27300 38.11100
H  40.38100 0.88300 32.54800
H  40.04800 2.10500 33.70800
H  40.90700 2.63800 32.33700
H  41.73900 2.64200 30.06000
H  42.03000 1.21300 28.98200
H  41.22200 0.91400 30.45100
H  35.57400 1.68300 26.26600
H  33.14300 3.48400 26.46900
H  36.47500 3.34100 25.24100
H  36.25700 4.40900 26.63100
H  34.90700 4.17900 25.51600
H  32.74900 0.58300 27.21600
H  33.57000 0.82100 25.67600
H  31.74400 0.81000 24.56400
H  31.59800 2.50300 25.08900
H  30.77100 1.40400 26.00200
H  29.57500 4.35600 28.95500
H  28.37500 4.48500 30.16100
H  28.86100 2.92300 29.52800
H  30.99000 3.34800 35.14800
H  30.91100 7.48900 36.42000
H  31.31400 6.65500 37.96100
H  29.64500 6.79600 37.35600

