158

Mg 0.26700 7.93200 26.81100
C  1.20800 9.92900 29.56600
C  -0.26600 5.44100 29.06300
C  -0.46300 6.00600 24.15700
C  0.77900 10.60800 24.67200
N  0.44900 7.74500 29.06700
C  0.75000 8.70100 29.98900
C  0.71500 8.08700 31.42600
C  0.57100 6.52400 31.15900
C  0.12600 6.57500 29.67500
C  1.83500 5.68900 31.40200
C  -0.39600 8.70100 32.40800
C  0.08500 8.59400 33.88200
H  -0.59000 7.46100 34.76800
N  -0.26800 6.02100 26.66300
C  -0.38000 5.11700 27.66900
C  -0.75100 3.84000 27.09800
C  -0.73400 3.94300 25.66500
C  -0.41700 5.38300 25.42300
C  -1.15300 2.74200 27.99200
C  -1.05200 2.93400 24.61700
O  -0.97400 3.21400 23.41900
C  -1.49000 1.53200 24.92800
N  0.33600 8.28300 24.69000
C  -0.17100 7.30700 23.82800
C  -0.34100 7.85600 22.36500
C  -0.13000 9.37000 22.65100
C  0.43900 9.43300 24.09300
C  0.68900 7.30400 21.43600
C  -1.40400 10.18500 22.37600
C  -1.52500 10.66100 20.90100
N  1.03800 9.82000 27.00700
C  1.19600 10.83400 26.03100
C  1.68800 12.02200 26.68700
C  1.84800 11.72600 28.08800
C  1.31300 10.41700 28.21200
C  1.90700 13.46300 26.02800
C  2.12600 12.23200 29.38800
O  2.56500 13.34900 29.70600
C  1.67100 11.17600 30.41700
C  2.75900 10.89400 31.37900
O  3.75200 10.27800 31.15500
O  2.43700 11.40700 32.57900
C  3.25100 11.13700 33.70800
H  -0.49200 4.54800 29.65000
H  -0.72500 5.51000 23.22000
H  0.77500 11.46300 23.99200
H  1.68900 8.34100 31.84500
H  -0.24500 6.11000 31.75100
H  1.51400 4.84200 32.00900
H  2.63100 6.17900 31.96400
H  2.24500 5.31800 30.46300
H  -1.30100 8.10800 32.27500
H  -0.66200 9.72600 32.15100
H  0.01600 9.61600 34.25600
H  1.15600 8.45800 34.03000
H  -2.19500 2.93300 28.25200
H  -0.52900 2.71500 28.88600
H  -1.24700 1.72000 27.62700
H  -1.70600 1.03100 23.98400
H  -2.41800 1.65100 25.48700
H  -0.69100 1.11100 25.53900
H  -1.31300 7.72600 21.88900
H  0.71600 9.65700 22.02600
H  0.94700 8.09700 20.73400
H  0.31000 6.51000 20.79200
H  1.56300 7.04800 22.03500
H  -1.43400 10.98900 23.11200
H  -2.27100 9.53300 22.48800
H  -2.37800 10.12500 20.48400
H  -0.59200 10.52200 20.35500
H  -1.81900 11.70700 20.81900
H  1.01100 14.06700 25.88500
H  2.33100 13.34400 25.03000
H  2.59300 14.06200 26.62600
H  0.82400 11.46700 31.03700
H  3.93400 10.29700 33.57700
H  2.54600 10.80000 34.46800
H  3.79000 12.05200 33.95600
Mg 42.45600 41.83500 26.17100
C  41.42400 44.19100 28.57500
C  43.47900 39.77600 28.77700
C  43.74500 39.83400 23.87600
C  42.20600 44.40100 23.84700
N  42.44300 41.99300 28.44200
C  41.81900 42.94700 29.14600
C  41.78200 42.61900 30.68800
C  42.54800 41.22900 30.72800
C  42.83000 40.99000 29.21900
C  43.70100 41.03700 31.72600
C  40.35500 42.64000 31.44400
C  40.30400 43.69700 32.58400
H  39.43900 43.32800 33.76800
N  43.47700 40.10100 26.33500
C  43.67600 39.34600 27.43500
C  44.12100 37.99100 26.98800
C  44.15400 38.01400 25.57800
C  43.76500 39.37100 25.15400
C  44.64000 36.94000 27.90500
C  44.56200 36.85600 24.67600
O  44.45100 36.89300 23.43600
C  45.09700 35.62600 25.17800
N  42.78800 42.00700 24.18500
C  43.27200 41.06200 23.44600
C  43.52100 41.49600 21.96700
C  42.98000 42.97900 21.94900
C  42.61900 43.12000 23.42200
C  45.05800 41.35300 21.58400
C  41.85200 43.21400 20.92500
C  40.55300 42.42100 21.20400
N  41.80400 43.83500 26.11800
C  41.74500 44.76900 25.08800
C  41.09000 45.98200 25.46300
C  41.02500 45.86200 26.84800
C  41.46100 44.49700 27.17100
C  40.90800 47.19100 24.61900
C  40.63400 46.49800 28.06800
O  40.30000 47.65100 28.24900
C  40.93700 45.47200 29.23100
C  41.86500 46.15500 30.04100
O  43.07700 46.22500 29.82600
O  41.22600 46.48900 31.25300
C  42.21600 46.94200 32.24700
H  43.68200 39.06600 29.58100
H  44.14800 39.13200 23.14300
H  41.97500 45.00000 22.96400
H  42.42600 43.35300 31.17200
H  41.80100 40.54600 31.13300
H  43.95900 42.08200 31.89900
H  44.52200 40.47900 31.27500
H  43.37400 40.45900 32.59000
H  40.10900 41.66000 31.85300
H  39.65300 42.91600 30.65700
H  39.89200 44.58300 32.10100
H  41.30200 43.98100 32.91700
H  44.63800 37.35700 28.91200
H  45.68300 36.67700 27.72600
H  44.00800 36.05500 27.96900
H  44.50800 35.18300 25.98100
H  46.06600 35.82900 25.63600
H  45.34600 34.87900 24.42400
H  42.86400 40.86200 21.37300
H  43.77500 43.67100 21.67200
H  45.14500 40.39300 21.07300
H  45.64400 41.38700 22.50200
H  45.32600 42.16800 20.91200
H  42.31000 42.93800 19.97600
H  41.65300 44.28400 20.99200
H  40.29500 42.06000 20.20800
H  39.78700 43.15000 21.46600
H  40.77300 41.56500 21.84100
H  40.13200 46.72700 24.01000
H  41.77400 47.38000 23.98500
H  40.41400 48.01300 25.13700
H  39.99100 45.30700 29.74700
H  42.37700 46.15200 32.98200
H  41.77100 47.72600 32.85900
H  43.24100 47.27200 32.08000

