158

Mg 47.23700 16.45600 28.33900
C  44.97600 15.98300 31.09000
C  49.23300 18.21300 30.38100
C  48.90800 17.53200 25.72000
C  44.68000 15.23500 26.28600
N  47.01200 17.25100 30.44300
C  46.12500 16.71600 31.38900
C  46.53000 17.18800 32.81700
C  47.75800 18.21000 32.46800
C  47.96000 17.98900 30.98900
C  47.60000 19.74400 32.85400
C  46.81700 16.01500 33.67400
C  46.20700 16.12400 35.10200
H  46.10700 17.53200 35.86400
N  48.93600 17.42500 28.14700
C  49.66600 18.01600 29.09600
C  50.99100 18.39400 28.61400
C  50.88400 18.27700 27.18500
C  49.53800 17.68400 26.93500
C  52.13500 18.92700 29.48800
C  51.92200 18.65300 26.10100
O  51.77700 18.39800 24.95200
C  53.11300 19.37300 26.44600
N  46.82000 16.34700 26.35400
C  47.68400 16.92600 25.44700
C  47.12500 16.91700 24.00200
C  45.89200 15.94700 24.16600
C  45.79500 15.81100 25.67000
C  46.74700 18.32100 23.54200
C  46.15500 14.55800 23.53800
C  44.85900 14.00100 22.88300
N  45.26100 15.63500 28.62900
C  44.44100 15.07200 27.65800
C  43.23300 14.58200 28.32100
C  43.37400 14.87500 29.68400
C  44.62900 15.58900 29.80700
C  42.08300 13.91700 27.59900
C  42.80600 14.78000 31.01600
O  41.77700 14.24000 31.45800
C  43.80900 15.61300 31.93700
C  43.03300 16.81200 32.36900
O  42.47000 17.58300 31.59700
O  42.83400 16.88700 33.76200
C  41.99900 18.06800 34.11900
H  49.82000 18.77700 31.10900
H  49.38800 17.82400 24.78400
H  43.94000 14.79800 25.61300
H  45.72600 17.79700 33.23100
H  48.63500 17.78100 32.95300
H  46.80300 19.90000 33.58100
H  47.37500 20.35800 31.98300
H  48.57800 20.10700 33.17100
H  47.89700 15.98400 33.81200
H  46.44500 15.08200 33.24900
H  46.64000 15.36300 35.75200
H  45.20500 15.79900 34.82300
H  52.12600 20.01500 29.42100
H  53.12300 18.59800 29.16700
H  51.89500 18.79600 30.54400
H  52.97500 20.43700 26.64000
H  53.65600 19.29700 25.50400
H  53.77400 18.82600 27.11800
H  47.82900 16.54200 23.25900
H  45.07900 16.40200 23.60100
H  45.68700 18.52700 23.39500
H  47.15100 18.57600 22.56200
H  46.98600 19.11400 24.25000
H  46.70200 13.98900 24.29100
H  46.87800 14.69600 22.73400
H  44.67100 12.98800 23.23900
H  45.03900 13.95300 21.81000
H  43.90100 14.50500 23.01500
H  41.15700 13.83800 28.16900
H  42.40600 12.94600 27.22300
H  41.79900 14.50900 26.72800
H  44.03600 14.98800 32.80100
H  42.61300 18.93200 33.86300
H  41.71500 18.12400 35.16900
H  41.09300 18.18900 33.52400
Mg -12.28300 15.91800 41.52200
C  -9.08400 14.49300 41.33200
C  -11.11200 18.79600 40.06800
C  -15.45200 16.74500 40.88400
C  -13.41800 12.79200 42.75500
N  -10.40600 16.46600 40.59800
C  -9.16800 15.78600 40.73600
C  -7.98700 16.65800 40.28800
C  -8.68500 18.02700 40.05300
C  -10.14500 17.79800 40.27500
C  -8.13000 19.13800 41.12500
C  -7.23600 16.21900 39.01700
C  -5.87300 16.71000 38.86600
H  -5.66900 17.69100 37.68900
N  -13.10900 17.54400 40.56200
C  -12.47900 18.65000 40.24200
C  -13.37300 19.65200 40.01300
C  -14.65500 19.08200 40.11600
C  -14.44800 17.70200 40.44200
C  -13.02400 21.06200 39.58000
C  -16.01700 19.80000 39.81800
O  -16.01400 20.98700 39.49500
C  -17.39200 19.07900 39.96100
N  -14.17000 14.85700 41.71800
C  -15.33400 15.49900 41.48200
C  -16.55400 14.64400 41.99800
C  -15.91300 13.36200 42.56800
C  -14.42500 13.69500 42.40200
C  -17.52800 15.36100 42.99600
C  -16.42900 12.01100 41.90400
C  -17.41100 11.16800 42.74900
N  -11.45100 14.10500 42.08800
C  -12.04800 12.94000 42.52500
C  -11.01600 11.98200 42.86800
C  -9.82700 12.60400 42.45500
C  -10.16200 13.86400 41.90800
C  -11.21500 10.66100 43.60400
C  -8.36600 12.41900 42.37900
O  -7.63800 11.56900 42.80000
C  -7.86200 13.70200 41.65000
C  -6.92600 14.41500 42.55300
O  -7.23000 15.27400 43.35200
O  -5.66700 13.98200 42.28600
C  -4.70400 14.84600 42.92800
H  -10.78600 19.82900 39.93300
H  -16.46000 17.15900 40.95500
H  -13.82600 11.87200 43.17900
H  -7.22800 16.72400 41.06800
H  -8.69500 18.33500 39.00700
H  -9.03800 19.64000 41.45900
H  -7.51400 19.90800 40.66000
H  -7.50900 18.73800 41.92700
H  -7.87500 16.45800 38.16700
H  -7.20000 15.13700 39.14000
H  -5.16200 15.92000 38.62500
H  -5.49300 17.14900 39.78900
H  -13.07000 21.21800 38.50200
H  -12.03400 21.35700 39.92700
H  -13.67700 21.81600 40.01900
H  -18.08100 19.68600 39.37300
H  -17.73900 19.04700 40.99400
H  -17.32500 18.11400 39.45900
H  -17.12800 14.42700 41.09700
H  -16.11400 13.33200 43.63900
H  -17.58000 14.95100 44.00400
H  -18.52900 15.39700 42.56500
H  -17.09400 16.35600 43.08700
H  -15.56700 11.34900 41.81900
H  -16.83700 12.11100 40.89900
H  -18.29600 11.73700 43.03300
H  -16.92300 10.69000 43.59900
H  -17.72000 10.44100 41.99700
H  -10.57200 9.82900 43.31600
H  -12.17000 10.37400 43.16500
H  -11.29800 10.85800 44.67300
H  -7.42800 13.28800 40.74000
H  -4.80200 15.84300 42.49700
H  -3.73200 14.43100 42.65900
H  -4.74500 14.95300 44.01200

