158

Mg -0.41900 7.28900 26.30100
C  0.56000 9.29000 29.01600
C  -0.90600 4.72100 28.62900
C  -0.75100 5.22400 23.77500
C  0.38000 9.93600 24.21500
N  -0.08800 7.06100 28.55000
C  0.25700 8.01300 29.53300
C  0.19300 7.46600 31.00900
C  -0.09000 5.92400 30.68200
C  -0.45700 5.90600 29.15600
C  1.02600 4.95300 31.07800
C  -0.80900 8.16600 31.92600
C  -0.42000 8.07400 33.45900
H  0.73700 7.32200 33.99300
N  -0.76100 5.24400 26.19800
C  -1.05500 4.37700 27.25300
C  -1.56600 3.17500 26.72500
C  -1.49300 3.28700 25.29900
C  -1.00800 4.61700 25.01100
C  -1.97700 1.96200 27.66100
C  -1.72800 2.18500 24.27200
O  -1.43200 2.43200 23.11200
C  -2.38500 0.87800 24.63000
N  -0.17400 7.44200 24.30700
C  -0.37300 6.52700 23.37000
C  -0.42200 7.09900 21.95500
C  -0.44000 8.65900 22.24100
C  0.01500 8.71400 23.71000
C  0.79300 6.52500 21.05300
C  -1.87500 9.20500 21.86500
C  -1.88800 10.65800 21.19900
N  0.32200 9.20000 26.48600
C  0.60400 10.16700 25.59900
C  1.09400 11.38100 26.22000
C  1.07900 11.08700 27.53800
C  0.53300 9.75200 27.66800
C  1.48500 12.62400 25.59500
C  1.27400 11.64800 28.84900
O  1.60900 12.81900 29.11200
C  0.90700 10.51300 29.80300
C  2.01300 10.28400 30.81500
O  2.96500 9.59200 30.52600
O  1.69500 10.93600 31.97000
C  2.73900 10.90900 33.01400
H  -1.19300 3.93800 29.33400
H  -1.12200 4.65900 22.91800
H  0.69000 10.78900 23.60700
H  1.19200 7.47200 31.44500
H  -0.99200 5.60200 31.20400
H  0.55600 4.06500 31.50200
H  1.58400 5.42200 31.88900
H  1.65700 4.69300 30.22900
H  -1.74400 7.67000 31.66600
H  -0.94200 9.22900 31.72300
H  -1.34000 7.58800 33.78000
H  -0.44300 9.00600 34.02500
H  -1.97200 2.12500 28.73900
H  -1.40600 1.07100 27.40200
H  -2.97400 1.72000 27.29100
H  -3.39200 1.11600 24.97100
H  -1.83400 0.29000 25.36400
H  -2.45000 0.34000 23.68400
H  -1.35000 6.60500 21.66500
H  0.30600 9.23500 21.69400
H  1.35100 7.35200 20.61500
H  0.46100 5.73300 20.38100
H  1.49600 6.12700 21.78500
H  -2.47300 9.34000 22.76600
H  -2.47500 8.42000 21.40500
H  -2.35900 10.71200 20.21800
H  -0.85900 10.98300 21.04000
H  -2.46300 11.32800 21.83600
H  0.51000 13.09800 25.48500
H  1.87200 12.41300 24.59800
H  2.09300 13.22500 26.27100
H  0.01100 10.76300 30.37100
H  3.27200 9.95900 33.06300
H  2.25800 11.02700 33.98500
H  3.53200 11.57400 32.67400
Mg 25.13000 1.31600 30.08200
C  27.26900 0.98500 32.73200
C  22.42200 1.39000 32.34500
C  22.98600 1.22200 27.53600
C  27.80400 0.61900 27.96400
N  24.92400 1.28500 32.35700
C  25.97400 1.21400 33.22500
C  25.50700 1.51600 34.66300
C  23.91800 1.45100 34.51300
C  23.66400 1.39300 32.98500
C  23.15000 0.26300 35.24200
C  26.10200 2.87300 35.18400
C  26.75600 2.80100 36.61200
H  26.11600 3.70300 37.65700
N  23.00000 1.28500 30.00300
C  22.07500 1.27100 31.01600
C  20.76700 1.04200 30.46000
C  20.88800 0.92600 29.03800
C  22.30100 1.18100 28.78000
C  19.52600 0.88000 31.31600
C  19.84000 0.62000 27.94900
O  20.11400 0.34600 26.79700
C  18.42600 0.53900 28.33400
N  25.41300 0.98500 28.06300
C  24.37100 1.13200 27.20000
C  24.91600 1.22600 25.73700
C  26.42600 1.23900 25.95600
C  26.51300 0.92800 27.45100
C  24.42600 0.07800 24.81600
C  27.22500 2.53800 25.46400
C  26.82600 3.85900 26.12500
N  27.15700 0.82300 30.26800
C  28.13800 0.55400 29.31400
C  29.46200 0.39000 29.93500
C  29.17900 0.59300 31.31200
C  27.74800 0.74100 31.44000
C  30.81800 0.19900 29.30000
C  29.74500 0.87300 32.65100
O  30.90100 1.00400 33.05000
C  28.58200 1.02500 33.56000
C  28.61300 -0.05100 34.57300
O  28.62100 -1.23800 34.33800
O  28.77800 0.47000 35.81800
C  29.25900 -0.33400 36.90300
H  21.55200 1.53700 32.98900
H  22.37000 1.08600 26.64500
H  28.58900 0.70200 27.21000
H  25.74900 0.71700 35.36300
H  23.55000 2.43300 34.81000
H  22.73100 -0.36500 34.45600
H  22.24800 0.67200 35.69800
H  23.83000 -0.29600 35.88400
H  25.31200 3.62300 35.22200
H  26.86800 3.34500 34.56800
H  27.75100 3.22400 36.47400
H  26.86600 1.78900 37.00000
H  18.97200 1.81700 31.26900
H  19.72600 0.58100 32.34400
H  18.94800 0.03100 30.95000
H  18.12000 1.51800 28.70000
H  18.14400 -0.28000 28.99600
H  17.93000 0.30600 27.39200
H  24.68200 2.16400 25.23500
H  26.95600 0.44300 25.43200
H  23.66200 -0.54800 25.27700
H  25.26500 -0.56000 24.53700
H  24.14000 0.49600 23.85100
H  26.95600 2.62200 24.41100
H  28.31000 2.43300 25.45900
H  27.65100 4.24600 26.72400
H  25.98900 3.59400 26.77200
H  26.50400 4.53700 25.33500
H  30.76400 -0.02900 28.23600
H  31.42900 -0.41900 29.95800
H  31.32200 1.16500 29.30700
H  28.61000 1.99600 34.05400
H  28.71300 -0.15500 37.82900
H  30.28400 0.00100 37.06100
H  29.17800 -1.40400 36.70800

