158

Mg 1.36100 8.74200 26.76300
C  1.67400 11.08900 29.47800
C  1.85900 6.20200 28.97000
C  1.56100 6.63300 24.12200
C  1.86500 11.51100 24.56300
N  1.82500 8.66500 28.93300
C  1.61400 9.73300 29.85200
C  1.42000 9.24200 31.33900
C  1.85500 7.73300 31.08300
C  1.88100 7.48200 29.59300
C  3.12100 7.21200 31.82200
C  -0.00700 9.49700 31.98800
C  -0.08700 9.32000 33.42000
H  1.10900 8.75600 34.17300
N  1.52700 6.68900 26.57300
C  1.84900 5.82900 27.58300
C  1.83800 4.47100 27.07000
C  1.57100 4.53400 25.69000
C  1.58700 6.02000 25.39900
C  1.87600 3.23900 28.01500
C  1.38500 3.49800 24.70400
O  1.11200 3.74200 23.54600
C  1.49700 2.06800 25.02200
N  1.70200 8.98000 24.63600
C  1.58400 7.98300 23.69500
C  1.68200 8.54900 22.26000
C  1.75300 10.06900 22.52800
C  1.77400 10.19400 24.01700
C  2.87700 7.91700 21.52000
C  0.59400 10.93200 21.87100
C  -0.84900 10.79100 22.49300
N  1.54700 10.93800 26.89600
C  1.80900 11.91800 25.95200
C  1.88200 13.16700 26.64100
C  1.88300 12.92100 27.92700
C  1.64100 11.49700 28.10600
C  1.98500 14.52000 25.89100
C  1.92400 13.54500 29.20400
O  2.09900 14.72100 29.49800
C  1.73200 12.36400 30.23700
C  2.90200 12.34400 31.17800
O  4.07800 12.33500 30.88300
O  2.45300 12.40600 32.47100
C  3.48000 12.31600 33.59100
H  1.97500 5.39600 29.69800
H  1.58100 6.02500 23.21500
H  2.15000 12.26800 23.83000
H  2.18000 9.90400 31.75300
H  1.03800 7.10900 31.44400
H  3.53500 7.81600 32.63000
H  3.92900 7.07200 31.10500
H  2.84200 6.29100 32.33400
H  -0.78800 8.96300 31.44800
H  -0.20900 10.52900 31.70200
H  -0.93200 8.68000 33.67700
H  -0.29400 10.27200 33.90700
H  2.39600 3.51300 28.93400
H  2.45200 2.46800 27.50400
H  0.84600 2.91700 28.16600
H  0.72400 1.86800 25.76400
H  2.49600 1.82100 25.38400
H  1.38800 1.43100 24.14400
H  0.76700 8.31100 21.71800
H  2.69800 10.43300 22.12500
H  3.52400 7.24800 22.08800
H  3.56800 8.64400 21.09400
H  2.55200 7.23500 20.73400
H  0.66500 10.52200 20.86400
H  0.91400 11.96800 21.98800
H  -1.15900 11.64200 23.10000
H  -0.96000 9.85000 23.03000
H  -1.53700 10.68900 21.65400
H  1.18300 14.41000 25.16100
H  2.96800 14.63400 25.43400
H  1.87700 15.44000 26.46500
H  0.73900 12.44500 30.67900
H  3.88500 13.32600 33.66300
H  4.25100 11.59000 33.33400
H  3.03500 12.01200 34.53800
Mg 49.54700 34.74100 26.80900
C  47.44200 33.28200 29.28900
C  49.29500 37.65400 28.52300
C  51.05500 36.10800 24.28700
C  48.97600 31.86200 24.81400
N  48.60300 35.31400 28.86200
C  47.75400 34.55900 29.58800
C  47.25300 35.36300 30.85600
C  47.77400 36.86600 30.48100
C  48.60900 36.59900 29.22500
C  46.67800 37.89000 30.22000
C  47.76900 34.89700 32.24900
C  46.74100 34.98300 33.45300
H  47.26000 35.78500 34.63700
N  50.29700 36.46900 26.55900
C  50.10300 37.60000 27.34400
C  50.82700 38.77600 26.77900
C  51.49300 38.27200 25.59100
C  50.96700 36.89500 25.45900
C  50.91000 40.10900 27.45000
C  52.43900 38.98700 24.65600
O  52.69000 38.41500 23.60100
C  53.24100 40.25600 24.97300
N  49.98000 34.05500 24.86300
C  50.67300 34.80300 24.04000
C  50.98700 34.13500 22.68000
C  50.31100 32.75600 22.81800
C  49.68200 32.89200 24.22900
C  50.44800 35.03000 21.50600
C  51.20000 31.50900 22.50800
C  51.58200 31.27300 21.04500
N  48.57900 32.83000 26.97000
C  48.36800 31.76200 26.05200
C  47.61700 30.70200 26.66900
C  47.22500 31.28200 27.89700
C  47.80100 32.58300 28.04700
C  47.07800 29.31700 26.11600
C  46.32900 31.05200 29.04700
O  45.55600 30.13800 29.32000
C  46.46400 32.35700 29.99000
C  46.93500 31.81300 31.31800
O  48.07700 31.40900 31.53600
O  45.89000 31.74300 32.23100
C  46.22500 31.15700 33.58400
H  49.14000 38.66500 28.90600
H  51.63000 36.53900 23.46600
H  48.75000 30.98300 24.20600
H  46.16400 35.35300 30.81900
H  48.41600 37.30700 31.24300
H  46.87300 38.83800 30.72300
H  45.70000 37.68700 30.65600
H  46.60900 38.05900 29.14600
H  48.45400 35.61600 32.69800
H  48.17200 33.88500 32.21100
H  46.50800 34.03600 33.94000
H  45.80400 35.44500 33.14100
H  51.47300 40.02000 28.37900
H  49.89300 40.48800 27.54500
H  51.46000 40.85300 26.87300
H  52.76100 41.18300 24.65800
H  54.27000 40.22800 24.61600
H  53.36600 40.17100 26.05300
H  52.05900 33.94100 22.71900
H  49.49800 32.74000 22.09200
H  49.79000 34.44100 20.86600
H  51.23100 35.44600 20.87200
H  49.88600 35.80100 22.03300
H  50.66700 30.64900 22.91300
H  52.08800 31.68400 23.11600
H  51.04300 31.94600 20.37800
H  51.46800 30.25100 20.68500
H  52.63800 31.51400 20.92600
H  46.83600 28.63200 26.92900
H  47.97100 28.81600 25.74500
H  46.36400 29.39400 25.29600
H  45.50900 32.85900 30.14500
H  45.45600 31.04400 34.34900
H  46.90200 31.92500 33.95800
H  46.70100 30.19100 33.41900

