158

Mg 40.27000 8.96000 29.22500
C  41.97400 10.10900 31.98600
C  38.38900 6.96800 31.20900
C  38.71700 7.91400 26.47500
C  42.82700 10.51400 27.26900
N  40.08600 8.70000 31.39400
C  40.82300 9.37800 32.34600
C  40.24300 9.14800 33.72100
C  39.37900 7.80300 33.52000
C  39.28300 7.78300 31.93400
C  39.94300 6.55500 34.22200
C  39.46600 10.36000 34.23100
C  39.29400 10.40100 35.81800
H  40.33400 11.12400 36.65000
N  38.63500 7.74100 28.93000
C  38.02800 6.96700 29.83400
C  36.91900 6.23500 29.20100
C  36.88500 6.61600 27.81300
C  38.14500 7.45500 27.64700
C  36.08100 5.20300 29.86500
C  36.06600 6.03600 26.71600
O  36.30600 6.24600 25.53200
C  34.90400 5.23300 27.00700
N  40.79500 9.16900 27.13400
C  39.88700 8.71800 26.23500
C  40.31700 9.09400 24.78600
C  41.66400 9.86400 24.95200
C  41.78900 9.94400 26.54200
C  40.35600 7.93500 23.83100
C  41.68100 11.24500 24.37400
C  40.66900 12.21800 24.92700
N  42.07600 9.96000 29.48000
C  43.04900 10.43900 28.63600
C  44.18300 11.04100 29.29400
C  43.78500 10.95700 30.62200
C  42.47900 10.32200 30.73700
C  45.46200 11.61800 28.71200
C  44.21600 11.21400 31.97400
O  45.14500 11.83900 32.38200
C  43.04700 10.63800 32.92100
C  43.65900 9.67300 33.80700
O  43.73000 8.49000 33.58600
O  44.12500 10.29200 34.90800
C  44.56200 9.44000 36.01800
H  37.80000 6.27400 31.81300
H  38.06300 7.75900 25.61500
H  43.68300 10.93300 26.73700
H  41.06400 9.08600 34.43500
H  38.36800 7.92300 33.90700
H  39.71400 5.73500 33.54200
H  39.33000 6.48400 35.12100
H  41.01700 6.64300 34.38500
H  38.44400 10.06600 33.99100
H  39.78300 11.29200 33.76300
H  39.13600 9.40400 36.22900
H  38.35100 10.93400 35.94200
H  36.36000 4.95600 30.88900
H  36.16200 4.23800 29.36500
H  35.07300 5.60900 29.94800
H  34.25900 5.78100 27.69300
H  35.23600 4.26600 27.38600
H  34.40700 5.10200 26.04500
H  39.53500 9.72900 24.36800
H  42.53600 9.40000 24.49100
H  40.46100 6.98000 24.34600
H  41.20000 7.98700 23.14400
H  39.44300 7.89900 23.23700
H  41.57100 11.21600 23.29000
H  42.69500 11.60700 24.54700
H  41.11400 12.64300 25.82700
H  39.74900 11.70600 25.20600
H  40.46400 13.09300 24.31000
H  45.89800 12.19100 29.53000
H  45.29200 12.35100 27.92300
H  46.11600 10.84600 28.30700
H  42.61600 11.50900 33.41600
H  44.88100 8.43700 35.73600
H  43.93200 9.48800 36.90600
H  45.55300 9.84500 36.22500
Mg 47.87100 24.83200 29.32300
C  48.38000 27.46000 31.80500
C  46.64500 22.89100 31.96300
C  47.46500 22.51600 27.13100
C  49.45400 26.93300 27.01000
N  47.69500 25.09700 31.67400
C  47.82600 26.29800 32.43000
C  47.29800 26.25200 33.87900
C  46.87500 24.70500 33.90000
C  47.00200 24.17400 32.42700
C  47.48500 23.77900 34.98700
C  46.10000 27.23400 34.23500
C  46.19700 27.83100 35.65700
H  47.05900 27.27500 36.75400
N  47.16400 22.91200 29.53400
C  46.61100 22.29800 30.63000
C  46.10900 21.04000 30.20100
C  46.26300 20.94500 28.79800
C  46.98900 22.14800 28.42900
C  45.61400 20.02100 31.16800
C  45.78900 19.85100 27.84800
O  45.84100 19.90900 26.64100
C  45.06600 18.57700 28.29200
N  48.69100 24.51500 27.43600
C  48.32500 23.48300 26.67200
C  48.78200 23.58400 25.20300
C  49.13900 25.12100 25.22200
C  49.12000 25.59600 26.66000
C  49.92900 22.65400 24.77900
C  48.29200 25.94900 24.17000
C  46.81200 26.01400 24.52400
N  48.79500 26.78000 29.32100
C  49.36900 27.46300 28.32500
C  49.79600 28.74400 28.74300
C  49.36100 28.84600 30.06300
C  48.80500 27.59200 30.42200
C  50.52500 29.79200 27.91700
C  49.23300 29.71400 31.20800
O  49.47900 30.87800 31.29000
C  48.59200 28.85500 32.35000
C  49.61800 28.90600 33.46700
O  50.74800 28.45800 33.35200
O  49.17600 29.47800 34.58700
C  50.24600 29.70400 35.61100
H  46.24800 22.33200 32.81400
H  47.34800 21.75500 26.35600
H  49.84400 27.43100 26.12000
H  48.10300 26.33700 34.60800
H  45.82800 24.58100 34.17600
H  48.45600 23.33400 34.76700
H  46.68100 23.06500 35.16500
H  47.49700 24.41700 35.87000
H  45.09500 26.81300 34.28100
H  46.13500 28.11100 33.59000
H  45.16300 27.97100 35.97200
H  46.52500 28.86500 35.55200
H  45.38100 20.56600 32.08300
H  46.30400 19.18200 31.25600
H  44.64400 19.56400 30.97400
H  45.82900 18.13900 28.93500
H  44.78100 17.95100 27.44700
H  44.24300 19.05800 28.82000
H  47.95900 23.45500 24.50000
H  50.15400 25.29900 24.86400
H  49.62700 22.12000 23.87800
H  50.12700 21.91900 25.55900
H  50.84300 23.17600 24.49800
H  48.44400 25.32700 23.28800
H  48.62700 26.97700 24.03300
H  46.72400 26.10700 25.60600
H  46.23700 25.22900 24.03100
H  46.44800 26.95900 24.12100
H  51.17400 30.33200 28.60600
H  49.88000 30.54900 27.47100
H  51.18500 29.30300 27.20100
H  47.72000 29.36500 32.75900
H  50.57000 28.80300 36.13200
H  50.04700 30.46700 36.36300
H  51.10200 30.16400 35.11700

