158

Mg 10.75000 47.80900 25.82200
C  8.92900 47.66900 28.79800
C  13.30600 49.21300 27.45300
C  12.46700 47.91800 22.80700
C  7.81100 47.02600 24.01600
N  10.99800 48.34700 27.83300
C  10.19100 48.27400 28.91500
C  10.74400 48.90900 30.22000
C  11.90600 49.70900 29.57300
C  12.17500 48.97000 28.25900
C  11.76100 51.18100 29.45000
C  11.12200 47.82000 31.30900
C  10.22500 47.81300 32.51900
H  10.27300 46.59900 33.48700
N  12.64200 48.41100 25.24700
C  13.58700 48.93300 26.06500
C  14.85500 49.07400 25.36100
C  14.60700 48.57100 24.06200
C  13.18900 48.33000 23.94800
C  16.13500 49.59700 26.08000
C  15.61000 48.18300 22.93500
O  15.36000 47.77100 21.84500
C  17.07900 48.33300 23.27800
N  10.22000 47.44300 23.72600
C  11.12100 47.48400 22.64400
C  10.47800 47.16100 21.27000
C  9.14800 46.63400 21.82900
C  8.99000 47.11200 23.28900
C  10.40000 48.26800 20.26700
C  8.80700 45.09100 21.63400
C  9.90900 44.15200 22.28700
N  8.81200 47.43700 26.21800
C  7.69700 47.12700 25.41800
C  6.55100 46.86300 26.25700
C  6.99100 47.06500 27.54400
C  8.35900 47.44300 27.47000
C  5.22200 46.47300 25.64000
C  6.50100 47.00800 28.94100
O  5.40400 46.60800 29.39500
C  7.85600 47.38700 29.77500
C  8.16800 46.08200 30.56600
O  9.02000 45.23400 30.29300
O  7.38200 46.07800 31.67600
C  7.24700 44.91200 32.57300
H  14.11200 49.60500 28.07600
H  13.04600 47.88200 21.88100
H  6.99300 46.67800 23.38200
H  10.04800 49.64300 30.62500
H  12.78700 49.63100 30.21000
H  10.78100 51.55000 29.75200
H  11.93100 51.30900 28.38100
H  12.51600 51.76800 29.97300
H  12.13000 48.02800 31.66800
H  11.26700 46.82600 30.88500
H  9.20300 47.98500 32.18100
H  10.50500 48.63800 33.17400
H  15.98100 49.52100 27.15600
H  16.42500 50.63700 25.93200
H  17.00200 48.96900 25.87300
H  17.34200 49.36400 23.51300
H  17.62200 47.89700 22.44000
H  17.35500 47.66600 24.09500
H  11.01600 46.31700 20.83700
H  8.28700 47.05000 21.30500
H  10.93400 47.98200 19.36200
H  10.91800 49.19000 20.52900
H  9.35900 48.57700 20.16500
H  8.47800 44.88400 20.61600
H  7.93600 44.86400 22.24900
H  9.52300 43.55700 23.11500
H  10.73400 44.73200 22.70200
H  10.47900 43.67300 21.49100
H  5.08500 46.79500 24.60700
H  4.46600 47.04300 26.18000
H  5.06100 45.39600 25.68200
H  7.82800 48.19900 30.50100
H  7.94100 44.11700 32.29700
H  6.20700 44.64900 32.76200
H  7.72500 45.26200 33.48800
Mg -0.97400 33.73500 26.94000
C  -2.89500 32.09200 29.10400
C  0.21700 35.82500 29.51800
C  0.82400 35.43200 24.68400
C  -2.75800 32.32200 24.21200
N  -1.43500 34.04300 28.99700
C  -2.09100 33.02600 29.73200
C  -1.99500 33.29600 31.23000
C  -1.46900 34.80200 31.15600
C  -0.82700 34.91700 29.80800
C  -2.58200 35.85400 31.36500
C  -1.10500 32.23800 31.98100
C  -0.76100 32.57000 33.40000
H  -1.24300 31.46200 34.45100
N  0.53900 35.19000 27.09300
C  0.86600 35.92100 28.22400
C  1.94000 36.79500 27.91300
C  2.01900 36.82000 26.53900
C  1.11300 35.77700 26.05500
C  2.55500 37.71400 28.95400
C  2.77000 37.74400 25.51500
O  2.40700 37.84800 24.33500
C  3.85000 38.62900 25.97000
N  -0.98600 34.00600 24.73400
C  -0.07700 34.64900 24.01600
C  -0.27100 34.43900 22.50400
C  -1.20800 33.14700 22.45400
C  -1.74600 33.18900 23.86500
C  -0.59000 35.72200 21.65900
C  -0.55100 31.78800 22.02700
C  0.55000 31.33400 22.93700
N  -2.53600 32.59600 26.67800
C  -3.12900 31.99600 25.56000
C  -4.05800 31.03700 25.97500
C  -4.04300 31.06100 27.38500
C  -3.10000 31.99200 27.72100
C  -4.85800 30.25400 25.10600
C  -4.62000 30.44700 28.56800
O  -5.43900 29.56900 28.70700
C  -3.80100 31.08900 29.77500
C  -4.80500 31.81200 30.55100
O  -5.37900 32.89400 30.14500
O  -5.04600 31.26400 31.75400
C  -6.03600 31.85500 32.65200
H  0.53500 36.49300 30.32100
H  1.52400 35.85100 23.95800
H  -3.18000 31.79800 23.35200
H  -2.99600 33.39400 31.65000
H  -0.74400 35.05600 31.93000
H  -2.76700 36.08500 32.41400
H  -3.50900 35.46600 30.94300
H  -2.22200 36.76300 30.88300
H  -0.17700 32.09400 31.42700
H  -1.63200 31.28600 31.92000
H  -1.15200 33.51700 33.77300
H  0.32800 32.62600 33.37300
H  2.58900 37.20700 29.91900
H  1.96400 38.63000 28.98100
H  3.58600 37.81600 28.61600
H  4.51000 38.97300 25.17300
H  4.41200 38.25500 26.82500
H  3.20800 39.46900 26.23600
H  0.69500 34.14100 22.09800
H  -1.96400 33.38700 21.70600
H  -1.17400 35.45600 20.77900
H  0.35700 36.03200 21.21700
H  -1.14700 36.36400 22.34200
H  -0.04000 31.97100 21.08200
H  -1.33900 31.05000 21.87500
H  0.55200 31.82500 23.91000
H  1.53200 31.52400 22.50300
H  0.53600 30.25400 23.08500
H  -4.89900 29.25200 25.53300
H  -4.38200 30.14400 24.13200
H  -5.88700 30.58000 24.95200
H  -3.32900 30.26800 30.31500
H  -5.63200 32.59800 33.33900
H  -6.56900 31.07500 33.19400
H  -6.76200 32.50100 32.15700

