158

Mg 35.59200 1.53000 30.06500
C  33.54100 2.93000 32.64600
C  38.25800 2.03200 32.35300
C  37.73900 0.92300 27.56100
C  32.94900 1.93500 27.89500
N  35.80400 2.12400 32.33700
C  34.80300 2.57600 33.14500
C  35.29300 2.64700 34.60500
C  36.85400 2.74600 34.39200
C  37.02000 2.28000 32.89600
C  37.47400 4.11700 34.70400
C  34.71700 1.53600 35.53500
C  34.75900 1.79200 37.07300
H  35.47700 3.04300 37.47900
N  37.67400 1.28300 30.01400
C  38.56300 1.61400 30.95900
C  39.88000 1.42200 30.37500
C  39.79500 1.07500 28.99900
C  38.33900 1.10100 28.78100
C  41.15600 1.50800 31.11100
C  40.86700 0.94600 27.91100
O  40.52600 0.46800 26.80700
C  42.39000 1.19100 28.04300
N  35.35500 1.35200 28.07500
C  36.38700 0.97600 27.18700
C  35.87700 0.81900 25.71700
C  34.30300 0.95300 25.92200
C  34.14800 1.44900 27.41300
C  36.54700 1.92800 24.89700
C  33.46800 -0.37200 25.71200
C  32.35800 -0.29500 24.71500
N  33.65700 2.22500 30.20300
C  32.64900 2.32400 29.21700
C  31.42400 2.84200 29.72800
C  31.72100 3.17400 31.09800
C  33.06300 2.80900 31.28700
C  30.20700 3.24900 28.97000
C  31.18200 3.64900 32.35600
O  30.13700 4.19900 32.56200
C  32.34100 3.46700 33.41300
C  32.64500 4.75100 34.09600
O  33.13800 5.66000 33.46600
O  32.36600 4.84700 35.41700
C  32.69200 6.14700 36.06300
H  39.12800 2.33700 32.94000
H  38.29300 0.83800 26.62400
H  32.08000 1.96100 27.23400
H  34.86500 3.60000 34.91800
H  37.36500 2.06900 35.07700
H  37.49900 4.61900 33.73700
H  38.52800 3.93200 34.91000
H  36.86000 4.65500 35.42700
H  35.34900 0.66700 35.35000
H  33.72000 1.36900 35.12700
H  35.18100 0.90200 37.53900
H  33.73600 1.83700 37.44900
H  41.61200 0.52600 30.98700
H  41.02500 1.78700 32.15700
H  41.80000 2.20400 30.57200
H  42.86600 0.90100 27.10700
H  42.79700 0.72100 28.93800
H  42.51800 2.26700 27.92400
H  36.13500 -0.16200 25.32000
H  33.89200 1.69900 25.24200
H  36.75000 2.81900 25.49200
H  35.86700 2.28300 24.12300
H  37.47300 1.65000 24.39500
H  33.01100 -0.72500 26.63700
H  34.23200 -1.11000 25.46800
H  32.08400 0.73500 24.48700
H  31.41300 -0.67400 25.10500
H  32.51400 -0.78100 23.75200
H  29.53300 2.40500 28.82600
H  30.48600 3.72400 28.03000
H  29.70800 4.05100 29.51500
H  31.86800 2.82800 34.15800
H  31.78200 6.71100 36.27100
H  33.48200 6.58500 35.45500
H  33.15600 5.80500 36.98800
Mg 42.91000 41.93100 25.65700
C  42.18800 44.15400 28.24300
C  43.97900 39.76800 28.10000
C  44.03300 40.04400 23.20800
C  42.21800 44.51600 23.31900
N  42.98500 41.91800 27.95700
C  42.65100 42.95500 28.78900
C  42.71200 42.63200 30.28500
C  43.53900 41.26200 30.18800
C  43.57200 40.96700 28.69300
C  45.03600 41.33400 30.74600
C  41.31200 42.49500 30.99300
C  41.18300 41.80000 32.25500
H  40.45200 42.57800 33.40900
N  43.81800 40.11000 25.64700
C  44.15100 39.31800 26.76500
C  44.63200 38.06500 26.30100
C  44.51500 38.08000 24.88300
C  44.22500 39.49800 24.52800
C  44.83200 36.86700 27.19000
C  44.61300 36.97400 23.92400
O  44.43200 37.19400 22.74200
C  44.65400 35.46500 24.36500
N  43.33400 42.33500 23.58400
C  43.63200 41.29600 22.77500
C  43.54100 41.71900 21.29300
C  42.95200 43.18000 21.28600
C  42.76300 43.33700 22.84500
C  44.79800 41.50300 20.46200
C  41.72300 43.49100 20.37700
C  40.32400 43.11000 20.90700
N  42.43900 43.88300 25.66800
C  42.04800 44.80800 24.65600
C  41.47200 45.96000 25.30000
C  41.48500 45.68100 26.66200
C  42.04300 44.42600 26.85900
C  40.90600 47.15600 24.48900
C  41.08400 46.20100 27.93100
O  40.52700 47.25500 28.15100
C  41.58100 45.27600 29.07000
C  42.61100 46.02600 29.77800
O  43.72100 46.36600 29.33800
O  42.17600 46.45600 30.97700
C  43.02400 47.37700 31.65800
H  44.23800 39.07000 28.89900
H  44.24600 39.45200 22.31500
H  41.81100 45.28100 22.65500
H  43.25100 43.32800 30.92800
H  43.08200 40.46500 30.77400
H  45.34700 42.37800 30.74400
H  45.65300 40.79600 30.02700
H  45.25400 40.86100 31.70400
H  40.64900 42.05700 30.24800
H  41.04400 43.53100 31.20400
H  42.17200 41.48200 32.58400
H  40.65100 40.86500 32.07700
H  44.89600 37.16700 28.23600
H  45.71500 36.24400 27.05000
H  43.96800 36.20500 27.13300
H  44.72300 34.91300 23.42700
H  43.65700 35.34300 24.78900
H  45.45200 35.05400 24.98300
H  42.72200 41.13500 20.87400
H  43.71400 43.91700 21.03500
H  45.65200 41.25700 21.09300
H  45.08600 42.32200 19.80300
H  44.70200 40.61700 19.83600
H  41.95300 43.14300 19.37000
H  41.73000 44.58100 20.41300
H  40.52300 42.33900 21.65100
H  39.70900 42.60600 20.16200
H  39.90000 43.97800 21.41300
H  40.71000 46.91000 23.44600
H  41.67200 47.93000 24.44600
H  40.12100 47.73500 24.97500
H  40.81100 44.95200 29.77000
H  43.75700 46.75600 32.17300
H  42.43100 47.98300 32.34200
H  43.59500 47.97800 30.95000

