158

Mg 16.55200 -2.03400 28.29200
C  15.70600 0.00700 31.04200
C  18.49900 -3.94000 30.29000
C  17.66300 -3.46200 25.53600
C  14.92900 0.43500 26.31400
N  17.27300 -1.83200 30.31400
C  16.73200 -0.96700 31.27400
C  17.28600 -1.31700 32.72500
C  18.46400 -2.26000 32.35600
C  18.03600 -2.74400 30.92500
C  19.93700 -1.67100 32.47300
C  16.23200 -1.98200 33.68400
C  16.23200 -1.69100 35.20600
H  17.40000 -0.90400 35.79100
N  17.82000 -3.53900 27.96500
C  18.48500 -4.30100 28.92900
C  19.03900 -5.44700 28.28900
C  18.85000 -5.26600 26.90300
C  18.00300 -4.10800 26.74100
C  19.85100 -6.46900 29.20900
C  19.43000 -6.18500 25.74000
O  19.29200 -5.94800 24.51200
C  20.18500 -7.33300 26.15200
N  16.58900 -1.36600 26.28400
C  17.09300 -2.16800 25.33200
C  16.82300 -1.64200 23.93400
C  15.76100 -0.50400 24.20000
C  15.79800 -0.43900 25.71600
C  18.08600 -1.16300 23.26100
C  14.38100 -0.76200 23.48400
C  13.96100 0.39800 22.48800
N  15.37900 -0.20500 28.58300
C  14.79500 0.63900 27.69700
C  13.99900 1.66700 28.41600
C  14.27400 1.42100 29.74600
C  15.25100 0.33600 29.76700
C  13.05100 2.71400 27.83300
C  14.04600 1.83200 31.12500
O  13.19800 2.56400 31.60300
C  15.00200 0.99700 32.01800
C  15.76200 1.96000 32.87500
O  16.84400 2.43200 32.65700
O  15.06200 2.21100 33.98800
C  15.58700 3.09000 35.03500
H  19.15000 -4.60300 30.86500
H  18.02200 -3.90800 24.60600
H  14.35400 1.15400 25.72600
H  17.70500 -0.38500 33.10400
H  18.51000 -3.11800 33.02700
H  19.98500 -0.63400 32.80500
H  20.25400 -1.67800 31.43100
H  20.66800 -2.26700 33.01900
H  16.09900 -3.04600 33.48800
H  15.27700 -1.69700 33.24400
H  16.25900 -2.65700 35.70900
H  15.28900 -1.16200 35.34500
H  20.09400 -6.18200 30.23100
H  20.81700 -6.66700 28.74500
H  19.29400 -7.39800 29.33100
H  19.62800 -8.01400 26.79500
H  21.07700 -7.05700 26.71500
H  20.54100 -7.74600 25.20800
H  16.33600 -2.42700 23.35500
H  16.12600 0.44100 23.79700
H  18.56600 -0.26700 23.65500
H  18.11300 -1.09200 22.17300
H  18.89000 -1.87800 23.43500
H  13.58800 -1.00100 24.19300
H  14.50300 -1.60200 22.80100
H  12.90100 0.61200 22.35500
H  14.33100 0.09900 21.50800
H  14.51500 1.28400 22.79800
H  13.52600 3.47500 27.21500
H  12.63700 3.27900 28.66800
H  12.28000 2.19600 27.26200
H  14.30000 0.38000 32.57800
H  16.62800 2.89800 35.29500
H  14.95700 2.77500 35.86700
H  15.44100 4.14600 34.80800
Mg 45.19600 5.23500 46.86200
C  42.81400 7.75600 46.16000
C  42.75000 2.90100 46.48400
C  47.60200 2.74200 47.19300
C  47.68400 7.55100 46.84000
N  42.96200 5.30400 46.22300
C  42.23500 6.47500 46.09900
C  40.72400 6.16600 46.06800
C  40.77300 4.56100 46.18000
C  42.21500 4.18100 46.27400
C  40.01900 3.96800 47.35900
C  39.86700 6.75500 44.90600
C  40.34200 6.34800 43.53500
H  40.64300 7.48000 42.50700
N  45.15900 3.11900 46.84100
C  44.03600 2.36300 46.70700
C  44.36700 1.01300 46.71700
C  45.78500 0.94500 46.85400
C  46.25900 2.31700 46.91700
C  43.36300 -0.11800 46.52900
C  46.53600 -0.33400 46.93000
O  45.95100 -1.41800 46.86100
C  48.00200 -0.39900 47.01800
N  47.45500 5.10400 46.66300
C  48.15500 4.06600 47.07100
C  49.66900 4.39800 47.10200
C  49.63300 5.90700 47.25100
C  48.18600 6.26100 46.79800
C  50.44200 3.56500 48.14900
C  50.82000 6.55000 46.47300
C  52.03900 6.93400 47.33100
N  45.32300 7.26800 46.58600
C  46.38800 8.10100 46.59800
C  45.94200 9.47200 46.62100
C  44.57500 9.37700 46.39100
C  44.25800 7.98100 46.40700
C  46.78500 10.66100 46.79600
C  43.40300 10.17100 46.20900
O  43.26200 11.35700 46.27900
C  42.16000 9.13100 46.03800
C  41.23700 9.30100 47.23100
O  41.20900 8.64500 48.27700
O  40.36700 10.27000 46.84000
C  39.29200 10.57700 47.82500
H  41.91800 2.25100 46.20600
H  48.43700 2.04500 47.28600
H  48.43600 8.33600 46.95000
H  40.32700 6.58100 46.99400
H  40.31900 4.07200 45.31900
H  40.21100 4.68500 48.15700
H  40.29100 2.92900 47.54300
H  38.95500 3.95600 47.12300
H  39.90700 7.83800 45.02100
H  38.80400 6.53100 44.98700
H  39.61600 5.74300 42.99200
H  41.26300 5.77400 43.64200
H  43.61900 -0.77400 45.69700
H  42.40800 0.27800 46.18400
H  43.25200 -0.74400 47.41500
H  48.34500 0.26500 46.22500
H  48.35200 -1.40700 46.79500
H  48.47600 -0.17400 47.97400
H  49.98200 4.19900 46.07700
H  49.77700 6.12800 48.30900
H  50.93400 4.26200 48.82800
H  51.14300 2.84300 47.73000
H  49.78800 2.91800 48.73500
H  50.51600 7.48500 46.00400
H  51.23000 5.90800 45.69400
H  51.96200 6.56300 48.35400
H  52.20600 7.99800 47.49400
H  52.92200 6.54200 46.82700
H  47.67800 10.60400 47.41900
H  46.03400 11.36400 47.15700
H  47.12000 10.99400 45.81400
H  41.69700 9.33700 45.07300
H  38.29800 10.72100 47.40000
H  39.38800 11.57200 48.25900
H  39.17700 9.76000 48.53800

