158

Mg 42.10900 41.25000 26.89500
C  41.55900 43.57500 29.46000
C  43.20600 39.09100 29.27700
C  42.91000 39.16500 24.48400
C  41.22500 43.67100 24.54500
N  42.30200 41.35300 29.04800
C  41.88800 42.29100 29.89800
C  42.02600 41.92000 31.38500
C  42.60800 40.46400 31.34500
C  42.73000 40.30300 29.81800
C  43.85800 40.22100 32.18900
C  40.59900 41.90200 32.01500
C  40.49800 42.78100 33.27300
H  39.66600 42.02800 34.36500
N  43.05000 39.45700 26.90600
C  43.31700 38.59100 27.96500
C  43.73800 37.33300 27.54100
C  43.65000 37.27900 26.13700
C  43.15100 38.64200 25.76400
C  44.25300 36.22600 28.46900
C  43.97000 36.19800 25.16100
O  43.84100 36.30400 23.94100
C  44.42600 34.79700 25.68200
N  42.31600 41.44900 24.77900
C  42.48000 40.36400 23.98800
C  42.13900 40.56600 22.49300
C  41.44500 41.99800 22.57100
C  41.72200 42.43700 24.03900
C  43.38100 40.66800 21.58100
C  39.87600 42.07700 22.25800
C  38.89300 40.96100 22.55800
N  41.57400 43.29800 26.89600
C  41.17900 44.12000 25.85900
C  40.71200 45.38600 26.45500
C  40.89500 45.18900 27.78800
C  41.32400 43.92900 28.08900
C  40.26600 46.61100 25.80800
C  40.73900 45.90500 29.11500
O  40.42300 47.01200 29.45800
C  41.11400 44.83500 30.17700
C  42.20100 45.36700 31.06700
O  43.41200 45.29100 30.77700
O  41.62200 45.85000 32.18100
C  42.62600 46.39300 33.17200
H  43.38700 38.31100 30.02000
H  43.19900 38.48400 23.68000
H  40.68400 44.24600 23.79100
H  42.79700 42.55000 31.82800
H  41.78700 39.78600 31.58000
H  43.75400 39.14600 32.33600
H  43.86300 40.79600 33.11500
H  44.71900 40.59500 31.63500
H  40.30000 40.91800 32.37700
H  39.83600 42.03500 31.24800
H  39.97300 43.70800 33.04400
H  41.48600 43.11800 33.58500
H  44.39400 36.65500 29.46100
H  45.20700 35.96700 28.01000
H  43.50400 35.43700 28.41400
H  43.49800 34.59800 26.21800
H  45.34200 34.99300 26.23900
H  44.52800 34.14600 24.81300
H  41.42600 39.88500 22.02900
H  41.90700 42.68300 21.86100
H  44.27900 40.78200 22.18900
H  43.38100 41.55200 20.94200
H  43.38900 39.76800 20.96600
H  39.78000 42.42700 21.23000
H  39.44300 42.91000 22.81100
H  39.35900 40.34500 23.32700
H  38.68900 40.35000 21.67900
H  38.01700 41.40800 23.02800
H  39.98100 47.23300 26.65600
H  39.49500 46.31600 25.09600
H  41.08200 47.07200 25.25100
H  40.30900 44.68500 30.89700
H  42.91900 45.50500 33.73300
H  41.97900 47.01200 33.79300
H  43.48900 46.93200 32.77900
Mg 1.10700 43.60400 25.17700
C  2.85000 43.34600 28.26600
C  -1.58900 42.31700 26.71000
C  -0.14500 43.38600 22.17500
C  4.42700 44.21700 23.65000
N  0.65800 43.00800 27.28600
C  1.45000 43.16900 28.34500
C  0.62400 42.94600 29.62000
C  -0.80000 42.42400 29.11400
C  -0.62000 42.59500 27.64300
C  -1.40200 41.09100 29.58700
C  0.57200 44.16800 30.53700
C  0.90800 43.98400 32.02600
H  0.51300 42.61400 32.68100
N  -0.70600 43.05100 24.56600
C  -1.67100 42.39600 25.31200
C  -2.74200 42.05300 24.48600
C  -2.41400 42.42800 23.18800
C  -1.06500 43.05100 23.24300
C  -3.96600 41.22300 25.05200
C  -3.14700 42.06700 21.88900
O  -2.69900 42.26100 20.76100
C  -4.43300 41.43800 21.95400
N  2.00700 43.83900 23.28500
C  1.19900 43.59500 22.14700
C  1.97000 43.65000 20.86600
C  3.19500 44.43800 21.36300
C  3.27300 44.11500 22.85700
C  2.20700 42.19800 20.42600
C  3.03100 45.95400 21.19200
C  4.19800 46.72200 20.58700
N  3.26600 43.85500 25.77200
C  4.44000 44.08500 25.04400
C  5.53100 44.15400 25.98600
C  4.97300 43.70400 27.20000
C  3.59500 43.70500 27.04300
C  6.96900 44.29500 25.68100
C  5.27400 43.47300 28.56800
O  6.37300 43.49500 29.06400
C  3.97700 43.29900 29.31100
C  4.03100 42.07700 30.18200
O  4.01600 40.90300 29.80200
O  4.13700 42.40700 31.46400
C  4.14400 41.36300 32.50100
H  -2.39600 41.82400 27.25700
H  -0.59200 43.41100 21.17900
H  5.42800 44.43000 23.27000
H  1.13700 42.13500 30.13700
H  -1.61100 43.13400 29.27500
H  -0.79100 40.22900 29.31700
H  -2.44100 40.97600 29.28100
H  -1.55600 41.16500 30.66400
H  -0.46500 44.43100 30.74300
H  1.13600 45.03100 30.18200
H  0.60900 44.70500 32.78800
H  1.96000 44.26700 32.05800
H  -4.86400 41.83400 24.96000
H  -3.84700 40.91600 26.09100
H  -4.03600 40.30200 24.47300
H  -5.03100 41.71500 22.82200
H  -4.35800 40.35000 21.94700
H  -5.04000 41.57200 21.05900
H  1.34200 44.13900 20.12100
H  4.10100 44.05200 20.89600
H  2.70900 41.63600 21.21300
H  2.85400 42.14300 19.55000
H  1.29300 41.63900 20.22200
H  2.86000 46.38200 22.18000
H  2.09400 46.15000 20.67000
H  4.97800 45.98600 20.39300
H  4.48000 47.45400 21.34400
H  3.92800 47.17200 19.63100
H  7.56100 43.84500 26.47800
H  7.17300 45.36500 25.70100
H  7.12600 43.82000 24.71200
H  3.91800 44.12800 30.01700
H  3.36300 40.60800 32.40700
H  4.05200 41.98400 33.39200
H  5.12200 40.88200 32.52500

