158

Mg 50.87200 45.43800 42.37900
C  47.54700 46.21800 41.51600
C  50.24100 42.22500 41.25200
C  54.08600 44.72900 42.69200
C  51.39000 48.76500 43.00600
N  49.10300 44.42500 41.30300
C  47.85600 44.92500 41.13800
C  46.90600 43.79900 40.68000
C  47.74500 42.51200 40.96200
C  49.17100 43.06800 41.13700
C  47.31300 41.59500 42.13100
C  46.51500 43.97200 39.19600
C  45.03900 43.74900 38.87700
H  44.70800 42.90600 37.69200
N  51.97000 43.68900 42.05200
C  51.56600 42.47200 41.66600
C  52.62300 41.51100 41.64900
C  53.81100 42.20000 42.06300
C  53.32800 43.61800 42.28100
C  52.34500 40.09100 41.35700
C  55.17900 41.64500 42.27400
O  55.31400 40.42200 42.08500
C  56.38300 42.47200 42.91800
N  52.45900 46.61400 42.65400
C  53.65700 46.03700 43.01100
C  54.65000 47.10600 43.53800
C  53.91200 48.43000 43.36200
C  52.49900 47.93400 42.97700
C  55.16800 46.89100 45.04400
C  54.52200 49.40200 42.28000
C  54.65700 50.91100 42.82900
N  49.74400 47.16900 42.43300
C  50.09400 48.45600 42.68600
C  48.92000 49.35700 42.64700
C  47.88800 48.46600 42.20800
C  48.48800 47.18200 41.97500
C  48.90900 50.79500 42.91600
C  46.51000 48.47100 41.87600
O  45.63200 49.38100 41.88000
C  46.26200 46.98200 41.26500
C  44.97500 46.45800 41.83400
O  44.89600 45.87800 42.91800
O  43.94800 46.72900 40.96300
C  42.61000 46.15900 41.35400
H  50.10400 41.18700 40.94200
H  55.15600 44.57600 42.84500
H  51.50500 49.79900 43.33700
H  45.95000 43.77700 41.20400
H  47.67300 41.72800 40.20800
H  46.43500 41.97500 42.65200
H  48.21400 41.49200 42.73600
H  46.99600 40.58500 41.87400
H  47.08100 43.21100 38.65800
H  46.85000 44.95300 38.86000
H  44.75900 44.78800 38.70000
H  44.48200 43.39700 39.74500
H  51.87700 39.95300 40.38300
H  51.75000 39.63100 42.14600
H  53.27800 39.52700 41.37700
H  56.00500 42.94700 43.82400
H  56.51400 43.26000 42.17500
H  57.29600 41.88700 43.02800
H  55.56900 47.09900 42.95100
H  53.66000 48.97000 44.27400
H  56.25500 46.90200 45.12200
H  54.74700 45.93100 45.34200
H  54.65200 47.54100 45.75100
H  53.84600 49.53700 41.43600
H  55.50600 49.05800 41.96100
H  54.62600 51.05800 43.90900
H  53.92500 51.57500 42.37000
H  55.67400 51.23000 42.60200
H  49.81200 51.00200 43.49000
H  47.92000 51.07100 43.28100
H  49.03200 51.46100 42.06100
H  46.06000 47.04400 40.19500
H  41.97200 46.26500 40.47600
H  42.17700 46.69800 42.19700
H  42.68300 45.08700 41.53700
Mg -1.80100 35.16400 26.27600
C  -3.86500 33.75100 28.91200
C  -0.93100 37.66000 28.59800
C  -0.30500 36.96800 23.81300
C  -3.33500 33.05700 24.05000
N  -2.43000 35.66000 28.53100
C  -3.16500 34.82900 29.40200
C  -3.24200 35.45200 30.73400
C  -2.34100 36.72800 30.71100
C  -1.94400 36.76300 29.16000
C  -3.00200 37.97200 31.31500
C  -3.05700 34.40000 31.90400
C  -2.55300 34.99800 33.23400
H  -3.24800 34.44700 34.51000
N  -0.64900 36.98700 26.20000
C  -0.32300 37.76800 27.29400
C  0.59200 38.83400 26.79600
C  0.75300 38.63500 25.41200
C  -0.07900 37.50100 25.08300
C  1.13200 39.88200 27.77600
C  1.75800 39.34200 24.35300
O  1.66600 39.12500 23.16400
C  2.81000 40.33200 24.82500
N  -1.95400 35.07800 24.18100
C  -1.15500 35.82800 23.41700
C  -1.12400 35.28300 21.98100
C  -1.96000 34.04300 21.96700
C  -2.43400 33.98500 23.48700
C  -1.23500 36.34300 20.84700
C  -1.13200 32.83400 21.53000
C  -1.99200 31.60100 21.13800
N  -3.23600 33.60700 26.41500
C  -3.74600 32.82100 25.38300
C  -4.71400 31.88800 25.94900
C  -4.77700 32.23000 27.34600
C  -3.82200 33.20800 27.58000
C  -5.39600 30.73500 25.28100
C  -5.37300 31.85200 28.55200
O  -6.23400 30.99300 28.77800
C  -4.73900 32.76600 29.63200
C  -5.92100 33.44700 30.28600
O  -6.56300 34.36500 29.83000
O  -6.14800 32.84300 31.54600
C  -7.27400 33.27900 32.36800
H  -0.53000 38.30400 29.38300
H  0.19700 37.34200 22.91900
H  -3.68200 32.27800 23.36700
H  -4.29600 35.72700 30.76100
H  -1.37400 36.54000 31.17800
H  -2.26000 38.46100 31.94600
H  -3.84900 37.73500 31.96000
H  -3.35500 38.66600 30.55200
H  -2.31000 33.66900 31.59400
H  -3.98500 33.88800 32.15900
H  -2.77800 36.06300 33.28100
H  -1.48100 34.80000 33.21400
H  0.82200 40.85400 27.39000
H  2.22000 39.87500 27.71900
H  0.84600 39.93400 28.82600
H  3.48600 40.50800 23.98800
H  3.41600 39.90600 25.62400
H  2.38900 41.31400 25.04000
H  -0.05400 35.09700 21.89600
H  -2.93800 34.04000 21.48500
H  -1.82900 35.93600 20.02900
H  -0.27500 36.71500 20.49000
H  -1.78400 37.19700 21.24300
H  -0.58500 32.43200 22.38300
H  -0.43900 33.09700 20.73000
H  -1.55700 31.19400 20.22500
H  -3.03200 31.91100 21.03600
H  -1.95200 30.85400 21.93100
H  -4.53300 30.39600 24.70700
H  -6.18700 30.98300 24.57200
H  -5.62000 29.97000 26.02400
H  -4.17700 32.18200 30.36100
H  -8.05800 33.57300 31.67100
H  -6.91700 34.14100 32.93200
H  -7.58400 32.43300 32.98100

