158

Mg 24.18500 -4.66100 45.90300
C  26.33800 -2.47300 44.34700
C  21.73400 -3.53300 43.63200
C  22.48800 -7.49200 46.52700
C  26.95500 -5.93100 47.82400
N  24.04400 -3.24700 44.18300
C  25.02800 -2.37100 43.83000
C  24.60500 -1.30500 42.75100
C  23.06100 -1.39400 42.95200
C  22.87000 -2.79300 43.63400
C  22.50100 -0.28200 43.85500
C  25.14100 -1.82600 41.36200
C  25.88900 -0.82700 40.53200
H  25.77400 -0.92100 39.00200
N  22.27900 -5.47600 45.16800
C  21.49800 -4.78100 44.28100
C  20.24700 -5.50500 44.29900
C  20.42300 -6.72000 45.07900
C  21.74300 -6.61700 45.63400
C  19.12400 -5.08100 43.38400
C  19.45200 -7.90200 45.37100
O  18.29800 -7.87300 44.83300
C  19.85800 -9.19800 46.06000
N  24.68100 -6.46100 47.07000
C  23.74100 -7.36900 47.23900
C  24.25400 -8.42600 48.30700
C  25.53100 -7.73400 48.87200
C  25.84800 -6.68300 47.80300
C  23.29800 -8.83000 49.48400
C  26.76000 -8.78000 49.11300
C  27.56100 -8.62200 50.47700
N  26.19800 -4.24300 46.19500
C  27.20600 -4.78300 46.95400
C  28.45900 -4.09900 46.79500
C  28.14800 -3.25300 45.67300
C  26.79100 -3.33700 45.40200
C  29.73400 -4.42800 47.47600
C  28.76700 -2.33400 44.72900
O  29.89400 -2.00200 44.37700
C  27.58000 -1.77700 43.91800
C  27.58100 -0.26700 44.04000
O  27.18500 0.35700 45.00000
O  27.91400 0.21000 42.82700
C  28.20500 1.66700 42.82500
H  20.82300 -3.12300 43.19200
H  22.03700 -8.36300 47.00700
H  27.77100 -6.25200 48.47400
H  25.03400 -0.35700 43.07800
H  22.57100 -1.25700 41.98800
H  23.28200 0.31700 44.32200
H  21.95800 -0.72800 44.68900
H  21.81200 0.29000 43.23300
H  24.28600 -2.02300 40.71500
H  25.80700 -2.67500 41.52100
H  26.92400 -1.13000 40.69000
H  25.75800 0.20800 40.84400
H  19.31100 -5.52000 42.40400
H  19.07800 -3.99300 43.33200
H  18.16500 -5.49500 43.69500
H  19.20200 -9.99300 45.70800
H  19.75300 -9.03200 47.13200
H  20.85400 -9.45700 45.70000
H  24.47500 -9.37400 47.81700
H  25.37800 -7.27700 49.85000
H  23.84300 -8.87400 50.42700
H  23.00900 -9.88100 49.50300
H  22.44800 -8.14700 49.47900
H  27.43100 -8.84300 48.25600
H  26.34300 -9.78700 49.08700
H  28.37700 -7.94000 50.23600
H  27.99300 -9.55800 50.83000
H  26.81500 -8.20100 51.15000
H  30.40300 -5.00500 46.83700
H  29.46000 -4.97200 48.37900
H  30.26000 -3.50600 47.72500
H  27.87300 -1.97100 42.88600
H  27.76500 2.04000 41.90000
H  29.28100 1.84000 42.81400
H  27.81400 2.32800 43.59900
Mg 16.80800 51.46800 26.99900
C  18.88100 49.85800 29.26900
C  14.76000 52.31300 29.54200
C  14.80500 52.92700 24.64800
C  18.93000 50.37300 24.25800
N  16.83600 51.12800 29.22100
C  17.91300 50.58900 29.96000
C  17.66800 50.76100 31.48800
C  16.15600 51.13300 31.48900
C  15.83600 51.55600 30.01500
C  15.17800 50.04300 32.01600
C  18.52800 51.95100 31.95500
C  18.44500 52.18000 33.40500
H  17.74700 51.20400 34.33800
N  15.00800 52.43700 27.08200
C  14.30700 52.68100 28.29100
C  13.21800 53.56900 27.96300
C  13.11200 53.78600 26.51500
C  14.33200 53.01000 26.01300
C  12.33900 54.14200 29.12200
C  12.14300 54.56600 25.63700
O  12.14900 54.52800 24.42100
C  11.05100 55.23600 26.40800
N  16.96600 51.80200 24.82200
C  16.00900 52.40300 24.15400
C  16.29000 52.42600 22.61100
C  17.69200 51.72700 22.54600
C  17.88900 51.24200 23.99600
C  15.28000 51.78300 21.65100
C  18.81400 52.61700 21.96600
C  19.74500 51.97500 20.96800
N  18.42000 50.26400 26.78100
C  19.19600 49.96600 25.60900
C  20.34500 49.24200 26.08700
C  20.27600 49.09900 27.51000
C  19.13200 49.79100 27.83400
C  21.33800 48.59500 25.19700
C  20.84400 48.39400 28.65800
O  21.81800 47.60900 28.70600
C  20.03500 49.09900 29.91400
C  19.68900 48.08700 30.85200
O  19.07300 47.05900 30.64900
O  20.28400 48.39000 32.06200
C  20.06100 47.51700 33.21600
H  14.08900 52.47100 30.38900
H  14.18800 53.37800 23.86800
H  19.55100 49.97900 23.45000
H  17.88900 49.82000 31.99300
H  16.00600 52.03500 32.08200
H  15.69100 49.11800 32.27800
H  14.48300 49.70900 31.24600
H  14.56200 50.33300 32.86700
H  18.25900 52.91300 31.51800
H  19.57800 51.75300 31.73700
H  17.99800 53.17400 33.39200
H  19.45000 52.15500 33.82800
H  11.31900 53.86000 28.86200
H  12.38500 55.22100 28.97500
H  12.53000 53.90900 30.16900
H  10.24200 55.53800 25.74200
H  11.45900 56.15400 26.83200
H  10.58700 54.68600 27.22700
H  16.34800 53.46100 22.27400
H  17.73700 50.81100 21.95800
H  15.36400 50.69600 21.64300
H  15.40800 52.22200 20.66100
H  14.28900 52.12900 21.94400
H  19.38700 52.89000 22.85300
H  18.41100 53.54900 21.57100
H  20.77100 51.87500 21.32200
H  19.72400 52.57100 20.05500
H  19.40900 50.98000 20.67700
H  20.68500 48.18700 24.42500
H  21.91000 47.85600 25.75800
H  22.04500 49.35700 24.87100
H  20.74000 49.83300 30.30200
H  19.62500 48.17700 33.96600
H  21.00000 47.08400 33.56200
H  19.33900 46.72900 33.00000

