158

Mg 28.33300 58.21700 43.07800
C  25.84000 56.40200 41.36300
C  30.70400 56.42600 41.19900
C  30.55700 60.71900 43.65700
C  25.82600 60.19300 44.51200
N  28.26300 56.68000 41.51000
C  27.16200 56.01300 41.04400
C  27.59400 54.91400 39.96100
C  29.07700 54.72400 40.22800
C  29.34300 56.05000 40.98700
C  29.50200 53.45500 41.03300
C  27.31100 55.39900 38.54000
C  26.83400 54.26600 37.53900
H  27.59300 54.15100 36.13800
N  30.40900 58.46800 42.54200
C  31.18900 57.58600 41.93300
C  32.52600 58.11000 41.93600
C  32.54400 59.30400 42.66100
C  31.11900 59.57200 42.96700
C  33.65200 57.41700 41.15700
C  33.78800 60.22700 42.83000
O  34.96200 59.95300 42.77600
C  33.59200 61.70000 43.19900
N  28.28300 60.25000 43.76000
C  29.26400 61.03200 44.09000
C  28.86800 62.26200 44.97300
C  27.36900 62.00600 45.15800
C  27.11300 60.72000 44.41100
C  29.68600 62.38600 46.33900
C  26.43100 63.22900 44.83600
C  25.80000 63.21200 43.51700
N  26.24800 58.14800 43.12200
C  25.38900 59.08800 43.69400
C  24.02000 58.65500 43.47200
C  24.22200 57.54900 42.55600
C  25.55700 57.33200 42.30500
C  22.78300 59.24000 44.02800
C  23.38900 56.57600 41.78300
O  22.18700 56.42900 41.75200
C  24.47500 55.79800 40.88800
C  24.33000 54.31300 41.05200
O  24.85600 53.68500 41.95500
O  23.55200 53.71800 39.99500
C  23.60000 52.25100 39.94900
H  31.44100 55.80200 40.68800
H  31.30600 61.36900 44.11600
H  25.09800 60.78300 45.07300
H  26.98700 54.05300 40.24200
H  29.60200 54.58600 39.28300
H  30.06700 53.70900 41.93000
H  30.02500 52.73800 40.40000
H  28.73800 52.79300 41.44100
H  28.18700 55.84800 38.07300
H  26.65100 56.26700 38.53500
H  25.85900 54.66500 37.26100
H  26.70100 53.28900 38.00300
H  33.55000 56.33500 41.24800
H  34.58400 57.73200 41.62400
H  33.67900 57.77900 40.12900
H  32.69300 62.11700 42.74600
H  34.44500 62.32100 42.92500
H  33.41400 61.67600 44.27400
H  29.06700 63.12100 44.33200
H  27.16500 61.83100 46.21400
H  30.50700 63.08800 46.19100
H  30.12400 61.40600 46.52600
H  28.96100 62.63600 47.11300
H  27.04800 64.12800 44.84700
H  25.63800 63.42600 45.55800
H  25.82000 64.20600 43.06900
H  24.72100 63.08400 43.60100
H  26.23200 62.40800 42.92100
H  22.26200 59.80600 43.25600
H  22.89200 59.81600 44.94700
H  22.19900 58.34000 44.22300
H  24.28500 56.07100 39.84900
H  24.67100 52.09800 39.81800
H  23.04800 51.78100 39.13500
H  23.29400 51.80000 40.89200
Mg -6.19100 24.96400 26.18200
C  -4.60700 26.59600 28.96200
C  -7.73900 23.01100 28.42300
C  -7.24300 23.04100 23.70300
C  -3.97000 26.61100 24.11300
N  -6.05000 24.85600 28.36800
C  -5.45600 25.58100 29.26800
C  -5.80800 25.26100 30.74800
C  -6.52000 23.93100 30.50100
C  -6.78500 23.90300 29.01200
C  -5.87400 22.58400 31.05800
C  -6.50400 26.38000 31.46600
C  -5.93900 26.78100 32.86600
H  -5.14200 25.75200 33.67600
N  -7.46500 23.36700 26.08500
C  -8.06900 22.75700 27.10700
C  -8.98900 21.81300 26.63900
C  -8.92100 21.82600 25.28300
C  -7.85700 22.78600 24.94600
C  -9.80300 20.91400 27.54000
C  -9.67700 20.99500 24.25400
O  -9.43000 21.03700 23.00900
C  -10.76300 20.13000 24.65000
N  -5.81000 24.96000 24.14600
C  -6.22700 23.91000 23.37500
C  -5.51100 23.87500 22.02100
C  -4.56400 25.19100 22.10000
C  -4.75000 25.60600 23.55300
C  -4.82600 22.50400 21.78000
C  -4.84200 26.29600 21.02700
C  -3.71700 26.59100 20.04500
N  -4.66000 26.48300 26.41300
C  -3.90100 26.98100 25.47900
C  -3.02800 27.96900 25.97100
C  -3.26100 27.87400 27.39600
C  -4.24800 26.92600 27.61600
C  -2.13100 28.92400 25.22300
C  -2.95000 28.38600 28.74100
O  -2.19000 29.29200 29.08100
C  -3.73600 27.49100 29.81100
C  -2.55500 26.86700 30.53600
O  -2.12000 25.69700 30.41200
O  -2.20600 27.63900 31.53500
C  -1.25800 27.09400 32.55000
H  -8.28900 22.41700 29.15600
H  -7.66500 22.68700 22.76000
H  -3.22300 27.12800 23.50800
H  -4.94100 24.93100 31.32000
H  -7.47900 23.95200 31.01800
H  -5.56700 21.91600 30.25400
H  -6.61300 22.03400 31.64200
H  -5.00200 22.78900 31.67900
H  -7.55200 26.13900 31.64500
H  -6.58500 27.26200 30.83000
H  -6.88000 26.91400 33.40000
H  -5.31100 27.66800 32.93800
H  -10.85300 20.94000 27.24700
H  -9.69400 21.09000 28.61000
H  -9.50300 19.88500 27.34200
H  -10.44900 19.34400 25.33700
H  -11.11100 19.60700 23.75900
H  -11.50200 20.83000 25.03900
H  -6.22400 23.90500 21.19700
H  -3.52100 24.87600 22.11900
H  -3.80700 22.81800 21.55200
H  -5.32500 21.97200 20.97000
H  -4.86100 22.01000 22.75000
H  -5.16100 27.13500 21.64600
H  -5.73700 25.88600 20.55800
H  -2.84000 25.94900 20.12900
H  -3.41000 27.63500 19.99400
H  -4.13500 26.41400 19.05400
H  -2.81900 29.65900 24.80400
H  -1.62100 28.42600 24.39900
H  -1.33600 29.32500 25.85200
H  -4.39700 28.08800 30.43900
H  -0.28600 26.98900 32.06800
H  -1.55000 26.10900 32.91300
H  -1.26200 27.82300 33.36000

