158

Mg 42.64600 41.70200 26.47500
C  42.03100 44.15600 29.01900
C  43.61000 39.57200 29.08800
C  43.68900 39.51100 24.24700
C  42.31000 44.10900 24.11800
N  42.80800 41.88300 28.85000
C  42.50600 43.02700 29.59500
C  42.61900 42.68900 31.11900
C  43.35300 41.23200 31.10000
C  43.19500 40.80700 29.61500
C  44.87200 41.35000 31.52000
C  41.09100 42.58400 31.78900
C  40.91500 43.32600 33.15700
H  40.09100 42.68300 34.20800
N  43.32600 39.71500 26.65100
C  43.67800 39.05800 27.78400
C  44.08300 37.68100 27.42300
C  44.23900 37.72900 26.00100
C  43.73800 39.01400 25.59500
C  44.54800 36.70400 28.44700
C  44.67200 36.65700 25.02300
O  44.64800 36.76000 23.81800
C  45.39100 35.41800 25.52100
N  43.13900 41.80900 24.41100
C  43.36000 40.73400 23.70900
C  43.57300 41.14700 22.21600
C  42.79600 42.42500 22.18000
C  42.76100 42.87700 23.61900
C  45.05600 41.20300 21.79700
C  41.37400 42.39100 21.48100
C  40.35300 41.24600 21.79900
N  42.22100 43.69800 26.50600
C  42.12400 44.54600 25.42500
C  41.71000 45.82300 25.81400
C  41.52300 45.66600 27.18200
C  41.99300 44.39700 27.63400
C  41.26100 47.00000 24.90700
C  41.14800 46.29800 28.43000
O  40.75300 47.43500 28.56200
C  41.41300 45.35700 29.60200
C  42.34700 46.04300 30.44200
O  43.53500 46.29100 30.11700
O  41.80200 46.39700 31.64300
C  42.66700 47.02800 32.67600
H  44.07600 38.94400 29.84900
H  43.75100 38.81100 23.41200
H  42.18200 44.82800 23.30600
H  43.26400 43.35200 31.69600
H  42.79500 40.56900 31.76200
H  44.95700 40.78200 32.44600
H  45.16000 42.39500 31.63300
H  45.57500 40.98700 30.77000
H  40.88100 41.59500 32.19600
H  40.33200 42.84600 31.05200
H  40.25000 44.18200 33.04300
H  41.87600 43.55500 33.61800
H  44.96500 35.78200 28.04200
H  43.74200 36.31200 29.06900
H  45.32400 37.10700 29.09700
H  45.83500 34.86700 24.69200
H  44.71100 34.80600 26.11200
H  46.26900 35.76000 26.07000
H  43.02600 40.43600 21.59600
H  43.46100 43.12100 21.66900
H  45.74500 40.70800 22.48200
H  45.42600 42.20100 21.56300
H  45.15600 40.69900 20.83600
H  41.37700 42.56400 20.40500
H  40.99500 43.35800 21.81200
H  39.98700 40.62400 20.98300
H  39.62100 41.68200 22.47800
H  40.80300 40.58400 22.54000
H  40.58900 47.66700 25.44700
H  40.81200 46.65400 23.97600
H  42.13800 47.59100 24.64100
H  40.54300 45.18600 30.23700
H  42.42800 48.07400 32.86500
H  43.74700 46.88300 32.63000
H  42.39200 46.53600 33.60900
Mg 17.69700 53.19400 26.00900
C  19.61100 51.84500 28.59400
C  15.59400 54.26600 28.46100
C  15.51300 53.98200 23.60700
C  19.87700 51.87500 23.69200
N  17.70800 53.16400 28.33200
C  18.50100 52.45200 29.17900
C  18.10200 52.63600 30.68400
C  16.66100 53.21900 30.58400
C  16.60300 53.56800 29.05400
C  15.52400 52.19000 30.95400
C  19.01300 53.63600 31.41200
C  19.45900 53.45500 32.85900
H  18.48700 52.87100 33.89400
N  15.81500 54.07000 25.99500
C  15.19000 54.58900 27.09500
C  13.93000 55.19200 26.65700
C  13.77500 54.91500 25.28300
C  15.04100 54.29500 24.87700
C  13.02300 55.74300 27.65200
C  12.58900 55.08400 24.41900
O  12.51500 54.60800 23.33900
C  11.34700 55.87100 24.85100
N  17.68300 53.03500 23.95500
C  16.69100 53.47900 23.18500
C  17.08700 53.38300 21.64200
C  18.56700 52.73100 21.72000
C  18.79600 52.59000 23.22500
C  16.07800 52.64500 20.76700
C  19.66800 53.62300 21.03900
C  20.34100 52.97500 19.83900
N  19.36500 52.12600 26.04400
C  20.17600 51.62000 25.05900
C  21.30200 50.89600 25.62500
C  21.14600 51.13800 27.02300
C  19.95000 51.79400 27.21500
C  22.51300 50.34500 24.87400
C  21.70600 50.86300 28.39200
O  22.75200 50.39300 28.75600
C  20.64000 51.19100 29.38900
C  20.28800 49.94700 30.08100
O  19.61600 49.09500 29.62400
O  20.66400 49.94700 31.41900
C  20.14100 48.88900 32.25000
H  14.99000 54.75600 29.22700
H  14.82900 54.37400 22.85100
H  20.44200 51.33200 22.93100
H  18.12800 51.64500 31.13600
H  16.52700 54.14100 31.15100
H  15.70200 51.66700 31.89400
H  15.43300 51.49500 30.11900
H  14.58400 52.73100 31.06900
H  18.56800 54.63100 31.38500
H  19.91000 53.61800 30.79300
H  19.86300 54.40800 33.20100
H  20.36700 52.85400 32.90700
H  12.47200 56.60000 27.26700
H  13.42300 56.11500 28.59500
H  12.37900 54.95900 28.05200
H  10.84900 55.33800 25.66100
H  10.60100 55.90900 24.05700
H  11.61100 56.88900 25.13700
H  17.08500 54.37500 21.18900
H  18.44200 51.68200 21.45200
H  15.08900 52.69900 21.22200
H  16.24800 51.59000 20.55100
H  15.99500 53.12000 19.78900
H  20.39900 53.74400 21.83800
H  19.05500 54.47300 20.73600
H  21.35100 52.70700 20.14700
H  20.32400 53.67000 19.00000
H  19.83600 52.15400 19.32800
H  22.79600 49.29800 24.98500
H  23.43000 50.88200 25.11600
H  22.36200 50.51800 23.80800
H  21.07200 51.90800 30.08600
H  20.99500 48.58000 32.85300
H  19.77400 48.04600 31.66400
H  19.31700 49.26300 32.85700

