158

Mg 44.71100 4.51600 48.16200
C  42.24100 6.88200 47.47400
C  42.25600 1.98800 48.17900
C  47.11100 2.16700 48.27000
C  47.20600 6.95600 47.60800
N  42.49300 4.48200 47.79200
C  41.73100 5.55800 47.60600
C  40.30000 5.16300 47.38500
C  40.19100 3.62800 47.78100
C  41.71900 3.27400 47.93100
C  39.38700 3.40500 49.10700
C  40.05400 5.38300 45.83400
C  39.00300 6.44600 45.51300
H  39.32000 7.36600 44.31900
N  44.67800 2.32700 48.24100
C  43.60100 1.51100 48.23400
C  44.08900 0.16500 48.21200
C  45.51400 0.13000 48.19900
C  45.85600 1.58200 48.26500
C  43.05100 -1.01900 47.97800
C  46.33200 -1.14000 48.12700
O  45.78500 -2.24800 48.08400
C  47.86600 -1.12300 48.11000
N  46.85400 4.59200 47.65200
C  47.54500 3.51400 48.15900
C  49.04200 3.77300 48.38400
C  49.11200 5.33900 48.07000
C  47.66200 5.66800 47.79000
C  49.72100 3.34500 49.73300
C  50.08100 5.92900 46.99700
C  51.45800 6.22100 47.42600
N  44.71000 6.50100 47.68100
C  45.88800 7.40600 47.57100
C  45.27100 8.74400 47.35400
C  43.87000 8.54000 47.46200
C  43.56500 7.17700 47.55800
C  46.00900 9.99200 46.93700
C  42.65000 9.23700 47.32900
O  42.44400 10.43200 47.08600
C  41.53200 8.19100 47.33000
C  40.58200 8.50000 48.43100
O  40.57700 8.00500 49.53900
O  39.62900 9.37600 47.94100
C  38.67900 9.92700 48.95200
H  41.45400 1.25600 48.07000
H  47.94300 1.52300 48.56000
H  48.02800 7.67500 47.61000
H  39.58300 5.81700 47.88200
H  39.82900 3.00700 46.96200
H  38.68800 2.60000 48.88000
H  38.87200 4.33000 49.36400
H  39.96200 3.04400 49.96000
H  39.67900 4.45900 45.39300
H  41.00900 5.66600 45.39200
H  38.69500 6.95900 46.42500
H  38.14700 5.93400 45.07400
H  43.32600 -1.61700 47.10900
H  42.02200 -0.70300 47.81000
H  43.11200 -1.55100 48.92700
H  48.24000 -0.55300 47.26000
H  48.34600 -2.10200 48.09700
H  48.04100 -0.54000 49.01400
H  49.62200 3.24200 47.63000
H  49.45200 5.67300 49.05100
H  50.48200 4.07100 50.01900
H  50.37100 2.51600 49.45400
H  49.11400 3.14100 50.61500
H  49.58700 6.72900 46.44500
H  50.13100 5.08200 46.31400
H  51.71600 7.24800 47.17000
H  52.21000 5.65400 46.87900
H  51.72600 6.03800 48.46700
H  46.85000 10.31100 47.55300
H  45.25700 10.78200 46.93500
H  46.42900 9.68500 45.97900
H  41.19400 8.15500 46.29500
H  37.70900 10.30800 48.63000
H  39.21800 10.78700 49.35100
H  38.51200 9.28000 49.81300
Mg 35.85300 1.62600 30.52000
C  33.58900 2.71500 33.15000
C  38.28200 1.57000 32.88500
C  38.01600 1.20400 28.08100
C  33.16600 2.04600 28.27300
N  35.91800 2.18900 32.82900
C  34.86300 2.42700 33.65400
C  35.27800 2.48300 35.17300
C  36.87300 2.50500 34.93000
C  37.10600 2.03700 33.51400
C  37.58500 3.86200 35.20100
C  34.64400 1.29900 35.96000
C  33.80100 1.51600 37.22500
H  34.11100 2.76800 38.01500
N  37.85400 1.47300 30.46600
C  38.62100 1.29400 31.62000
C  39.96700 0.80200 31.23800
C  39.92400 0.77500 29.77400
C  38.61300 1.25500 29.34800
C  41.10300 0.53300 32.16500
C  41.05000 0.41800 28.75700
O  40.90800 0.59500 27.57100
C  42.27600 -0.05500 29.35100
N  35.52500 1.67300 28.44300
C  36.66200 1.45100 27.67200
C  36.24700 1.44700 26.12300
C  34.68000 1.37700 26.27900
C  34.38800 1.68600 27.71300
C  36.75700 2.61700 25.29300
C  34.12700 -0.05600 25.91800
C  32.90900 0.01900 24.95200
N  33.76000 2.26800 30.61800
C  32.80600 2.24100 29.64400
C  31.52500 2.62600 30.15900
C  31.74500 2.74500 31.55400
C  33.19200 2.57500 31.77400
C  30.25500 2.60700 29.42600
C  31.16000 2.99800 32.82800
O  29.97500 3.12300 33.13300
C  32.29400 3.10500 33.84900
C  32.21000 4.53100 34.27700
O  32.71200 5.49500 33.64200
O  31.46700 4.68800 35.42500
C  31.46200 6.05000 36.05600
H  39.11500 1.56200 33.59100
H  38.66900 0.94200 27.24600
H  32.23200 2.03100 27.70700
H  34.96900 3.43300 35.60800
H  37.28400 1.74400 35.59300
H  36.93900 4.54200 35.75600
H  37.79100 4.20500 34.18700
H  38.48600 3.69900 35.79200
H  35.44800 0.64500 36.29900
H  34.05900 0.76200 35.21300
H  33.95800 0.63800 37.85200
H  32.75200 1.40300 36.94900
H  42.00500 1.06600 31.86100
H  41.33900 -0.53100 32.17600
H  40.81900 0.91300 33.14600
H  42.83400 0.78300 29.76900
H  42.82300 -0.49900 28.51900
H  42.25700 -0.85300 30.09400
H  36.67500 0.53800 25.70100
H  34.21800 2.20900 25.74600
H  37.09800 2.30700 24.30500
H  37.62500 2.99000 25.83700
H  35.99800 3.39800 25.25800
H  33.83000 -0.53100 26.85300
H  34.92500 -0.67700 25.51100
H  33.23100 -0.51800 24.06000
H  32.52400 1.00600 24.69400
H  32.11500 -0.58200 25.39600
H  29.43400 2.24900 30.04800
H  30.33500 1.81700 28.68000
H  29.99600 3.54400 28.93200
H  32.03000 2.57600 34.76400
H  31.70700 6.06300 37.11800
H  30.43400 6.38300 35.91300
H  32.11700 6.84700 35.70300

