158

Mg -0.08800 44.01200 26.01400
C  1.79900 43.30700 28.88100
C  -2.96500 43.77100 27.98400
C  -1.86200 43.96800 23.15400
C  2.84300 44.22100 24.28500
N  -0.53900 43.42400 28.12800
C  0.38700 43.25100 29.11800
C  -0.24200 43.21400 30.49100
C  -1.75200 43.09000 30.05800
C  -1.74500 43.51800 28.65200
C  -2.24500 41.65500 30.15800
C  0.03100 44.60900 31.25400
C  0.44900 44.63400 32.75100
H  -0.01200 43.56900 33.68000
N  -2.17200 43.84600 25.64100
C  -3.15300 43.80700 26.59000
C  -4.39000 43.78200 25.82700
C  -4.11100 43.71000 24.43400
C  -2.64800 43.86300 24.39300
C  -5.66500 43.90400 26.51200
C  -5.06400 43.64900 23.26600
O  -4.76000 43.60700 22.07500
C  -6.51900 43.43300 23.53800
N  0.47600 44.05400 24.05600
C  -0.43600 44.04400 23.03200
C  0.28000 44.05500 21.62200
C  1.69700 44.55600 22.05000
C  1.71800 44.27300 23.56300
C  0.33900 42.62100 20.95100
C  1.97900 46.06100 21.80200
C  0.81100 47.00900 22.00000
N  1.94700 43.87200 26.50700
C  3.01300 43.99800 25.64800
C  4.25200 44.05300 26.35900
C  3.84500 43.63200 27.66000
C  2.44100 43.58900 27.71400
C  5.66600 44.34500 25.79300
C  4.32500 43.39200 28.99400
O  5.46500 43.42400 29.53900
C  2.98000 43.28700 29.87300
C  3.08900 41.98100 30.73900
O  2.89500 40.79500 30.42000
O  3.47700 42.31800 32.03900
C  3.84300 41.33100 33.03800
H  -3.78000 43.49400 28.65500
H  -2.39800 43.93900 22.20300
H  3.82700 44.19100 23.81200
H  0.13500 42.35200 31.04100
H  -2.46700 43.70900 30.59900
H  -2.92000 41.61700 31.01400
H  -1.41300 40.96900 30.31700
H  -2.77200 41.16600 29.33900
H  -0.90600 45.16200 31.19000
H  0.69000 45.15000 30.57500
H  0.11100 45.57100 33.19400
H  1.53200 44.52300 32.80700
H  -6.00900 44.93700 26.46600
H  -5.56600 43.56500 27.54300
H  -6.43700 43.29700 26.03800
H  -6.63500 42.51700 24.11700
H  -7.03700 43.32200 22.58600
H  -6.94000 44.29800 24.05000
H  -0.19600 44.71800 20.89900
H  2.52200 44.09900 21.50400
H  0.73400 41.91300 21.67900
H  1.06700 42.65900 20.14100
H  -0.58900 42.13300 20.65300
H  2.20000 46.16600 20.73900
H  2.84600 46.26300 22.43100
H  0.26400 47.19900 21.07600
H  1.23300 47.89900 22.46700
H  0.17400 46.53800 22.74800
H  6.29700 44.51400 26.66600
H  5.62800 45.24900 25.18600
H  5.92100 43.42500 25.26700
H  2.95800 44.14400 30.54600
H  4.24300 40.41000 32.61400
H  2.98800 41.11100 33.67700
H  4.70200 41.59500 33.65500
Mg -5.52300 25.87100 25.61800
C  -4.61200 27.27900 28.62500
C  -7.16800 23.47200 27.40300
C  -5.76400 24.21200 22.78800
C  -3.16000 28.13500 24.19900
N  -5.75800 25.36000 27.79000
C  -5.38300 26.12700 28.80800
C  -5.78700 25.57700 30.23400
C  -6.44900 24.22300 29.79300
C  -6.43300 24.30300 28.26000
C  -5.69500 22.92200 30.28200
C  -6.77300 26.51400 31.13600
C  -6.80300 26.17800 32.69000
H  -5.90400 24.98900 33.29200
N  -6.53300 24.20600 25.16300
C  -7.22800 23.38800 25.94900
C  -7.92400 22.43400 25.18500
C  -7.55500 22.61200 23.85000
C  -6.60000 23.75600 23.86000
C  -8.89600 21.50100 25.73000
C  -8.02200 21.85100 22.59100
O  -7.54800 22.20000 21.50900
C  -9.14900 20.81200 22.69000
N  -4.64300 26.22000 23.76300
C  -4.88300 25.37400 22.70500
C  -3.95100 25.70200 21.49200
C  -3.55800 27.18200 21.89700
C  -3.69100 27.12200 23.42000
C  -2.72300 24.73900 21.33200
C  -4.43300 28.25700 21.34100
C  -3.70700 29.46700 20.53100
N  -4.26700 27.48400 26.21500
C  -3.39900 28.27600 25.51200
C  -2.85700 29.27600 26.36800
C  -3.33700 28.87300 27.64900
C  -4.16800 27.78800 27.44900
C  -1.82800 30.33900 26.04600
C  -3.22500 29.18400 29.04600
O  -2.68700 30.19600 29.58800
C  -4.03000 28.19400 29.71800
C  -3.10800 27.59000 30.70000
O  -2.26400 26.73600 30.42500
O  -3.24200 28.13600 31.99700
C  -2.23200 27.76000 33.06100
H  -7.74700 22.74200 27.97200
H  -5.84700 23.59600 21.89000
H  -2.39400 28.80200 23.79700
H  -4.87800 25.37300 30.80100
H  -7.42900 24.12200 30.26000
H  -4.84600 23.06900 30.95000
H  -5.28300 22.44800 29.39100
H  -6.41000 22.28300 30.80000
H  -7.72900 26.21900 30.70300
H  -6.65200 27.57200 30.90300
H  -7.85500 26.18600 32.97600
H  -6.39200 27.03200 33.22800
H  -8.70600 20.46900 25.43500
H  -9.90000 21.80800 25.43800
H  -8.81900 21.36800 26.80900
H  -9.46200 20.53300 21.68400
H  -9.91500 21.45300 23.12500
H  -8.96700 19.89800 23.25600
H  -4.50700 25.74300 20.55600
H  -2.49000 27.26200 21.69400
H  -1.85300 25.31100 21.01100
H  -2.90900 24.03200 20.52400
H  -2.50700 24.10200 22.18900
H  -4.97400 28.78000 22.13000
H  -5.25000 27.94900 20.69000
H  -3.97100 29.40600 19.47600
H  -2.66100 29.31000 20.79800
H  -4.04900 30.44100 20.88200
H  -2.36600 31.28000 26.16700
H  -1.40100 30.25000 25.04800
H  -1.15800 30.28300 26.90400
H  -4.82400 28.67100 30.29200
H  -1.25800 27.59600 32.60000
H  -2.64400 26.79200 33.34600
H  -2.25500 28.53600 33.82700

