158

Mg 1.77100 -1.44300 44.54900
C  5.24500 -0.82200 44.04400
C  1.11800 1.22900 42.65100
C  -1.48800 -2.34800 44.78300
C  2.77600 -4.46600 46.19100
N  3.04100 -0.11200 43.24400
C  4.41700 -0.00000 43.25900
C  4.90500 1.16700 42.39400
C  3.56700 2.01200 42.25100
C  2.51000 0.99600 42.69900
C  3.41500 3.30200 43.06900
C  5.49300 0.61700 41.08500
C  6.86500 1.23600 40.72900
H  7.16600 1.61100 39.30100
N  0.06900 -0.66800 43.80400
C  0.02200 0.52500 43.09000
C  -1.33900 0.88900 42.93200
C  -2.15500 -0.12300 43.57200
C  -1.20300 -1.08700 44.12300
C  -1.78700 2.17800 42.25800
C  -3.73100 -0.12700 43.65100
O  -4.30400 0.77900 43.07300
C  -4.52800 -1.18900 44.27900
N  0.74200 -3.20800 45.27300
C  -0.61500 -3.36400 45.27000
C  -1.09500 -4.76700 45.91400
C  0.35700 -5.30400 46.39700
C  1.34600 -4.29500 45.85300
C  -2.19900 -4.73800 46.99400
C  0.55000 -6.78700 45.80300
C  -0.38400 -7.96300 46.36900
N  3.60300 -2.44400 45.19400
C  3.84200 -3.63700 45.84000
C  5.29700 -3.76400 46.05900
C  5.87600 -2.68300 45.39900
C  4.81600 -1.96000 44.86600
C  6.01100 -4.91700 46.79200
C  7.13400 -2.03100 44.99200
O  8.25100 -2.46000 45.22500
C  6.73300 -0.76600 44.16200
C  7.14800 0.49100 44.90800
O  6.89400 0.71900 46.05100
O  7.82100 1.39100 44.07200
C  8.03100 2.72700 44.66800
H  0.83800 2.17000 42.17300
H  -2.54600 -2.55700 44.95300
H  2.94300 -5.44800 46.63700
H  5.62800 1.79700 42.91100
H  3.43300 2.36100 41.22700
H  4.34500 3.73200 43.44000
H  2.76000 3.19900 43.93400
H  2.91800 4.09300 42.50800
H  4.84100 0.83500 40.23800
H  5.60200 -0.46300 41.18800
H  7.61600 0.45800 40.86800
H  7.16400 2.07300 41.36100
H  -2.69300 2.49900 42.77100
H  -2.05900 1.87300 41.24700
H  -0.99600 2.92700 42.31600
H  -4.41600 -2.17200 43.81900
H  -5.60600 -1.03500 44.32500
H  -4.16200 -1.19900 45.30500
H  -1.36600 -5.31500 45.01100
H  0.34600 -5.27400 47.48600
H  -1.88200 -5.09200 47.97500
H  -3.12400 -5.29400 46.84000
H  -2.43700 -3.67500 46.95600
H  1.59500 -7.01700 46.01300
H  0.44600 -6.70100 44.72100
H  -1.03800 -7.56000 47.14300
H  0.28900 -8.72300 46.76600
H  -1.04000 -8.39000 45.61100
H  5.46700 -5.84300 46.97800
H  6.29100 -4.57000 47.78600
H  6.83900 -5.22900 46.15500
H  7.03400 -0.87300 43.12000
H  7.84200 3.49300 43.91500
H  9.05300 2.72100 45.04600
H  7.40900 2.97000 45.53000
Mg 49.44200 34.99100 28.16800
C  47.28600 33.49900 30.44300
C  49.62600 37.83600 30.13700
C  51.24200 36.46300 25.77300
C  49.14100 32.09100 26.24200
N  48.53600 35.57200 29.97900
C  47.84300 34.73300 30.87100
C  47.97400 35.25600 32.35500
C  48.26200 36.81400 32.07500
C  48.81400 36.75400 30.65700
C  47.01800 37.76100 32.32800
C  49.18000 34.56700 33.12500
C  49.27400 34.69000 34.69200
H  48.24600 35.49600 35.40600
N  50.37900 36.88300 27.99300
C  50.28400 37.90600 28.89800
C  51.14100 38.96400 28.45800
C  51.65800 38.61100 27.12100
C  51.10300 37.25400 26.85000
C  51.32700 40.25500 29.29200
C  52.61300 39.33200 26.23200
O  53.00100 38.86800 25.18400
C  52.98400 40.73000 26.57000
N  49.95700 34.43300 26.13300
C  50.82400 35.16700 25.39300
C  51.32000 34.31600 24.20100
C  50.76200 32.88900 24.50600
C  49.87400 33.16400 25.69100
C  50.98700 34.91500 22.85800
C  51.88000 31.83200 24.79000
C  51.83900 30.58800 23.86000
N  48.29400 33.23100 28.17700
C  48.30800 32.16700 27.36500
C  47.57100 31.13300 27.90500
C  47.05500 31.61800 29.06200
C  47.50600 32.92700 29.21400
C  47.43600 29.74600 27.39900
C  46.16000 31.38500 30.13400
O  45.50200 30.44100 30.45600
C  46.17700 32.65700 31.14800
C  46.53600 32.25500 32.52500
O  47.47900 31.58800 32.84500
O  45.47200 32.60900 33.36500
C  45.69000 32.45200 34.80100
H  49.68200 38.74800 30.73500
H  51.89300 36.80200 24.96400
H  49.42900 31.15800 25.75300
H  47.01900 35.02600 32.82600
H  49.09100 37.20600 32.66500
H  46.56800 38.11000 31.39900
H  47.18300 38.68900 32.87500
H  46.28200 37.10400 32.79200
H  50.12000 35.02000 32.81000
H  49.15800 33.53000 32.78900
H  50.20900 35.21200 34.89400
H  49.27700 33.69100 35.12800
H  52.38900 40.49800 29.33700
H  50.93900 40.33500 30.30700
H  50.93400 41.08400 28.70400
H  51.99100 41.16300 26.68900
H  53.47800 41.13800 25.68800
H  53.70400 40.69500 27.38700
H  52.40300 34.42400 24.24800
H  50.20100 32.47500 23.66800
H  51.97000 35.03100 22.40200
H  50.41100 35.82000 23.05200
H  50.40800 34.23300 22.23500
H  51.90400 31.57000 25.84700
H  52.83800 32.32100 24.61300
H  51.44900 29.82600 24.53500
H  52.80500 30.30100 23.44200
H  51.10500 30.75600 23.07200
H  48.08100 29.05400 27.94000
H  47.91800 29.79500 26.42200
H  46.40900 29.38400 27.35900
H  45.18500 33.10300 31.22300
H  46.76900 32.43200 34.95200
H  45.25500 31.55500 35.24200
H  45.40000 33.34900 35.34900

