158

Mg 36.73400 2.45700 30.19800
C  33.90300 3.22300 32.37100
C  38.66100 2.48000 32.87800
C  39.15200 1.54400 28.13500
C  34.48500 2.70600 27.38700
N  36.30500 2.87300 32.36000
C  35.10000 3.02600 33.07700
C  35.29400 2.88800 34.62100
C  36.89100 2.90100 34.70400
C  37.30400 2.77100 33.20900
C  37.38700 4.23600 35.39100
C  34.56000 1.68000 35.22800
C  34.25200 1.66500 36.80300
H  34.88300 2.80200 37.72900
N  38.75600 2.20800 30.41600
C  39.33000 2.23500 31.60900
C  40.76400 1.88600 31.46600
C  40.96700 1.50100 30.09700
C  39.59500 1.78200 29.46400
C  41.66200 1.87100 32.68900
C  42.14500 0.82300 29.33400
O  42.07300 0.69600 28.08800
C  43.34200 0.25100 30.09300
N  36.81700 2.32600 28.00200
C  37.94000 1.79800 27.46700
C  37.76900 1.54000 25.97200
C  36.25100 1.75900 25.73700
C  35.81500 2.30600 27.09600
C  38.74800 2.41400 25.12400
C  35.49600 0.48600 25.22700
C  35.04800 -0.57200 26.25200
N  34.63500 2.78900 29.84100
C  33.92000 2.94300 28.67400
C  32.55800 3.28400 28.98600
C  32.55000 3.40300 30.38100
C  33.82500 3.11300 30.87800
C  31.47300 3.39100 27.97600
C  31.69700 3.79800 31.53400
O  30.50100 4.21300 31.56000
C  32.50000 3.62000 32.84400
C  32.51500 4.83100 33.75200
O  32.72200 6.01800 33.40100
O  32.02500 4.56100 35.02400
C  32.23700 5.61600 35.97700
H  39.32500 2.66200 33.72600
H  39.72600 0.91200 27.45400
H  33.89000 2.95000 26.50500
H  34.89300 3.68000 35.25500
H  37.17900 2.07700 35.35700
H  37.52500 4.25600 36.47200
H  36.78200 5.09900 35.11300
H  38.28800 4.56600 34.87400
H  35.10400 0.77800 34.94700
H  33.65000 1.55500 34.64000
H  34.52600 0.64200 37.06100
H  33.19200 1.64900 37.05900
H  41.27300 1.18100 33.43800
H  41.70600 2.88300 33.09300
H  42.67100 1.58900 32.39200
H  43.04000 -0.18000 31.04800
H  44.05600 1.07300 30.13800
H  43.78300 -0.48900 29.42400
H  38.07800 0.50600 25.81800
H  36.07900 2.55600 25.01300
H  39.38900 3.13300 25.63400
H  38.29800 2.96500 24.29800
H  39.39600 1.77100 24.52800
H  36.07300 -0.09400 24.50600
H  34.72300 0.85000 24.55100
H  35.51400 -1.54800 26.12200
H  34.01100 -0.71400 25.94700
H  35.04800 -0.20200 27.27700
H  31.17400 2.42100 27.57900
H  31.64900 4.10700 27.17400
H  30.50300 3.56800 28.44300
H  32.00600 2.89600 33.49400
H  33.23600 6.01000 35.78800
H  32.30000 5.33000 37.02700
H  31.54000 6.41000 35.70700
Mg 29.86100 57.91500 40.24700
C  27.03500 55.92000 39.16500
C  31.84800 55.29400 39.00000
C  32.43800 59.87300 40.39300
C  27.66700 60.64700 40.53300
N  29.52900 55.93000 39.08100
C  28.31300 55.30300 38.88300
C  28.46600 53.83100 38.52700
C  29.94800 53.54900 38.56900
C  30.46500 55.01800 38.86800
C  30.46700 52.43600 39.55000
C  27.83300 53.46000 37.05400
C  28.47400 54.22200 35.82100
H  27.57500 55.29600 35.14200
N  31.96400 57.58900 39.95200
C  32.57900 56.48000 39.38500
C  34.00000 56.71800 39.42900
C  34.21600 58.00700 39.96800
C  32.84000 58.50800 40.16200
C  34.93900 55.64500 38.96600
C  35.55300 58.70300 40.23500
O  36.58900 58.12000 39.94900
C  35.71900 60.05900 40.80500
N  30.06400 59.99400 40.29000
C  31.25800 60.51000 40.52300
C  31.19900 62.02600 40.91300
C  29.67900 62.31400 40.78700
C  29.05900 60.92100 40.55000
C  31.74500 62.34800 42.31600
C  29.35000 63.21300 39.55000
C  28.38100 64.33100 39.93600
N  27.73700 58.27700 40.10000
C  27.00800 59.42000 40.19500
C  25.64900 59.11200 39.87800
C  25.60500 57.73400 39.53300
C  26.93800 57.30300 39.62900
C  24.48100 60.09400 39.92400
C  24.68200 56.54200 39.21600
O  23.43700 56.57400 39.12800
C  25.61300 55.37000 38.90700
C  25.25400 54.27800 39.85100
O  25.72500 54.07000 40.95900
O  24.34700 53.41300 39.27200
C  23.94900 52.22100 40.07200
H  32.45200 54.40500 38.80900
H  33.28900 60.55500 40.45200
H  27.01600 61.49300 40.76400
H  27.95000 53.21600 39.26500
H  30.29300 53.22500 37.58600
H  30.52300 53.02400 40.46700
H  31.44800 52.08000 39.23300
H  29.75700 51.60900 39.56400
H  26.81700 53.83900 37.16500
H  27.97500 52.38100 36.99300
H  28.73800 53.52600 35.02500
H  29.35800 54.75600 36.16900
H  35.79500 55.92700 38.35300
H  34.53000 54.78100 38.44300
H  35.42100 55.32500 39.89000
H  35.20100 60.20800 41.75300
H  35.33900 60.79200 40.09300
H  36.77200 60.31800 40.92000
H  31.81700 62.60400 40.22600
H  29.31100 62.82400 41.67800
H  30.94700 62.73300 42.95100
H  32.40000 63.18600 42.07800
H  32.25700 61.50800 42.78700
H  28.95200 62.55000 38.78200
H  30.23700 63.67800 39.11900
H  27.47800 64.09900 39.37100
H  28.69400 65.29900 39.54600
H  28.21000 64.36100 41.01200
H  24.53500 60.72100 39.03400
H  24.70100 60.71000 40.79600
H  23.50700 59.61900 40.04400
H  25.36600 54.92000 37.94600
H  23.73200 52.61000 41.06700
H  24.78000 51.52200 40.16600
H  23.11200 51.73200 39.57400

