158

Mg 27.04200 51.64300 26.03200
C  24.70400 52.76100 28.68000
C  29.14900 50.65800 28.52800
C  29.03500 50.85300 23.67300
C  24.58600 53.00600 23.74500
N  26.91400 51.76700 28.39900
C  25.82500 52.02300 29.19000
C  26.14200 51.56300 30.59900
C  27.70000 51.30000 30.56000
C  27.94600 51.21600 29.05900
C  28.63300 52.32500 31.13200
C  25.23400 50.31600 31.11100
C  24.67400 50.48000 32.49300
H  25.24900 51.38200 33.59600
N  28.86000 50.84200 26.10500
C  29.59500 50.51900 27.21200
C  30.91500 49.90900 26.75700
C  30.87400 49.93300 25.30000
C  29.59400 50.57100 24.94700
C  31.94700 49.38100 27.74300
C  31.91700 49.55500 24.26800
O  31.69200 49.70900 23.06900
C  33.18400 48.92900 24.75800
N  26.79300 51.83100 24.01800
C  27.80300 51.34700 23.24300
C  27.46200 51.48000 21.79000
C  25.98300 52.09000 21.82600
C  25.78400 52.35000 23.29400
C  28.48200 52.44200 21.10200
C  24.81000 51.28200 21.22100
C  24.37400 50.07800 22.02500
N  25.11000 52.72800 26.09000
C  24.28600 53.13600 25.07900
C  23.07700 53.75600 25.69700
C  23.25300 53.67200 27.07600
C  24.46600 52.97600 27.27700
C  21.96000 54.39500 24.88200
C  22.73500 54.00700 28.38500
O  21.77400 54.69900 28.74500
C  23.56300 53.21900 29.48300
C  23.89500 54.23700 30.53200
O  24.82400 55.04400 30.60100
O  22.92500 54.27400 31.45500
C  23.24400 55.06500 32.65300
H  29.86700 50.23100 29.23200
H  29.59800 50.58500 22.77700
H  23.84800 53.38400 23.03400
H  25.97800 52.44800 31.21400
H  27.90300 50.32100 30.99500
H  29.06000 52.81400 30.25700
H  29.46700 51.94300 31.72200
H  28.10500 53.00800 31.79800
H  25.86100 49.44200 30.93200
H  24.42300 50.23300 30.38700
H  24.50600 49.51700 32.97400
H  23.73800 51.00500 32.29700
H  32.50000 50.24100 28.11900
H  32.60600 48.56900 27.43400
H  31.50400 48.91800 28.62500
H  33.68200 48.52400 23.87800
H  33.04000 48.12200 25.47600
H  33.84600 49.68000 25.18900
H  27.44500 50.47200 21.37500
H  26.08300 53.09000 21.40600
H  29.17100 52.80900 21.86300
H  27.98100 53.30800 20.66900
H  29.03400 51.86400 20.36100
H  25.11700 50.98400 20.21900
H  23.93600 51.92500 21.11500
H  25.02800 49.25400 21.74000
H  23.32400 49.95700 21.76000
H  24.40800 50.10400 23.11500
H  22.20700 54.64100 23.84900
H  21.62000 55.36600 25.24400
H  21.11200 53.72100 24.75700
H  22.97300 52.40500 29.90400
H  22.42400 54.96100 33.36300
H  23.34200 56.09800 32.31900
H  24.12500 54.70800 33.18600
Mg -10.97800 16.56000 40.99200
C  -7.53900 15.68000 40.93600
C  -10.04900 19.79000 40.46700
C  -14.21900 17.20600 40.35900
C  -11.71700 13.09000 40.99600
N  -8.96100 17.66300 40.87100
C  -7.72300 17.04000 40.90600
C  -6.64000 18.10200 40.74200
C  -7.42800 19.49300 40.91100
C  -8.89400 18.96200 40.72000
C  -7.28600 20.15600 42.23300
C  -5.85900 17.91400 39.48200
C  -4.35000 17.76700 39.48500
H  -3.83000 16.56500 38.68300
N  -11.99100 18.29400 40.55800
C  -11.41300 19.52900 40.43100
C  -12.51200 20.42200 40.10300
C  -13.78100 19.72100 40.14300
C  -13.39000 18.32000 40.31600
C  -12.19200 21.84700 39.91400
C  -15.16400 20.32200 40.01500
O  -15.26600 21.50900 39.92200
C  -16.43800 19.56100 40.13800
N  -12.69700 15.33200 40.63900
C  -13.91200 15.87500 40.48200
C  -14.97500 14.86400 40.45800
C  -14.24100 13.48100 40.66200
C  -12.77500 13.97700 40.73900
C  -16.16700 15.09300 41.38700
C  -14.45100 12.47600 39.48100
C  -14.81500 10.93900 39.65800
N  -9.90200 14.73700 41.03400
C  -10.35900 13.41100 41.07900
C  -9.25700 12.48200 41.19000
C  -8.13100 13.27400 41.09900
C  -8.53900 14.67900 40.92800
C  -9.36900 10.99100 41.27800
C  -6.73500 13.28900 41.09300
O  -5.96100 12.36900 41.17300
C  -6.30000 14.84700 41.07600
C  -5.62100 14.98300 42.32400
O  -6.15700 15.48900 43.33200
O  -4.25900 14.62400 42.26100
C  -3.53300 14.61900 43.49800
H  -9.87400 20.85200 40.28500
H  -15.30800 17.27300 40.33900
H  -12.02700 12.04600 41.07400
H  -5.97800 17.96100 41.59600
H  -7.04900 20.23000 40.20300
H  -6.80100 19.54600 42.99600
H  -8.13300 20.66600 42.69300
H  -6.64700 21.01900 42.04600
H  -6.02500 18.79300 38.85900
H  -6.27000 17.03900 38.97800
H  -4.03000 17.74900 40.52700
H  -3.86900 18.60100 38.97300
H  -11.66100 21.96300 38.97000
H  -11.41300 22.08600 40.63900
H  -12.95700 22.62400 39.93100
H  -16.48200 19.07800 39.16200
H  -17.34800 20.15800 40.19100
H  -16.50900 18.83800 40.95100
H  -15.41600 14.93100 39.46300
H  -14.52800 13.09000 41.63800
H  -16.46000 14.20500 41.94800
H  -16.95300 15.57600 40.80600
H  -15.87700 15.81700 42.14800
H  -13.47500 12.46100 38.99700
H  -15.16600 12.84200 38.74400
H  -15.11200 10.73800 40.68800
H  -13.98700 10.26000 39.45400
H  -15.61100 10.66200 38.96600
H  -10.26400 10.68900 41.82200
H  -8.52700 10.61000 41.85500
H  -9.31800 10.57300 40.27200
H  -5.63500 14.91300 40.21400
H  -3.27200 15.65700 43.70500
H  -2.65800 14.01900 43.24700
H  -4.02700 14.10800 44.32400

