158

Mg 47.67200 16.21500 27.58000
C  45.75300 16.25700 30.56000
C  50.06500 17.99600 29.25200
C  49.24500 16.43200 24.76300
C  44.80900 14.87500 26.00500
N  47.82700 16.90700 29.70500
C  47.02400 16.74200 30.79700
C  47.64200 17.22600 32.10200
C  48.93300 18.08100 31.57700
C  48.94200 17.60300 30.01300
C  48.78500 19.60500 31.62900
C  48.06300 15.97400 33.02300
C  47.68900 16.23000 34.55900
H  47.74400 17.62300 35.16500
N  49.53700 17.00700 27.12000
C  50.37800 17.65100 27.92600
C  51.50200 18.09300 27.17500
C  51.32600 17.59200 25.84600
C  49.95000 16.99200 25.82600
C  52.69900 18.61700 27.95000
C  52.17300 17.62800 24.61000
O  51.92800 16.91700 23.55500
C  53.49900 18.41600 24.64600
N  47.04200 15.74300 25.64500
C  47.92800 15.89300 24.62900
C  47.26200 15.41200 23.23200
C  45.89400 14.83800 23.68100
C  45.89500 15.12300 25.18900
C  47.22000 16.60200 22.28500
C  45.73200 13.29200 23.41100
C  44.84800 12.78600 22.23500
N  45.63700 15.70600 28.08700
C  44.70700 15.15400 27.38900
C  43.53000 14.86600 28.28100
C  43.94300 15.25300 29.51700
C  45.18800 15.82700 29.32600
C  42.21700 14.19600 27.91700
C  43.58600 15.29500 30.91400
O  42.51900 14.99300 31.40600
C  44.72600 15.91500 31.65300
C  44.15400 17.01900 32.50100
O  43.78100 18.11200 32.04200
O  44.06300 16.71900 33.85800
C  43.59500 17.72900 34.75600
H  50.76100 18.57300 29.86400
H  49.75400 16.45800 23.79800
H  43.98000 14.33200 25.54600
H  46.93500 17.97700 32.45500
H  49.88700 17.68900 31.92900
H  47.95500 19.81900 32.30200
H  48.46300 20.05300 30.68800
H  49.74600 20.08100 31.82400
H  49.11000 15.67700 32.95900
H  47.36700 15.17200 32.77400
H  48.35500 15.66300 35.21000
H  46.70800 15.78000 34.70600
H  53.32000 17.83200 28.38100
H  52.41400 19.34700 28.70700
H  53.35200 19.17000 27.27500
H  53.39800 19.30500 25.26800
H  53.73700 18.69300 23.61900
H  54.30100 17.79100 25.03800
H  47.91700 14.68200 22.75600
H  45.02900 15.39400 23.31800
H  47.84800 17.46500 22.51000
H  46.19900 16.96800 22.39600
H  47.54700 16.16600 21.34100
H  45.40700 12.74000 24.29300
H  46.74400 12.93200 23.22900
H  45.41300 12.08600 21.61900
H  44.41500 13.58900 21.63800
H  43.93700 12.23700 22.47300
H  42.30100 13.15500 28.23000
H  41.92600 14.33700 26.87600
H  41.34000 14.57400 28.44300
H  45.11400 15.17800 32.35600
H  43.07400 17.22400 35.56800
H  42.92800 18.45600 34.29200
H  44.42700 18.28500 35.18800
Mg 9.96100 48.14300 25.52100
C  7.66900 48.29500 28.09300
C  12.33000 49.63400 27.69000
C  12.24400 48.15100 22.92100
C  7.41900 47.37000 23.36600
N  10.01100 48.77700 27.71900
C  8.93800 48.67000 28.55700
C  9.40600 49.17700 29.97300
C  10.90100 49.69900 29.85800
C  11.14000 49.35000 28.34000
C  11.18400 51.20200 30.21800
C  9.22700 48.05000 31.05500
C  10.08200 48.00500 32.37900
H  9.48600 47.99200 33.74000
N  12.00100 48.67500 25.34600
C  12.77400 49.15400 26.36700
C  14.15100 49.33600 25.87200
C  14.08000 48.88700 24.51600
C  12.74800 48.53300 24.18000
C  15.26900 49.97700 26.61200
C  15.25200 48.86100 23.47000
O  15.05900 48.49100 22.30100
C  16.64500 49.25400 23.90400
N  9.88500 47.59900 23.44900
C  10.89900 47.73600 22.58500
C  10.49300 47.43900 21.15100
C  8.93900 47.28900 21.26800
C  8.69800 47.39500 22.81200
C  10.81100 48.58900 20.11000
C  8.56900 45.92000 20.73100
C  9.10200 44.75900 21.55400
N  7.97200 47.86000 25.58700
C  7.01900 47.48200 24.65600
C  5.72700 47.30200 25.29900
C  5.96500 47.64400 26.61600
C  7.26600 47.99500 26.76000
C  4.40300 46.99700 24.61100
C  5.28800 47.66500 27.88900
O  4.12200 47.43200 28.22100
C  6.42700 48.08000 28.91600
C  6.45200 46.86800 29.79600
O  7.10500 45.86400 29.60600
O  5.75200 47.06300 30.98900
C  6.05200 46.13500 32.10500
H  12.95900 50.27500 28.31100
H  12.89300 48.01100 22.05400
H  6.66300 47.16300 22.60500
H  8.77500 50.04300 30.17600
H  11.59000 49.03900 30.38500
H  10.45000 51.52400 30.95700
H  11.21500 51.81400 29.31700
H  12.14300 51.29600 30.72800
H  9.36100 47.12400 30.49600
H  8.21500 48.18000 31.44000
H  10.85000 48.77400 32.46200
H  10.51300 47.00600 32.30500
H  15.07800 49.94500 27.68500
H  15.40000 50.97700 26.19900
H  16.22600 49.47000 26.48500
H  16.72400 50.21700 24.40800
H  17.28100 49.37300 23.02700
H  16.95800 48.45200 24.57300
H  10.95800 46.49700 20.85800
H  8.38800 48.07000 20.74500
H  11.23300 49.49400 20.54700
H  9.90800 49.02600 19.68400
H  11.60200 48.31200 19.41300
H  9.10200 45.82200 19.78600
H  7.48500 45.83400 20.65000
H  9.70700 44.10600 20.92400
H  8.26000 44.14800 21.87900
H  9.73600 44.94600 22.42000
H  4.28600 45.91600 24.53100
H  4.48700 47.37900 23.59400
H  3.56400 47.43500 25.15100
H  5.99700 48.97600 29.36200
H  5.99000 45.16400 31.61300
H  5.34500 46.16900 32.93400
H  7.08100 46.32400 32.41100

