158

Mg 26.47900 50.46000 26.47200
C  24.47700 51.75000 29.20200
C  28.73300 49.42400 28.79400
C  28.23900 49.23900 23.92200
C  24.27600 51.93400 24.26200
N  26.50800 50.58900 28.76900
C  25.59500 51.09700 29.67700
C  26.00200 50.81400 31.14000
C  27.47900 50.23900 30.91300
C  27.58100 50.00500 29.38300
C  28.58200 51.18700 31.51000
C  25.08100 49.79500 31.85100
C  24.60700 50.33700 33.22500
H  25.64800 50.26100 34.32000
N  28.23600 49.52500 26.34100
C  29.05700 49.13700 27.42600
C  30.25900 48.54400 26.90300
C  30.02300 48.29400 25.48000
C  28.78200 49.03000 25.14700
C  31.46200 48.06500 27.75500
C  30.87100 47.53700 24.41600
O  30.53800 47.40200 23.24200
C  32.09100 46.95900 24.86300
N  26.28900 50.61100 24.31100
C  27.11000 49.93000 23.47100
C  26.68500 50.02000 21.99900
C  25.32500 50.84900 22.12300
C  25.28600 51.21600 23.62100
C  27.74000 50.55600 20.99300
C  24.00200 50.06700 21.79900
C  22.80400 50.95100 21.25000
N  24.78000 51.52500 26.57100
C  24.00300 52.08100 25.60700
C  22.85000 52.74700 26.18100
C  23.03700 52.65800 27.54100
C  24.24100 51.92000 27.75400
C  21.88900 53.58100 25.31200
C  22.41400 53.03600 28.86700
O  21.33300 53.58800 29.13000
C  23.41300 52.45200 30.00400
C  23.81600 53.64700 30.88700
O  24.56900 54.56900 30.57800
O  23.24300 53.41600 32.11100
C  23.66900 54.27700 33.19800
H  29.47400 49.09100 29.52300
H  28.71000 48.68500 23.10700
H  23.57000 52.40900 23.57800
H  26.01900 51.67500 31.80800
H  27.59700 49.26400 31.38400
H  29.19500 51.78500 30.83600
H  29.36000 50.63400 32.03600
H  28.05900 51.84300 32.20600
H  25.65400 48.90700 32.11900
H  24.28400 49.46900 31.18200
H  23.71600 49.82700 33.59000
H  24.43000 51.41200 33.25400
H  32.38000 48.18900 27.18100
H  31.35900 47.03500 28.09700
H  31.60000 48.70600 28.62600
H  32.74600 47.83100 24.87100
H  32.38500 46.30200 24.04400
H  32.04500 46.44700 25.82400
H  26.45300 48.96800 21.83400
H  25.40900 51.75400 21.52100
H  27.37400 51.27200 20.25800
H  28.12200 49.74500 20.37300
H  28.54900 51.00000 21.57200
H  23.63800 49.50100 22.65600
H  24.19600 49.16900 21.21300
H  22.50600 50.55600 20.27900
H  23.12300 51.99100 21.17800
H  21.93100 50.90900 21.90200
H  21.29800 53.08500 24.54200
H  22.54100 54.31400 24.83600
H  21.26700 54.08600 26.05100
H  22.92400 51.68700 30.60800
H  23.55300 55.31000 32.87200
H  24.68200 53.98600 33.47500
H  23.02400 54.24300 34.07600
Mg -10.49800 17.06100 41.33800
C  -7.11600 16.72900 41.33700
C  -10.23300 20.18900 40.07500
C  -13.83400 17.04100 40.70300
C  -10.66000 13.49900 41.56700
N  -8.84300 18.28400 40.74400
C  -7.51700 17.99600 40.92100
C  -6.68000 19.15200 40.41300
C  -7.71400 20.40200 40.62300
C  -9.04300 19.62100 40.47500
C  -7.64500 21.23800 41.91100
C  -6.23200 18.88100 38.90000
C  -4.66900 18.99200 38.61700
H  -4.07400 17.96600 37.64900
N  -11.92000 18.48200 40.56500
C  -11.58500 19.70000 40.10600
C  -12.71000 20.43100 39.62300
C  -13.83600 19.52500 39.91700
C  -13.20400 18.25300 40.37600
C  -12.68300 21.77500 39.07000
C  -15.31300 19.78100 39.75800
O  -15.75200 20.92600 39.42800
C  -16.48700 18.80400 39.95900
N  -12.05200 15.52600 41.28100
C  -13.36400 15.82600 41.12900
C  -14.28600 14.60100 41.43400
C  -13.27000 13.51500 41.22400
C  -11.87500 14.15600 41.36700
C  -14.99200 14.68700 42.79500
C  -13.47200 12.86900 39.81700
C  -13.56400 11.38100 39.85100
N  -9.14900 15.46200 41.65600
C  -9.37000 14.02200 41.71900
C  -8.06900 13.41500 41.95400
C  -7.13900 14.43900 41.80700
C  -7.87600 15.65000 41.59100
C  -7.87200 11.89600 42.02100
C  -5.67300 14.76100 41.71100
O  -4.72400 14.04800 41.91600
C  -5.65700 16.29700 41.34100
C  -4.84800 16.95200 42.36900
O  -3.63100 17.01800 42.35200
O  -5.62800 17.38300 43.46100
C  -4.76000 17.76600 44.65200
H  -10.14600 21.13900 39.54200
H  -14.91900 16.97600 40.59900
H  -10.76000 12.41200 41.56900
H  -5.86700 19.37000 41.10600
H  -7.73600 20.94700 39.67900
H  -6.85300 20.94200 42.60000
H  -8.60000 21.26300 42.43400
H  -7.40100 22.26100 41.62300
H  -6.72400 19.63100 38.28200
H  -6.63100 17.92200 38.56800
H  -4.10000 18.88900 39.54000
H  -4.37500 19.97400 38.24800
H  -13.52200 21.86300 38.37900
H  -11.80300 21.84600 38.43100
H  -12.64300 22.53300 39.85200
H  -16.30200 18.07400 39.17200
H  -17.48000 19.23300 39.82100
H  -16.46000 18.27200 40.91000
H  -15.07000 14.54900 40.67800
H  -13.43300 12.82600 42.05300
H  -14.46300 15.38300 43.44500
H  -15.23600 13.77100 43.33300
H  -15.94100 15.15100 42.52500
H  -12.60600 13.19000 39.23800
H  -14.30700 13.33400 39.29200
H  -12.73100 10.85200 39.38700
H  -14.50200 11.07200 39.39000
H  -13.74200 10.97300 40.84500
H  -8.60900 11.39100 42.64700
H  -6.86300 11.59800 42.30600
H  -7.99000 11.52600 41.00300
H  -5.23100 16.51900 40.36200
H  -5.40800 18.18700 45.42100
H  -4.05900 18.53600 44.32900
H  -4.23000 16.95700 45.15500

