158

Mg 1.63900 -2.08500 44.14900
C  5.14400 -1.58800 43.60000
C  1.07100 0.74400 42.30100
C  -1.46200 -3.08500 43.71900
C  2.56000 -5.17900 45.60400
N  2.95600 -0.60800 43.07100
C  4.36600 -0.57800 43.03000
C  4.83600 0.62900 42.19700
C  3.55500 1.38500 42.05700
C  2.41100 0.49500 42.56600
C  3.53300 2.85100 42.64000
C  5.53000 0.27200 40.85900
C  6.92900 0.91000 40.60300
H  6.99400 1.66200 39.25200
N  -0.06100 -1.25300 43.18800
C  -0.07700 -0.08000 42.48800
C  -1.40900 0.11100 42.04900
C  -2.14800 -1.03300 42.38800
C  -1.23700 -1.85800 43.13300
C  -1.87400 1.27800 41.24600
C  -3.61900 -1.20900 42.13500
O  -4.25600 -0.30200 41.62800
C  -4.39900 -2.42900 42.48800
N  0.74100 -3.88900 44.48300
C  -0.64300 -3.96400 44.42400
C  -1.19900 -5.18200 45.00200
C  0.09900 -5.90800 45.57900
C  1.20700 -4.91600 45.23200
C  -2.27700 -4.92700 46.09700
C  0.39000 -7.25600 44.91500
C  0.17000 -8.36900 45.85900
N  3.45800 -3.21000 44.67400
C  3.68500 -4.38300 45.30600
C  5.11000 -4.59500 45.37800
C  5.68100 -3.51100 44.82100
C  4.67500 -2.70400 44.37600
C  5.63400 -5.91900 45.65600
C  7.01600 -3.00500 44.36900
O  8.15400 -3.44000 44.52200
C  6.66400 -1.67400 43.59900
C  7.19200 -0.57900 44.41500
O  6.83200 -0.28400 45.52300
O  8.25800 0.01000 43.79500
C  8.97900 1.00300 44.66700
H  0.97200 1.73100 41.84500
H  -2.45300 -3.54400 43.69800
H  2.71000 -6.11900 46.14100
H  5.52500 1.22100 42.80100
H  3.28800 1.60000 41.02200
H  3.78200 3.49200 41.79400
H  4.28300 2.95900 43.42400
H  2.57500 3.14300 43.06900
H  4.77100 0.45000 40.09700
H  5.83400 -0.77500 40.89000
H  7.72900 0.16900 40.57500
H  7.23600 1.64900 41.34400
H  -2.59900 1.12800 40.44600
H  -1.08400 1.89200 40.81300
H  -2.38100 1.93100 41.95600
H  -4.15800 -3.37000 41.99200
H  -5.40300 -2.21100 42.12400
H  -4.55000 -2.51800 43.56300
H  -1.70400 -5.73700 44.21100
H  0.11200 -5.85900 46.66800
H  -2.26200 -3.90200 46.46900
H  -2.08200 -5.43800 47.03900
H  -3.31300 -5.12600 45.82000
H  1.44900 -7.27800 44.66000
H  -0.19100 -7.41000 44.00600
H  -0.22100 -7.97500 46.79800
H  1.18800 -8.67700 46.09600
H  -0.40000 -9.14500 45.34800
H  5.64600 -6.10000 46.73000
H  6.68200 -6.03100 45.38000
H  5.04600 -6.68200 45.14500
H  6.96400 -1.63600 42.55200
H  9.34000 0.48000 45.55200
H  8.44600 1.93900 44.83600
H  9.82600 1.21700 44.01400
Mg 42.37100 42.20400 26.83400
C  41.56900 44.58400 29.11100
C  43.44900 40.09300 29.39700
C  43.66100 40.01700 24.53900
C  41.92200 44.63100 24.25100
N  42.61600 42.39100 28.95900
C  42.09200 43.41300 29.72000
C  41.99200 43.01600 31.26800
C  42.61400 41.55400 31.29400
C  42.97700 41.30400 29.81100
C  43.71400 41.32100 32.30000
C  40.49900 43.11000 31.72000
C  40.08000 42.23400 32.91600
H  39.38700 42.83600 34.14000
N  43.26000 40.27500 26.93600
C  43.71300 39.67400 28.10000
C  44.35500 38.48200 27.77300
C  44.44100 38.42300 26.33000
C  43.79400 39.63200 25.89800
C  44.78100 37.46100 28.74500
C  45.11900 37.38100 25.32300
O  45.18300 37.52800 24.09100
C  45.86400 36.16700 25.94500
N  42.80800 42.32600 24.69300
C  43.17600 41.22500 23.95300
C  43.09800 41.52800 22.49400
C  42.27800 42.86300 22.40200
C  42.39400 43.39800 23.82700
C  44.45200 41.74500 21.74500
C  40.79100 42.76200 21.93300
C  39.79700 41.87500 22.81400
N  41.78800 44.17500 26.68100
C  41.59000 44.95500 25.59800
C  41.09600 46.29000 26.06100
C  41.06800 46.06500 27.45500
C  41.61000 44.87200 27.74500
C  40.70900 47.45600 25.20900
C  40.52900 46.71800 28.63000
O  39.91900 47.75100 28.83300
C  40.90400 45.77100 29.75900
C  41.71800 46.46700 30.80800
O  42.91900 46.55100 30.82300
O  40.81300 46.87700 31.74900
C  41.47800 47.02300 33.04100
H  43.75200 39.46500 30.23700
H  43.92900 39.31300 23.74800
H  41.67500 45.41900 23.53600
H  42.62400 43.68200 31.85400
H  41.85200 40.81500 31.54000
H  43.50400 40.33100 32.70500
H  43.62100 42.08600 33.07100
H  44.73100 41.36800 31.90900
H  39.79200 43.08400 30.89000
H  40.32000 44.11400 32.10400
H  40.99800 41.71700 33.19300
H  39.47200 41.46200 32.44400
H  44.61400 36.44300 28.39500
H  44.20900 37.34600 29.66600
H  45.83900 37.66500 28.90600
H  46.30800 36.56100 26.85900
H  46.69800 35.85200 25.31700
H  45.17600 35.35500 26.18100
H  42.55100 40.66000 22.12300
H  42.69100 43.52300 21.64000
H  44.82500 42.76200 21.62500
H  44.41200 41.31400 20.74500
H  45.17800 41.17900 22.33000
H  40.83600 42.28500 20.95300
H  40.41100 43.78300 21.90300
H  40.37100 41.36200 23.58500
H  39.25500 41.12000 22.24500
H  38.99800 42.43600 23.30000
H  39.64900 47.69200 25.11400
H  40.89400 47.24600 24.15600
H  41.29100 48.30600 25.56700
H  39.98900 45.44200 30.25200
H  42.30700 47.72900 32.98800
H  41.82700 46.10000 33.50500
H  40.82700 47.52000 33.76100

