158

Mg -2.02200 16.91600 26.71800
C  -2.69500 14.75300 29.46000
C  -2.29700 19.59800 28.96300
C  -1.97900 18.97500 24.05400
C  -1.93200 14.10300 24.58400
N  -2.41700 17.10400 28.99800
C  -2.69100 16.10500 29.88900
C  -3.04900 16.66400 31.26000
C  -2.85400 18.23000 31.02300
C  -2.44600 18.36500 29.59500
C  -4.08700 19.09100 31.41000
C  -2.14800 16.03700 32.44600
C  -1.59100 16.87500 33.57000
H  -1.65800 16.30200 34.99600
N  -1.98500 18.98900 26.52700
C  -2.12300 19.87700 27.58700
C  -2.17200 21.18200 27.03100
C  -1.98700 21.14300 25.64800
C  -2.03600 19.66000 25.32700
C  -2.52700 22.43600 27.78200
C  -1.86700 22.18900 24.51500
O  -1.77400 21.97600 23.31500
C  -1.72000 23.64700 24.93100
N  -2.18500 16.61000 24.67600
C  -2.04700 17.61600 23.77700
C  -1.79000 16.99100 22.38000
C  -1.45900 15.51500 22.62700
C  -2.04900 15.36100 24.02300
C  -3.02100 17.18500 21.46500
C  0.10200 15.14000 22.55600
C  1.16000 15.96400 23.30500
N  -2.31600 14.85500 26.94400
C  -2.24600 13.80100 25.98300
C  -2.50100 12.52300 26.62300
C  -2.62100 12.83900 28.01100
C  -2.49300 14.25400 28.16900
C  -2.70500 11.21700 25.89700
C  -2.92200 12.22000 29.31900
O  -3.18900 11.10300 29.76200
C  -2.87100 13.49500 30.31300
C  -1.60600 13.22600 31.01600
O  -0.46500 13.41900 30.56800
O  -1.81800 12.70800 32.25700
C  -0.61700 12.61800 33.14700
H  -2.32700 20.50700 29.56700
H  -1.90500 19.64700 23.19600
H  -1.73200 13.22800 23.96200
H  -4.06500 16.33500 31.47800
H  -1.99700 18.49600 31.64100
H  -4.70200 18.47700 32.06700
H  -4.58600 19.47700 30.52100
H  -3.71000 19.91100 32.02100
H  -1.29800 15.55400 31.96400
H  -2.75100 15.23200 32.86500
H  -2.26700 17.72900 33.60500
H  -0.66100 17.35000 33.25500
H  -1.96100 23.30600 27.44700
H  -2.16600 22.31900 28.80500
H  -3.57900 22.66200 27.60800
H  -2.68000 23.86400 25.39900
H  -1.57300 24.25900 24.04100
H  -0.85800 23.75600 25.59000
H  -0.95500 17.44200 21.84300
H  -1.93500 14.91900 21.84800
H  -3.72500 17.82400 21.99800
H  -3.57900 16.26900 21.26800
H  -2.69900 17.62800 20.52300
H  0.34400 15.09300 21.49400
H  0.29500 14.11600 22.87600
H  1.68500 15.22300 23.90800
H  0.57700 16.71300 23.84000
H  1.89600 16.39400 22.62600
H  -1.70900 10.93200 25.55700
H  -3.18900 11.36000 24.93100
H  -3.15200 10.47800 26.56200
H  -3.77600 13.52100 30.91900
H  0.18600 13.31700 32.91300
H  -0.18300 11.62100 33.07800
H  -0.86100 12.80900 34.19200
Mg 16.43500 -2.11900 28.26200
C  15.45900 0.06000 30.73900
C  18.21900 -4.01100 30.59800
C  17.74000 -4.00000 25.73100
C  15.02400 0.01600 25.84900
N  16.86200 -2.00100 30.34300
C  16.29300 -1.01400 31.13100
C  16.82300 -1.13500 32.57900
C  17.84200 -2.32300 32.47200
C  17.62800 -2.82000 31.00600
C  19.32300 -1.97300 32.65000
C  15.67800 -1.42700 33.57100
C  15.88800 -0.76900 34.96300
H  17.31500 -0.20900 35.34000
N  17.72100 -3.83800 28.22900
C  18.27800 -4.54500 29.26700
C  18.97600 -5.76700 28.82200
C  18.86900 -5.64500 27.36600
C  18.10100 -4.44500 27.01400
C  19.45500 -6.82000 29.77600
C  19.40500 -6.66100 26.37200
O  19.31900 -6.52300 25.14900
C  20.27800 -7.78900 26.83500
N  16.44600 -1.93700 26.08500
C  17.03800 -2.83600 25.35500
C  16.71100 -2.58300 23.83500
C  15.82300 -1.31000 23.85300
C  15.71500 -1.05000 25.32200
C  18.11700 -2.40400 23.13200
C  14.42100 -1.58000 23.11800
C  14.60900 -2.00600 21.66900
N  15.23500 -0.38100 28.24800
C  14.74100 0.38700 27.21600
C  14.11500 1.54700 27.83200
C  14.30600 1.41200 29.15900
C  15.05500 0.25800 29.37600
C  13.55400 2.70700 27.09200
C  14.04600 1.99600 30.50600
O  13.27000 2.91400 30.88500
C  14.84100 1.15400 31.60100
C  15.82500 2.07100 32.40400
O  16.86500 2.58800 32.00200
O  15.25800 2.44100 33.55600
C  15.93900 3.50200 34.27900
H  18.83700 -4.60400 31.27500
H  18.04400 -4.51300 24.81700
H  14.50700 0.53100 25.03600
H  17.36800 -0.24700 32.89700
H  17.55400 -3.14900 33.12300
H  19.92600 -2.22200 31.77700
H  19.71000 -2.45000 33.55000
H  19.48400 -0.92900 32.91900
H  15.53600 -2.50600 33.62500
H  14.77400 -1.00200 33.13600
H  15.53600 -1.47700 35.71300
H  15.25200 0.08500 35.19700
H  19.97200 -7.68800 29.36500
H  18.60100 -7.08000 30.40100
H  20.06800 -6.35600 30.54900
H  20.75400 -8.31000 26.00400
H  19.61000 -8.50900 27.30700
H  21.12400 -7.48500 27.45200
H  16.28900 -3.48900 23.40000
H  16.35000 -0.56000 23.26400
H  18.23800 -3.19000 22.38700
H  18.89100 -2.31400 23.89500
H  18.14400 -1.41600 22.67200
H  13.87200 -0.63900 23.16300
H  13.82100 -2.31400 23.65700
H  13.88500 -1.44100 21.08100
H  14.58000 -3.08400 21.51000
H  15.64600 -1.73600 21.47000
H  13.90500 3.64000 27.53200
H  12.47400 2.83100 27.00500
H  14.04000 2.85700 26.12800
H  14.02700 0.77800 32.22100
H  16.02700 4.30300 33.54500
H  16.88700 3.21200 34.73400
H  15.24900 3.78200 35.07500

