158

Mg 6.52800 53.84500 41.98100
C  5.98200 50.39800 41.86600
C  9.78900 53.27800 41.21000
C  6.94700 57.03900 41.74000
C  3.07600 54.31100 42.42700
N  7.67100 51.99300 41.46300
C  7.28200 50.70900 41.42600
C  8.45400 49.70700 41.13300
C  9.71300 50.68100 41.28000
C  9.02800 52.08300 41.41300
C  10.69000 50.40400 42.48700
C  8.39900 49.03800 39.70200
C  8.45200 50.04200 38.52100
H  7.68700 49.56000 37.25800
N  8.13500 54.99600 41.54400
C  9.41000 54.60100 41.21700
C  10.21700 55.71900 40.96500
C  9.36100 56.88900 41.20500
C  8.08800 56.35300 41.56100
C  11.67100 55.67500 40.60100
C  9.91300 58.25000 40.90900
O  10.95200 58.56500 40.40500
C  8.96900 59.44900 41.04500
N  5.17100 55.45700 41.90800
C  5.64300 56.69200 42.00700
C  4.58500 57.64400 42.30000
C  3.25200 56.82800 42.35700
C  3.81300 55.40100 42.25100
C  4.82800 58.65400 43.42000
C  2.14600 57.09800 41.28700
C  0.69200 57.15200 41.72700
N  4.86800 52.64800 42.31800
C  3.52800 52.96400 42.44500
C  2.76500 51.71900 42.71400
C  3.70900 50.76800 42.48200
C  4.94900 51.35400 42.10500
C  1.32400 51.54100 43.09500
C  3.90800 49.29500 42.43200
O  3.11200 48.40200 42.70300
C  5.38100 49.00400 42.01200
C  5.36700 48.23000 40.79500
O  4.83500 48.67200 39.75400
O  5.97600 47.06800 41.04700
C  5.94300 46.15900 39.84100
H  10.84800 53.12700 40.99000
H  7.06500 58.11500 41.59400
H  2.01700 54.54700 42.54700
H  8.49100 48.95500 41.92100
H  10.30600 50.64500 40.36600
H  10.38300 50.82000 43.44700
H  11.63300 50.86600 42.19400
H  10.73900 49.34600 42.74500
H  7.64700 48.25000 39.68600
H  9.28900 48.43000 39.53400
H  9.49300 50.03300 38.19800
H  8.14400 51.06300 38.74800
H  11.79900 55.79700 39.52500
H  12.03700 54.67200 40.81900
H  12.24000 56.38600 41.20100
H  8.09000 59.26900 40.42500
H  9.51600 60.32500 40.69500
H  8.68200 59.57000 42.08900
H  4.52400 58.25800 41.40200
H  2.90000 56.96700 43.37900
H  4.25600 58.40500 44.31300
H  4.65800 59.67500 43.08000
H  5.86900 58.74500 43.72900
H  2.04800 56.34800 40.50100
H  2.43100 57.97700 40.70900
H  0.30700 58.16600 41.83000
H  0.56600 56.66900 42.69600
H  0.05500 56.71100 40.96000
H  1.27000 51.21900 44.13500
H  0.80300 50.79900 42.48900
H  0.88900 52.53600 43.00100
H  5.90900 48.39700 42.74800
H  6.59200 45.30000 40.01100
H  6.31200 46.71800 38.98100
H  4.91200 45.82400 39.72900
Mg 9.35600 47.52000 26.02100
C  7.24000 47.82500 28.67600
C  11.95000 48.50800 27.88500
C  11.21300 47.53300 23.14400
C  6.38600 47.26800 23.98000
N  9.59900 48.15400 27.97000
C  8.57200 48.16300 28.90600
C  9.21300 48.47800 30.29900
C  10.56300 49.19500 29.88200
C  10.75100 48.55300 28.51400
C  10.44200 50.73100 29.83900
C  9.50000 47.11600 31.08600
C  10.28000 47.18500 32.42600
H  9.87500 46.08400 33.45500
N  11.30300 48.03400 25.61100
C  12.28400 48.25400 26.53900
C  13.52300 48.42600 25.93400
C  13.34300 48.18000 24.55100
C  11.92400 47.87400 24.32700
C  14.77100 48.82500 26.60600
C  14.35300 47.95700 23.40700
O  14.03100 47.82900 22.21600
C  15.79700 47.92600 23.78900
N  8.83400 47.32000 23.82900
C  9.86600 47.36900 22.84500
C  9.26800 47.15200 21.45800
C  7.69200 46.99000 21.72900
C  7.62700 47.23100 23.28000
C  9.64400 48.12100 20.29600
C  7.02200 45.67500 21.33900
C  6.36800 45.70400 19.91700
N  7.19500 47.46500 26.29100
C  6.16400 47.40700 25.37700
C  4.86700 47.32600 26.05100
C  5.26000 47.50800 27.40500
C  6.67100 47.55300 27.43100
C  3.53300 47.10400 25.43100
C  4.81800 47.71400 28.82700
O  3.67900 47.78400 29.31300
C  6.14400 47.66900 29.67000
C  6.18700 46.31100 30.39400
O  6.25000 45.22900 29.80300
O  6.04200 46.40400 31.71300
C  6.05100 45.18700 32.46900
H  12.79800 49.03600 28.32600
H  11.82300 47.55100 22.23800
H  5.49000 47.32300 23.35800
H  8.51000 49.15700 30.78100
H  11.39300 49.05200 30.57500
H  10.76100 51.12100 28.87200
H  11.09000 51.19300 30.58300
H  9.44700 51.06000 30.13900
H  10.00500 46.46600 30.37200
H  8.48300 46.85500 31.38000
H  10.17700 48.14300 32.93700
H  11.33500 47.10000 32.16800
H  15.41900 47.95400 26.69900
H  14.68600 49.30500 27.58100
H  15.35400 49.56300 26.05500
H  16.37900 47.74300 22.88500
H  16.04200 47.05500 24.39800
H  16.22300 48.83900 24.20400
H  9.60000 46.18400 21.08300
H  7.24100 47.83000 21.20000
H  8.88000 48.85700 20.04700
H  9.78200 47.55300 19.37600
H  10.53500 48.71300 20.50500
H  6.26700 45.23500 21.99100
H  7.79400 44.93100 21.14700
H  6.56200 46.70500 19.53100
H  5.31100 45.47600 20.05300
H  6.83400 44.98900 19.23900
H  3.00300 46.20000 25.73300
H  3.57000 46.94400 24.35400
H  2.90900 47.96800 25.66100
H  6.21500 48.39700 30.47800
H  5.25100 45.17700 33.21000
H  6.98300 45.10000 33.02900
H  6.07900 44.32500 31.80200

