158

Mg 24.15500 -5.47000 45.18300
C  26.42000 -3.04300 43.86700
C  21.67400 -3.98700 43.49900
C  22.50400 -8.28900 45.44300
C  26.91800 -6.84600 46.89600
N  24.18100 -3.68900 43.81700
C  25.11000 -2.87400 43.43900
C  24.57900 -1.80500 42.55000
C  23.11300 -1.82000 42.88900
C  22.92000 -3.23800 43.46000
C  22.50000 -0.76000 43.84900
C  24.80900 -2.05900 41.03500
C  25.30700 -0.86600 40.25200
H  25.07900 -1.01100 38.75500
N  22.30000 -6.08200 44.63000
C  21.40600 -5.27300 43.97500
C  20.19300 -5.99400 43.81900
C  20.42700 -7.28700 44.26000
C  21.78600 -7.29800 44.75900
C  18.91600 -5.37300 43.18400
C  19.34200 -8.45500 44.20900
O  18.24500 -8.33700 43.78400
C  19.75900 -9.87100 44.71700
N  24.63300 -7.28600 46.00400
C  23.71800 -8.28700 46.05600
C  24.36400 -9.50900 46.81500
C  25.54500 -8.86100 47.64000
C  25.71400 -7.60700 46.77000
C  23.29000 -10.17600 47.73700
C  26.68800 -9.72700 47.83800
C  27.22700 -9.76100 49.30300
N  26.17700 -4.95900 45.40600
C  27.20600 -5.66700 46.11000
C  28.35000 -4.95800 46.07100
C  28.18100 -3.92700 45.20900
C  26.79100 -3.96600 44.79300
C  29.55800 -5.34900 46.80300
C  28.77900 -2.78200 44.57700
O  29.90200 -2.28600 44.79200
C  27.74700 -2.30900 43.57500
C  27.52100 -0.77100 43.64900
O  26.98600 -0.17800 44.58300
O  28.11100 -0.05500 42.62000
C  28.03800 1.43500 42.64500
H  20.84800 -3.33700 43.20100
H  22.06400 -9.28200 45.56100
H  27.74700 -7.08500 47.56500
H  25.10600 -0.87000 42.74000
H  22.53100 -1.81900 41.96800
H  23.26100 -0.03300 44.13400
H  22.06500 -1.22900 44.73200
H  21.71900 -0.26600 43.27100
H  23.89700 -2.45200 40.58600
H  25.67900 -2.71300 40.96800
H  26.36900 -0.68800 40.41800
H  24.88200 0.07400 40.60600
H  18.00100 -5.79100 43.60200
H  18.99300 -5.52400 42.10700
H  18.86300 -4.29500 43.33400
H  18.91900 -10.53500 44.51400
H  19.86400 -9.88400 45.80200
H  20.62400 -10.28000 44.19500
H  24.64800 -10.34200 46.17200
H  25.09400 -8.40500 48.52100
H  23.02100 -11.18100 47.41000
H  22.30900 -9.70600 47.67700
H  23.70200 -10.35300 48.73000
H  27.57800 -9.46600 47.26500
H  26.44800 -10.78200 47.70300
H  26.85400 -8.85100 49.77200
H  28.29400 -9.97600 49.35800
H  26.76400 -10.57800 49.85800
H  29.43000 -5.08100 47.85200
H  30.46900 -4.85100 46.47000
H  29.71400 -6.42700 46.77100
H  28.10400 -2.64600 42.60200
H  27.01600 1.71200 42.38400
H  28.45600 1.94200 41.77600
H  28.37300 1.83400 43.60200
Mg 47.90700 16.38600 29.35900
C  45.94800 15.68000 32.10500
C  49.98300 18.18600 31.44900
C  49.63500 17.45100 26.61700
C  45.46400 15.10300 27.21500
N  47.76700 17.00400 31.49800
C  47.03600 16.45900 32.49400
C  47.51200 16.88500 33.92500
C  48.58100 17.92500 33.63700
C  48.79300 17.74500 32.07800
C  48.16200 19.38300 33.93900
C  47.90700 15.69000 34.87500
C  47.12800 15.58000 36.21600
H  46.79800 16.82800 37.01700
N  49.62500 17.57200 29.09700
C  50.46200 18.04600 30.08100
C  51.75600 18.39900 29.51700
C  51.59200 18.21200 28.08800
C  50.23800 17.74600 27.85000
C  52.97400 18.88300 30.28900
C  52.60000 18.50900 27.00400
O  52.43300 18.24200 25.81700
C  53.95400 19.09000 27.44900
N  47.54500 16.26300 27.18500
C  48.39900 16.82700 26.31500
C  48.04300 16.59200 24.84300
C  46.68400 15.77900 25.06100
C  46.55200 15.62000 26.58700
C  47.84100 17.81600 23.99300
C  46.61200 14.40000 24.42000
C  45.13400 13.78100 24.10800
N  46.11800 15.51100 29.58300
C  45.25300 14.97300 28.63300
C  44.18200 14.24000 29.29700
C  44.36000 14.57700 30.65500
C  45.55300 15.37600 30.77800
C  43.02600 13.50100 28.53800
C  43.76800 14.43400 31.96000
O  42.75200 13.83400 32.37300
C  44.78000 15.14800 32.95800
C  43.85300 16.12000 33.78700
O  43.55500 17.23600 33.44900
O  43.55900 15.68600 35.04700
C  42.71400 16.58300 35.86200
H  50.70600 18.69800 32.08700
H  50.20700 17.75200 25.73600
H  44.58300 14.80700 26.64100
H  46.65900 17.46300 34.27800
H  49.55800 17.64500 34.03000
H  48.96100 19.73600 34.59200
H  47.22900 19.53300 34.48200
H  48.04400 19.93500 33.00700
H  48.94400 15.80200 35.19200
H  47.97200 14.76700 34.29900
H  47.75200 14.93900 36.83800
H  46.24700 14.96500 36.02900
H  52.79100 18.94000 31.36200
H  53.23100 19.91100 30.03300
H  53.80000 18.18900 30.13400
H  54.53700 18.43700 28.09900
H  53.83900 20.10400 27.83200
H  54.61000 19.35100 26.61900
H  48.78800 15.86800 24.51100
H  45.79300 16.30900 24.72500
H  48.34700 18.61800 24.53100
H  46.82600 17.94300 23.61600
H  48.49700 17.77200 23.12400
H  47.11200 13.59300 24.95700
H  47.05300 14.50200 23.42900
H  44.98400 12.79100 24.53800
H  44.91400 13.66400 23.04700
H  44.31000 14.34000 24.55200
H  43.15000 12.41900 28.48200
H  42.74700 13.88900 27.55800
H  42.12000 13.57200 29.13800
H  45.08900 14.46500 33.74900
H  41.89100 17.05300 35.32300
H  43.32500 17.33900 36.35400
H  42.28800 15.90900 36.60500

