158

Mg 48.58200 44.60800 43.19400
C  45.10000 44.26100 42.98500
C  48.79000 40.98600 43.01900
C  51.92300 44.95600 42.92700
C  48.17700 48.05800 42.68700
N  47.06600 42.93400 43.04500
C  45.70300 42.98300 43.09700
C  44.98900 41.60200 43.01800
C  46.21100 40.66000 43.41600
C  47.45800 41.52900 43.11900
C  46.15000 40.17500 44.90600
C  44.25200 41.27000 41.72200
C  45.16500 41.50600 40.43500
H  45.50800 40.26400 39.50300
N  50.19400 43.14500 42.97800
C  50.07000 41.73900 42.93300
C  51.43300 41.22900 42.91900
C  52.38000 42.32000 42.98400
C  51.56000 43.54600 43.02300
C  51.59800 39.75600 42.72900
C  53.89500 42.18800 42.99300
O  54.40500 41.10200 43.09100
C  54.70300 43.35400 42.66100
N  49.88100 46.28500 42.76300
C  51.20100 46.16100 42.86800
C  51.95400 47.43900 42.45000
C  50.71500 48.44400 42.64800
C  49.48800 47.60500 42.70600
C  53.16300 47.92300 43.29700
C  50.62800 49.56000 41.54600
C  51.93100 50.23200 41.03300
N  47.03400 45.97600 43.03100
C  46.99400 47.32400 42.85900
C  45.60200 47.84000 42.81300
C  44.82400 46.66500 42.83600
C  45.73000 45.54200 43.03100
C  45.19800 49.21300 42.67400
C  43.52000 46.19400 42.72800
O  42.50300 46.82000 42.64700
C  43.57200 44.61300 42.91600
C  42.69700 44.12000 44.09500
O  41.78500 43.36500 44.04700
O  43.09600 44.69600 45.24200
C  42.44000 44.13000 46.48300
H  48.78500 39.89900 43.12100
H  52.98500 45.13000 42.74100
H  47.94300 49.12400 42.73800
H  44.38200 41.63000 43.92200
H  46.17100 39.79300 42.75700
H  46.82600 40.79800 45.49300
H  46.55500 39.16300 44.92600
H  45.13300 40.18700 45.29800
H  43.36400 41.89500 41.63100
H  43.90900 40.24600 41.86600
H  46.12500 41.83800 40.82900
H  44.74800 42.27900 39.79000
H  51.00000 39.53600 41.84500
H  51.17800 39.26200 43.60600
H  52.61000 39.40600 42.53000
H  54.25600 43.85700 41.80400
H  55.72600 43.04300 42.44900
H  54.78900 43.90800 43.59600
H  52.20900 47.54200 41.39500
H  50.84600 48.97800 43.58900
H  53.32800 47.08600 43.97700
H  53.18400 48.89000 43.80000
H  54.10000 47.97400 42.74200
H  49.98400 50.38800 41.84300
H  50.18500 49.10800 40.65900
H  52.80000 49.78800 41.51900
H  51.94000 51.27500 41.34900
H  52.14700 50.21600 39.96500
H  45.22600 49.58100 41.64800
H  45.73000 49.89700 43.33600
H  44.15900 49.34400 42.97800
H  43.15600 44.13300 42.02900
H  42.60700 43.05400 46.53500
H  41.35200 44.11100 46.42000
H  42.80800 44.73900 47.30800
Mg -11.03600 17.14000 42.07500
C  -7.58000 18.05000 41.99200
C  -11.87200 20.38100 41.89100
C  -14.24100 16.06400 42.04100
C  -9.97300 13.79100 42.04500
N  -9.80900 18.99200 41.82200
C  -8.46800 19.17600 41.88900
C  -8.06900 20.64400 41.98800
C  -9.42800 21.30000 42.30600
C  -10.42100 20.16600 42.06600
C  -9.53300 21.86700 43.80200
C  -7.37200 21.14300 40.70300
C  -5.83600 21.45400 40.82600
H  -4.98800 20.81200 39.72200
N  -12.82000 18.05500 41.80400
C  -12.99300 19.43000 41.74600
C  -14.39600 19.73000 41.47900
C  -15.15000 18.48500 41.52700
C  -14.09500 17.45900 41.85200
C  -14.94800 21.11500 41.35200
C  -16.62600 18.33000 41.27400
O  -17.39700 19.26600 40.91800
C  -17.22900 17.03600 41.22200
N  -11.98300 15.21100 42.07500
C  -13.29500 15.05700 42.25300
C  -13.72800 13.57800 42.40700
C  -12.28800 12.89200 42.41800
C  -11.36500 13.98900 42.06300
C  -14.68600 13.20900 43.59800
C  -12.16800 11.63700 41.56900
C  -12.13100 10.35000 42.29500
N  -9.19500 16.08600 42.02500
C  -8.94000 14.73900 41.98600
C  -7.51400 14.44000 42.08800
C  -6.99800 15.74400 42.03500
C  -8.01500 16.73700 41.99600
C  -6.67800 13.18300 42.02500
C  -5.76200 16.43600 42.06800
O  -4.65000 15.96000 42.07600
C  -6.09000 17.93000 42.13400
C  -5.57700 18.46400 43.40000
O  -5.95400 18.20200 44.50600
O  -4.36000 19.14400 43.12100
C  -3.45900 19.54300 44.25500
H  -12.10200 21.43600 42.04900
H  -15.30800 15.83100 42.06800
H  -9.62600 12.77400 42.23800
H  -7.33700 20.77000 42.78600
H  -9.74300 22.14100 41.68800
H  -10.27500 21.29400 44.35800
H  -9.80800 22.92000 43.75000
H  -8.55600 21.88000 44.28600
H  -7.94300 21.97200 40.28400
H  -7.45600 20.36600 39.94200
H  -5.46700 21.17800 41.81300
H  -5.64700 22.52800 40.81500
H  -15.28500 21.43000 40.36400
H  -14.28400 21.83800 41.82700
H  -15.90000 21.14500 41.88100
H  -18.21500 17.10600 40.76200
H  -17.35000 16.59800 42.21300
H  -16.68100 16.51600 40.43500
H  -14.29200 13.34700 41.50300
H  -11.95900 12.65300 43.43000
H  -15.66000 13.11100 43.12000
H  -14.69200 14.11500 44.20300
H  -14.39700 12.26200 44.05500
H  -11.38800 11.73700 40.81400
H  -13.06300 11.66800 40.94800
H  -11.48400 9.60600 41.83000
H  -13.10000 9.85900 42.19600
H  -11.79100 10.31800 43.33000
H  -6.15800 12.91700 42.94500
H  -5.98800 13.18600 41.18000
H  -7.33600 12.35900 41.74900
H  -5.63300 18.47000 41.30400
H  -3.01000 20.50700 44.01200
H  -2.57500 18.90600 44.26800
H  -3.93100 19.52600 45.23800

