158

Mg 47.49700 34.34400 27.63700
C  45.52100 32.76300 30.12100
C  47.75900 37.04500 29.81700
C  48.98400 35.91400 25.07000
C  46.56600 31.81700 25.45700
N  46.86900 34.72000 29.76600
C  46.18800 33.86700 30.60700
C  46.23400 34.41700 32.09800
C  46.39600 35.93800 31.80400
C  47.10700 35.92000 30.40500
C  45.07800 36.73000 31.72400
C  47.51400 33.88400 32.80700
C  47.38900 33.73400 34.30200
H  46.26000 34.56000 34.98500
N  48.28300 36.22100 27.42400
C  48.39800 37.13700 28.50100
C  49.26700 38.26100 28.03700
C  49.47600 38.00000 26.64000
C  48.98000 36.66800 26.29900
C  49.70100 39.35100 29.02400
C  50.20400 38.89700 25.66200
O  50.46300 38.44000 24.50800
C  50.70800 40.28500 26.04200
N  47.89300 33.83700 25.53000
C  48.50100 34.66700 24.71500
C  48.27700 34.27200 23.22300
C  47.78200 32.77600 23.39000
C  47.36300 32.78300 24.84300
C  47.14000 35.22700 22.54400
C  48.88100 31.70700 23.06000
C  50.07700 31.56200 24.00400
N  46.31000 32.63200 27.69600
C  46.04800 31.69200 26.69400
C  45.34000 30.57400 27.32500
C  45.10200 31.03200 28.65300
C  45.67100 32.23100 28.83700
C  44.96900 29.28300 26.73800
C  44.34200 30.62700 29.84500
O  43.72800 29.58700 30.01800
C  44.40700 31.85000 30.82100
C  44.52600 31.47200 32.23900
O  45.56300 31.28500 32.77600
O  43.28400 31.63900 32.84100
C  43.25600 31.51300 34.32400
H  47.69900 37.90700 30.48500
H  49.42600 36.33200 24.16300
H  46.25700 30.92500 24.90800
H  45.27400 34.22900 32.58000
H  46.94500 36.50400 32.55600
H  44.58000 36.59900 30.76300
H  45.16500 37.74000 32.12400
H  44.42600 36.20800 32.42400
H  48.38800 34.49900 32.59300
H  47.57300 32.92700 32.28800
H  48.32100 33.88200 34.84800
H  47.16400 32.67300 34.40700
H  50.75500 39.62900 29.02600
H  49.47000 38.97100 30.01900
H  49.06000 40.22900 28.94800
H  49.90300 40.80600 26.56100
H  50.95700 40.75100 25.08900
H  51.49000 40.10900 26.78100
H  49.24100 34.39500 22.72800
H  46.94500 32.53200 22.73600
H  46.82300 36.02400 23.21700
H  46.28200 34.62400 22.24900
H  47.56600 35.61100 21.61700
H  49.14500 31.91500 22.02300
H  48.40600 30.72800 23.00300
H  50.87800 31.93700 23.36600
H  50.06400 30.48900 24.19600
H  50.13300 32.12100 24.93800
H  45.76200 28.94300 26.07100
H  44.01600 29.34300 26.21200
H  45.00600 28.51400 27.50900
H  43.50600 32.44400 30.66900
H  43.83100 30.61900 34.56500
H  42.24300 31.34100 34.68700
H  43.57400 32.43200 34.81600
Mg -5.55300 26.18100 25.61000
C  -3.81200 27.59900 28.33300
C  -7.12700 24.04100 27.76900
C  -6.63500 24.59900 22.95000
C  -3.69900 28.44100 23.46700
N  -5.52800 25.95700 27.78900
C  -4.72200 26.60500 28.69200
C  -5.14600 26.30400 30.09800
C  -5.96800 24.94200 29.92700
C  -6.29400 25.01600 28.40900
C  -5.20900 23.62900 30.27300
C  -6.09000 27.37800 30.65400
C  -5.70600 27.92800 32.06200
H  -4.97000 27.06400 33.08700
N  -6.65900 24.49000 25.41800
C  -7.28500 23.79900 26.38400
C  -8.10600 22.71500 25.83700
C  -7.96800 22.83600 24.42700
C  -7.07400 24.01300 24.20400
C  -8.96000 21.74900 26.65700
C  -8.65000 22.00000 23.35400
O  -8.44500 22.23500 22.18400
C  -9.64700 20.88900 23.66900
N  -5.15700 26.49400 23.46400
C  -5.83300 25.72900 22.58000
C  -5.56800 26.17300 21.07800
C  -4.70300 27.43400 21.33900
C  -4.52500 27.51000 22.82500
C  -4.83600 25.04500 20.34300
C  -5.29500 28.74000 20.67200
C  -4.37000 29.49500 19.72700
N  -3.97700 27.64900 25.82900
C  -3.37600 28.47900 24.81900
C  -2.46400 29.45000 25.46800
C  -2.55200 29.07200 26.82600
C  -3.50800 28.05100 27.02200
C  -1.67000 30.52200 24.74100
C  -2.01800 29.34000 28.14900
O  -1.22200 30.16300 28.59800
C  -2.80000 28.38900 29.16500
C  -1.75200 27.55000 29.80700
O  -1.26200 26.50900 29.38600
O  -1.24500 28.18600 30.90000
C  -0.40100 27.43000 31.74100
H  -7.75000 23.48900 28.47600
H  -7.15400 24.19800 22.07700
H  -3.32800 29.16500 22.73900
H  -4.27000 26.16000 30.73200
H  -6.89400 24.99100 30.50000
H  -4.21300 23.91900 30.61000
H  -5.17600 22.93600 29.43200
H  -5.73000 23.05200 31.03700
H  -7.14500 27.13400 30.78200
H  -6.01200 28.21700 29.96300
H  -6.56200 28.40600 32.53900
H  -5.16500 28.86700 31.94800
H  -8.62300 20.79200 26.25900
H  -10.02500 21.87800 26.46300
H  -8.78300 21.84800 27.72800
H  -10.23500 20.52200 22.82800
H  -10.38300 21.31900 24.34800
H  -9.09600 20.10100 24.18300
H  -6.49700 26.42300 20.56600
H  -3.73200 27.22500 20.89200
H  -4.39600 24.22100 20.90400
H  -4.14200 25.36500 19.56600
H  -5.68300 24.65300 19.77900
H  -5.61100 29.46700 21.42000
H  -6.21900 28.59000 20.11500
H  -5.00600 30.21300 19.20800
H  -3.90200 28.90900 18.93600
H  -3.60800 30.02800 20.29600
H  -2.02400 30.61900 23.71500
H  -0.60200 30.30800 24.71400
H  -1.71300 31.56000 25.07200
H  -3.36600 28.90600 29.94000
H  -0.42200 26.36000 31.53500
H  -0.75600 27.54300 32.76500
H  0.61100 27.76200 31.50900

