158

Mg 17.56400 -2.00400 27.85200
C  16.22600 0.02800 30.50100
C  19.59700 -3.40500 30.11100
C  19.13600 -3.45300 25.37700
C  15.63200 0.01700 25.65100
N  17.86100 -1.65100 30.13100
C  17.21300 -0.88300 30.94300
C  17.60100 -1.18700 32.39600
C  18.96000 -1.94100 32.19300
C  18.78200 -2.39900 30.71100
C  20.19300 -0.98700 32.51500
C  16.51000 -1.71900 33.31600
C  16.23000 -0.83400 34.50700
H  17.31400 -0.34400 35.49500
N  18.96400 -3.47600 27.77800
C  19.65200 -3.97800 28.83000
C  20.59000 -5.01000 28.41600
C  20.35300 -5.09300 26.97100
C  19.47200 -3.97700 26.64300
C  21.55900 -5.71300 29.28400
C  20.94400 -6.09500 25.95000
O  20.63700 -6.00400 24.74300
C  21.92000 -7.22600 26.35600
N  17.46400 -1.67000 25.89500
C  18.25200 -2.38500 25.05900
C  18.04700 -1.92800 23.61700
C  16.89300 -0.98600 23.65700
C  16.56400 -0.86100 25.15500
C  19.23500 -1.31000 22.78500
C  15.61600 -1.28200 22.70700
C  15.21300 -0.09700 21.87800
N  16.11700 -0.37900 27.97500
C  15.38200 0.29700 27.03000
C  14.38400 1.14600 27.65900
C  14.69200 1.11100 29.03000
C  15.77400 0.19600 29.15800
C  13.26300 1.84400 26.97300
C  14.35100 1.62500 30.29100
O  13.59400 2.48300 30.67000
C  15.29900 0.88000 31.29300
C  15.89000 1.95700 32.09400
O  16.86100 2.61200 31.75900
O  15.17600 2.03600 33.23600
C  15.56700 3.13500 34.16400
H  20.40700 -3.63200 30.80700
H  19.50800 -3.82600 24.42000
H  14.99700 0.52900 24.92400
H  17.90900 -0.23900 32.83700
H  19.00800 -2.83200 32.81900
H  20.93100 -1.14700 31.72900
H  20.68000 -1.29800 33.43900
H  20.06500 0.09600 32.53200
H  16.83400 -2.72600 33.57800
H  15.52700 -1.83700 32.85900
H  15.49800 -1.32100 35.15100
H  15.63200 -0.00200 34.13400
H  21.30800 -6.77300 29.32400
H  21.66000 -5.36100 30.31100
H  22.51300 -5.40400 28.85800
H  22.87800 -6.80200 26.65700
H  22.15600 -7.88900 25.52300
H  21.43000 -7.78900 27.15100
H  17.81700 -2.79300 22.99500
H  17.22600 0.04800 23.56700
H  19.22900 -0.22100 22.76700
H  19.29200 -1.61900 21.74100
H  20.12500 -1.69000 23.28700
H  14.81800 -1.37900 23.44400
H  15.76400 -2.19500 22.12900
H  14.84800 -0.47000 20.92100
H  15.98500 0.64100 21.66200
H  14.34500 0.37900 22.33300
H  12.63100 2.23400 27.77100
H  12.60300 1.14100 26.46400
H  13.55600 2.66300 26.31600
H  14.58300 0.21600 31.77800
H  15.26000 4.09900 33.75900
H  16.64400 3.04200 34.30500
H  15.24000 2.98800 35.19300
Mg -1.14200 33.81600 26.69500
C  -2.93600 32.10000 29.44500
C  0.57600 35.46700 28.94200
C  0.24800 35.26700 24.16400
C  -3.60100 32.24600 24.59000
N  -1.45600 33.96300 28.95700
C  -2.08800 33.12900 29.85000
C  -1.73900 33.58900 31.24800
C  -0.67600 34.73600 31.07200
C  -0.54600 34.81700 29.60200
C  -0.91800 36.17800 31.72800
C  -1.13100 32.41000 32.11700
C  -1.59400 32.10400 33.54000
H  -0.73200 32.73700 34.66600
N  0.31600 35.07500 26.54200
C  0.95600 35.61900 27.60500
C  2.05000 36.42000 27.08900
C  1.92100 36.47000 25.67700
C  0.82000 35.58200 25.38300
C  3.05100 37.12500 27.95000
C  2.77400 37.27000 24.66500
O  2.64100 37.06400 23.47100
C  3.73900 38.35800 25.08300
N  -1.66500 33.75800 24.75800
C  -0.92700 34.54000 23.90500
C  -1.66700 34.60200 22.57500
C  -2.85200 33.62900 22.64400
C  -2.70000 33.10100 24.07800
C  -2.12600 36.06700 22.21100
C  -2.91200 32.58700 21.54600
C  -1.78100 31.50800 21.48300
N  -2.90600 32.41400 26.94700
C  -3.66600 31.85000 25.98400
C  -4.45900 30.77400 26.58800
C  -4.24800 30.85500 27.96100
C  -3.29800 31.86400 28.12500
C  -5.47900 29.95000 25.89400
C  -4.57000 30.25400 29.20400
O  -5.12800 29.20300 29.54800
C  -3.83100 31.16800 30.27200
C  -4.88700 31.92200 31.08800
O  -5.53600 32.91000 30.77500
O  -4.97900 31.32500 32.29600
C  -5.93400 31.89100 33.24000
H  1.23600 35.84100 29.72700
H  0.66500 35.66800 23.23800
H  -4.31300 31.75000 23.92700
H  -2.67300 33.80900 31.76500
H  0.33600 34.45000 31.35800
H  -1.62300 35.97100 32.53300
H  -1.28700 36.87500 30.97600
H  0.06900 36.48000 32.07800
H  -0.05300 32.52100 32.23100
H  -1.23200 31.44400 31.62400
H  -1.54200 31.01800 33.62500
H  -2.62200 32.45500 33.61900
H  2.63600 38.11800 28.12400
H  3.99400 37.17700 27.40700
H  3.11400 36.69300 28.94900
H  4.73000 37.90300 25.06700
H  3.42700 38.76500 26.04500
H  3.83500 39.09800 24.28900
H  -1.03200 34.25700 21.75900
H  -3.79600 34.17300 22.59700
H  -3.21300 36.06900 22.12700
H  -1.52500 36.37400 21.35500
H  -1.95900 36.79400 23.00600
H  -2.96500 33.15000 20.61400
H  -3.87600 32.09500 21.67900
H  -2.16800 30.51400 21.71100
H  -0.99500 31.72800 22.20500
H  -1.36200 31.35700 20.48800
H  -5.23500 28.89300 26.00600
H  -5.61800 30.15300 24.83200
H  -6.44500 30.03700 26.39200
H  -3.14500 30.54300 30.84300
H  -5.37400 32.46600 33.97800
H  -6.49900 31.13000 33.77800
H  -6.68900 32.59200 32.88400

