158

Mg 36.05800 49.41300 24.61200
C  36.47100 47.14500 27.37000
C  34.79500 51.66100 26.64800
C  35.27600 51.02800 21.84100
C  36.83600 46.44700 22.45100
N  35.65100 49.36400 26.70400
C  36.03200 48.43000 27.69300
C  35.75600 48.90100 29.11900
C  35.00000 50.24500 28.85000
C  35.08000 50.43600 27.32200
C  33.47300 50.37800 29.42100
C  37.05800 49.04900 29.94000
C  37.01900 48.33100 31.32600
H  35.65900 48.56100 32.14800
N  35.27000 51.10400 24.29500
C  34.87400 51.97400 25.29100
C  34.60100 53.19400 24.63100
C  34.77900 53.11200 23.23000
C  35.13000 51.68100 23.06200
C  34.10000 54.37900 25.42600
C  34.68700 54.18000 22.10800
O  34.85700 53.82600 20.96900
C  34.44300 55.56200 22.43200
N  36.22200 48.81900 22.40800
C  35.72300 49.72500 21.54400
C  35.79400 49.16400 20.10500
C  36.72100 47.90000 20.28600
C  36.49600 47.65700 21.78000
C  34.41700 48.85700 19.53400
C  38.19200 48.12100 19.92400
C  38.92100 47.07900 19.16200
N  36.56500 47.25400 24.83200
C  36.79400 46.22400 23.82400
C  37.20200 45.03500 24.56300
C  37.00800 45.31200 25.90900
C  36.68000 46.69100 26.04300
C  37.70700 43.80600 23.91500
C  37.20700 44.80300 27.30700
O  37.58200 43.72100 27.67600
C  36.83600 45.99000 28.33100
C  35.66500 45.48600 29.18800
O  34.48100 45.55500 28.87500
O  36.17600 45.08800 30.34600
C  35.18000 44.69300 31.32400
H  34.45300 52.48600 27.27600
H  34.89000 51.53000 20.95100
H  37.01500 45.58000 21.81200
H  35.00900 48.27200 29.60500
H  35.31100 51.14800 29.37500
H  33.03400 49.46900 29.83300
H  32.81200 50.72700 28.62700
H  33.44500 51.18500 30.15300
H  37.21800 50.09800 30.18700
H  37.86900 48.71600 29.29200
H  37.84300 48.77400 31.88400
H  37.19400 47.29400 31.04000
H  33.66700 55.17500 24.82000
H  34.95500 54.75500 25.98800
H  33.41100 54.00700 26.18400
H  33.41000 55.60100 22.77800
H  34.54300 56.21500 21.56500
H  35.11300 55.98700 23.18000
H  36.22700 49.96200 19.50200
H  36.38500 46.96900 19.82800
H  34.02200 49.82600 19.23100
H  33.70400 48.39700 20.21800
H  34.57900 48.36600 18.57500
H  38.70900 48.37500 20.85000
H  38.26300 49.07700 19.40600
H  38.21500 46.54200 18.52900
H  39.33500 46.39700 19.90400
H  39.72000 47.52500 18.57000
H  36.87200 43.17200 23.61800
H  38.37400 43.25900 24.58200
H  38.17200 44.11600 22.97900
H  37.68800 46.09900 29.00200
H  35.53300 44.85500 32.34300
H  34.87800 43.66500 31.12600
H  34.28800 45.30300 31.18400
Mg 26.92400 49.92300 26.23100
C  25.02500 51.08200 29.04900
C  29.43400 49.07900 28.41000
C  28.57800 48.82800 23.69400
C  24.40500 51.19700 24.17300
N  27.28100 50.38500 28.55100
C  26.23600 50.48700 29.46000
C  26.57500 49.88200 30.81400
C  28.02200 49.44800 30.66700
C  28.31100 49.62900 29.12000
C  29.13100 50.06500 31.50300
C  25.54500 48.79600 31.25300
C  25.02500 48.96000 32.66900
H  25.79200 49.83700 33.65600
N  28.79900 49.23700 26.02500
C  29.68900 48.91000 27.02600
C  30.85800 48.32000 26.43500
C  30.67700 48.34800 25.01400
C  29.28500 48.84100 24.88300
C  32.13100 47.79700 27.24200
C  31.69300 47.97400 23.94200
O  31.46400 48.14600 22.74900
C  33.03000 47.39600 24.30400
N  26.68900 50.26400 24.13600
C  27.43700 49.45800 23.26800
C  26.70200 49.36000 21.94500
C  25.44800 50.14500 22.03800
C  25.49000 50.50600 23.52400
C  27.65100 49.61500 20.68800
C  24.11400 49.51500 21.51200
C  23.36900 50.39000 20.43500
N  25.14700 50.97400 26.45400
C  24.18500 51.38900 25.58200
C  23.12500 52.11800 26.28900
C  23.42900 51.99700 27.64100
C  24.65100 51.29900 27.71100
C  22.02700 52.81500 25.65500
C  22.86400 52.30000 28.87600
O  21.90500 52.95400 29.18300
C  23.88100 51.70800 29.91100
C  24.40300 52.86300 30.72000
O  25.13800 53.74600 30.31800
O  23.69300 52.87500 31.92000
C  24.12200 54.03000 32.75000
H  30.20700 48.68600 29.07400
H  28.91600 48.11800 22.93700
H  23.52100 51.46000 23.58800
H  26.46400 50.66500 31.56500
H  28.06200 48.37000 30.82600
H  30.11200 50.08800 31.03100
H  29.30000 49.64700 32.49600
H  28.86900 51.10700 31.68600
H  25.93500 47.77900 31.20900
H  24.71800 48.80600 30.54300
H  25.03000 48.01400 33.21000
H  23.98300 49.26000 32.55800
H  33.00700 48.32600 26.86500
H  32.31100 46.72900 27.11900
H  32.18400 48.05200 28.30000
H  33.58700 48.15300 24.85600
H  33.52300 47.10400 23.37700
H  32.66800 46.57600 24.92500
H  26.35900 48.32700 21.87500
H  25.49700 51.18000 21.70100
H  28.63500 49.69600 21.15000
H  27.27400 50.45600 20.10500
H  27.61500 48.86300 19.89900
H  23.49700 49.30700 22.38600
H  24.40600 48.63800 20.93400
H  23.75500 51.38200 20.20000
H  22.29200 50.41500 20.60600
H  23.44100 49.82700 19.50500
H  21.78600 52.37600 24.68700
H  22.20900 53.85100 25.37100
H  21.17200 52.72600 26.32500
H  23.37700 50.92600 30.47900
H  24.00900 55.01100 32.28800
H  25.17200 53.96000 33.03500
H  23.53200 53.97900 33.66500

