158

Mg 8.31500 2.76300 27.27300
C  9.81200 1.05900 30.05500
C  7.00300 4.94900 29.44700
C  6.46400 3.78600 24.74600
C  9.68100 0.21300 25.25100
N  8.32200 2.86200 29.55100
C  9.09200 2.16600 30.43100
C  8.92600 2.77700 31.83100
C  7.88800 3.94900 31.62600
C  7.79100 4.00900 30.13100
C  6.56800 3.71800 32.40500
C  10.28300 3.29900 32.39200
C  10.13700 3.92900 33.79500
H  11.09900 3.47400 34.91500
N  7.02200 4.26400 27.04700
C  6.62900 5.06800 28.08900
C  5.79700 6.18000 27.50800
C  5.54400 5.83800 26.11300
C  6.33100 4.59900 25.91000
C  5.49500 7.39000 28.29000
C  4.78500 6.50700 25.06200
O  4.63000 5.92200 23.96300
C  3.96400 7.69400 25.28200
N  8.02300 2.14100 25.29500
C  7.15800 2.65400 24.39700
C  7.14200 2.06600 23.03700
C  8.33400 1.06900 23.11500
C  8.72600 1.13300 24.62300
C  5.77400 1.56400 22.61000
C  9.49200 1.48300 22.15100
C  10.23900 0.31100 21.58800
N  9.51000 1.13700 27.51800
C  9.97200 0.14400 26.59000
C  10.84200 -0.78400 27.31700
C  10.80600 -0.44500 28.62800
C  9.96200 0.67000 28.73600
C  11.60900 -1.99100 26.83600
C  11.26100 -0.84100 29.96600
O  11.98600 -1.81300 30.33400
C  10.62200 0.16200 30.96800
C  10.02500 -0.57800 32.15000
O  8.96800 -1.14100 32.11500
O  10.91900 -0.49600 33.26600
C  10.30200 -1.16100 34.42000
H  6.74400 5.79600 30.08600
H  5.81600 3.92000 23.87800
H  10.04400 -0.60500 24.62500
H  8.49200 2.00800 32.47000
H  8.28500 4.94700 31.81100
H  5.77400 3.47700 31.69900
H  6.22900 4.61500 32.92300
H  6.67000 2.97800 33.19900
H  10.84400 3.97700 31.74900
H  11.02700 2.51300 32.52200
H  9.07900 3.75100 33.98500
H  10.42300 4.97700 33.70300
H  6.03900 7.47200 29.23100
H  4.43200 7.41700 28.53200
H  5.77000 8.15400 27.56200
H  3.02400 7.59400 24.73900
H  4.44000 8.66200 25.12600
H  3.74900 7.67800 26.35000
H  7.46200 2.83200 22.33200
H  7.92600 0.09000 22.86200
H  5.33800 2.30900 21.94400
H  5.09300 1.40500 23.44600
H  5.86700 0.63900 22.04000
H  10.17200 2.12200 22.71400
H  9.19300 2.14500 21.33800
H  10.47600 0.48700 20.53900
H  9.71700 -0.62200 21.80000
H  11.21000 0.29000 22.08400
H  11.44700 -2.76100 27.59000
H  12.64000 -1.64600 26.75500
H  11.11600 -2.31000 25.91700
H  11.43800 0.79700 31.31200
H  10.09700 -2.22900 34.34100
H  9.44400 -0.56500 34.73100
H  10.90900 -1.14300 35.32600
Mg -1.13800 33.87300 27.67900
C  -2.58200 32.18800 30.51600
C  0.66200 35.83100 29.89800
C  -0.43500 35.80300 25.11900
C  -3.48000 32.18000 25.58700
N  -0.95100 33.88500 29.98500
C  -1.65000 33.18900 30.98800
C  -1.24100 33.55000 32.43400
C  -0.14700 34.63500 32.09200
C  -0.12500 34.83600 30.56700
C  -0.39400 35.96700 32.88900
C  -0.68300 32.29200 33.12200
C  -1.16100 31.95600 34.50600
H  -0.23200 32.41700 35.67500
N  -0.03200 35.62200 27.53000
C  0.74800 36.26500 28.53900
C  1.51600 37.31400 27.82200
C  1.24200 37.31900 26.42500
C  0.21400 36.24100 26.33100
C  2.49400 38.16400 28.57800
C  1.81100 38.09100 25.26100
O  1.57700 37.95100 24.07400
C  2.93900 39.04300 25.52800
N  -2.07800 34.09400 25.71000
C  -1.48000 34.87900 24.82800
C  -1.73900 34.47300 23.37800
C  -2.61900 33.22900 23.44500
C  -2.75000 33.16900 25.00500
C  -2.29300 35.62200 22.58300
C  -2.09600 31.90900 22.87100
C  -1.15500 30.98200 23.73800
N  -2.62900 32.47600 27.93800
C  -3.50500 31.84900 26.96700
C  -4.36900 30.89700 27.72000
C  -4.02600 31.08100 29.05300
C  -2.96500 31.98400 29.18900
C  -5.49600 30.13500 27.16000
C  -4.38300 30.62100 30.38500
O  -5.15000 29.74400 30.72700
C  -3.43800 31.29000 31.34000
C  -4.26900 31.99700 32.31400
O  -4.48100 33.21900 32.29700
O  -4.66400 31.16800 33.33000
C  -5.43600 31.75300 34.39300
H  1.29700 36.45300 30.53300
H  -0.03000 36.14600 24.16500
H  -4.05100 31.57300 24.88100
H  -2.04800 33.98400 33.02400
H  0.85200 34.31600 32.39000
H  0.50200 36.42100 33.31200
H  -1.05100 35.70100 33.71700
H  -0.87900 36.61400 32.15800
H  0.39900 32.38900 33.21600
H  -0.75500 31.45700 32.42500
H  -1.13900 30.87300 34.63000
H  -2.09100 32.47900 34.73000
H  3.49600 37.93400 28.21500
H  2.49300 37.88100 29.63000
H  2.15600 39.19000 28.72000
H  3.21700 39.52500 24.59100
H  3.78100 38.43900 25.86600
H  2.56400 39.69200 26.32000
H  -0.81600 34.07000 22.96100
H  -3.58500 33.41300 22.97500
H  -1.63900 35.61600 21.71100
H  -2.29000 36.59500 23.07300
H  -3.30400 35.42200 22.22600
H  -1.43500 32.17700 22.04700
H  -2.85100 31.29900 22.37600
H  -0.97800 31.32600 24.75700
H  -0.17200 30.96700 23.26700
H  -1.61200 29.99400 23.79300
H  -6.41500 30.39200 27.68800
H  -5.39900 29.05000 27.16500
H  -5.65400 30.31800 26.09800
H  -2.81100 30.61100 31.91800
H  -6.28100 32.36600 34.08100
H  -4.77700 32.34500 35.02800
H  -5.94900 30.93900 34.90500

