158

Mg 23.76700 -7.81600 47.05200
C  26.24100 -5.79600 45.68300
C  21.49500 -6.43600 44.71300
C  21.55000 -10.33500 47.86300
C  26.23500 -9.46300 48.98600
N  23.90500 -6.24300 45.48800
C  25.04000 -5.51800 45.10200
C  24.71400 -4.49900 44.07400
C  23.11300 -4.59000 43.94500
C  22.81600 -5.87800 44.74300
C  22.28600 -3.40100 44.47500
C  25.50600 -4.70900 42.77700
C  26.04300 -3.48400 42.05700
H  25.60600 -3.05600 40.71000
N  21.81300 -8.35100 46.35600
C  21.02500 -7.60500 45.48200
C  19.64800 -8.26500 45.41900
C  19.68800 -9.40400 46.32200
C  21.06700 -9.40000 46.97600
C  18.61300 -7.86000 44.46600
C  18.46300 -10.32500 46.52600
O  17.46100 -10.13500 45.91400
C  18.29600 -11.42600 47.54700
N  23.87700 -9.64900 48.21200
C  22.81000 -10.50700 48.43100
C  23.27000 -11.74000 49.29900
C  24.66900 -11.32900 49.77300
C  24.98400 -10.03700 48.97400
C  22.29500 -12.02100 50.50500
C  25.82700 -12.41800 49.46800
C  26.85500 -12.73700 50.55900
N  25.77800 -7.66800 47.37200
C  26.67200 -8.35400 48.21800
C  27.93500 -7.71900 48.14400
C  27.84500 -6.74900 47.14100
C  26.50100 -6.75700 46.70500
C  29.11700 -8.12700 48.87900
C  28.56200 -5.72800 46.44000
O  29.75800 -5.44200 46.43100
C  27.55100 -5.07400 45.43700
C  27.42100 -3.58100 45.83600
O  27.06700 -3.14700 46.95100
O  27.68000 -2.74400 44.74100
C  27.41300 -1.29600 45.02600
H  20.84000 -5.82600 44.08700
H  20.82800 -11.12100 48.09500
H  26.85300 -9.92100 49.76200
H  25.00300 -3.54200 44.51000
H  22.87000 -4.82000 42.90800
H  21.63900 -3.48100 45.34900
H  21.63700 -3.38300 43.59900
H  22.91800 -2.51700 44.56100
H  24.73400 -5.07200 42.09800
H  26.25400 -5.49500 42.88200
H  27.13000 -3.57200 42.06100
H  25.79800 -2.62500 42.68200
H  18.72700 -8.67900 43.75500
H  18.82400 -6.92300 43.95200
H  17.58000 -7.84700 44.81300
H  18.14600 -10.88800 48.48300
H  19.00400 -12.25400 47.58400
H  17.30300 -11.86900 47.48600
H  23.27300 -12.67400 48.73700
H  24.67400 -11.00800 50.81400
H  22.86100 -12.10400 51.43300
H  21.79700 -12.98100 50.37100
H  21.59700 -11.18300 50.51800
H  26.35900 -12.24300 48.53300
H  25.36900 -13.40100 49.35500
H  26.64800 -12.31200 51.54100
H  27.88800 -12.50300 50.30300
H  26.88800 -13.82000 50.68100
H  29.09800 -7.74100 49.89800
H  30.00500 -7.77400 48.35500
H  29.09000 -9.21700 48.88100
H  27.91500 -5.21500 44.42000
H  26.34000 -1.10800 44.99800
H  27.81000 -0.78400 44.15000
H  27.81100 -0.97800 45.99000
Mg 41.48200 40.95000 26.63400
C  40.90000 43.46700 29.07600
C  42.23100 38.79500 29.41200
C  42.50000 38.71200 24.48500
C  40.92500 43.32100 24.13400
N  41.76900 41.15600 28.99900
C  41.24000 42.20700 29.68900
C  41.12000 41.80500 31.14000
C  41.82300 40.44100 31.22300
C  41.99400 40.10300 29.79100
C  43.18300 40.48300 31.98900
C  39.60000 41.83300 31.65200
C  39.28500 42.97700 32.63300
H  38.79900 42.59200 34.00500
N  42.17500 38.97700 26.89100
C  42.38500 38.26600 28.07300
C  42.73100 36.89500 27.76200
C  42.79600 36.75600 26.32600
C  42.52200 38.19800 25.79500
C  42.90200 35.81800 28.78600
C  43.09700 35.50000 25.41500
O  43.02200 35.58800 24.16100
C  43.46800 34.27500 26.09500
N  41.76200 41.04200 24.60300
C  42.08100 39.91200 23.94000
C  42.07500 40.17300 22.37400
C  41.39600 41.52600 22.35700
C  41.38000 42.02700 23.78200
C  43.47000 40.05700 21.72300
C  39.97800 41.53300 21.77200
C  38.91100 40.61500 22.42300
N  40.93600 42.95100 26.58900
C  40.78200 43.79000 25.45900
C  40.30700 45.04800 26.02600
C  40.31600 44.98900 27.36000
C  40.80500 43.72600 27.69300
C  40.18600 46.26100 25.15200
C  40.07500 45.78500 28.52900
O  39.67100 46.94000 28.66500
C  40.47000 44.82900 29.71600
C  41.58800 45.39200 30.49400
O  42.77800 45.39900 30.23600
O  41.05100 45.91300 31.63100
C  41.96100 46.78700 32.40300
H  42.35600 38.08400 30.23200
H  42.76200 38.04700 23.65900
H  40.73900 44.00100 23.30100
H  41.65300 42.53400 31.75100
H  41.23300 39.64200 31.67300
H  43.89400 40.67200 31.18500
H  43.49600 39.53600 32.42800
H  43.29900 41.32000 32.67700
H  39.27300 40.85700 32.01100
H  38.89900 42.03600 30.84200
H  38.48700 43.56800 32.18400
H  40.13600 43.63300 32.81800
H  42.18800 35.04000 28.51800
H  42.74800 36.15100 29.81200
H  43.89900 35.39700 28.65100
H  43.78400 33.56100 25.33400
H  42.76900 33.68400 26.68800
H  44.34800 34.52400 26.68800
H  41.51000 39.33000 21.97800
H  42.07300 42.17100 21.79600
H  43.90400 40.87400 21.14600
H  43.41600 39.17000 21.09100
H  44.19800 39.74200 22.47000
H  40.08700 41.36100 20.70200
H  39.59500 42.54900 21.67500
H  38.02800 41.22500 22.61200
H  39.34200 40.26800 23.36200
H  38.66100 39.76700 21.78400
H  40.61700 46.10000 24.16400
H  40.75400 46.99200 25.72900
H  39.17100 46.65700 25.19300
H  39.61000 44.67000 30.36700
H  42.67200 47.34700 31.79600
H  42.39700 46.26000 33.25200
H  41.38000 47.63500 32.76700

