158

Mg 35.98700 49.34400 24.71800
C  36.46900 47.66800 27.85700
C  35.08000 52.11000 26.45900
C  35.44700 50.82500 21.77300
C  37.33900 46.50900 23.11700
N  35.68700 49.76000 26.96700
C  35.91900 48.91100 28.05100
C  35.65400 49.71000 29.40000
C  35.25600 51.16000 28.89000
C  35.33800 51.01500 27.36500
C  33.90500 51.72600 29.41000
C  36.78100 49.75000 30.56000
C  36.58900 49.06100 31.90500
H  35.13700 48.99400 32.48000
N  35.23300 51.19500 24.17300
C  35.03700 52.19100 25.06800
C  34.68800 53.42800 24.28200
C  34.54800 52.99000 22.90200
C  35.06300 51.59000 22.89100
C  34.24800 54.85600 24.97700
C  34.17600 53.70100 21.62700
O  33.95500 53.09000 20.55200
C  33.93100 55.24100 21.65700
N  36.37700 48.74400 22.70300
C  36.02700 49.56700 21.71100
C  36.41400 49.01300 20.33300
C  37.29200 47.72600 20.88600
C  36.92700 47.62700 22.28500
C  35.23800 48.64800 19.43300
C  38.85400 47.81800 20.64300
C  39.52300 49.20000 20.77200
N  36.63400 47.41900 25.29800
C  37.23300 46.39800 24.52900
C  37.64500 45.33900 25.44700
C  37.37300 45.81300 26.72600
C  36.78100 47.05500 26.62100
C  38.30000 44.07900 25.09100
C  37.32400 45.39200 28.12300
O  37.61100 44.26500 28.62800
C  36.88700 46.67000 28.98600
C  35.62900 46.16900 29.76200
O  34.44400 46.42600 29.45600
O  35.97500 45.43600 30.83600
C  34.93400 44.96400 31.69800
H  34.86800 53.09900 26.87200
H  35.11500 51.20500 20.80400
H  37.84200 45.67600 22.62300
H  34.83100 49.29400 29.98100
H  36.04400 51.87600 29.12600
H  33.74300 52.63400 28.82800
H  33.87900 52.04500 30.45200
H  33.03200 51.07700 29.33300
H  36.91400 50.77500 30.90500
H  37.71100 49.36200 30.14400
H  37.17800 49.51500 32.70100
H  37.01600 48.06200 31.81600
H  33.90800 54.72700 26.00500
H  33.41700 55.34200 24.46700
H  35.03600 55.59000 24.81000
H  34.86400 55.72300 21.95000
H  33.10800 55.46100 22.33800
H  33.62900 55.50500 20.64300
H  36.97200 49.80400 19.83200
H  37.07500 46.81800 20.32400
H  35.39000 49.17100 18.48800
H  34.32900 49.07100 19.86000
H  34.99600 47.60200 19.24900
H  39.08200 47.43300 19.64900
H  39.34200 47.11300 21.31700
H  39.02900 49.83700 21.50500
H  39.63100 49.78200 19.85600
H  40.51400 48.94600 21.15000
H  37.47300 43.37100 25.13800
H  39.06200 43.65100 25.74200
H  38.70400 44.06800 24.07800
H  37.71200 46.96600 29.63400
H  34.57700 44.00000 31.33400
H  34.08300 45.63300 31.82900
H  35.36500 44.93100 32.69800
Mg 9.71000 48.04900 26.62600
C  7.66300 48.19100 29.51800
C  12.19000 49.58400 28.53600
C  11.54800 48.02400 23.91100
C  6.83100 47.49800 24.71700
N  9.88100 48.88500 28.81000
C  8.97800 48.55300 29.77100
C  9.61200 48.91300 31.15300
C  10.76200 49.88700 30.74500
C  11.00100 49.43400 29.32000
C  10.43800 51.40400 30.90500
C  10.14800 47.72400 32.00500
C  9.92000 47.98700 33.48200
H  9.69900 46.81100 34.40700
N  11.62200 48.55800 26.31100
C  12.53500 49.09700 27.25100
C  13.86900 49.03600 26.59000
C  13.71000 48.65400 25.26100
C  12.22700 48.38800 25.06900
C  15.06600 49.38500 27.36900
C  14.79200 48.56100 24.15100
O  14.49000 48.29600 22.95900
C  16.21000 48.76200 24.48900
N  9.23000 47.99300 24.61100
C  10.16500 47.98300 23.65200
C  9.56500 47.76200 22.25300
C  8.09000 47.49100 22.46300
C  8.06400 47.57700 24.07100
C  9.78200 48.95300 21.26700
C  7.46600 46.18200 21.91300
C  7.41400 46.06700 20.39600
N  7.67500 47.82500 26.99700
C  6.59500 47.64200 26.08400
C  5.31800 47.56300 26.81900
C  5.74400 47.86100 28.13300
C  7.12700 47.96600 28.24900
C  3.99200 47.13300 26.28500
C  5.28900 47.93300 29.54800
O  4.18000 47.96300 30.10200
C  6.53900 48.02200 30.45300
C  6.58200 46.76700 31.31200
O  7.48000 45.92700 31.25100
O  5.54000 46.65800 32.15400
C  5.61000 45.73400 33.27900
H  12.99700 50.06700 29.09100
H  12.16300 47.82300 23.03100
H  5.91700 47.42700 24.12300
H  8.94600 49.50700 31.77900
H  11.66300 49.64600 31.30900
H  10.02000 51.67500 31.87500
H  9.74600 51.60600 30.08800
H  11.30500 51.99200 30.60200
H  11.22100 47.67600 31.81700
H  9.72000 46.75400 31.74800
H  9.00700 48.58200 33.51000
H  10.70900 48.58800 33.93300
H  15.78800 48.57200 27.29300
H  15.01500 49.56900 28.44200
H  15.44900 50.35900 27.06300
H  16.23400 49.72000 25.00900
H  16.83700 48.96400 23.62000
H  16.62200 47.95400 25.09500
H  10.01200 46.84800 21.85900
H  7.44900 48.30600 22.12700
H  8.86900 49.26400 20.75800
H  10.49800 48.61800 20.51700
H  10.33000 49.83000 21.61100
H  6.46100 45.99200 22.29100
H  8.03900 45.39600 22.40400
H  6.44800 45.61900 20.16200
H  8.09300 45.25200 20.14600
H  7.59900 46.96800 19.81200
H  3.60900 48.00900 25.76200
H  3.27600 46.98500 27.09400
H  4.12500 46.18900 25.75800
H  6.43200 48.92300 31.05600
H  6.44800 45.03700 33.27900
H  4.65300 45.23700 33.43700
H  5.83600 46.48400 34.03700

