158

Mg 42.66200 41.48300 26.80600
C  41.62800 43.69100 29.35700
C  43.96200 39.47600 29.26500
C  44.18200 39.81800 24.42300
C  41.79800 44.03400 24.46600
N  42.66200 41.51000 29.01300
C  42.03900 42.41300 29.82800
C  42.18300 42.09800 31.32200
C  42.92100 40.76700 31.28300
C  43.21200 40.53900 29.74400
C  44.28400 40.69800 32.08100
C  40.78600 41.99700 32.07500
C  40.99700 41.66800 33.57900
H  40.05800 42.42100 34.54200
N  43.86900 39.86500 26.85400
C  44.13000 39.03600 27.91300
C  44.83300 37.85000 27.37600
C  44.86500 37.87200 25.96000
C  44.34400 39.26300 25.72800
C  45.25300 36.80300 28.28700
C  45.46500 36.84800 24.87000
O  45.51700 37.11500 23.66400
C  46.02500 35.47200 25.33400
N  43.03200 41.84800 24.71500
C  43.52200 40.94900 23.98700
C  43.44300 41.28100 22.47100
C  42.58600 42.51800 22.54800
C  42.43800 42.85900 24.00700
C  44.77800 41.44800 21.72200
C  41.17600 42.24100 21.92500
C  40.14100 41.34400 22.67800
N  41.74400 43.40800 26.83800
C  41.50600 44.36200 25.80800
C  41.11700 45.58500 26.40500
C  41.17300 45.38100 27.80000
C  41.51000 44.05300 28.00700
C  40.71700 46.82000 25.72500
C  40.92400 46.02000 29.07500
O  40.49100 47.11000 29.38200
C  41.10300 44.91900 30.13900
C  42.05000 45.35600 31.23600
O  43.15000 45.82100 31.00400
O  41.37500 45.24800 32.40600
C  42.07000 45.86500 33.49800
H  44.36300 38.83800 30.05500
H  44.45900 39.18900 23.57500
H  41.57000 44.82300 23.74600
H  42.81300 42.82800 31.82900
H  42.25600 39.96900 31.61400
H  44.12000 41.28600 32.98400
H  45.10400 41.25900 31.63300
H  44.59900 39.68000 32.31100
H  40.18700 41.19600 31.64000
H  40.10800 42.83500 31.91000
H  42.01500 41.88000 33.90500
H  40.84600 40.60600 33.77200
H  46.29400 36.50800 28.15500
H  44.66900 35.97500 27.88600
H  45.13600 37.00200 29.35200
H  46.37100 35.01100 24.40900
H  45.35300 34.83600 25.91000
H  46.93500 35.75400 25.86200
H  42.85300 40.52700 21.95000
H  42.92700 43.40600 22.01500
H  45.70200 41.52800 22.29500
H  44.68200 42.34100 21.10500
H  45.06300 40.65900 21.02600
H  41.24000 41.89300 20.89400
H  40.62800 43.18300 21.91600
H  40.45000 41.06800 23.68600
H  39.95000 40.46700 22.06000
H  39.17700 41.84700 22.75300
H  40.11500 46.55300 24.85600
H  41.59700 47.41300 25.48000
H  40.18700 47.38900 26.48900
H  40.09700 44.73400 30.51600
H  42.87200 46.56400 33.26000
H  42.68700 45.03900 33.85300
H  41.46700 46.17500 34.35200
Mg 36.59000 49.28800 24.95900
C  36.49000 47.45300 28.05400
C  35.09600 51.94300 26.67000
C  36.45700 50.84400 21.99500
C  37.73200 46.40600 23.28500
N  35.84400 49.61400 27.07300
C  36.01300 48.76400 28.15200
C  35.57600 49.50300 29.41300
C  34.83400 50.81300 28.91400
C  35.33300 50.86100 27.48500
C  33.29100 50.98900 29.01200
C  36.60300 49.69100 30.48100
C  35.97500 49.43300 31.85900
H  34.54000 49.84000 32.16800
N  35.97200 51.10200 24.51200
C  35.38700 52.07400 25.30400
C  35.11900 53.29700 24.44400
C  35.53400 52.90300 23.10300
C  36.02100 51.54500 23.12400
C  34.64800 54.67300 25.04200
C  35.33400 53.78600 21.78300
O  35.77800 53.39900 20.70600
C  34.81400 55.21000 21.85900
N  36.96000 48.68800 22.94000
C  36.81100 49.53000 21.88700
C  37.22000 48.90400 20.51500
C  37.79000 47.53600 21.08000
C  37.53300 47.59100 22.53800
C  36.07300 48.77500 19.45700
C  39.33700 47.22400 20.73200
C  40.43500 47.93100 21.59300
N  36.97800 47.31000 25.44100
C  37.50200 46.23400 24.67600
C  37.64800 45.07500 25.54800
C  37.32600 45.56400 26.81000
C  36.89900 46.87300 26.75000
C  38.04200 43.73000 25.07700
C  37.22300 45.17400 28.21600
O  37.47000 44.10500 28.82100
C  36.64900 46.38100 29.10200
C  35.38700 45.90600 29.78800
O  34.27100 45.84300 29.22400
O  35.61800 45.66600 31.11900
C  34.47700 45.32000 32.00900
H  34.89400 52.89200 27.17000
H  36.60900 51.28500 21.00800
H  38.25400 45.65500 22.68900
H  34.79600 48.86000 29.81800
H  35.17300 51.58600 29.60400
H  32.76700 50.15700 29.48300
H  32.95300 51.03800 27.97700
H  32.90700 51.85700 29.54800
H  36.81300 50.75800 30.55400
H  37.50200 49.07800 30.40600
H  36.60400 49.93900 32.59200
H  36.08700 48.37000 32.07500
H  35.41500 55.42900 25.21300
H  34.19400 54.48200 26.01400
H  33.84900 54.93000 24.34600
H  33.72800 55.12900 21.88900
H  35.21100 55.57000 20.91000
H  35.25700 55.87500 22.60200
H  38.04400 49.51100 20.14300
H  37.26000 46.65000 20.73100
H  35.97700 47.78900 19.00300
H  36.36200 49.38900 18.60400
H  35.11200 49.11400 19.84400
H  39.47600 47.56800 19.70700
H  39.57900 46.16900 20.85500
H  40.04700 48.79500 22.13300
H  41.40900 48.02400 21.11300
H  40.62100 47.16400 22.34400
H  38.75800 43.95700 24.28700
H  37.19300 43.12100 24.76900
H  38.61900 43.21700 25.84700
H  37.43500 46.71200 29.78100
H  34.81700 45.10000 33.02100
H  34.03700 44.37800 31.68100
H  33.90900 46.25000 31.97600

