158

Mg 46.08900 4.44700 47.25900
C  43.95300 7.28200 46.61400
C  43.41100 2.53400 46.50700
C  48.18600 1.91200 47.28100
C  48.76900 6.75300 47.63100
N  43.84200 4.88900 46.67500
C  43.19600 6.06900 46.60600
C  41.70600 5.89600 46.26200
C  41.54500 4.35200 46.45700
C  43.01100 3.88400 46.56700
C  40.68300 3.87900 47.70300
C  41.27100 6.41000 44.82600
C  40.12100 7.48600 44.71800
H  40.40200 8.57000 43.68600
N  45.83500 2.41800 47.03600
C  44.65100 1.86000 46.84800
C  44.89400 0.47300 46.63800
C  46.26200 0.19300 46.75300
C  46.85800 1.45600 47.11500
C  43.73100 -0.56000 46.38400
C  46.97100 -1.12200 46.50300
O  46.34600 -2.08800 46.22100
C  48.41200 -1.24800 46.71600
N  48.23700 4.33700 47.13600
C  48.81600 3.13400 47.39400
C  50.24600 3.31000 47.90300
C  50.44600 4.86600 47.83800
C  49.09400 5.36100 47.46400
C  50.64400 2.65000 49.23000
C  51.47700 5.41200 46.78600
C  52.70300 6.11500 47.38400
N  46.38200 6.60200 47.06900
C  47.50700 7.33900 47.30400
C  47.15700 8.77200 47.16500
C  45.78600 8.81700 46.89100
C  45.34800 7.45900 46.83900
C  48.13200 9.90100 47.38300
C  44.69400 9.70500 46.67800
O  44.56700 10.94900 46.73800
C  43.46600 8.69100 46.40400
C  42.44800 9.05500 47.48200
O  42.28300 8.51100 48.58700
O  41.60600 10.04200 46.91500
C  40.51800 10.45200 47.88200
H  42.59100 1.82900 46.35100
H  48.91700 1.12100 47.45400
H  49.58000 7.46800 47.78700
H  41.15900 6.53400 46.95600
H  41.21700 3.91600 45.51400
H  39.84600 3.27000 47.36100
H  40.31300 4.72400 48.28500
H  41.40900 3.35400 48.32400
H  40.96500 5.57700 44.19300
H  42.23900 6.71700 44.42900
H  39.91800 8.04000 45.63500
H  39.18500 6.96800 44.50600
H  43.64600 -0.67100 45.30300
H  42.77000 -0.16100 46.70900
H  43.74500 -1.56400 46.80900
H  48.93400 -0.61800 45.99600
H  48.72400 -2.26600 46.48000
H  48.70700 -1.01900 47.74000
H  50.86800 2.77500 47.18500
H  50.55200 5.27200 48.84400
H  51.23900 1.74500 49.10500
H  49.70400 2.35900 49.69900
H  51.26300 3.35100 49.79000
H  51.02600 6.28700 46.31800
H  51.70800 4.61400 46.08000
H  52.27600 6.73000 48.17700
H  53.21900 6.82900 46.74200
H  53.39600 5.37200 47.77800
H  47.52300 10.57800 47.98100
H  48.47500 10.23000 46.40200
H  48.97600 9.48500 47.93400
H  43.08800 8.91000 45.40500
H  40.06300 11.41600 47.65100
H  40.92500 10.53300 48.88900
H  39.65100 9.79300 47.83600
Mg 42.13100 41.25900 26.89400
C  41.58000 43.57800 29.58100
C  43.28300 39.11900 29.30900
C  42.91600 39.21200 24.53600
C  41.35100 43.73000 24.62100
N  42.42000 41.32600 29.28200
C  42.01200 42.33300 30.07300
C  42.04500 41.94600 31.58000
C  42.82600 40.49300 31.46200
C  42.84300 40.30600 29.93900
C  44.16600 40.19300 32.18200
C  40.56700 41.98000 32.16500
C  40.26700 42.83300 33.37900
H  39.58700 42.27900 34.66100
N  43.03900 39.39500 26.89200
C  43.27400 38.58700 27.98200
C  43.77000 37.34100 27.51200
C  43.70600 37.29100 26.10700
C  43.19000 38.68900 25.78600
C  44.27600 36.31200 28.44800
C  43.88300 36.13600 25.13400
O  43.61600 36.35300 23.96600
C  44.33300 34.74300 25.57300
N  42.23500 41.54200 24.99800
C  42.42900 40.43500 24.21300
C  42.15400 40.67700 22.76000
C  41.71900 42.17500 22.77600
C  41.70100 42.49000 24.22200
C  43.33800 40.32200 21.74400
C  40.36200 42.31300 22.10100
C  39.13200 41.82100 22.89100
N  41.48400 43.23400 27.01600
C  41.27700 44.16400 25.99300
C  40.85400 45.44500 26.57200
C  40.92200 45.15300 27.97000
C  41.35300 43.85600 28.20600
C  40.47700 46.70800 25.78800
C  40.73900 45.83800 29.26200
O  40.37700 46.97200 29.53100
C  41.15000 44.82300 30.30900
C  42.22000 45.31500 31.18100
O  43.35400 45.57400 30.79100
O  41.75700 45.47700 32.40200
C  42.61900 46.17700 33.35200
H  43.65300 38.47500 30.10900
H  42.94000 38.49100 23.71600
H  41.09500 44.42500 23.81800
H  42.73900 42.59600 32.11200
H  42.17600 39.73200 31.89500
H  44.44200 40.96500 32.90000
H  45.01200 39.98200 31.52800
H  43.97300 39.27300 32.73500
H  40.26000 40.97200 32.44300
H  39.98800 42.33400 31.31100
H  39.55800 43.53700 32.94400
H  41.20400 43.36100 33.55400
H  44.15300 36.58000 29.49800
H  45.35800 36.20500 28.38300
H  43.93400 35.34200 28.08700
H  43.61100 34.22200 26.20200
H  45.13900 34.83700 26.30000
H  44.70800 34.32500 24.63900
H  41.34500 40.04300 22.39500
H  42.47600 42.76800 22.26200
H  43.96900 39.49400 22.06700
H  44.02200 41.16900 21.68600
H  42.85600 40.04100 20.80700
H  40.39000 41.76700 21.15800
H  40.17800 43.35700 21.84900
H  38.59600 41.15700 22.21200
H  38.66500 42.57100 23.52800
H  39.48100 41.06600 23.59600
H  40.84100 46.81200 24.76600
H  40.91700 47.50300 26.39000
H  39.39100 46.80000 25.81400
H  40.21000 44.49300 30.75200
H  42.14600 47.11300 33.64800
H  43.60300 46.47900 32.99500
H  42.65800 45.75000 34.35500

