158

Mg 50.00400 46.79100 42.22000
C  46.57800 47.13500 41.63600
C  49.88100 43.91500 40.27400
C  53.27200 46.82400 42.14200
C  49.91100 50.15200 43.26100
N  48.37500 45.73000 41.00100
C  47.10100 46.02500 40.99100
C  46.35800 45.20900 39.87900
C  47.44900 44.10800 39.47600
C  48.65000 44.64900 40.27700
C  47.05400 42.67000 39.85200
C  45.96000 46.21700 38.65700
C  44.53600 45.90600 38.16300
H  44.32500 45.70800 36.71500
N  51.40900 45.37900 41.38900
C  51.13500 44.25000 40.77400
C  52.40300 43.59400 40.63400
C  53.44200 44.46600 40.96400
C  52.71500 45.59200 41.58000
C  52.54700 42.23600 40.05100
C  54.89500 44.29200 40.70200
O  55.36200 43.34700 40.07400
C  55.90500 45.36000 41.00300
N  51.43900 48.38300 42.57900
C  52.75900 48.03400 42.55000
C  53.60000 49.17800 43.09000
C  52.45900 50.32100 43.38600
C  51.17900 49.55700 43.13500
C  54.43000 48.84600 44.41600
C  52.68400 51.62400 42.53500
C  52.20200 52.85500 43.33400
N  48.54700 48.27700 42.56800
C  48.68800 49.51400 43.05000
C  47.40100 50.17200 43.23800
C  46.48900 49.23500 42.67900
C  47.26700 48.09900 42.31500
C  47.11900 51.54700 43.76900
C  45.08200 48.91700 42.32300
O  44.05900 49.56900 42.38700
C  45.08100 47.46900 41.70900
C  44.46700 46.57200 42.62800
O  44.89400 46.25600 43.72400
O  43.32500 46.09300 42.06300
C  42.94000 44.82800 42.64500
H  49.71600 43.01500 39.67800
H  54.35100 46.85000 42.30700
H  49.94600 51.20400 43.55300
H  45.54100 44.63600 40.31700
H  47.74900 44.18900 38.43100
H  45.96800 42.57900 39.85000
H  47.40000 42.37600 40.84300
H  47.45000 42.11200 39.00300
H  46.70400 46.04700 37.87900
H  45.95400 47.26900 38.94400
H  43.84100 46.72000 38.37100
H  44.10000 45.06000 38.69300
H  53.27000 42.33400 39.24100
H  51.55300 41.88000 39.78400
H  53.03200 41.68600 40.85700
H  55.59600 46.34100 40.64300
H  56.84600 45.11800 40.50900
H  56.04400 45.42400 42.08200
H  54.29500 49.43100 42.29000
H  52.41700 50.62700 44.43100
H  55.48200 49.11200 44.30800
H  54.30400 47.87300 44.88900
H  54.11400 49.51600 45.21500
H  52.12600 51.34200 41.64200
H  53.74600 51.83400 42.41200
H  51.38300 53.32500 42.79000
H  52.99500 53.59200 43.46400
H  51.83200 52.65300 44.33900
H  46.07000 51.72100 44.00900
H  47.42600 52.24200 42.98800
H  47.80900 51.71800 44.59500
H  44.57500 47.51900 40.74500
H  41.91300 44.82200 43.01200
H  43.63200 44.32700 43.32200
H  43.03600 44.13500 41.80900
Mg 43.78600 41.76600 26.48400
C  42.73700 44.18000 28.83000
C  44.73900 39.79200 29.06900
C  44.77800 39.59500 24.22800
C  43.17900 44.24200 23.99000
N  43.89100 42.12200 28.71700
C  43.25200 43.07700 29.45200
C  43.15200 42.64500 30.96100
C  44.11400 41.43600 31.00700
C  44.37400 41.13400 29.50100
C  45.44800 41.66700 31.83700
C  41.63300 42.56900 31.37400
C  41.27700 41.70300 32.56900
H  40.61600 42.32400 33.84700
N  44.67700 39.97300 26.64900
C  44.95800 39.26400 27.79400
C  45.40300 37.90800 27.43900
C  45.52500 37.89000 26.05200
C  45.02100 39.15200 25.55500
C  45.74200 36.73400 28.48700
C  45.98000 36.73200 25.14500
O  45.88600 36.70100 23.91000
C  46.55400 35.46600 25.79100
N  43.92900 41.91200 24.34700
C  44.38600 40.87300 23.64800
C  44.33500 41.13700 22.12700
C  43.79400 42.64400 22.09600
C  43.60600 42.99200 23.52200
C  45.75300 41.02300 21.38000
C  42.52300 42.89300 21.20300
C  42.66100 43.98900 20.28000
N  43.08000 43.69900 26.33700
C  42.90000 44.58800 25.29100
C  42.32700 45.83300 25.76100
C  42.24900 45.67900 27.14700
C  42.77100 44.43100 27.46900
C  42.01100 46.93400 24.92800
C  41.90600 46.46700 28.40400
O  41.48000 47.56400 28.56400
C  42.11700 45.37500 29.55500
C  42.96500 45.99100 30.55500
O  44.11200 46.40900 30.41900
O  42.15500 46.25700 31.72400
C  42.82400 46.89500 32.87900
H  45.05100 39.04900 29.80600
H  45.02400 38.89300 23.42800
H  43.08800 45.05600 23.26800
H  43.54800 43.52500 31.46800
H  43.67300 40.55300 31.47100
H  46.34100 41.33300 31.30900
H  45.32500 40.99900 32.69000
H  45.52500 42.68900 32.21000
H  41.04100 42.14300 30.56400
H  41.37400 43.61600 31.53000
H  42.07500 41.04800 32.92000
H  40.55800 40.94600 32.25400
H  44.96600 35.98400 28.64000
H  45.85500 37.32300 29.39700
H  46.76000 36.35900 28.37700
H  46.93400 34.86500 24.96500
H  45.79000 34.95400 26.37500
H  47.40500 35.62800 26.45300
H  43.59100 40.49300 21.65900
H  44.61300 43.28900 21.77800
H  46.52800 41.38700 22.05500
H  45.77300 41.59100 20.45000
H  45.79600 39.96900 21.10800
H  41.76400 43.23100 21.90800
H  42.18200 41.99500 20.68800
H  43.64200 44.06600 19.81100
H  42.29100 44.90700 20.73600
H  42.02200 43.73900 19.43300
H  42.97800 47.43100 24.84400
H  41.39100 47.62200 25.50200
H  41.58400 46.65100 23.96600
H  41.12700 45.17800 29.96500
H  42.73900 46.29000 33.78200
H  42.55100 47.92600 33.10400
H  43.89100 46.93900 32.65900

