158

Mg 24.66900 1.53100 28.76300
C  26.67100 1.26100 31.62700
C  21.92900 1.74400 30.75700
C  22.75900 1.65300 25.88800
C  27.44700 0.78500 26.81500
N  24.40400 1.63600 30.92400
C  25.31300 1.56100 31.96100
C  24.67900 1.67600 33.36500
C  23.16500 1.51400 33.08000
C  23.14100 1.66000 31.43900
C  22.44600 0.18000 33.45300
C  25.14900 3.02700 34.06100
C  25.91200 3.03400 35.44400
H  25.27400 3.92700 36.56400
N  22.70500 1.78300 28.41600
C  21.75200 1.86600 29.34100
C  20.47800 2.03700 28.69100
C  20.68700 1.86400 27.31500
C  22.09800 1.66800 27.16000
C  19.13100 2.17100 29.48700
C  19.62200 1.65800 26.15900
O  19.99900 1.42400 25.01600
C  18.24400 1.81900 26.39600
N  25.05100 1.25600 26.70400
C  24.13800 1.50600 25.71900
C  24.71300 1.52800 24.29300
C  26.25800 1.35900 24.56800
C  26.25300 1.14800 26.11700
C  24.23000 0.48100 23.41400
C  27.13000 2.53600 24.05700
C  27.21400 3.74800 25.03100
N  26.61800 0.97400 29.12600
C  27.62200 0.78300 28.19100
C  28.85800 0.64100 28.91300
C  28.52300 0.71300 30.26100
C  27.15100 1.02100 30.34400
C  30.20100 0.36100 28.41000
C  28.98500 0.65500 31.61900
O  30.11700 0.40300 31.97500
C  27.86400 1.11500 32.58000
C  27.60000 -0.03400 33.51300
O  26.69600 -0.85000 33.54500
O  28.54900 -0.04900 34.48100
C  28.64000 -1.15700 35.39100
H  21.10800 1.90700 31.46000
H  22.26300 1.73100 24.91900
H  28.36000 0.61700 26.23900
H  24.98000 0.86800 34.03300
H  22.56400 2.33900 33.46300
H  22.01700 -0.26800 32.55700
H  21.53100 0.28700 34.03600
H  23.05900 -0.51900 34.02100
H  24.24000 3.61400 34.19000
H  25.79000 3.53000 33.33700
H  26.91700 3.41400 35.26300
H  26.07300 2.00300 35.76100
H  19.43000 2.62800 30.43000
H  18.80100 1.13700 29.58800
H  18.29600 2.75200 29.09500
H  17.98100 2.61000 27.09900
H  17.75000 0.89600 26.70000
H  17.76900 2.05000 25.44300
H  24.51300 2.45700 23.75700
H  26.70900 0.45500 24.15900
H  23.23100 0.78800 23.10600
H  24.10000 -0.33800 24.12200
H  24.92000 0.23000 22.60800
H  26.75000 2.93900 23.11900
H  28.15400 2.21200 23.87300
H  26.28200 3.96900 25.55000
H  27.44100 4.66700 24.48900
H  27.99500 3.57100 25.77000
H  31.00900 0.67400 29.07100
H  30.34300 0.83500 27.43900
H  30.30900 -0.68600 28.12500
H  28.13400 2.07400 33.02300
H  28.70200 -2.07400 34.80600
H  27.92300 -1.25600 36.20500
H  29.61800 -0.97900 35.83600
Mg -11.68400 39.29400 41.82300
C  -10.38300 36.09500 40.89700
C  -9.09300 40.77200 40.19200
C  -13.36100 42.14400 42.13600
C  -14.61600 37.57100 42.94700
N  -9.95100 38.44000 40.65500
C  -9.61400 37.10600 40.36500
C  -8.33700 37.04500 39.52000
C  -7.89000 38.53400 39.55300
C  -9.02200 39.29700 40.17900
C  -6.65100 38.65500 40.51100
C  -8.63800 36.47800 38.13600
C  -7.66900 35.45100 37.47600
H  -6.94200 35.88100 36.16100
N  -11.30000 41.26900 41.34600
C  -10.18800 41.68100 40.58800
C  -10.27400 43.12100 40.39500
C  -11.46600 43.55900 41.02100
C  -12.13100 42.31600 41.55500
C  -9.20800 44.00700 39.76600
C  -11.88300 44.99900 41.19600
O  -11.14600 45.93000 40.91100
C  -13.27100 45.31800 41.77100
N  -13.87100 39.72700 42.18900
C  -14.11900 41.01600 42.52800
C  -15.62500 41.12100 42.95400
C  -16.08700 39.69700 43.13000
C  -14.83600 38.91400 42.72400
C  -15.77400 42.01400 44.23500
C  -17.27600 39.29900 42.19100
C  -18.49500 40.17300 42.33400
N  -12.39300 37.26700 41.90000
C  -13.53000 36.71500 42.50100
C  -13.39300 35.32300 42.73500
C  -12.20400 35.01800 42.12100
C  -11.62500 36.20200 41.58900
C  -14.36800 34.40900 43.56300
C  -11.30900 33.93800 41.70400
O  -11.34800 32.75200 41.85800
C  -10.21900 34.58200 40.81600
C  -8.91600 34.14600 41.34400
O  -8.44100 33.08400 40.92600
O  -8.27100 35.00300 42.19200
C  -7.05800 34.40100 42.71600
H  -8.30500 41.31500 39.66600
H  -13.97600 43.03900 42.25400
H  -15.45900 37.08700 43.44400
H  -7.72300 36.37600 40.12200
H  -7.61900 38.87400 38.55400
H  -6.08500 37.75500 40.75100
H  -6.88400 39.17500 41.44000
H  -5.91900 39.22000 39.93400
H  -8.64400 37.33000 37.45700
H  -9.63400 36.04400 38.05100
H  -8.08300 34.49300 37.16000
H  -6.87800 35.12400 38.15200
H  -9.72400 44.76100 39.17200
H  -8.53800 43.35700 39.20200
H  -8.59700 44.60600 40.44200
H  -14.06200 44.80200 41.22700
H  -13.35300 46.40300 41.83300
H  -13.23400 45.02600 42.82000
H  -16.28500 41.59500 42.22800
H  -16.43200 39.53600 44.15200
H  -15.58600 43.04200 43.92700
H  -14.96700 41.85200 44.94900
H  -16.74300 42.08500 44.72900
H  -17.51400 38.25700 42.40500
H  -16.96700 39.29600 41.14600
H  -18.32700 40.97100 43.05800
H  -19.31900 39.58900 42.74400
H  -18.87500 40.64400 41.42600
H  -15.36000 34.63900 43.17400
H  -14.31800 34.57500 44.63900
H  -14.30800 33.36500 43.25600
H  -10.33000 34.39400 39.74800
H  -6.89300 35.04300 43.58100
H  -6.23000 34.37800 42.00700
H  -7.19500 33.37600 43.06300

