158

Mg 48.23500 16.36700 28.64800
C  46.16600 15.91500 31.37100
C  50.40600 18.00000 30.76400
C  49.97400 17.17700 25.97000
C  45.65700 15.07900 26.53500
N  48.23800 16.94700 30.82300
C  47.35000 16.55600 31.76600
C  47.76900 16.98800 33.16700
C  48.99100 17.91500 32.90500
C  49.25500 17.68900 31.39200
C  48.78100 19.49200 33.15300
C  48.12300 15.61800 33.80600
C  48.59300 15.64700 35.27900
H  48.59500 16.93800 36.21900
N  50.05700 17.39200 28.44100
C  50.82400 17.85700 29.43700
C  52.03100 18.40600 28.79200
C  51.97100 18.15200 27.36100
C  50.58400 17.59500 27.15000
C  53.07000 19.13100 29.55500
C  52.95800 18.35800 26.24500
O  52.70100 18.25100 25.06800
C  54.41600 18.69800 26.47300
N  47.82000 16.13000 26.48500
C  48.78500 16.45700 25.62800
C  48.34500 16.18200 24.17200
C  47.12300 15.26300 24.38200
C  46.82200 15.47600 25.90000
C  48.09700 17.43600 23.20800
C  47.32400 13.72100 24.10500
C  47.68300 12.75300 25.29100
N  46.33700 15.58900 28.85800
C  45.37000 15.07400 27.95100
C  44.24900 14.67600 28.61900
C  44.49100 15.03100 29.96100
C  45.76300 15.54500 30.05600
C  43.09100 14.09600 27.99600
C  43.89800 14.89800 31.27000
O  42.86100 14.35800 31.69300
C  44.96300 15.57800 32.19300
C  44.34200 16.71100 32.87900
O  43.93200 17.76000 32.45300
O  44.21200 16.39600 34.21500
C  43.60400 17.38100 35.09700
H  51.17100 18.39700 31.43500
H  50.54700 17.31000 25.05000
H  44.81600 14.61800 26.01300
H  46.98300 17.45000 33.76400
H  49.82700 17.47100 33.44600
H  47.79100 19.73800 33.53800
H  48.84300 20.00300 32.19300
H  49.57300 19.83900 33.81600
H  48.98800 15.20400 33.28800
H  47.41600 14.82300 33.56700
H  49.62700 15.33100 35.14200
H  48.07600 14.85800 35.82400
H  52.51400 19.84100 30.16600
H  53.73000 19.77000 28.96700
H  53.58300 18.39400 30.17200
H  55.02300 17.88800 26.87800
H  54.48100 19.52800 27.17600
H  54.84900 19.10000 25.55700
H  49.07100 15.51100 23.71300
H  46.25200 15.64100 23.84700
H  48.59000 18.28200 23.68700
H  47.06100 17.72800 23.03100
H  48.60300 17.08500 22.30800
H  48.15600 13.67500 23.40300
H  46.50000 13.29300 23.53500
H  47.81900 13.20900 26.27200
H  48.47500 12.03200 25.08500
H  46.85800 12.07400 25.50500
H  42.77600 14.85100 27.27600
H  42.33100 14.05200 28.77700
H  43.23100 13.09600 27.58600
H  45.22000 14.80200 32.91500
H  43.50000 18.40100 34.72600
H  44.08700 17.32900 36.07300
H  42.61200 16.95100 35.23500
Mg 0.39500 44.07100 25.86300
C  1.94600 44.27600 28.89600
C  -2.52300 43.13100 27.47300
C  -1.02900 43.33600 22.80000
C  3.41200 44.67800 24.24100
N  -0.16600 43.67600 27.87300
C  0.62500 43.86600 28.97200
C  -0.21900 43.82000 30.28700
C  -1.58400 43.15000 29.81700
C  -1.42800 43.34500 28.27600
C  -1.83500 41.67200 30.30500
C  -0.38200 45.22700 31.06500
C  -0.01100 45.30700 32.55900
H  0.02800 44.04000 33.41800
N  -1.57300 43.52200 25.25000
C  -2.57500 43.23100 26.04500
C  -3.71700 43.03900 25.20300
C  -3.29900 43.14800 23.83400
C  -1.91400 43.28400 23.93300
C  -5.05800 42.60700 25.73800
C  -4.06400 42.98500 22.50900
O  -3.55100 42.95900 21.39500
C  -5.57300 42.82200 22.56600
N  1.04500 44.08100 23.87300
C  0.28600 43.71300 22.80300
C  1.17500 43.62400 21.56100
C  2.45200 44.43500 21.89900
C  2.31700 44.35800 23.43300
C  1.34300 42.10600 21.08900
C  2.58300 45.82200 21.17800
C  3.81000 46.10100 20.20300
N  2.30500 44.36000 26.41200
C  3.40100 44.65400 25.69800
C  4.49800 44.85300 26.56700
C  4.02200 44.63100 27.87800
C  2.69500 44.44500 27.73400
C  5.96700 45.13900 26.11500
C  4.34400 44.62600 29.31400
O  5.38400 44.78800 29.93400
C  2.97500 44.37000 30.04400
C  3.20700 43.11000 30.82800
O  3.09700 42.01800 30.29300
O  3.71400 43.41300 32.06800
C  4.19600 42.24800 32.85600
H  -3.44700 42.77900 27.93700
H  -1.34100 43.10100 21.78000
H  4.42000 44.73200 23.82500
H  0.25200 43.10400 30.96000
H  -2.45200 43.72400 30.13900
H  -1.00600 41.45500 30.97900
H  -1.83100 41.01200 29.43800
H  -2.82500 41.69900 30.75900
H  -1.36100 45.66800 30.87800
H  0.27900 45.93700 30.56700
H  -0.76100 45.86700 33.11800
H  0.89500 45.90900 32.63200
H  -4.96100 42.19500 26.74200
H  -5.65000 41.94300 25.10700
H  -5.63000 43.48400 26.04200
H  -6.10300 43.28400 23.39900
H  -5.64100 41.75000 22.74800
H  -6.06600 42.99500 21.60900
H  0.65200 44.12400 20.74600
H  3.33300 43.82700 21.69300
H  2.39600 41.92500 20.87400
H  0.69900 41.79400 20.26700
H  1.15800 41.43300 21.92700
H  2.71300 46.52300 22.00400
H  1.72000 45.92000 20.52000
H  4.59000 46.60000 20.77800
H  3.58000 46.63300 19.28000
H  4.10600 45.12900 19.80900
H  5.93200 45.90500 25.34100
H  6.21600 44.15700 25.71300
H  6.63300 45.34700 26.95300
H  2.86000 45.28100 30.63100
H  5.24800 41.96900 32.79400
H  3.70600 41.31100 32.59100
H  3.91900 42.36900 33.90300

