158

Mg 9.34600 47.72800 26.25400
C  7.21400 48.13800 29.03600
C  11.85100 49.08400 28.49300
C  11.55700 47.73900 23.70600
C  6.79500 47.07500 24.24500
N  9.50400 48.46800 28.53300
C  8.50500 48.25100 29.45100
C  8.88400 48.54100 30.90100
C  10.43000 48.93100 30.71800
C  10.63800 48.90500 29.15700
C  10.81200 50.29600 31.38400
C  8.67200 47.36300 31.89100
C  9.62200 46.83500 32.96000
H  8.94800 46.31500 34.23500
N  11.43400 48.24500 26.11800
C  12.24100 48.80800 27.13900
C  13.55800 48.88600 26.57200
C  13.45000 48.39200 25.22200
C  12.12000 48.12400 24.99900
C  14.84000 49.40700 27.21900
C  14.62200 48.33600 24.21300
O  14.50800 47.94800 23.09600
C  16.05100 48.67400 24.61900
N  9.20400 47.42300 24.24300
C  10.19700 47.43400 23.39200
C  9.78000 47.03900 21.94400
C  8.27600 46.97200 22.12200
C  8.05300 47.12000 23.67500
C  10.29700 47.95900 20.79200
C  7.67200 45.63400 21.48800
C  7.34600 45.64600 20.00400
N  7.39100 47.60800 26.53300
C  6.40600 47.27500 25.60000
C  5.08300 47.36900 26.20200
C  5.34000 47.71000 27.55200
C  6.73700 47.84700 27.67900
C  3.69100 47.04300 25.51300
C  4.74200 48.07200 28.78000
O  3.57500 48.12900 29.08500
C  5.91900 48.29600 29.77000
C  5.60900 47.23200 30.83900
O  5.98500 46.06000 30.83200
O  5.04500 47.78600 31.99500
C  4.53900 46.63500 32.77800
H  12.69800 49.41000 29.10000
H  12.22300 47.74900 22.84100
H  5.98600 46.88000 23.53800
H  8.34600 49.44600 31.18400
H  11.05500 48.20900 31.24300
H  11.71100 50.18600 31.99100
H  10.02900 50.63500 32.06200
H  10.93100 51.15600 30.72400
H  8.53700 46.49700 31.24400
H  7.71800 47.64400 32.33700
H  10.39900 47.50900 33.32000
H  10.01500 45.91500 32.52800
H  14.47300 49.66900 28.21100
H  15.17800 50.30900 26.70900
H  15.54500 48.62600 27.50300
H  16.14400 48.00600 25.47500
H  16.04400 49.75800 24.72500
H  16.82900 48.34200 23.93100
H  10.20000 46.05800 21.72600
H  7.89800 47.88600 21.66500
H  11.03400 48.68700 21.13000
H  9.57100 48.52300 20.20700
H  10.72100 47.26800 20.06400
H  6.77600 45.24100 21.96900
H  8.38800 44.83300 21.67300
H  7.57000 46.56400 19.46100
H  6.31400 45.31300 19.89200
H  7.99100 44.97400 19.43700
H  3.87600 46.69000 24.49900
H  3.20400 48.01800 25.47000
H  3.26200 46.28200 26.16500
H  5.79000 49.30900 30.15100
H  3.98100 45.97900 32.11000
H  3.88700 46.97200 33.58400
H  5.29000 45.97300 33.21000
Mg -12.20800 16.22100 42.20000
C  -9.01500 14.93800 41.29200
C  -11.29400 19.13600 40.77800
C  -15.46200 17.19000 42.41000
C  -13.12400 12.92000 42.83100
N  -10.43400 16.82500 40.99100
C  -9.20500 16.20200 40.76100
C  -8.16400 17.10300 40.14000
C  -8.86000 18.49000 40.09600
C  -10.31200 18.13200 40.57600
C  -8.18000 19.57900 41.00700
C  -7.64200 16.49800 38.81200
C  -6.13300 16.56300 38.62900
H  -5.54300 17.44500 37.43900
N  -13.27100 17.90200 41.72300
C  -12.67100 18.98900 41.26900
C  -13.63800 20.07200 41.13100
C  -14.88500 19.50700 41.49400
C  -14.60500 18.16100 41.92800
C  -13.30700 21.42300 40.55600
C  -16.31000 20.16700 41.34400
O  -16.45700 21.36400 41.03700
C  -17.55600 19.38000 41.68200
N  -14.05600 15.25500 42.47200
C  -15.25100 15.81100 42.62800
C  -16.34900 14.85200 43.24800
C  -15.62600 13.44300 43.06400
C  -14.11100 13.90800 42.84000
C  -16.57800 15.16600 44.82400
C  -16.06300 12.78200 41.74300
C  -17.03300 11.59000 41.76200
N  -11.22100 14.34200 42.35600
C  -11.74500 13.09900 42.61000
C  -10.73000 12.06300 42.60900
C  -9.61500 12.78500 42.15700
C  -9.97000 14.13500 42.00100
C  -10.95200 10.61600 42.84200
C  -8.23500 12.65400 41.77100
O  -7.49700 11.69200 41.78900
C  -7.74100 14.05400 41.24500
C  -6.58900 14.55000 42.01400
O  -6.64200 15.03000 43.15300
O  -5.41400 14.47900 41.31800
C  -4.23400 14.99000 42.03900
H  -10.93300 20.04600 40.29300
H  -16.48300 17.44900 42.70000
H  -13.38700 11.89300 43.09400
H  -7.37000 17.06400 40.88600
H  -9.08900 18.90300 39.11400
H  -7.16700 19.36400 41.34700
H  -8.90600 19.64400 41.81800
H  -8.03900 20.45000 40.36700
H  -8.00500 17.07400 37.96100
H  -7.95800 15.45500 38.77300
H  -5.92400 15.56200 38.25200
H  -5.63900 16.76700 39.57800
H  -13.22200 21.33700 39.47300
H  -12.34300 21.86100 40.81400
H  -14.10800 22.11300 40.81900
H  -18.36900 20.09200 41.54200
H  -17.42600 19.24400 42.75600
H  -17.65700 18.42200 41.17100
H  -17.26000 14.94200 42.65800
H  -15.79500 12.88800 43.98700
H  -15.78200 15.73200 45.30700
H  -16.87500 14.25800 45.35100
H  -17.48100 15.77700 44.81600
H  -15.21100 12.41100 41.17300
H  -16.56400 13.54100 41.14300
H  -17.84800 11.81700 41.07500
H  -17.44700 11.45800 42.76200
H  -16.43900 10.75900 41.38100
H  -11.59600 10.46600 43.70900
H  -10.07700 9.99600 43.03800
H  -11.47500 10.21600 41.97400
H  -7.43700 13.86300 40.21600
H  -3.37500 14.71200 41.42800
H  -4.14800 14.47900 42.99800
H  -4.13600 16.07300 42.10300

