158

Mg 54.37100 24.19800 45.42200
C  52.04300 26.50100 44.56800
C  52.55700 21.77000 43.89500
C  57.10700 22.01200 45.49300
C  56.47100 26.67100 46.69700
N  52.47800 24.18300 44.38200
C  51.65100 25.24900 44.12500
C  50.37700 24.80800 43.34200
C  50.46400 23.29200 43.55500
C  51.92900 23.00700 44.06700
C  49.35700 22.63100 44.47200
C  50.37300 25.42100 41.94300
C  50.73300 24.49700 40.80700
H  50.94300 25.01200 39.31200
N  54.74500 22.12000 45.00900
C  53.85400 21.33700 44.33400
C  54.37900 19.96300 44.30800
C  55.70500 20.03400 44.64700
C  55.91500 21.41400 45.11600
C  53.52900 18.79300 43.84200
C  56.67400 18.86100 44.65500
O  56.31100 17.76400 44.24900
C  57.98400 18.95700 45.24000
N  56.44300 24.34800 46.12400
C  57.38200 23.31000 45.92700
C  58.78500 23.67300 46.53900
C  58.57000 25.20500 46.92300
C  57.07800 25.41200 46.61500
C  59.27100 22.75900 47.63300
C  59.48100 26.27000 46.32000
C  60.12200 27.21800 47.40600
N  54.33600 26.21100 45.48700
C  55.24600 27.08000 46.17700
C  54.54700 28.37500 46.23200
C  53.32400 28.20600 45.58200
C  53.27100 26.89200 45.10500
C  55.06900 29.65200 46.90700
C  52.13100 28.88100 45.22300
O  51.78500 30.04000 45.31300
C  51.21900 27.78700 44.61800
C  50.67000 28.23400 43.26800
O  51.34900 28.65900 42.37200
O  49.31300 28.09900 43.23300
C  48.57100 28.68200 42.03200
H  51.80600 21.01600 43.65200
H  58.00400 21.39200 45.55800
H  57.05000 27.55400 46.97600
H  49.47800 25.15300 43.85100
H  50.47900 22.68600 42.64900
H  48.61900 23.32400 44.87600
H  49.78900 21.90100 45.15600
H  48.81400 21.96500 43.80100
H  51.16700 26.15200 41.79200
H  49.40900 25.86400 41.69200
H  49.94100 23.75300 40.72000
H  51.56300 23.86700 41.12500
H  53.55100 18.72900 42.75400
H  52.47800 18.93500 44.09500
H  53.80800 17.83400 44.27700
H  58.51700 18.00700 45.19800
H  57.94800 19.19100 46.30500
H  58.58800 19.66300 44.67100
H  59.43300 23.51400 45.67700
H  58.64500 25.36300 47.99900
H  59.81800 21.93200 47.17900
H  58.51400 22.36000 48.30900
H  59.99600 23.20800 48.31100
H  58.76700 26.83200 45.71900
H  60.19700 25.65500 45.77400
H  60.77700 26.58500 48.00400
H  59.33500 27.52000 48.09700
H  60.41000 28.12300 46.87100
H  55.26200 30.38200 46.12100
H  55.97200 29.42300 47.47300
H  54.36400 30.06300 47.63000
H  50.34400 27.67800 45.25800
H  48.31000 27.98900 41.23200
H  49.01800 29.56100 41.56700
H  47.67000 29.14500 42.43200
Mg -11.70400 16.19500 41.59300
C  -8.62000 14.54100 41.35200
C  -10.33400 18.80500 39.86500
C  -14.79700 17.55900 41.45500
C  -13.00300 13.17800 42.81900
N  -9.64300 16.59400 40.75700
C  -8.53600 15.75800 40.73900
C  -7.35000 16.38000 40.07800
C  -7.96600 17.83500 39.65900
C  -9.39700 17.78500 40.18800
C  -7.24400 19.13200 40.12200
C  -6.73000 15.65200 38.87300
C  -5.15300 15.88500 38.84600
H  -4.57200 16.59500 37.60600
N  -12.38800 18.00200 40.85500
C  -11.70200 18.91800 40.21400
C  -12.54800 20.01200 39.93400
C  -13.83400 19.79100 40.49000
C  -13.73200 18.41500 40.98500
C  -11.97600 21.21200 39.19700
C  -15.10800 20.65000 40.46100
O  -15.06300 21.78800 39.94500
C  -16.39400 20.28400 41.16500
N  -13.65700 15.49600 42.08900
C  -14.75900 16.19100 41.90900
C  -16.06300 15.34000 42.20600
C  -15.45100 13.94800 42.63500
C  -13.92100 14.19600 42.51200
C  -16.92700 15.93600 43.37900
C  -15.96300 12.75200 41.84400
C  -15.83500 11.42200 42.64000
N  -11.06200 14.26100 42.09900
C  -11.69400 13.15100 42.61900
C  -10.73900 12.06800 42.67200
C  -9.51700 12.55100 42.16700
C  -9.78200 13.90400 41.85900
C  -11.11400 10.67500 43.18800
C  -8.07300 12.21800 41.97900
O  -7.43500 11.21900 42.32300
C  -7.44200 13.53400 41.51900
C  -6.48300 13.93800 42.52200
O  -6.69100 14.16900 43.74200
O  -5.30300 14.19500 41.87000
C  -4.21100 14.90000 42.60900
H  -9.89200 19.61900 39.28600
H  -15.84200 17.85900 41.35100
H  -13.49000 12.29200 43.23300
H  -6.57000 16.42500 40.83800
H  -7.95400 17.94700 38.57500
H  -6.41200 18.91700 40.79200
H  -7.94400 19.71200 40.72200
H  -6.93600 19.62600 39.20100
H  -7.15800 16.08000 37.96500
H  -6.97000 14.59000 38.82900
H  -4.60800 14.98600 39.13100
H  -4.87400 16.49200 39.70800
H  -12.74300 21.93800 38.92600
H  -11.42900 20.99300 38.28000
H  -11.43800 21.76200 39.96900
H  -16.82400 19.49700 40.54400
H  -17.11200 21.09700 41.05800
H  -16.21800 19.86500 42.15600
H  -16.64000 15.29400 41.28300
H  -15.77500 13.78300 43.66300
H  -16.66300 16.98800 43.48600
H  -16.73400 15.59700 44.39700
H  -18.00600 15.95600 43.22500
H  -15.41000 12.74400 40.90500
H  -17.02000 12.75700 41.57700
H  -16.66400 10.75000 42.41600
H  -15.69100 11.65200 43.69500
H  -14.98000 10.94800 42.15500
H  -10.27200 10.01100 42.98800
H  -12.02400 10.46400 42.62600
H  -11.42100 10.54500 44.22600
H  -6.97500 13.34900 40.55200
H  -4.42300 15.27900 43.60900
H  -3.89300 15.78200 42.05400
H  -3.37400 14.21600 42.74500

