158

Mg 44.29000 4.27000 47.15000
C  42.21900 7.13400 47.10900
C  41.31300 2.45400 46.79800
C  46.09700 1.52000 46.66300
C  47.01200 6.31200 46.40100
N  42.06500 4.76000 46.91100
C  41.52500 5.94600 47.11200
C  39.97500 5.93400 47.22200
C  39.76400 4.42900 47.26100
C  41.09300 3.84900 46.93700
C  39.20400 3.84000 48.57600
C  39.13900 6.61700 46.00600
C  39.84900 7.05200 44.71800
H  39.57400 6.13700 43.62900
N  43.77500 2.20400 46.76400
C  42.50300 1.74300 46.71300
C  42.60200 0.26400 46.63200
C  43.96800 -0.05100 46.56300
C  44.69700 1.25800 46.71700
C  41.36900 -0.73100 46.66600
C  44.49300 -1.46900 46.49400
O  43.72800 -2.37100 46.23100
C  45.96400 -1.74600 46.65200
N  46.18700 4.03800 46.51500
C  46.73300 2.79600 46.64500
C  48.33600 2.90900 46.82200
C  48.55800 4.30200 46.25400
C  47.13300 4.95000 46.38100
C  48.71900 2.71300 48.27300
C  49.12400 4.34700 44.81300
C  50.60500 4.37700 44.73200
N  44.62700 6.29800 46.94300
C  45.77800 7.01300 46.60100
C  45.51700 8.45300 46.70200
C  44.08700 8.50100 46.94100
C  43.62200 7.20100 47.05300
C  46.50700 9.62900 46.48200
C  42.93600 9.41400 47.06100
O  42.91800 10.63800 47.09600
C  41.77900 8.52600 47.30300
C  41.30600 8.73200 48.66700
O  41.84900 8.56800 49.73800
O  40.10200 9.30800 48.57600
C  39.35100 9.69400 49.77600
H  40.44300 1.79500 46.80500
H  46.83700 0.71700 46.68300
H  47.86100 6.97800 46.23500
H  39.59600 6.32500 48.16700
H  39.09800 4.11800 46.45600
H  38.82700 4.59000 49.27100
H  39.78300 3.02900 49.01600
H  38.25400 3.37100 48.31800
H  38.47000 7.37200 46.42000
H  38.38900 5.92400 45.62500
H  40.93000 6.92600 44.78900
H  39.74100 8.07700 44.36600
H  41.42200 -1.40300 45.81000
H  40.38800 -0.25500 46.63700
H  41.47800 -1.27700 47.60300
H  46.20500 -1.18300 47.55300
H  46.61600 -1.32700 45.88600
H  46.10400 -2.81800 46.79100
H  48.87300 2.32600 46.07300
H  49.26600 4.77800 46.93200
H  48.86600 1.64600 48.44000
H  47.97700 3.22500 48.88500
H  49.63100 3.23200 48.56900
H  48.69100 5.26100 44.40600
H  48.89300 3.46900 44.20800
H  51.11900 4.44200 45.69200
H  50.94500 5.19900 44.10200
H  50.94600 3.38400 44.44200
H  46.04000 10.50400 46.02900
H  47.40300 9.32900 45.93900
H  46.88300 10.01100 47.43100
H  40.91700 8.68400 46.65500
H  39.69500 10.67400 50.10900
H  39.37400 8.93900 50.56100
H  38.29400 9.72300 49.51300
Mg 36.14100 1.81000 29.15600
C  33.96000 2.94500 31.71300
C  38.66500 1.81400 31.43900
C  38.37700 0.98600 26.65400
C  33.55600 1.99600 26.91600
N  36.23300 2.25700 31.33400
C  35.26800 2.67800 32.15900
C  35.83500 2.83700 33.53100
C  37.33100 2.86400 33.33800
C  37.45200 2.35300 31.90900
C  38.05100 4.18100 33.65900
C  35.25700 1.73600 34.51800
C  34.72900 2.32200 35.87400
H  35.48000 3.49800 36.58700
N  38.10000 1.30700 29.10100
C  38.96000 1.29600 30.19600
C  40.19300 0.65800 29.83100
C  40.18600 0.63200 28.44700
C  38.85200 0.97700 27.98200
C  41.26800 0.35300 30.86600
C  41.33800 0.28700 27.54700
O  41.23900 0.27900 26.31200
C  42.70400 -0.01300 28.05500
N  35.98800 1.55100 27.11300
C  37.03300 1.28300 26.25300
C  36.54700 1.32100 24.74900
C  34.94900 1.27600 24.87700
C  34.77000 1.60200 26.33900
C  36.94200 2.70300 24.19600
C  34.40800 -0.16300 24.48300
C  34.00500 -1.14000 25.53800
N  34.13800 2.37600 29.19600
C  33.18000 2.41100 28.19700
C  31.96400 2.86300 28.79300
C  32.20800 3.08400 30.13500
C  33.58100 2.83200 30.32600
C  30.56900 2.88100 28.21200
C  31.59800 3.56700 31.41100
O  30.45000 4.06000 31.59900
C  32.74800 3.45000 32.41400
C  32.95900 4.72300 33.08700
O  33.68600 5.63200 32.65700
O  32.14300 4.74200 34.22000
C  32.15600 6.01200 34.94500
H  39.50600 1.76400 32.13400
H  39.04900 0.70200 25.84200
H  32.83100 2.04100 26.10100
H  35.40400 3.73800 33.96900
H  37.72700 2.05900 33.95700
H  38.93000 3.98300 34.27200
H  37.37300 4.96200 34.00200
H  38.49300 4.58400 32.74800
H  35.99200 0.94900 34.68400
H  34.48100 1.18500 33.98600
H  34.68000 1.45800 36.53700
H  33.66600 2.53900 35.77100
H  41.63700 -0.65600 30.68200
H  40.94600 0.25800 31.90300
H  41.95300 1.20000 30.83700
H  43.36400 -0.09800 27.19100
H  42.76000 -0.99400 28.52600
H  43.02300 0.85200 28.63600
H  36.93400 0.56800 24.06100
H  34.45300 2.04700 24.28900
H  36.11900 3.34300 23.87700
H  37.60400 2.63400 23.33300
H  37.50800 3.16100 25.00800
H  34.96800 -0.66700 23.69600
H  33.49100 0.16400 23.99300
H  34.48400 -2.08500 25.28300
H  32.91800 -1.16400 25.46700
H  34.24700 -0.76800 26.53400
H  30.67900 2.57100 27.17300
H  30.10900 3.86400 28.10900
H  29.89000 2.22100 28.75200
H  32.40900 2.65300 33.07600
H  32.12800 6.72200 34.11800
H  33.06600 6.09100 35.54000
H  31.35500 6.26300 35.64000

