158

Mg 52.85500 24.92100 45.53800
C  50.16100 27.04400 44.48300
C  51.00000 22.29800 44.41700
C  55.70100 23.16700 45.24900
C  54.64300 27.78200 46.19700
N  50.90000 24.74600 44.49600
C  49.90500 25.69400 44.23000
C  48.74700 24.99900 43.48700
C  48.77700 23.59000 44.17700
C  50.33900 23.53400 44.30600
C  47.95300 23.53800 45.47400
C  48.83800 25.15600 41.92700
C  47.61300 25.09600 41.05800
H  47.71300 24.32500 39.77300
N  53.24400 22.90000 45.15700
C  52.36000 22.02200 44.78200
C  52.99200 20.75800 44.86100
C  54.37100 20.90800 45.09300
C  54.48400 22.36200 45.18400
C  52.11200 19.48000 44.61300
C  55.37400 19.76900 45.19000
O  55.14400 18.60700 44.81000
C  56.68200 19.93800 45.89400
N  54.85200 25.39500 45.59800
C  55.85300 24.48600 45.48800
C  57.28100 25.08700 45.70100
C  56.93100 26.53800 46.10500
C  55.37800 26.60100 45.98100
C  58.07500 24.32800 46.72200
C  57.68700 27.63500 45.36500
C  58.31000 28.61200 46.35700
N  52.43800 26.94600 45.63800
C  53.20900 27.98600 45.87900
C  52.57600 29.21100 45.84400
C  51.39000 28.87000 45.21500
C  51.31400 27.48600 45.07400
C  52.96300 30.63000 46.28100
C  50.11100 29.45300 44.75100
O  49.77000 30.63000 44.84600
C  49.28000 28.25100 44.10800
C  49.21800 28.45900 42.61900
O  50.12200 28.69900 41.85300
O  47.84400 28.57900 42.30400
C  47.56500 29.12300 40.97900
H  50.33900 21.45400 44.20900
H  56.64200 22.61300 45.25700
H  55.26700 28.57900 46.60700
H  47.81500 25.42200 43.86200
H  48.46800 22.74700 43.55900
H  48.71200 23.62000 46.25200
H  47.35600 22.62600 45.45900
H  47.33100 24.42500 45.59700
H  49.54500 24.46300 41.46900
H  49.36800 26.10500 41.85200
H  47.39500 26.12000 40.75200
H  46.77500 24.73900 41.65600
H  51.10100 19.69000 44.26200
H  52.12100 18.93600 45.55700
H  52.64700 18.87400 43.88200
H  57.20000 18.98200 45.83600
H  56.59200 20.44100 46.85700
H  57.30000 20.66900 45.37300
H  57.67900 24.99100 44.69100
H  57.14800 26.56300 47.17200
H  59.11100 24.52800 46.44600
H  58.04700 23.24200 46.80600
H  57.74500 24.75800 47.66800
H  57.00500 28.10600 44.65600
H  58.46900 27.24000 44.71700
H  59.40000 28.57900 46.32800
H  58.01800 28.41500 47.38800
H  57.91900 29.60900 46.15200
H  53.84900 30.44400 46.88700
H  52.17700 31.05900 46.90300
H  53.21400 31.21400 45.39600
H  48.24100 28.21400 44.43400
H  46.48000 29.19500 40.90700
H  47.84000 28.50500 40.12500
H  47.74200 30.19700 40.91700
Mg 46.87900 25.16300 28.88000
C  47.68800 27.44000 31.36600
C  46.25700 22.96200 31.16400
C  46.26900 23.00200 26.40000
C  48.48000 27.34300 26.41500
N  46.73800 25.25700 31.05500
C  47.02000 26.34400 31.85900
C  46.81500 26.06300 33.32500
C  46.49000 24.44800 33.29400
C  46.56000 24.16000 31.74900
C  47.29900 23.39500 34.11900
C  45.61300 26.78200 33.97900
C  45.88100 27.49100 35.32500
H  44.75400 27.53700 36.38000
N  46.32900 23.16000 28.84000
C  46.16700 22.39800 29.90800
C  45.70800 21.08500 29.47800
C  45.70900 21.09700 28.02600
C  46.01100 22.51100 27.70100
C  45.26500 20.05500 30.52000
C  45.45700 20.00400 26.95300
O  45.18500 20.15600 25.79600
C  45.36500 18.56600 27.35500
N  47.34100 25.17800 26.66600
C  46.79100 24.20600 25.92300
C  46.89600 24.55700 24.42200
C  47.58200 25.96800 24.45300
C  47.82300 26.23000 25.93100
C  47.57000 23.48000 23.44300
C  46.53000 26.92600 23.93400
C  47.05500 28.14800 23.21600
N  47.86100 26.97100 28.81900
C  48.52200 27.68200 27.84300
C  49.10400 28.86300 28.42500
C  48.74900 28.82900 29.75900
C  48.06200 27.63500 30.02900
C  49.85100 30.00400 27.68200
C  48.89200 29.56900 31.04500
O  49.43000 30.66400 31.20300
C  48.16600 28.74700 32.11400
C  49.19200 28.53800 33.18700
O  50.28400 28.05900 33.05900
O  48.74000 29.14600 34.32200
C  49.51600 28.95500 35.58500
H  46.06100 22.23200 31.95200
H  46.05100 22.32600 25.57000
H  48.93900 27.93800 25.62200
H  47.76900 26.28500 33.80400
H  45.43900 24.31700 33.54900
H  47.99900 22.85600 33.48000
H  46.69200 22.75300 34.75800
H  47.82400 24.04200 34.82200
H  44.78000 26.07900 33.97400
H  45.31700 27.56200 33.27800
H  46.09400 28.54900 35.17100
H  46.75500 27.02100 35.77600
H  45.86300 19.14500 30.55700
H  44.32900 19.60000 30.19400
H  45.01600 20.48900 31.48800
H  44.54000 18.26300 27.99900
H  46.30300 18.24700 27.81000
H  45.35600 17.83400 26.54700
H  45.86400 24.52500 24.07300
H  48.51100 25.95000 23.88300
H  47.42300 22.42200 23.66200
H  48.65700 23.56100 23.47000
H  47.21400 23.57400 22.41800
H  45.83100 27.33300 24.66500
H  45.91000 26.47200 23.16200
H  47.06100 29.04700 23.83300
H  46.40500 28.40000 22.37800
H  48.06800 27.96800 22.85500
H  49.46000 30.10900 26.67000
H  50.90900 29.74200 27.70700
H  49.72100 30.92700 28.24600
H  47.34800 29.33200 32.53400
H  48.94900 28.20800 36.14100
H  49.55600 29.93100 36.06900
H  50.50900 28.50900 35.53800

