158

Mg 54.40200 24.38100 44.53300
C  52.12500 26.88500 43.76600
C  52.11900 22.00200 43.90800
C  56.87700 22.22400 44.64300
C  56.63400 27.00200 45.46700
N  52.39000 24.52500 43.82100
C  51.58000 25.60800 43.58000
C  50.19300 25.10600 43.23100
C  50.14700 23.62600 43.73300
C  51.65600 23.34200 43.88000
C  49.44700 23.44600 45.11000
C  49.58200 25.41100 41.80600
C  48.01800 25.52300 41.78600
H  47.61200 24.51200 40.68700
N  54.45900 22.36000 44.16300
C  53.43300 21.51900 43.96400
C  53.92100 20.20900 43.97200
C  55.28100 20.23700 44.15900
C  55.61200 21.63000 44.38100
C  53.07100 18.93100 43.83400
C  56.12800 18.96000 44.35900
O  55.58500 17.81500 44.38700
C  57.64900 19.05600 44.76900
N  56.47800 24.66500 44.86200
C  57.27300 23.50000 44.83600
C  58.72200 23.89700 44.96800
C  58.61700 25.48600 45.16500
C  57.21300 25.72000 45.27900
C  59.50100 23.23600 46.10700
C  59.41500 26.23200 44.05900
C  58.61200 26.86000 42.85700
N  54.47300 26.57500 44.56800
C  55.36700 27.42000 45.11200
C  54.85800 28.72400 45.17400
C  53.51700 28.59200 44.69100
C  53.37800 27.21800 44.32400
C  55.58700 29.98600 45.54300
C  52.24900 29.28000 44.36100
O  51.93500 30.47900 44.43700
C  51.33300 28.18800 43.74400
C  50.99400 28.51900 42.34600
O  51.89200 28.44600 41.53900
O  49.75900 29.04600 42.11100
C  49.36000 29.05700 40.68100
H  51.31500 21.26400 43.86500
H  57.69300 21.49900 44.67100
H  57.39500 27.76300 45.64800
H  49.53600 25.57600 43.96300
H  49.65900 23.00700 42.98000
H  49.18400 24.37100 45.62400
H  50.14000 22.87300 45.72500
H  48.52700 22.86200 45.08500
H  49.94000 24.70300 41.05900
H  49.93200 26.34200 41.36000
H  47.64400 26.47400 41.40500
H  47.66500 25.17100 42.75500
H  53.41800 18.08800 43.23700
H  52.14500 19.08100 43.27900
H  52.86900 18.59500 44.85100
H  57.89700 18.03000 45.04300
H  57.59700 19.65700 45.67700
H  58.31100 19.46500 44.00500
H  59.23100 23.61000 44.04700
H  58.96900 25.80500 46.14600
H  60.11200 23.99900 46.59000
H  60.07300 22.42300 45.65900
H  58.73000 22.93500 46.81600
H  60.13800 25.53700 43.63100
H  59.94300 26.99300 44.63600
H  57.57000 26.54900 42.78600
H  59.07700 26.61400 41.90200
H  58.70900 27.93700 42.99900
H  56.64700 29.73400 45.53300
H  55.29400 30.31400 46.54000
H  55.42300 30.75000 44.78300
H  50.34600 28.19600 44.20700
H  49.46000 30.10600 40.40200
H  48.35100 28.68100 40.51100
H  49.97700 28.51000 39.96800
Mg -6.24200 25.54300 25.09700
C  -4.98200 26.73800 28.22100
C  -8.00000 23.24600 26.83500
C  -7.27900 24.55600 22.19200
C  -3.76800 27.53600 23.53300
N  -6.41700 25.06500 27.25200
C  -5.92500 25.76700 28.32600
C  -6.47000 25.22700 29.68800
C  -7.13300 23.85500 29.15200
C  -7.26500 24.12600 27.65400
C  -6.31800 22.56300 29.45300
C  -7.52800 26.14600 30.21500
C  -7.82700 26.03900 31.73200
H  -6.99000 25.03200 32.41700
N  -7.54800 24.16600 24.57900
C  -8.14300 23.25000 25.43200
C  -8.97800 22.38900 24.69500
C  -8.80900 22.81300 23.28800
C  -7.89500 23.95200 23.26700
C  -9.79200 21.29500 25.39600
C  -9.38800 22.22100 22.07000
O  -9.28600 22.68600 20.98300
C  -10.12700 20.90400 22.27300
N  -5.54500 25.84900 23.21700
C  -6.17800 25.36000 22.09500
C  -5.52900 25.74200 20.75600
C  -4.53600 26.79200 21.24500
C  -4.67600 26.78600 22.76900
C  -4.95100 24.61500 19.89200
C  -4.66400 28.21800 20.59800
C  -3.35500 28.93400 20.30300
N  -4.76300 26.96800 25.71400
C  -3.76300 27.60800 24.90500
C  -2.87900 28.34500 25.84300
C  -3.37500 28.09900 27.13700
C  -4.45000 27.21600 26.99700
C  -1.79100 29.21300 25.46300
C  -3.21000 28.37500 28.52200
O  -2.37900 29.03200 29.11800
C  -4.32900 27.52400 29.34500
C  -3.44100 26.64000 30.24400
O  -2.70700 25.73000 29.91600
O  -3.66900 27.05800 31.54900
C  -2.88000 26.30600 32.55700
H  -8.62500 22.49000 27.31600
H  -7.55700 24.14000 21.22100
H  -2.94800 28.01500 22.99300
H  -5.68400 25.05800 30.42400
H  -8.14000 23.61500 29.49400
H  -5.31900 22.83500 29.79600
H  -6.25600 22.01700 28.51200
H  -6.86100 21.93400 30.15900
H  -8.50900 26.02800 29.75600
H  -7.18900 27.13100 29.89300
H  -8.90400 25.87700 31.76800
H  -7.80300 27.00800 32.23000
H  -9.40900 20.37000 24.96500
H  -10.80900 21.43400 25.02800
H  -9.97600 21.32100 26.47000
H  -9.47300 20.16100 22.73100
H  -10.53900 20.61300 21.30700
H  -11.04000 21.06900 22.84600
H  -6.25800 26.20100 20.08900
H  -3.50900 26.53000 20.98900
H  -3.86100 24.63900 19.91900
H  -5.34700 24.68400 18.87900
H  -5.23100 23.60600 20.19500
H  -5.23300 28.87600 21.25600
H  -5.26000 28.14200 19.68900
H  -3.64800 29.66900 19.55400
H  -2.57200 28.26200 19.95000
H  -3.02700 29.56000 21.13200
H  -1.19200 28.80900 24.64700
H  -1.25200 29.49500 26.36800
H  -2.35200 30.06300 25.07500
H  -4.97500 28.15000 29.96000
H  -3.26900 25.28900 32.60200
H  -3.05200 26.76100 33.53200
H  -1.82600 26.33600 32.28100

