158

Mg 54.52200 24.12700 44.69800
C  51.93000 26.26000 43.93200
C  52.90600 21.69400 42.81400
C  57.19500 22.08200 44.83300
C  56.32200 26.66700 46.04800
N  52.63600 24.03300 43.43500
C  51.69300 25.04400 43.41600
C  50.56000 24.61700 42.38900
C  50.72500 23.00100 42.43400
C  52.12700 22.84400 43.01600
C  49.56500 22.25400 43.24900
C  50.83600 25.20300 40.96500
C  50.81900 24.42500 39.66000
H  50.52200 25.17000 38.36200
N  54.94600 22.11100 44.03200
C  54.12400 21.34900 43.28400
C  54.60800 20.03000 43.21400
C  55.96000 20.06700 43.69400
C  56.12900 21.43200 44.22200
C  53.96200 18.86600 42.50900
C  56.96200 18.89500 43.61700
O  56.71300 17.82500 43.08700
C  58.29200 19.06700 44.20200
N  56.55100 24.40100 45.18000
C  57.39300 23.34800 45.34300
C  58.74400 23.80100 45.86100
C  58.43200 25.40600 46.20000
C  56.98700 25.47600 45.76100
C  59.24700 22.97200 47.04700
C  59.40500 26.45600 45.46800
C  60.20700 27.46700 46.25900
N  54.16200 26.07000 45.16600
C  54.93400 26.98300 45.76600
C  54.20500 28.22800 45.94300
C  52.97200 27.98900 45.27800
C  53.03000 26.66300 44.75400
C  54.63300 29.56400 46.46900
C  51.66400 28.46800 44.89800
O  51.26000 29.55000 45.04500
C  50.91500 27.41100 44.05700
C  50.54300 27.97700 42.81300
O  51.37200 28.34300 41.94200
O  49.21700 28.03100 42.72000
C  48.74400 28.44000 41.43400
H  52.35900 20.99600 42.17600
H  58.04000 21.40900 44.99100
H  56.88100 27.44800 46.56800
H  49.59900 24.98900 42.74400
H  50.65600 22.57500 41.43300
H  49.96600 21.79400 44.15200
H  49.14600 21.50800 42.57300
H  48.81600 22.94900 43.62900
H  51.79900 25.71300 40.98400
H  49.98000 25.86700 40.83900
H  50.04800 23.65400 39.68200
H  51.76800 23.91700 39.48900
H  54.31300 18.86600 41.47700
H  52.88600 19.04000 42.49300
H  54.19600 17.89800 42.95300
H  58.18500 19.38600 45.23900
H  58.87400 19.76900 43.60500
H  58.74900 18.08600 44.07300
H  59.36100 23.69300 44.97000
H  58.48900 25.62400 47.26700
H  58.53100 22.18400 47.28100
H  59.54700 23.63600 47.85800
H  60.15400 22.45600 46.73400
H  58.85200 27.00100 44.70300
H  60.18700 25.92500 44.92500
H  61.21700 27.23300 45.92200
H  60.08600 27.48500 47.34200
H  59.82100 28.43000 45.92700
H  54.96300 30.19800 45.64600
H  55.51600 29.32300 47.06100
H  53.85700 29.92600 47.14400
H  50.02900 27.17600 44.64600
H  49.24200 28.05200 40.54600
H  48.85500 29.52400 41.44500
H  47.73500 28.02800 41.42700
Mg 49.37200 45.04200 42.77500
C  45.97900 45.43000 41.39000
C  49.17900 41.73900 41.75700
C  52.65300 44.94700 43.02600
C  49.36900 48.54500 43.04700
N  47.77700 43.80800 41.69900
C  46.44400 44.12500 41.31300
C  45.86100 42.85200 40.68500
C  46.71500 41.67900 41.26300
C  47.96900 42.43300 41.62500
C  46.07200 40.94100 42.42600
C  45.84900 42.92500 39.05900
C  44.44100 42.85300 38.41800
H  44.08700 43.88400 37.33900
N  50.70200 43.47000 42.58100
C  50.39400 42.17000 42.15800
C  51.65000 41.43300 42.34200
C  52.69600 42.30900 42.75400
C  52.03900 43.68000 42.85700
C  51.77400 39.92600 41.97800
C  54.08100 41.87400 43.26200
O  54.47800 40.77300 43.10500
C  54.97500 42.74800 44.15400
N  50.86800 46.55500 42.99300
C  52.16300 46.26400 43.08600
C  53.10000 47.54000 43.10500
C  52.02200 48.69600 43.22200
C  50.63100 47.92200 43.05700
C  54.10100 47.40800 44.36300
C  52.12700 49.83500 42.23500
C  52.65200 51.22500 42.82900
N  47.99400 46.69400 42.41000
C  48.06800 47.99900 42.68600
C  46.73000 48.64700 42.66800
C  45.96300 47.74000 42.09200
C  46.70100 46.50800 41.94700
C  46.36300 50.00700 42.99600
C  44.66600 47.52700 41.53100
O  43.73500 48.27500 41.34600
C  44.56000 45.99200 41.13500
C  43.51900 45.35200 42.03500
O  42.77400 44.39100 41.74900
O  43.26900 46.02800 43.17700
C  41.88800 45.86600 43.72100
H  49.13900 40.68700 41.46600
H  53.74200 44.94000 42.94500
H  49.34800 49.63400 43.12300
H  44.80900 42.83700 40.97000
H  46.88200 40.89600 40.52300
H  45.99900 39.86400 42.27200
H  45.07100 41.33400 42.60200
H  46.69400 41.09700 43.30700
H  46.30800 42.01300 38.67800
H  46.40500 43.80400 38.73400
H  43.69100 43.06000 39.18100
H  44.17900 41.93200 37.89800
H  52.58600 39.81400 41.26000
H  50.89100 39.43000 41.57600
H  52.13500 39.26500 42.76700
H  55.38000 43.59700 43.60100
H  55.82100 42.10900 44.40700
H  54.37300 43.06400 45.00600
H  53.76700 47.61500 42.24600
H  52.05200 49.12400 44.22400
H  53.83400 46.52900 44.95100
H  54.02200 48.26600 45.03100
H  55.10100 47.31200 43.94100
H  51.18800 50.01300 41.71000
H  52.81400 49.60300 41.42100
H  52.25200 52.06700 42.26500
H  53.73600 51.18700 42.72000
H  52.37500 51.37200 43.87200
H  45.29200 50.19700 42.92200
H  46.92600 50.69600 42.36700
H  46.60500 50.12400 44.05200
H  44.31000 46.04300 40.07600
H  41.18600 46.03400 42.90400
H  41.63200 46.62300 44.46300
H  41.78000 44.97900 44.34500

