158

Mg 0.93700 8.60600 27.20700
C  1.56200 10.73900 29.91900
C  0.46400 6.00600 29.39300
C  0.21800 6.69200 24.51300
C  1.59000 11.20900 25.09100
N  1.17300 8.37800 29.44700
C  1.24500 9.42000 30.32400
C  1.03700 8.92400 31.77500
C  0.90400 7.34300 31.64900
C  0.79600 7.20400 30.12500
C  2.23800 6.48600 32.06700
C  -0.24600 9.52100 32.50500
C  -0.77300 8.93800 33.86800
H  0.17100 8.49400 34.93700
N  0.42500 6.60200 27.01500
C  0.31600 5.70800 28.01200
C  -0.12600 4.40000 27.48600
C  -0.05600 4.54900 26.02600
C  0.20800 6.01200 25.80400
C  -0.44700 3.20600 28.41700
C  -0.23500 3.49100 25.04000
O  -0.13100 3.71200 23.83900
C  -0.58800 2.04200 25.46300
N  0.98400 8.92600 25.08500
C  0.52400 8.03900 24.20600
C  0.60200 8.44400 22.73500
C  0.81200 9.94100 22.96600
C  1.24800 10.05000 24.42000
C  1.66300 7.72300 21.82900
C  -0.38900 10.76900 22.62600
C  -0.06600 12.15400 22.05200
N  1.58000 10.58400 27.39100
C  1.85200 11.54100 26.44800
C  2.10600 12.79700 27.09200
C  2.03900 12.51500 28.46100
C  1.73200 11.18800 28.59200
C  2.53600 14.02100 26.42300
C  2.18300 13.09200 29.79100
O  2.58100 14.22100 30.10900
C  1.74900 11.99800 30.77700
C  2.69900 11.86100 31.94300
O  3.80100 11.38600 31.93200
O  2.09700 12.45800 33.05900
C  2.85500 12.26200 34.35100
H  0.48400 5.11200 30.02000
H  -0.02000 6.11400 23.61800
H  1.65500 12.07700 24.43200
H  1.89300 9.23000 32.37500
H  0.03000 7.01900 32.21300
H  2.07800 5.90100 32.97300
H  3.02200 7.16200 32.40700
H  2.55700 5.75200 31.32600
H  -1.08500 9.30300 31.84500
H  -0.09800 10.59600 32.61700
H  -1.39600 8.08400 33.60000
H  -1.51700 9.59400 34.31900
H  -0.98000 2.40000 27.91200
H  -1.10200 3.67500 29.15200
H  0.55100 2.95100 28.77200
H  -0.58800 1.42900 24.56200
H  -1.59600 2.06300 25.87900
H  0.16300 1.70900 26.17900
H  -0.33700 8.18000 22.24800
H  1.62900 10.34100 22.36500
H  1.31300 7.29000 20.89200
H  2.07100 6.92700 22.45100
H  2.36500 8.50500 21.54100
H  -0.93700 10.95200 23.55100
H  -1.14600 10.38600 21.94100
H  -0.19900 12.25600 20.97500
H  0.92000 12.46400 22.39700
H  -0.72900 12.90400 22.48500
H  1.71100 14.61400 26.02800
H  3.14600 13.67600 25.58800
H  3.10500 14.65100 27.10700
H  0.76000 12.28600 31.13300
H  3.14800 13.16900 34.88000
H  3.81600 11.74900 34.36200
H  2.17100 11.75500 35.03200
Mg 34.98800 48.21800 26.24100
C  35.80100 46.18500 29.07900
C  33.71000 50.48500 28.38100
C  34.46800 50.25700 23.59000
C  35.95100 45.58500 24.22200
N  34.78900 48.32200 28.48700
C  35.22200 47.42600 29.45100
C  35.23800 48.03300 30.79200
C  34.13200 49.18300 30.59600
C  34.17600 49.35900 29.08100
C  32.71700 48.81400 31.15500
C  36.63900 48.52700 31.24500
C  36.86200 48.55100 32.73200
H  35.75300 48.85700 33.64700
N  34.22200 50.18400 26.01700
C  33.70300 50.91300 27.03000
C  33.41000 52.25800 26.46000
C  33.60900 52.18800 25.02500
C  34.13300 50.85900 24.80200
C  32.84700 53.35200 27.34500
C  33.43000 53.26200 23.99200
O  33.87500 53.14400 22.83000
C  32.78600 54.52500 24.47900
N  35.18000 48.01700 24.19900
C  34.88800 48.95200 23.26200
C  35.12800 48.35500 21.89300
C  35.64700 46.88400 22.10100
C  35.55900 46.79500 23.61300
C  33.90500 48.63500 20.97000
C  37.08200 46.65600 21.50100
C  37.16700 46.20800 20.05400
N  35.57100 46.16000 26.51900
C  36.06900 45.32600 25.59000
C  36.66700 44.16100 26.30900
C  36.56500 44.47700 27.63000
C  35.84300 45.70600 27.76400
C  37.22400 42.81500 25.74700
C  36.80500 43.97400 28.98700
O  37.27000 42.86700 29.36700
C  36.40000 45.12600 29.98600
C  35.46300 44.73700 31.06700
O  34.39000 44.18900 30.96200
O  35.95200 45.07900 32.30500
C  35.12300 44.53500 33.42200
H  33.15500 51.13000 29.06500
H  34.13700 50.80800 22.70700
H  36.23300 44.72400 23.61200
H  34.77000 47.36700 31.51700
H  34.49500 49.98600 31.23700
H  32.82200 47.77300 31.46000
H  31.98600 48.77100 30.34700
H  32.31700 49.56000 31.84200
H  36.83000 49.50000 30.79000
H  37.41100 47.97500 30.70800
H  37.66900 49.23800 32.98600
H  37.32000 47.60100 33.00900
H  32.73800 52.91600 28.33800
H  31.80900 53.60000 27.12500
H  33.50600 54.21500 27.44100
H  33.32000 54.83300 25.37800
H  31.76300 54.39400 24.83300
H  32.86900 55.24300 23.66400
H  35.86800 48.96700 21.37900
H  34.98100 46.14600 21.65500
H  33.75000 49.70500 20.83300
H  33.01900 48.14100 21.36900
H  34.07500 48.15600 20.00600
H  37.46100 45.85700 22.13900
H  37.72900 47.52900 21.58100
H  36.25200 46.40100 19.49500
H  37.39200 45.15300 20.20800
H  38.00700 46.71700 19.58100
H  37.75700 42.26800 26.52500
H  37.80500 42.92900 24.83200
H  36.33700 42.19600 25.61200
H  37.33500 45.48700 30.41600
H  34.89500 43.49800 33.17500
H  34.21300 45.13000 33.49700
H  35.76200 44.60000 34.30300

