158

Mg -0.41800 7.56600 26.16200
C  0.48900 9.53500 28.87900
C  -0.22000 4.78300 28.17900
C  -0.66000 5.56300 23.39500
C  0.07000 10.34100 24.07200
N  0.04400 7.24200 28.31700
C  0.30500 8.20500 29.18900
C  0.35400 7.60700 30.68000
C  0.35000 6.00800 30.39400
C  -0.04300 6.00200 28.83300
C  1.73100 5.34100 30.65400
C  -0.89200 8.19900 31.41400
C  -1.04200 7.80300 32.87300
H  0.25800 7.62700 33.79100
N  -0.40500 5.40900 25.84000
C  -0.27800 4.50400 26.80900
C  -0.38300 3.17600 26.26900
C  -0.57700 3.32800 24.81800
C  -0.61400 4.81800 24.61600
C  -0.29300 1.88400 27.12300
C  -0.78200 2.17900 23.74200
O  -1.03800 2.42800 22.55600
C  -0.74500 0.77900 24.19500
N  -0.43900 7.85400 24.10600
C  -0.60200 6.90600 23.14800
C  -0.60100 7.45800 21.73500
C  -0.74400 9.05300 21.99800
C  -0.32600 9.14700 23.49400
C  0.77300 7.09400 20.97000
C  -2.15800 9.56100 21.64300
C  -2.33800 10.30600 20.38000
N  -0.00100 9.54300 26.39000
C  0.22000 10.57500 25.46800
C  0.70700 11.78100 26.18900
C  0.68400 11.32400 27.48600
C  0.42700 9.96500 27.59700
C  0.94300 13.13500 25.58400
C  0.96600 11.87100 28.82900
O  1.38800 12.99600 29.11600
C  0.69400 10.74100 29.80400
C  1.96700 10.57700 30.61400
O  2.90700 9.86100 30.31500
O  1.88700 11.35200 31.75200
C  3.18500 11.51700 32.42200
H  -0.15100 3.94800 28.88000
H  -0.72500 4.83500 22.58300
H  0.30000 11.23200 23.48400
H  1.25700 7.85900 31.23600
H  -0.40400 5.52600 31.01600
H  2.56300 6.03700 30.55100
H  2.02000 4.62300 29.88600
H  1.75900 4.93600 31.66500
H  -1.78800 7.80300 30.93600
H  -0.98200 9.27800 31.28700
H  -1.71800 6.94800 32.84900
H  -1.63300 8.50700 33.45900
H  0.63900 1.38600 26.85600
H  -1.10400 1.18300 26.92800
H  -0.41000 2.11700 28.18200
H  -0.69500 0.08800 23.35300
H  -1.69300 0.65000 24.71700
H  0.17100 0.63800 24.76900
H  -1.53500 7.19700 21.23900
H  0.12600 9.30600 21.39200
H  1.61100 7.06100 21.66600
H  1.02900 7.90300 20.28400
H  0.45300 6.12600 20.58400
H  -2.28400 10.27400 22.45800
H  -2.91400 8.78800 21.78400
H  -1.41000 10.31000 19.80700
H  -2.57100 11.35000 20.59000
H  -3.08400 9.81700 19.75400
H  1.84300 13.44500 26.11600
H  0.10800 13.75400 25.91100
H  1.10200 13.11000 24.50600
H  -0.14700 11.05600 30.42200
H  4.03000 11.68300 31.75500
H  3.38600 10.60300 32.98100
H  3.20700 12.36200 33.11000
Mg -1.52000 33.42900 27.20600
C  -3.63200 32.06300 29.79600
C  -0.15400 35.39600 29.68300
C  -0.21400 35.39400 24.88500
C  -3.34800 31.62600 24.94800
N  -1.83800 33.61100 29.54500
C  -2.67500 32.95600 30.33600
C  -2.41600 33.33000 31.78600
C  -1.49100 34.63600 31.71600
C  -1.14500 34.56300 30.23100
C  -2.12400 36.04000 32.05800
C  -1.73300 32.11200 32.54700
C  -2.54000 31.49200 33.67600
H  -1.81000 31.27900 34.99000
N  -0.13200 35.10900 27.30400
C  0.30300 35.72800 28.37200
C  1.26600 36.72600 27.91700
C  1.21100 36.85800 26.52100
C  0.23600 35.76500 26.17500
C  2.12400 37.46800 28.94100
C  1.83300 37.84300 25.52100
O  1.54300 37.78000 24.34400
C  2.67200 38.94000 26.04600
N  -1.72300 33.44600 25.19700
C  -1.01800 34.37200 24.42600
C  -1.33700 34.25100 22.93400
C  -2.10000 32.88400 22.93100
C  -2.37000 32.50300 24.42100
C  -2.13600 35.46000 22.34400
C  -1.31600 31.87300 22.08500
C  0.06200 31.50300 22.59900
N  -3.04300 32.07500 27.30900
C  -3.76700 31.48000 26.30700
C  -4.83200 30.63400 26.77000
C  -4.80000 30.81200 28.15400
C  -3.73800 31.74300 28.44500
C  -5.78300 29.83200 25.88100
C  -5.43400 30.38600 29.35900
O  -6.27700 29.47200 29.52500
C  -4.75600 31.16900 30.50300
C  -5.85900 31.90800 31.30700
O  -6.81300 32.43400 30.83500
O  -5.64100 31.68400 32.63300
C  -6.59800 32.14100 33.56300
H  0.33200 35.95300 30.48700
H  0.12200 36.03400 24.06700
H  -3.87400 31.16700 24.10800
H  -3.36000 33.61200 32.25200
H  -0.55700 34.69600 32.27500
H  -2.53100 36.66500 31.26300
H  -1.34100 36.64000 32.52300
H  -2.93800 35.88900 32.76800
H  -0.75000 32.39000 32.92700
H  -1.49900 31.38100 31.77300
H  -2.68500 30.46400 33.34300
H  -3.42800 32.07700 33.91400
H  3.11400 37.42200 28.48700
H  2.17400 36.91300 29.87800
H  1.92400 38.52500 29.11300
H  3.04500 39.49600 25.18600
H  3.49800 38.64700 26.69400
H  2.14100 39.67500 26.65200
H  -0.40500 34.09400 22.39100
H  -3.08000 32.94500 22.45900
H  -3.00600 35.16400 21.75800
H  -1.60400 36.11500 21.65500
H  -2.44300 35.99800 23.24100
H  -1.18400 32.14000 21.03700
H  -2.04700 31.06500 22.05900
H  0.46600 32.08200 23.43000
H  0.84300 31.51800 21.83900
H  0.07800 30.43200 22.80000
H  -6.79300 30.23900 25.83000
H  -5.77000 28.86200 26.37800
H  -5.41700 29.71800 24.86100
H  -4.23000 30.43700 31.11500
H  -6.11400 32.42200 34.49900
H  -7.35500 31.40900 33.84400
H  -7.11000 33.06600 33.29800

