158

Mg 7.61000 2.40600 28.34300
C  9.32100 0.95400 31.09600
C  5.69000 4.10800 30.49400
C  5.92400 3.37900 25.74800
C  9.35700 0.01600 26.31000
N  7.52900 2.46700 30.60600
C  8.35400 1.89800 31.51100
C  8.07300 2.36300 32.94900
C  6.78400 3.28000 32.72600
C  6.64400 3.32500 31.20500
C  5.54600 3.00100 33.51300
C  9.38600 2.97000 33.47600
C  9.84300 2.47100 34.85300
H  10.36500 3.54400 35.81800
N  6.12900 3.71100 28.14300
C  5.40100 4.27800 29.11200
C  4.33200 5.12600 28.54600
C  4.48400 5.07300 27.19700
C  5.54100 3.95600 26.94100
C  3.48300 6.03200 29.34800
C  3.85300 5.89300 26.10100
O  4.18600 5.67100 24.94300
C  2.79900 6.92600 26.43900
N  7.54300 1.69000 26.31000
C  6.83800 2.42000 25.39600
C  7.07800 1.86900 23.98200
C  8.28000 0.88900 24.20200
C  8.43000 0.80600 25.68600
C  5.77500 1.16500 23.20000
C  9.66500 1.30100 23.54800
C  10.70600 2.08700 24.34700
N  8.90000 0.70300 28.65800
C  9.54600 -0.11100 27.72800
C  10.47300 -1.01600 28.35100
C  10.40600 -0.64200 29.71500
C  9.47000 0.42600 29.83300
C  11.39900 -1.96000 27.65500
C  10.94500 -0.88900 31.01500
O  11.80700 -1.68600 31.41600
C  10.23000 0.03600 32.02200
C  9.54700 -0.78100 33.10800
O  8.42100 -1.22100 33.06800
O  10.31200 -0.85000 34.21600
C  9.60200 -1.08800 35.49400
H  5.10400 4.59800 31.27500
H  5.27000 3.67500 24.92500
H  9.92600 -0.60900 25.61900
H  7.69500 1.45700 33.42300
H  7.04800 4.25500 33.13800
H  5.47900 3.70200 34.34500
H  5.49100 2.02500 33.99600
H  4.68600 3.16000 32.86300
H  9.24200 4.05000 33.51400
H  10.13500 2.87400 32.69100
H  10.64200 1.75800 34.65000
H  9.03600 1.98000 35.39800
H  2.44300 6.01300 29.02200
H  3.77000 7.08000 29.26500
H  3.45800 5.71900 30.39200
H  3.23600 7.54800 27.22000
H  1.85200 6.48100 26.74300
H  2.68000 7.62400 25.61000
H  7.32900 2.65200 23.26700
H  7.95000 -0.07600 23.81800
H  4.84400 1.37000 23.72900
H  5.86900 0.09100 23.35500
H  5.70600 1.41000 22.14000
H  9.38100 1.93400 22.70700
H  10.07700 0.39500 23.10400
H  11.64200 1.53100 24.39200
H  10.22800 2.35100 25.29100
H  11.04200 2.88400 23.68500
H  11.59800 -1.50000 26.68700
H  10.89700 -2.91100 27.47800
H  12.29900 -2.14800 28.24100
H  10.92400 0.65400 32.59100
H  10.18300 -0.96900 36.40800
H  9.23900 -2.11300 35.57800
H  8.70300 -0.47800 35.57700
Mg 25.24800 0.69300 30.05000
C  27.27000 0.82100 32.97000
C  22.47300 1.19100 31.99300
C  23.41500 0.78100 27.24400
C  28.11600 0.56200 28.12900
N  24.92900 0.69200 32.22800
C  25.85300 0.86100 33.19600
C  25.21100 1.09100 34.53600
C  23.70700 0.91700 34.19600
C  23.66800 0.85500 32.70000
C  22.97100 -0.22600 34.99900
C  25.49800 2.53900 35.08300
C  26.12300 2.63700 36.51500
H  25.43600 3.58200 37.61200
N  23.22100 0.84500 29.69900
C  22.24900 1.06800 30.60900
C  20.97900 1.15100 29.92000
C  21.23900 0.76800 28.53000
C  22.68300 0.80200 28.44500
C  19.67100 1.45800 30.64300
C  20.36000 0.50800 27.31500
O  20.73300 0.08200 26.23900
C  18.93900 0.67000 27.54100
N  25.65300 0.41900 28.04200
C  24.73500 0.52300 27.00100
C  25.34400 0.69800 25.64900
C  26.84100 0.56500 25.95100
C  26.86400 0.63100 27.48400
C  24.84200 -0.23900 24.49500
C  27.67800 1.71100 25.21800
C  28.04000 2.95800 25.90800
N  27.28100 0.45400 30.40400
C  28.31400 0.51300 29.56000
C  29.55600 0.51000 30.26600
C  29.25700 0.54900 31.60400
C  27.82600 0.60300 31.63200
C  30.97900 0.60100 29.73400
C  29.68800 0.79600 32.99100
O  30.80900 1.04300 33.38800
C  28.44000 0.96300 33.86900
C  28.44300 -0.09400 34.98100
O  28.40100 -1.31100 34.86500
O  28.68600 0.55500 36.14500
C  28.75500 -0.39200 37.28700
H  21.61000 1.47500 32.59800
H  22.90800 1.04700 26.31400
H  28.93900 0.68700 27.42200
H  25.59700 0.39700 35.28300
H  23.06100 1.76900 34.40700
H  22.30600 0.20600 35.74600
H  23.70400 -0.77900 35.58700
H  22.42400 -0.94000 34.38300
H  24.65400 3.22100 34.98400
H  26.13400 3.08300 34.38600
H  27.15500 2.94800 36.35100
H  26.13600 1.62500 36.91700
H  19.02800 2.09500 30.03600
H  19.76700 1.81900 31.66700
H  19.24600 0.45500 30.67800
H  18.33900 0.42600 26.66400
H  18.62400 1.68200 27.79600
H  18.56800 0.02400 28.33600
H  25.02500 1.71000 25.40200
H  27.17600 -0.45000 25.74000
H  24.13200 -0.95700 24.90500
H  25.61600 -0.82300 23.99500
H  24.41800 0.42500 23.74200
H  26.94900 2.04700 24.48000
H  28.58500 1.23000 24.85100
H  27.81300 3.81000 25.26800
H  29.11300 3.01100 26.09200
H  27.56300 3.12600 26.87400
H  31.06000 1.63100 29.38800
H  30.97500 -0.07800 28.88100
H  31.70500 0.20000 30.44000
H  28.57500 1.96200 34.28200
H  27.75700 -0.37700 37.72500
H  29.26000 0.02200 38.15900
H  29.21100 -1.36500 37.10400

