158

Mg 16.84500 -2.29500 27.44100
C  15.70400 -0.16200 30.05000
C  18.76200 -3.82300 29.55000
C  18.20600 -3.67200 24.81400
C  14.90100 -0.23700 25.29300
N  17.40100 -1.82900 29.53400
C  16.72700 -1.09600 30.45200
C  17.14500 -1.43000 31.90100
C  18.41000 -2.33100 31.63300
C  18.19400 -2.74800 30.15700
C  19.80800 -1.59500 31.83200
C  16.00400 -2.05300 32.71300
C  15.65300 -1.18700 33.85100
H  16.82400 -0.48200 34.59000
N  18.18100 -3.64800 27.23300
C  18.88300 -4.22500 28.22200
C  19.58100 -5.43400 27.69500
C  19.50600 -5.39500 26.28200
C  18.59800 -4.19700 26.03200
C  20.19000 -6.49700 28.67500
C  20.17400 -6.20900 25.30000
O  19.95200 -6.05600 24.07300
C  20.96400 -7.30400 25.72500
N  16.66400 -1.98600 25.38900
C  17.34800 -2.63600 24.47100
C  17.04300 -2.23000 22.96000
C  15.91300 -1.19200 23.23600
C  15.76200 -1.20500 24.74100
C  18.33300 -1.66000 22.34800
C  14.63900 -1.40700 22.44700
C  14.73900 -1.07800 20.95200
N  15.43600 -0.65800 27.61100
C  14.71200 0.01400 26.67700
C  13.91400 1.07100 27.34500
C  14.28400 1.01000 28.61900
C  15.17100 0.00100 28.77300
C  13.05100 2.05100 26.73000
C  14.04300 1.64500 29.88500
O  13.33900 2.56800 30.26200
C  14.84500 0.74400 30.95600
C  15.61200 1.64900 31.81200
O  16.67900 2.14600 31.57900
O  14.76700 2.02100 32.82900
C  15.21600 3.15600 33.63900
H  19.41100 -4.42100 30.19300
H  18.55800 -4.10400 23.87500
H  14.25400 0.38800 24.67400
H  17.54700 -0.46800 32.22100
H  18.24900 -3.22700 32.23300
H  20.33800 -2.16500 32.59500
H  19.68000 -0.54400 32.09400
H  20.32000 -1.74000 30.88100
H  16.29200 -3.03100 33.09700
H  15.09300 -2.10600 32.11600
H  15.20500 -1.80600 34.62800
H  14.95000 -0.39300 33.60100
H  19.66700 -7.42600 28.44700
H  20.02200 -6.29500 29.73200
H  21.26300 -6.54400 28.48600
H  20.45400 -8.01100 26.38000
H  21.87700 -6.91700 26.17700
H  21.30900 -7.77300 24.80400
H  16.63000 -3.00200 22.31100
H  16.24000 -0.18200 22.98700
H  19.09400 -1.50900 23.11300
H  18.13600 -0.80500 21.70000
H  18.68400 -2.31100 21.54700
H  13.85300 -0.84100 22.94800
H  14.27400 -2.43100 22.53100
H  15.60500 -0.43900 20.78300
H  13.92900 -0.43000 20.61800
H  14.72400 -1.97900 20.33900
H  12.63000 1.53000 25.87000
H  13.65700 2.86500 26.33200
H  12.26300 2.28000 27.44700
H  14.13600 0.14800 31.53100
H  16.26700 3.29400 33.89400
H  14.68000 2.92700 34.56000
H  14.72400 4.03800 33.22900
Mg 40.62900 9.20000 30.00400
C  42.49900 10.56700 32.68100
C  38.17200 8.35300 32.10800
C  39.09800 7.73400 27.39900
C  43.30700 9.99700 27.94400
N  40.42400 9.38900 32.23000
C  41.26800 9.99000 33.10200
C  40.81700 9.71800 34.54800
C  39.37000 8.99600 34.32700
C  39.29200 8.86600 32.77800
C  39.26200 7.57100 34.98600
C  40.66700 11.03000 35.42700
C  40.80600 10.94200 36.98300
H  40.67000 12.21800 37.85300
N  38.80100 8.27400 29.73400
C  37.86600 8.16100 30.69000
C  36.70100 7.63600 30.08100
C  36.89500 7.55000 28.68200
C  38.30900 7.89100 28.48800
C  35.45600 7.34100 30.89000
C  35.91400 7.07300 27.55700
O  36.35500 6.88400 26.45700
C  34.46800 6.67700 27.89400
N  41.19400 8.82300 27.92900
C  40.34200 8.21800 27.12300
C  40.92800 8.09100 25.65400
C  42.24400 8.86600 25.90900
C  42.24000 9.32000 27.36400
C  40.87000 6.63100 24.91700
C  42.42200 9.98900 24.83200
C  41.68700 11.30500 24.96300
N  42.52500 10.07700 30.18800
C  43.49300 10.36300 29.26300
C  44.62700 10.97700 29.91200
C  44.26500 11.17900 31.25000
C  42.97500 10.55800 31.37700
C  45.84400 11.48900 29.29500
C  44.63400 11.70700 32.54900
O  45.55400 12.35900 32.88000
C  43.49100 11.34000 33.54200
C  44.09900 10.37300 34.57500
O  44.43800 9.20800 34.37100
O  44.35300 10.97000 35.77800
C  44.92500 10.12400 36.87300
H  37.35500 8.19000 32.81300
H  38.75900 7.28400 26.46300
H  44.13900 10.19500 27.26500
H  41.51100 9.00000 34.98400
H  38.53500 9.60900 34.66700
H  40.20900 7.33900 35.47400
H  39.21400 6.76000 34.26000
H  38.48900 7.55200 35.75400
H  39.61500 11.28700 35.30000
H  41.22500 11.93800 35.19700
H  41.81200 10.53800 37.10400
H  40.18600 10.18500 37.46300
H  35.64000 7.49100 31.95400
H  35.16900 6.29400 30.80000
H  34.58500 7.86600 30.49700
H  33.90600 7.46700 28.39300
H  34.35700 5.70100 28.36600
H  34.06200 6.72600 26.88300
H  40.32300 8.76200 25.04300
H  42.97600 8.06800 25.78300
H  40.57800 5.87900 25.65000
H  41.83400 6.41100 24.45900
H  40.15100 6.64500 24.09800
H  42.16800 9.54200 23.87100
H  43.45500 10.31400 24.95400
H  42.32900 11.92100 25.59200
H  40.77300 11.26300 25.55600
H  41.41300 11.75100 24.00700
H  46.71200 11.54700 29.95200
H  45.61200 12.54300 29.13700
H  46.01800 10.92900 28.37700
H  43.17200 12.21500 34.10900
H  44.33700 9.21000 36.95900
H  44.71100 10.72900 37.75400
H  45.99900 10.01100 36.72800

