158

Mg 35.55400 2.73800 29.94600
C  32.93500 3.45700 32.17300
C  37.73200 2.89800 32.56700
C  37.97200 2.27800 27.69900
C  33.24000 3.13200 27.33300
N  35.33600 3.03800 32.14400
C  34.15900 3.28000 32.79700
C  34.39700 3.39700 34.32500
C  36.05100 3.60200 34.36100
C  36.44300 3.06200 32.95500
C  36.52800 5.05700 34.57400
C  33.97300 2.16000 35.13500
C  33.42900 2.27800 36.58400
H  33.98500 3.55100 37.24600
N  37.58200 2.56500 30.13500
C  38.32000 2.64800 31.28900
C  39.76800 2.53800 30.90800
C  39.82800 2.24100 29.49500
C  38.43400 2.31400 29.00500
C  40.87600 2.78400 31.95000
C  41.05300 2.04300 28.67700
O  41.00500 1.88300 27.45200
C  42.43000 1.60500 29.18100
N  35.54200 2.74700 27.81600
C  36.71100 2.44300 27.14500
C  36.44200 2.36500 25.64200
C  34.90800 2.57200 25.46000
C  34.51800 2.81600 26.93300
C  37.34600 3.29000 24.83500
C  34.09100 1.41400 24.81000
C  33.94800 0.04300 25.48900
N  33.52400 3.26400 29.76600
C  32.76200 3.40100 28.60000
C  31.39100 3.75400 28.99100
C  31.42000 3.67800 30.38300
C  32.75200 3.43000 30.77800
C  30.17200 3.88800 28.17100
C  30.65900 3.86800 31.56100
O  29.48300 4.24700 31.66800
C  31.57600 3.69500 32.83300
C  31.48400 4.93900 33.68800
O  31.72900 6.03500 33.27700
O  31.07300 4.70400 34.91400
C  30.94100 5.82400 35.84800
H  38.40700 3.06200 33.40900
H  38.77100 2.26200 26.95600
H  32.46800 3.16800 26.56200
H  33.90000 4.31500 34.64000
H  36.49500 2.98100 35.13900
H  35.66300 5.71700 34.63300
H  37.07700 5.41300 33.70200
H  37.16100 5.19700 35.45000
H  34.83900 1.54100 35.37000
H  33.32700 1.59200 34.46600
H  33.72500 1.40600 37.16600
H  32.34000 2.27100 36.52900
H  41.83300 2.91900 31.44600
H  40.95800 1.96100 32.66000
H  40.51800 3.67400 32.46800
H  42.90800 1.11000 28.33600
H  42.31500 0.95500 30.04800
H  43.06900 2.45500 29.42300
H  36.74000 1.33700 25.44000
H  34.64800 3.55200 25.05800
H  36.78400 4.01200 24.24200
H  38.04300 2.75100 24.19400
H  37.86200 4.09100 25.36500
H  34.47900 1.31400 23.79600
H  33.04400 1.68300 24.67600
H  32.90300 -0.18400 25.70000
H  34.58400 -0.05800 26.36800
H  34.36200 -0.77000 24.89200
H  29.22200 3.95600 28.70200
H  30.18600 3.02300 27.50800
H  30.28900 4.74400 27.50600
H  31.22200 2.76300 33.27300
H  30.51000 6.72100 35.40300
H  31.90700 6.12300 36.25600
H  30.30300 5.56000 36.69100
Mg 10.20300 47.67000 25.38600
C  7.84600 47.81300 28.12200
C  12.65400 48.79500 27.53400
C  12.29500 47.76400 22.77100
C  7.45200 47.08400 23.23500
N  10.20400 48.25700 27.67600
C  9.14000 48.20900 28.57500
C  9.65100 48.65400 29.96800
C  11.08600 49.23700 29.66000
C  11.40100 48.73100 28.20100
C  11.00900 50.82400 29.70900
C  9.67800 47.51500 30.96900
C  9.42800 47.95100 32.45900
H  9.49100 46.80900 33.50000
N  12.26500 48.04600 25.19300
C  13.14500 48.49000 26.20400
C  14.40000 48.69000 25.66500
C  14.34300 48.25400 24.27000
C  12.92800 47.97800 24.04000
C  15.54700 49.25400 26.50900
C  15.40500 48.21800 23.23700
O  15.28100 47.89600 22.06500
C  16.85300 48.55800 23.62900
N  9.93900 47.42800 23.32100
C  10.98000 47.47100 22.45300
C  10.53000 47.06100 21.09100
C  9.01100 46.62000 21.25900
C  8.76100 47.12600 22.68200
C  10.66700 48.14800 19.97200
C  8.66900 45.06700 20.99400
C  8.96600 44.17900 22.20500
N  8.07200 47.51800 25.55000
C  7.13400 47.25000 24.61000
C  5.82600 47.22100 25.22000
C  6.07000 47.40700 26.60700
C  7.46000 47.55200 26.77700
C  4.46700 47.00100 24.60600
C  5.39800 47.52900 27.89300
O  4.19100 47.53000 28.18100
C  6.51100 47.89300 28.90100
C  6.27100 46.99900 30.13800
O  6.54600 45.81000 30.30000
O  5.51500 47.77500 30.97600
C  5.18100 47.12500 32.23000
H  13.38700 49.22700 28.21900
H  12.95000 47.75300 21.89700
H  6.70400 46.75900 22.50900
H  8.99800 49.45600 30.31200
H  11.79100 48.84200 30.39100
H  10.29400 51.24600 30.41500
H  10.71600 51.30700 28.77700
H  11.99600 51.17700 30.01000
H  10.61000 46.95400 30.89100
H  8.84800 46.91800 30.59300
H  8.42700 48.37500 32.54700
H  10.10900 48.75600 32.73500
H  15.97400 50.07800 25.93600
H  16.44600 48.63900 26.52900
H  15.31300 49.66900 27.49000
H  17.47100 48.18800 22.81100
H  17.04600 47.87700 24.45700
H  16.90400 49.60900 23.91400
H  11.14700 46.18900 20.87500
H  8.35100 47.12400 20.55300
H  10.01800 48.98900 20.21700
H  10.64000 47.74100 18.96200
H  11.65600 48.60400 20.01800
H  9.39500 44.78800 20.23000
H  7.64400 44.90700 20.66000
H  9.01700 44.59700 23.21000
H  9.91100 43.65200 22.07600
H  8.36500 43.27000 22.20800
H  4.45600 46.01000 24.15400
H  4.22000 47.88800 24.02200
H  3.80500 46.90800 25.46600
H  6.37700 48.91100 29.26700
H  4.72800 47.84400 32.91200
H  6.04100 46.74100 32.77900
H  4.48600 46.29500 32.10100

