158

Mg 36.07100 49.45600 24.60200
C  36.05900 47.65100 27.57500
C  34.60400 52.08300 26.18000
C  35.86900 50.97400 21.61300
C  37.24300 46.52500 23.03300
N  35.32700 49.75100 26.62700
C  35.65400 48.97200 27.73900
C  35.54700 49.75400 29.04500
C  34.85700 51.11100 28.55800
C  34.97400 51.01600 27.05100
C  33.44700 51.30700 28.98300
C  36.82800 49.85500 29.93700
C  36.57500 49.68200 31.50100
H  35.17100 49.81900 32.07700
N  35.31500 51.18400 24.03200
C  34.78700 52.19500 24.79900
C  34.43200 53.32100 24.03000
C  34.85800 53.07000 22.70500
C  35.40700 51.68100 22.71300
C  33.78200 54.50400 24.65700
C  34.78100 53.97500 21.47500
O  35.16600 53.62400 20.33500
C  34.01400 55.36500 21.54700
N  36.29700 48.77600 22.51500
C  36.29000 49.66400 21.48100
C  36.72800 49.02800 20.13900
C  37.33300 47.67400 20.65300
C  36.90900 47.61800 22.15800
C  35.62200 48.93700 19.08300
C  38.89200 47.49400 20.37300
C  39.99000 47.96100 21.34000
N  36.47500 47.43300 25.07300
C  37.00200 46.36900 24.40900
C  37.17600 45.18600 25.25300
C  36.77200 45.69600 26.50500
C  36.38600 47.04700 26.31700
C  37.53400 43.86800 24.67600
C  36.64600 45.30000 27.86900
O  36.79100 44.22600 28.40900
C  36.18100 46.56700 28.65000
C  35.01600 46.35600 29.43500
O  33.86300 46.46500 28.94900
O  35.34900 45.95900 30.74800
C  34.25300 45.27300 31.39200
H  34.36100 53.00200 26.71700
H  35.86600 51.52400 20.67000
H  37.70200 45.67900 22.51700
H  34.82100 49.09000 29.51400
H  35.34000 51.94400 29.06800
H  33.06700 50.59200 29.71200
H  32.76600 51.29200 28.13100
H  33.28400 52.29300 29.41700
H  37.11100 50.90600 29.88500
H  37.62600 49.23900 29.52200
H  37.20300 50.37000 32.06700
H  37.01200 48.69000 31.61500
H  34.51700 55.19900 25.06200
H  33.28900 54.17300 25.57100
H  32.99600 55.00700 24.09500
H  32.93000 55.25000 21.52300
H  34.36900 55.99800 20.73400
H  34.32800 55.88600 22.45100
H  37.50800 49.60000 19.63700
H  36.80300 46.86800 20.14600
H  34.65900 49.02600 19.58500
H  35.79200 48.00400 18.54500
H  35.81700 49.75800 18.39400
H  39.22400 47.98600 19.45900
H  38.96400 46.41800 20.21500
H  39.59900 48.15700 22.33800
H  40.56900 48.79100 20.93600
H  40.74400 47.19100 21.50500
H  37.63400 43.14600 25.48700
H  38.53600 43.99200 24.26600
H  36.71100 43.77200 23.96800
H  37.06900 46.87900 29.19900
H  33.35200 45.85700 31.20000
H  34.23100 45.42100 32.47200
H  34.25900 44.23000 31.07700
Mg -2.05800 34.46700 26.99900
C  -3.66500 32.67400 29.45900
C  -0.50300 36.39200 29.45100
C  -0.75000 36.49300 24.57200
C  -3.61200 32.57200 24.59200
N  -2.04400 34.43700 29.27900
C  -2.75900 33.61600 30.02300
C  -2.31200 33.72400 31.49400
C  -1.41900 35.01000 31.45400
C  -1.30500 35.30300 29.97600
C  -2.06600 36.05300 32.30200
C  -1.63100 32.49600 32.11300
C  -1.98700 32.10900 33.56900
H  -0.90200 32.31300 34.61700
N  -0.85000 36.24400 27.06800
C  -0.26400 36.85000 28.12800
C  0.51600 38.00000 27.68700
C  0.36900 38.08800 26.28700
C  -0.40000 36.86800 25.87800
C  1.23000 39.03000 28.62900
C  0.88700 39.11800 25.32500
O  0.42800 39.17400 24.20400
C  2.05100 39.90800 25.77000
N  -2.20900 34.59500 24.85600
C  -1.52700 35.41700 24.06800
C  -1.72100 35.05100 22.60000
C  -2.21600 33.61500 22.71500
C  -2.75400 33.58200 24.16400
C  -2.79600 35.98200 21.86500
C  -1.17700 32.43200 22.47300
C  0.32000 32.73400 22.51000
N  -3.30400 32.91100 26.92800
C  -3.96500 32.29600 25.92000
C  -4.88000 31.29700 26.42400
C  -4.72100 31.35000 27.76900
C  -3.88000 32.37300 28.04300
C  -5.73300 30.47900 25.54300
C  -5.12400 30.76500 29.04900
O  -5.90200 29.84400 29.22600
C  -4.41500 31.59400 30.20400
C  -5.50300 32.18600 31.00300
O  -6.20400 33.13600 30.71300
O  -5.60400 31.38900 32.15400
C  -6.42800 31.86700 33.16500
H  -0.07900 36.89000 30.32600
H  -0.32100 37.06800 23.74800
H  -4.03800 31.92200 23.82600
H  -3.24100 33.89200 32.03900
H  -0.49100 34.66700 31.91100
H  -3.02100 36.33600 31.85900
H  -1.41500 36.91400 32.45000
H  -2.22300 35.54500 33.25300
H  -0.55900 32.69200 32.12400
H  -1.92800 31.63300 31.51700
H  -2.05600 31.02400 33.49300
H  -2.99100 32.34200 33.92400
H  0.95200 40.04600 28.34800
H  2.31600 38.95500 28.68300
H  0.91800 38.78800 29.64500
H  1.74300 40.70100 26.45200
H  2.59300 40.28800 24.90500
H  2.57800 39.18700 26.39600
H  -0.81600 35.11100 21.99500
H  -3.07800 33.50700 22.05700
H  -2.78900 36.85600 22.51600
H  -3.76700 35.48800 21.86400
H  -2.40400 36.22400 20.87600
H  -1.36000 32.04100 21.47200
H  -1.20500 31.55300 23.11600
H  0.87500 32.81800 21.57600
H  0.82700 31.90600 23.00600
H  0.41500 33.57600 23.19500
H  -5.86500 31.00700 24.59900
H  -6.62900 30.37400 26.15500
H  -5.30100 29.48700 25.41400
H  -3.83600 30.90900 30.82400
H  -6.07400 32.78000 33.64200
H  -6.33400 31.14900 33.98000
H  -7.44900 32.06000 32.83500

