158

Mg 1.67100 -1.90800 44.50300
C  5.04300 -1.00400 44.39200
C  0.91000 0.76000 42.61900
C  -1.36200 -3.19300 44.25500
C  2.74300 -4.87100 46.16200
N  2.86500 -0.42500 43.48100
C  4.18600 -0.12300 43.64000
C  4.61900 1.09700 42.84000
C  3.26700 1.80900 42.50100
C  2.31400 0.57200 42.77700
C  2.85900 3.04500 43.29600
C  5.49200 0.82900 41.59200
C  6.68100 1.70000 41.16300
H  6.90100 2.09400 39.68400
N  -0.05900 -1.27200 43.68900
C  -0.20600 -0.11600 43.01300
C  -1.65500 0.16100 42.88100
C  -2.30700 -0.97100 43.28900
C  -1.26600 -1.87900 43.78800
C  -2.20900 1.40400 42.20200
C  -3.71300 -1.16700 43.18400
O  -4.38700 -0.37300 42.64300
C  -4.33400 -2.39800 43.73300
N  0.84500 -3.85900 44.99900
C  -0.47800 -4.03700 44.89900
C  -0.87600 -5.44700 45.28800
C  0.42000 -5.93000 45.94600
C  1.45100 -4.90200 45.69100
C  -2.06400 -5.59500 46.26000
C  0.89100 -7.33200 45.35300
C  0.05000 -8.52900 45.81600
N  3.48900 -2.80500 45.23400
C  3.81200 -3.94700 45.95100
C  5.19500 -3.90900 46.31100
C  5.71400 -2.79700 45.65800
C  4.66000 -2.14400 45.06200
C  5.87700 -4.92100 47.13700
C  6.93800 -2.01600 45.39300
O  8.10300 -2.23900 45.69000
C  6.58000 -0.80900 44.57000
C  7.04700 0.40000 45.30400
O  6.76500 0.75400 46.47400
O  7.87300 1.09100 44.45100
C  8.05800 2.50400 44.81400
H  0.70100 1.71000 42.12400
H  -2.32400 -3.70500 44.32500
H  3.02700 -5.78000 46.69600
H  5.13200 1.69800 43.59000
H  3.14000 2.07600 41.45200
H  3.60800 3.19500 44.07400
H  1.89300 2.92300 43.78600
H  2.88900 3.93500 42.66800
H  4.92700 0.95700 40.66800
H  5.84600 -0.20200 41.55900
H  7.59500 1.15300 41.39500
H  6.66200 2.53300 41.86600
H  -2.52400 1.17000 41.18500
H  -1.47500 2.20500 42.11800
H  -3.13100 1.60400 42.74800
H  -3.93200 -3.29900 43.26900
H  -5.41700 -2.42800 43.61400
H  -4.12900 -2.47700 44.80000
H  -1.12400 -5.95000 44.35300
H  0.40100 -6.06800 47.02700
H  -2.51800 -4.62000 46.43900
H  -1.65000 -5.90000 47.22100
H  -2.75000 -6.35400 45.88400
H  1.90400 -7.47500 45.72900
H  0.90100 -7.21800 44.26900
H  0.77100 -9.07500 46.42500
H  -0.29600 -9.14400 44.98600
H  -0.76000 -8.16700 46.44900
H  5.15700 -5.69000 47.41900
H  6.20600 -4.50300 48.08800
H  6.69600 -5.28700 46.51700
H  7.00500 -0.76700 43.56700
H  8.95100 2.85600 44.29600
H  8.13800 2.77000 45.86800
H  7.17100 3.04700 44.48900
Mg 42.89600 41.99800 27.43100
C  41.86300 44.37200 29.87500
C  44.05600 40.10000 30.01700
C  43.97500 39.80500 25.10500
C  42.00500 44.29800 25.01900
N  42.90500 42.22300 29.66400
C  42.41000 43.22200 30.39200
C  42.47300 42.91900 31.89400
C  43.39100 41.64600 31.98800
C  43.47800 41.28000 30.47500
C  44.80200 41.76000 32.52700
C  41.08500 42.61100 32.56000
C  40.72400 43.41300 33.73500
H  40.25000 42.64500 35.01100
N  43.84800 40.07900 27.52200
C  44.20600 39.52100 28.68900
C  44.81100 38.21600 28.32600
C  44.68400 38.12100 26.94900
C  44.12100 39.35500 26.46800
C  45.16500 37.19100 29.37700
C  45.04100 36.96200 26.02400
O  44.66300 36.93800 24.85300
C  45.74800 35.81000 26.53300
N  43.20600 42.07700 25.38200
C  43.52800 41.02800 24.57200
C  43.31900 41.31800 23.06100
C  42.51000 42.63900 23.09200
C  42.63900 43.09400 24.63400
C  44.58700 41.47800 22.26500
C  41.12500 42.41400 22.52000
C  40.18900 41.32500 23.21600
N  42.24300 44.02800 27.36300
C  41.83000 44.80100 26.34500
C  41.25400 46.04400 26.79100
C  41.21000 45.90700 28.21000
C  41.82300 44.64300 28.49200
C  40.79700 47.16600 25.95100
C  40.79200 46.47600 29.42900
O  40.26700 47.57100 29.57100
C  41.15000 45.56000 30.48800
C  42.10800 46.35500 31.33400
O  43.33500 46.36200 31.19900
O  41.34300 47.04500 32.26300
C  41.98700 48.09500 33.03700
H  44.43400 39.34500 30.71000
H  44.02300 39.14200 24.23800
H  41.55000 44.92000 24.24500
H  42.88700 43.74300 32.47400
H  42.99800 40.82800 32.59200
H  44.77900 42.82200 32.76900
H  45.57700 41.51600 31.80000
H  44.80700 41.23400 33.48100
H  41.11300 41.56700 32.87500
H  40.22500 42.62200 31.89000
H  39.94300 44.12500 33.46900
H  41.47500 44.14900 34.02300
H  44.38000 37.30100 30.12600
H  46.12300 37.60700 29.68900
H  45.09300 36.14700 29.07300
H  45.99900 35.26600 25.62200
H  45.27700 35.01400 27.11100
H  46.64900 36.15400 27.04000
H  42.78700 40.43200 22.71300
H  43.01100 43.45400 22.56900
H  44.73700 40.70100 21.51500
H  45.41700 41.41100 22.96700
H  44.64000 42.41900 21.71600
H  41.37600 42.12100 21.50100
H  40.65000 43.39400 22.56700
H  39.91900 40.65600 22.39900
H  39.25700 41.63600 23.68900
H  40.80000 40.81100 23.95700
H  40.53300 46.67600 25.01400
H  41.41300 48.02600 25.68800
H  39.84300 47.48200 26.37300
H  40.26600 45.11800 30.94600
H  42.80300 48.49600 32.43500
H  42.47600 47.50900 33.81400
H  41.39900 48.83000 33.58700

