158

Mg 7.20900 3.12600 27.49800
C  8.32400 1.93400 30.62200
C  5.12400 5.26500 29.21500
C  5.84800 4.13500 24.61800
C  8.96600 0.76900 25.92200
N  6.58000 3.32500 29.71200
C  7.27300 2.83800 30.77900
C  6.68400 3.31000 32.16500
C  5.58100 4.27500 31.59100
C  5.81100 4.37700 30.04700
C  4.05600 3.98800 31.96900
C  7.69600 3.99700 33.13900
C  7.22100 3.88700 34.62700
H  8.17400 3.66100 35.73900
N  5.90900 4.72800 26.96500
C  5.12000 5.43100 27.82000
C  4.29100 6.30900 27.14400
C  4.42100 5.96900 25.81700
C  5.36300 4.87100 25.72600
C  3.22900 7.19700 27.77000
C  3.75300 6.64000 24.59900
O  3.90400 6.26300 23.45500
C  2.88100 7.91700 24.70600
N  7.32700 2.51600 25.52000
C  6.71900 3.11600 24.44400
C  7.22400 2.53700 23.09100
C  8.28700 1.51800 23.57400
C  8.15500 1.55000 25.10700
C  5.98100 1.98000 22.26700
C  9.73000 1.84600 22.98900
C  10.55200 2.87000 23.74000
N  8.31900 1.48300 28.06900
C  9.13600 0.72500 27.32600
C  10.11600 -0.01000 28.16900
C  9.72500 0.38100 29.50200
C  8.72100 1.34500 29.36800
C  11.29100 -0.90100 27.80400
C  10.06900 0.15500 30.83600
O  10.98400 -0.58600 31.28800
C  9.17600 1.19600 31.70500
C  8.38100 0.44400 32.74400
O  7.26600 -0.01500 32.57400
O  8.99400 0.37500 33.99100
C  8.30500 -0.16900 35.12700
H  4.51700 5.96700 29.79100
H  5.37000 4.44600 23.68700
H  9.49700 0.02000 25.33100
H  6.18400 2.48200 32.66700
H  5.68600 5.26200 32.04300
H  3.97800 3.20200 32.72000
H  3.50100 3.84200 31.04100
H  3.59400 4.87300 32.40800
H  7.75600 5.03400 32.80600
H  8.71300 3.63100 32.99600
H  6.41300 3.16200 34.72700
H  6.86200 4.88500 34.87800
H  3.18500 7.25700 28.85800
H  2.19100 7.01800 27.49100
H  3.48000 8.19300 27.40700
H  3.54500 8.63500 25.18700
H  2.08800 7.79900 25.44500
H  2.44300 8.24300 23.76300
H  7.72200 3.28200 22.47000
H  8.02300 0.52200 23.22100
H  5.11300 2.23000 22.87700
H  6.02500 0.89500 22.17200
H  5.88600 2.53300 21.33200
H  9.81200 2.28300 21.99400
H  10.22100 0.88100 22.86400
H  11.40800 2.30500 24.11000
H  9.99600 3.35600 24.54200
H  10.85600 3.70800 23.11400
H  11.85600 -0.53600 26.94600
H  10.87900 -1.88400 27.57600
H  11.97500 -0.90500 28.65300
H  9.84400 1.85700 32.25800
H  8.36800 -1.25000 34.99900
H  7.33900 0.32700 35.22100
H  8.81200 -0.03800 36.08300
Mg 24.28300 -4.61800 45.68300
C  26.34300 -2.19900 44.08100
C  21.65500 -3.40000 43.57400
C  22.51600 -7.38400 46.35000
C  27.05100 -5.82800 47.35700
N  24.07700 -3.03600 43.97800
C  25.00900 -2.16000 43.61100
C  24.58300 -1.25900 42.44900
C  23.04900 -1.37100 42.60300
C  22.91300 -2.69900 43.42100
C  22.33300 -0.22100 43.35600
C  25.12100 -1.87800 41.05400
C  25.77700 -0.76300 40.16800
H  25.34400 -0.88600 38.68000
N  22.27100 -5.25600 45.12400
C  21.44000 -4.64200 44.25100
C  20.23500 -5.45800 44.15900
C  20.41900 -6.66200 44.93500
C  21.78900 -6.45700 45.51500
C  19.11200 -5.12700 43.29000
C  19.38400 -7.72000 45.17900
O  18.29600 -7.65300 44.60000
C  19.63800 -8.75300 46.20000
N  24.69900 -6.29300 46.68100
C  23.82900 -7.34100 46.84500
C  24.24100 -8.42100 47.78400
C  25.65300 -7.88800 48.20600
C  25.79700 -6.54400 47.42400
C  23.24800 -8.78500 48.91300
C  26.88700 -8.85400 48.04900
C  28.05400 -8.74500 49.03600
N  26.32800 -4.12400 45.81800
C  27.31900 -4.66000 46.57000
C  28.60100 -3.96700 46.42700
C  28.28300 -2.98200 45.38100
C  26.88000 -3.11500 45.05100
C  29.98700 -4.35500 47.10000
C  28.80400 -1.92700 44.54500
O  29.91000 -1.35300 44.49600
C  27.58200 -1.36600 43.65400
C  27.36000 0.06900 43.92400
O  26.61200 0.58100 44.78100
O  28.07100 0.75700 42.95000
C  27.82800 2.19100 43.01000
H  20.87400 -2.94000 42.96400
H  21.93200 -8.25300 46.66100
H  27.85000 -6.22500 47.98700
H  24.96700 -0.25000 42.59900
H  22.56400 -1.39500 41.62800
H  21.73500 -0.62700 44.17200
H  21.62400 0.19200 42.63800
H  22.99800 0.60500 43.61100
H  24.27700 -2.21300 40.45000
H  25.79600 -2.72900 41.14500
H  26.86700 -0.77300 40.14000
H  25.48500 0.21700 40.54500
H  18.93000 -5.97900 42.63500
H  19.17700 -4.12700 42.86100
H  18.23300 -5.08600 43.93400
H  18.74500 -9.37900 46.20600
H  19.77300 -8.33200 47.19600
H  20.38600 -9.50800 45.95700
H  24.44500 -9.28300 47.14900
H  25.44100 -7.69100 49.25700
H  22.44400 -8.05000 48.96600
H  23.74700 -8.72500 49.88000
H  22.70500 -9.73000 48.88000
H  27.30300 -8.83200 47.04200
H  26.50600 -9.87400 48.00100
H  28.12200 -9.53900 49.78000
H  27.79800 -7.88600 49.65600
H  29.01100 -8.62000 48.53000
H  30.08300 -5.43000 46.94400
H  30.03200 -4.14200 48.16800
H  30.85600 -3.86000 46.66600
H  27.82700 -1.60300 42.61900
H  26.90400 2.50400 43.49500
H  27.71800 2.53100 41.98000
H  28.60600 2.83400 43.42200

