158

Mg -1.74100 17.33000 26.62400
C  -1.94800 14.87000 29.31800
C  -2.22200 19.84100 28.99000
C  -1.90800 19.48600 24.05900
C  -1.82200 14.63900 24.35600
N  -2.13900 17.25200 28.95000
C  -2.02200 16.19200 29.84300
C  -2.00100 16.75300 31.32500
C  -2.14200 18.32400 31.05800
C  -2.12600 18.50700 29.54500
C  -3.33900 19.01500 31.83600
C  -0.74200 16.21900 32.12900
C  -0.23400 17.06000 33.25800
H  0.05400 16.32400 34.54000
N  -2.06700 19.39300 26.56200
C  -2.19800 20.20900 27.64400
C  -2.23600 21.58000 27.12400
C  -1.95300 21.48000 25.71200
C  -1.98800 20.07900 25.40100
C  -2.50300 22.84300 28.03500
C  -1.59700 22.59600 24.67600
O  -1.42500 22.49400 23.44300
C  -1.57100 23.93300 25.17800
N  -1.84000 17.10500 24.54600
C  -1.83700 18.13600 23.67100
C  -1.68400 17.73000 22.23700
C  -1.64100 16.14900 22.36100
C  -1.80800 15.94200 23.85700
C  -2.87200 18.25900 21.40800
C  -0.33300 15.61700 21.82000
C  0.96800 15.87200 22.63100
N  -1.82800 15.21400 26.77400
C  -1.82400 14.25900 25.76700
C  -1.91100 12.96200 26.27800
C  -1.91700 13.14000 27.67000
C  -1.92100 14.53700 27.98800
C  -2.12100 11.68600 25.55700
C  -2.00600 12.41300 28.97600
O  -2.18900 11.26100 29.27300
C  -1.84700 13.55300 30.06100
C  -0.48000 13.34600 30.72100
O  0.60500 13.76300 30.31000
O  -0.56200 12.57200 31.94400
C  0.64500 12.27400 32.72000
H  -2.37600 20.63600 29.72300
H  -2.05400 20.13900 23.19600
H  -1.72100 13.84300 23.61500
H  -2.84500 16.31100 31.85500
H  -1.32800 18.84800 31.55800
H  -4.33100 18.92400 31.39400
H  -3.06100 20.03600 32.09900
H  -3.51300 18.56100 32.81200
H  0.00900 16.23700 31.33900
H  -0.90800 15.21100 32.50900
H  -0.91200 17.89800 33.42300
H  0.74900 17.45400 33.00300
H  -2.72900 22.62000 29.07800
H  -3.33600 23.37200 27.57200
H  -1.57100 23.40600 28.08400
H  -1.48400 24.77200 24.48900
H  -0.73700 23.88700 25.87800
H  -2.56100 24.06700 25.61500
H  -0.77100 18.15900 21.82400
H  -2.44600 15.73900 21.75000
H  -3.72600 18.45800 22.05500
H  -3.10500 17.46600 20.69700
H  -2.59700 19.14100 20.83000
H  -0.10300 16.09000 20.86500
H  -0.45900 14.56100 21.58200
H  0.81200 16.00500 23.70200
H  1.56400 16.73200 22.32300
H  1.58100 14.97600 22.53600
H  -2.13300 10.93000 26.34200
H  -1.39600 11.41600 24.78900
H  -3.14200 11.72000 25.17900
H  -2.63800 13.40800 30.79600
H  1.46700 12.94200 32.46400
H  1.00200 11.27500 32.46800
H  0.39400 12.29300 33.78100
Mg 47.57300 24.96100 27.94200
C  48.64500 27.50600 30.11100
C  46.42800 23.11800 30.60300
C  46.82400 22.44900 25.89900
C  49.50200 26.51700 25.47100
N  47.38100 25.37700 30.15000
C  47.98700 26.43200 30.82100
C  47.78000 26.25000 32.30100
C  47.08500 24.81100 32.46100
C  46.96900 24.37000 31.00900
C  47.86100 23.83000 33.29300
C  46.92400 27.35500 32.93900
C  47.32300 27.92800 34.32600
H  46.22100 27.85800 35.37600
N  46.67500 23.08900 28.18800
C  46.34400 22.46400 29.38600
C  45.81600 21.11000 29.10500
C  45.84200 20.94600 27.70100
C  46.44000 22.18700 27.19000
C  45.51500 20.13100 30.22100
C  45.40100 19.74500 26.94700
O  45.66100 19.69400 25.72900
C  44.65100 18.65200 27.62800
N  48.09500 24.51400 25.93900
C  47.49800 23.50900 25.24800
C  47.90800 23.44200 23.78400
C  48.64800 24.81400 23.63300
C  48.78300 25.33400 25.09200
C  48.72400 22.19900 23.47000
C  47.88900 25.96000 22.89700
C  48.90900 26.89500 22.16600
N  48.80900 26.71900 27.69600
C  49.45900 27.26700 26.65200
C  50.15300 28.49300 26.95300
C  49.77200 28.67400 28.33700
C  49.01900 27.56700 28.75800
C  50.98900 29.42000 26.20200
C  49.90100 29.52300 29.52700
O  50.48600 30.60800 29.62500
C  49.20400 28.75000 30.70900
C  50.22400 28.57000 31.77600
O  51.26400 27.93300 31.68900
O  49.72900 29.21200 32.84400
C  50.61400 29.09700 34.03500
H  46.03400 22.56100 31.45500
H  46.58600 21.71800 25.12300
H  50.00200 27.01500 24.63900
H  48.79600 26.23500 32.69500
H  46.12300 24.90300 32.96700
H  48.50600 24.36300 33.99200
H  48.45900 23.11700 32.72600
H  47.05800 23.33600 33.84000
H  45.86100 27.11600 32.94500
H  46.93000 28.26800 32.34500
H  47.60300 28.96700 34.14800
H  48.17200 27.38700 34.74400
H  44.53700 19.71400 29.98000
H  45.64000 20.48800 31.24400
H  46.22100 19.30400 30.28600
H  44.09700 18.06500 26.89600
H  43.85000 19.09700 28.21800
H  45.36100 18.11100 28.25400
H  47.10500 23.45400 23.04700
H  49.63800 24.78400 23.18000
H  49.70100 22.37000 23.01900
H  48.21700 21.48800 22.81800
H  49.02200 21.72100 24.40300
H  47.31900 26.57700 23.59200
H  47.32800 25.51600 22.07400
H  49.92400 26.67700 22.49800
H  48.69400 27.94300 22.37500
H  48.81600 26.77200 21.08700
H  51.88200 28.88100 25.88900
H  51.39600 30.27400 26.74300
H  50.40300 29.71900 25.33300
H  48.42600 29.44100 31.03200
H  50.36600 30.01700 34.56400
H  51.69700 29.18600 33.95700
H  50.46200 28.23100 34.68000

