158

Mg 24.66000 -5.49300 45.64200
C  27.23300 -3.39600 44.31100
C  22.57200 -3.93300 43.34000
C  22.56800 -8.00600 45.98500
C  27.18500 -7.11500 47.47300
N  24.92000 -3.73600 44.11600
C  26.01100 -3.02100 43.76700
C  25.69500 -2.02500 42.60700
C  24.12700 -2.04600 42.64300
C  23.80000 -3.34200 43.43300
C  23.28500 -0.75300 43.20700
C  26.31900 -2.44600 41.22300
C  26.39200 -1.17000 40.28100
H  25.85400 -1.38100 38.83600
N  22.72700 -5.86400 44.94500
C  22.04700 -5.09600 44.00700
C  20.69600 -5.64400 43.80600
C  20.72000 -6.88600 44.46700
C  22.06400 -7.01300 45.17800
C  19.60000 -5.05900 42.90900
C  19.61800 -7.96400 44.52800
O  18.51400 -7.73500 44.10400
C  19.77700 -9.33800 45.22200
N  24.86600 -7.29400 46.50800
C  23.79100 -8.10700 46.60000
C  24.13400 -9.28600 47.57800
C  25.51400 -8.99600 48.10200
C  25.87900 -7.72500 47.41100
C  23.08500 -9.56900 48.67000
C  26.47300 -10.21200 47.95100
C  27.59800 -10.36000 48.97200
N  26.72200 -5.28700 45.96900
C  27.60100 -5.97700 46.83400
C  28.91400 -5.39800 46.79200
C  28.82800 -4.42000 45.74900
C  27.48700 -4.39000 45.30700
C  30.10900 -5.87600 47.47500
C  29.54000 -3.42500 44.93200
O  30.71600 -3.10000 44.97300
C  28.60700 -2.79800 43.93000
C  28.49400 -1.37800 44.12500
O  28.00000 -0.76600 45.03100
O  29.20900 -0.84100 43.10400
C  29.40900 0.60200 43.21400
H  21.95900 -3.50500 42.54300
H  21.93000 -8.85500 46.23900
H  27.96400 -7.66500 48.00600
H  26.02900 -1.04300 42.94000
H  23.80400 -2.21900 41.61600
H  24.00100 0.06800 43.17900
H  22.89700 -1.04400 44.18300
H  22.54000 -0.45900 42.46700
H  25.76300 -3.24400 40.73100
H  27.28900 -2.87400 41.47700
H  27.41000 -0.78200 40.30700
H  25.78400 -0.43700 40.81200
H  19.22900 -5.92000 42.35500
H  19.96900 -4.45300 42.08200
H  18.82700 -4.45600 43.38600
H  19.97300 -9.24100 46.28900
H  20.65000 -9.80200 44.76100
H  18.95700 -10.04200 45.08300
H  24.25600 -10.10300 46.86700
H  25.61400 -8.70300 49.14800
H  23.58100 -9.29000 49.60000
H  22.70000 -10.58700 48.73400
H  22.19200 -8.97000 48.49300
H  26.87600 -10.16800 46.93900
H  26.00700 -11.17900 48.14400
H  28.52900 -10.03200 48.51100
H  27.71200 -11.42500 49.17700
H  27.31600 -9.74000 49.82300
H  30.30100 -6.88500 47.10900
H  29.77600 -5.83800 48.51200
H  30.95000 -5.19600 47.33400
H  28.92700 -3.10200 42.93400
H  29.44500 1.01000 44.22400
H  28.68400 1.15600 42.61700
H  30.43000 0.80900 42.89600
Mg 45.20100 4.69900 46.50700
C  42.96900 7.45500 46.58600
C  42.26800 2.74000 46.13900
C  47.13400 2.10200 45.71100
C  47.85600 6.95100 46.06000
N  42.85600 5.09500 46.33600
C  42.25500 6.30200 46.45800
C  40.69800 6.18200 46.32300
C  40.48500 4.65000 46.36700
C  41.97700 4.10800 46.35700
C  39.59300 4.09600 47.51700
C  40.03300 6.94800 45.08300
C  40.81300 6.77500 43.77500
H  40.11000 6.23700 42.50600
N  44.71200 2.69100 45.95100
C  43.47600 2.09000 45.92300
C  43.73300 0.64800 45.87100
C  45.08600 0.48100 45.44200
C  45.73400 1.81700 45.67500
C  42.61100 -0.32400 45.70500
C  45.76800 -0.76400 44.92900
O  45.19900 -1.84200 44.87500
C  47.12100 -0.76600 44.30600
N  47.20300 4.59000 45.93500
C  47.82600 3.39000 45.77500
C  49.33400 3.53100 45.47600
C  49.50100 5.10800 45.63700
C  48.09600 5.61800 45.85300
C  50.39400 2.75800 46.32800
C  50.23400 5.85600 44.45700
C  49.39200 5.96500 43.18800
N  45.41900 6.72800 46.43500
C  46.58200 7.55200 46.32100
C  46.16900 8.94200 46.62400
C  44.80500 8.93000 46.67700
C  44.36000 7.57900 46.57400
C  47.06800 10.17400 46.55100
C  43.71200 9.78900 46.83000
O  43.54200 11.01200 46.86600
C  42.40100 8.80800 46.77600
C  41.71100 8.88800 48.12200
O  41.94800 8.14800 49.08800
O  40.67000 9.79300 48.01200
C  39.83300 10.00000 49.20700
H  41.38400 2.10900 46.25300
H  47.75700 1.20600 45.67900
H  48.70000 7.64100 46.00100
H  40.39800 6.73500 47.21300
H  40.04700 4.30500 45.43000
H  38.85700 3.37200 47.16600
H  38.95800 4.91000 47.86600
H  40.20100 3.62800 48.29100
H  39.98400 8.01300 45.31300
H  38.96400 6.73700 45.11100
H  41.60200 6.03500 43.90800
H  41.27300 7.71500 43.47000
H  42.39800 -0.95300 46.56900
H  42.79200 -1.02600 44.89100
H  41.63900 0.15900 45.60800
H  47.85200 -0.90400 45.10300
H  47.20200 0.11100 43.66300
H  47.24400 -1.61600 43.63600
H  49.46700 3.15300 44.46300
H  49.98600 5.29700 46.59400
H  49.92600 2.37200 47.23300
H  51.25700 3.38200 46.56300
H  50.85700 1.94200 45.77400
H  51.11800 5.34000 44.08200
H  50.55600 6.87300 44.67900
H  49.98800 5.46000 42.42700
H  49.17500 6.92800 42.72800
H  48.41600 5.49700 43.31200
H  46.67500 11.19000 46.58300
H  47.60000 10.30100 45.60800
H  47.76400 10.23600 47.38800
H  41.71500 9.15100 46.00100
H  39.97000 9.06400 49.74700
H  38.84700 10.39900 48.96600
H  40.35700 10.76200 49.78300

