158

Mg 0.18900 7.35300 26.02500
C  1.32600 9.21400 28.90200
C  0.49600 4.48300 28.03800
C  -0.44400 5.51500 23.46600
C  0.64000 10.25000 24.10100
N  0.74900 6.92500 28.17600
C  1.02000 7.85300 29.11600
C  1.16400 7.21300 30.49900
C  1.35700 5.70900 30.12700
C  0.69500 5.68800 28.69800
C  2.83800 5.30300 30.32500
C  -0.05100 7.61200 31.43700
C  0.16700 7.77900 32.94100
H  1.41000 7.07800 33.48300
N  0.00300 5.28000 25.80800
C  0.27000 4.22700 26.67300
C  0.14500 2.94600 25.99800
C  -0.18000 3.27800 24.62900
C  -0.25000 4.73600 24.61800
C  0.15100 1.59700 26.85700
C  -0.50300 2.34700 23.44500
O  -1.01200 2.69800 22.35700
C  -0.41800 0.89400 23.66300
N  0.01900 7.87300 24.03000
C  -0.33800 6.90300 23.15400
C  -0.53900 7.50000 21.75800
C  -0.20300 9.02000 21.90800
C  0.23300 9.07300 23.42200
C  0.14300 6.93800 20.51400
C  -1.26500 10.02400 21.45000
C  -0.91000 10.85900 20.21200
N  0.68000 9.39500 26.39800
C  0.74200 10.42400 25.49500
C  1.19700 11.65000 26.17300
C  1.50800 11.23400 27.48100
C  1.12000 9.86700 27.59900
C  1.30700 13.07800 25.63000
C  1.99800 11.63800 28.75200
O  2.50900 12.68700 29.07300
C  1.78600 10.42600 29.73600
C  2.91600 10.29700 30.73200
O  3.91900 9.59900 30.57900
O  2.73800 11.15600 31.81000
C  3.85300 11.17000 32.77900
H  0.80000 3.65600 28.68200
H  -0.64800 4.92800 22.56800
H  0.70900 11.15300 23.49000
H  2.11100 7.50200 30.95400
H  0.65000 5.21000 30.79000
H  3.43400 6.20500 30.46200
H  3.21900 4.67400 29.52100
H  2.92200 4.74500 31.25800
H  -0.80700 6.83300 31.34700
H  -0.53900 8.56100 31.21700
H  -0.70100 7.43500 33.50300
H  0.40900 8.83200 33.09000
H  0.69800 1.68400 27.79600
H  0.35200 0.82100 26.11700
H  -0.84100 1.23700 27.12700
H  -1.10300 0.58400 24.45200
H  0.63900 0.74400 23.88300
H  -0.74600 0.35100 22.77600
H  -1.62000 7.35500 21.76200
H  0.78800 9.16800 21.47800
H  0.55000 7.63800 19.78400
H  -0.72000 6.43800 20.07300
H  1.06300 6.38000 20.68600
H  -1.34600 10.67000 22.32500
H  -2.17900 9.52700 21.12500
H  0.08700 10.59500 19.86000
H  -1.11900 11.91600 20.38100
H  -1.56900 10.40900 19.47000
H  1.45200 13.11900 24.55000
H  2.09900 13.67900 26.07600
H  0.37300 13.52300 25.97200
H  0.98900 10.80700 30.37500
H  3.99300 12.23700 32.95500
H  4.75700 10.60800 32.54500
H  3.34800 10.85100 33.69100
Mg -1.54900 34.72700 26.72700
C  -3.02100 32.69100 29.38000
C  -0.30500 36.77300 29.11500
C  -0.60800 36.67200 24.35300
C  -3.29300 32.63700 24.49000
N  -1.65600 34.65100 28.98800
C  -2.28900 33.76400 29.90300
C  -1.87800 34.05500 31.35100
C  -1.11000 35.46300 31.18200
C  -1.04500 35.66900 29.64400
C  -1.75700 36.76400 31.81400
C  -0.94600 32.90400 32.00400
C  -1.55300 32.07200 33.21200
H  -0.63800 32.02300 34.50100
N  -0.56500 36.46800 26.70700
C  -0.02400 37.08700 27.75800
C  0.87500 38.13000 27.33500
C  0.79700 38.18100 25.90700
C  -0.14000 37.06100 25.59500
C  1.68800 39.05300 28.32800
C  1.55100 39.06800 24.87000
O  1.37100 38.96100 23.67800
C  2.56200 40.08500 25.32700
N  -1.86200 34.65300 24.71200
C  -1.39200 35.58200 23.92300
C  -1.87900 35.55400 22.52100
C  -2.65800 34.18600 22.55700
C  -2.68800 33.80000 24.05900
C  -2.64500 36.77100 21.94000
C  -2.17600 32.97100 21.67000
C  -0.68700 32.55300 21.91500
N  -2.72700 32.97200 26.82000
C  -3.37800 32.23100 25.83600
C  -4.21000 31.20500 26.35400
C  -3.97400 31.31700 27.74000
C  -3.23900 32.44700 27.99500
C  -5.00300 30.11500 25.72800
C  -4.21200 30.62700 29.01500
O  -4.79300 29.54100 29.19500
C  -3.71400 31.59200 30.19400
C  -4.86700 32.03800 31.05900
O  -5.79000 32.76400 30.74600
O  -4.81400 31.31400 32.15300
C  -5.77700 31.59300 33.20300
H  0.16100 37.41000 29.87000
H  -0.19000 37.27900 23.54700
H  -4.00100 32.17200 23.80100
H  -2.71600 34.20700 32.03200
H  -0.13000 35.40800 31.65800
H  -1.11700 37.39400 32.43100
H  -2.55900 36.42500 32.47000
H  -2.15200 37.39300 31.01600
H  -0.00100 33.38200 32.26400
H  -0.76900 32.19200 31.19800
H  -1.68600 31.04200 32.88000
H  -2.57000 32.42200 33.39100
H  1.97000 38.58400 29.27000
H  0.96600 39.82800 28.58700
H  2.55200 39.51700 27.85300
H  3.36100 39.65900 25.93400
H  2.15200 40.85200 25.98500
H  3.12700 40.40400 24.45100
H  -1.00800 35.48100 21.86900
H  -3.71300 34.34600 22.33400
H  -3.43300 36.43300 21.26700
H  -1.94200 37.36400 21.35400
H  -3.02900 37.34900 22.78100
H  -2.23800 33.27500 20.62500
H  -2.81500 32.09000 21.72800
H  -0.05500 33.01400 21.15600
H  -0.61600 31.46700 21.98700
H  -0.42000 32.87900 22.92000
H  -4.46700 29.66300 24.89400
H  -5.88900 30.53600 25.25400
H  -5.11300 29.28800 26.42900
H  -3.02400 30.97300 30.76800
H  -6.70200 31.83800 32.68200
H  -5.40500 32.37000 33.87200
H  -5.94300 30.69200 33.79300

