158

Mg 6.18200 53.92400 40.92400
C  5.54800 50.42600 40.51700
C  9.56400 53.30900 40.36500
C  6.69800 57.22900 40.68700
C  2.81400 54.34900 41.29600
N  7.36500 52.09100 40.60200
C  6.94500 50.78600 40.43900
C  8.08100 49.76200 40.31700
C  9.31300 50.70000 40.63300
C  8.73600 52.18500 40.52700
C  10.11700 50.49300 41.97400
C  8.34300 49.13600 38.89100
C  8.14200 50.09600 37.62600
H  7.19400 49.62900 36.50200
N  7.88000 55.12900 40.55200
C  9.13300 54.66900 40.31500
C  9.93200 55.83000 40.00100
C  9.21000 57.01000 40.19800
C  7.85700 56.50600 40.47200
C  11.31500 55.55200 39.40900
C  9.64800 58.37400 40.01600
O  10.79100 58.58600 39.63800
C  8.81700 59.50700 40.41000
N  4.91200 55.56300 41.10300
C  5.37400 56.80100 41.03600
C  4.25200 57.85500 41.18100
C  3.02300 56.89100 41.15600
C  3.59700 55.51300 41.15300
C  4.35800 58.70600 42.41400
C  2.18300 57.00000 39.89900
C  0.66300 56.81700 40.08000
N  4.42200 52.69600 40.89600
C  3.16400 53.01000 41.19000
C  2.30600 51.85700 41.12400
C  3.19800 50.80600 40.95600
C  4.50000 51.40700 40.77100
C  0.80200 51.83900 41.29500
C  3.30600 49.37500 40.79800
O  2.44400 48.55000 40.83400
C  4.82400 49.03300 40.57500
C  4.98800 48.33200 39.27900
O  4.61900 48.71800 38.19500
O  5.61900 47.10500 39.57400
C  5.76300 46.38200 38.32600
H  10.63900 53.15100 40.25800
H  6.58200 58.31400 40.64700
H  1.75600 54.57900 41.44300
H  7.93300 48.94800 41.02700
H  10.12100 50.58600 39.91000
H  11.16900 50.51700 41.69000
H  9.76100 49.60200 42.49100
H  9.95800 51.34900 42.63000
H  7.73500 48.24400 38.74300
H  9.40000 48.89200 38.79000
H  9.09600 50.18500 37.10600
H  8.01500 51.16000 37.82800
H  11.35000 54.69200 38.74000
H  12.10200 55.62200 40.16000
H  11.66000 56.35200 38.75400
H  9.52100 60.32800 40.54600
H  8.35300 59.20000 41.34700
H  8.05100 59.70700 39.66100
H  4.22600 58.47800 40.28600
H  2.40300 57.00300 42.04600
H  5.11800 58.31900 43.09400
H  3.40500 58.74500 42.94200
H  4.67800 59.73400 42.24300
H  2.28600 56.15000 39.22500
H  2.37900 57.87500 39.28100
H  0.35100 56.39700 41.03600
H  0.28600 56.10800 39.34300
H  0.17000 57.78500 39.98500
H  0.41000 52.77900 40.90700
H  0.59400 51.68700 42.35500
H  0.47800 50.98400 40.70100
H  5.26700 48.38800 41.33400
H  6.33200 46.96900 37.60500
H  4.79200 46.07900 37.93200
H  6.30500 45.45000 38.48600
Mg 9.98700 48.24700 26.49500
C  8.20500 48.24400 29.38600
C  12.66300 49.58100 28.21600
C  11.67300 48.30600 23.59000
C  7.03900 47.33500 24.66200
N  10.35200 48.88700 28.47200
C  9.50700 48.68100 29.57200
C  10.12900 49.19000 30.89900
C  11.24600 50.13200 30.37200
C  11.46300 49.50700 28.94300
C  11.07200 51.70000 30.29200
C  10.64900 48.13100 31.84600
C  10.34600 48.25800 33.34700
H  10.13900 46.99900 34.19900
N  11.92200 48.72500 25.95000
C  12.89800 49.22400 26.86100
C  14.08600 49.44400 26.09200
C  13.85900 49.11100 24.71600
C  12.44900 48.70700 24.70900
C  15.27300 50.20500 26.75500
C  14.77400 49.22100 23.51200
O  14.43400 48.85200 22.40900
C  16.24200 49.49800 23.73800
N  9.34600 47.91500 24.40000
C  10.31000 47.87300 23.42000
C  9.70300 47.45400 22.06400
C  8.24600 46.94000 22.55100
C  8.17600 47.43300 23.92100
C  9.58300 48.67500 21.19000
C  8.03900 45.37700 22.37100
C  9.03800 44.41000 23.14200
N  8.03300 47.93600 26.92100
C  6.95000 47.53800 26.11100
C  5.75800 47.36900 26.87200
C  6.20700 47.52400 28.20900
C  7.60600 47.92600 28.13400
C  4.40700 47.20500 26.33100
C  5.81300 47.60700 29.58700
O  4.68300 47.48000 29.98500
C  7.11800 47.96100 30.44500
C  7.41200 46.83800 31.36200
O  8.20900 45.98400 31.10700
O  6.59400 46.80500 32.49000
C  6.78400 45.60600 33.35100
H  13.51100 50.10300 28.66400
H  12.21500 48.13400 22.65800
H  6.11900 46.90000 24.26700
H  9.33100 49.71600 31.42200
H  12.19000 49.91500 30.87300
H  10.17700 51.87300 30.89000
H  10.75600 51.96000 29.28200
H  11.92800 52.26100 30.66800
H  11.72900 48.27100 31.86500
H  10.45100 47.14700 31.42000
H  9.55000 48.98400 33.51200
H  11.21500 48.69700 33.83700
H  16.05000 49.55200 27.15300
H  15.01600 50.97300 27.48500
H  15.64900 50.81700 25.93500
H  16.25300 50.57500 23.57300
H  16.85500 49.09800 22.93000
H  16.50200 49.08200 24.71100
H  10.38100 46.63900 21.80600
H  7.43300 47.39600 21.98600
H  9.19900 49.52600 21.75300
H  8.87700 48.58900 20.36400
H  10.56300 49.06300 20.91200
H  8.30900 45.33600 21.31600
H  6.99000 45.21100 22.61700
H  9.40100 44.98700 23.99200
H  9.84600 44.01900 22.52300
H  8.48600 43.55600 23.53400
H  4.19500 48.05800 25.68600
H  3.73800 47.01900 27.17100
H  4.34900 46.27000 25.77400
H  7.04100 48.74700 31.19600
H  5.85900 45.03000 33.39900
H  7.14800 45.95900 34.31600
H  7.63200 44.95900 33.12700

