158

Mg 25.69900 -8.56200 47.77800
C  27.94300 -6.15800 46.51800
C  23.44800 -7.59100 45.24700
C  23.94400 -11.43400 48.28500
C  28.38500 -9.77400 49.73000
N  25.71600 -6.99600 46.09500
C  26.70000 -6.13900 45.82000
C  26.25600 -5.10900 44.84000
C  24.74900 -5.52000 44.55900
C  24.56800 -6.73800 45.42200
C  23.71300 -4.41700 44.92200
C  27.10600 -4.93900 43.50300
C  27.41700 -3.54300 43.15200
H  27.46200 -3.17300 41.65200
N  23.87700 -9.36200 46.98000
C  23.15400 -8.80300 45.95000
C  21.94800 -9.63300 45.82400
C  21.97400 -10.64500 46.74400
C  23.30600 -10.54400 47.42100
C  20.82500 -9.32000 44.78200
C  20.98300 -11.79100 46.86700
O  20.06000 -11.93100 46.09200
C  21.24300 -12.85000 47.91600
N  26.18300 -10.34100 48.69900
C  25.18600 -11.27700 48.91800
C  25.69200 -12.46800 49.81300
C  27.14700 -11.89500 50.28800
C  27.25300 -10.58800 49.57600
C  24.74700 -12.89000 50.95400
C  28.27000 -12.85900 49.94700
C  29.01400 -12.55000 48.64600
N  27.66800 -7.98300 48.17100
C  28.61900 -8.55700 49.02800
C  29.82000 -7.76900 48.97500
C  29.59000 -6.72600 48.05800
C  28.29600 -6.94800 47.54500
C  31.05900 -8.04200 49.74700
C  30.11500 -5.59500 47.42700
O  31.18300 -4.99200 47.53300
C  29.02800 -5.15800 46.39900
C  28.51100 -3.84300 46.86300
O  27.57200 -3.69700 47.62400
O  29.04300 -2.87000 46.06800
C  28.34000 -1.56200 46.05300
H  22.68500 -7.19000 44.57700
H  23.55800 -12.45100 48.38500
H  29.12800 -10.23400 50.38500
H  26.26700 -4.16900 45.39000
H  24.66300 -5.87800 43.53300
H  24.14000 -3.47000 44.59100
H  23.62400 -4.48900 46.00600
H  22.74100 -4.65700 44.49100
H  26.54800 -5.38500 42.67900
H  28.02700 -5.51500 43.59300
H  28.32300 -3.27200 43.69500
H  26.68900 -2.90700 43.65600
H  20.92000 -8.41300 44.18400
H  19.95700 -9.17700 45.42600
H  20.59600 -10.14100 44.10300
H  21.62900 -12.41000 48.83600
H  21.98100 -13.42400 47.35500
H  20.40100 -13.48800 48.18000
H  25.97200 -13.29700 49.16400
H  27.14000 -11.71200 51.36200
H  25.16400 -12.58300 51.91300
H  24.68800 -13.97800 50.98700
H  23.77400 -12.45600 50.72200
H  27.94700 -13.88300 49.75800
H  28.93400 -12.75500 50.80500
H  29.42400 -13.50300 48.31300
H  29.85900 -11.89800 48.86800
H  28.37000 -12.08500 47.90000
H  30.90200 -8.83700 50.47600
H  31.47800 -7.17400 50.25500
H  31.66700 -8.65600 49.08200
H  29.34800 -5.05800 45.36200
H  28.82300 -0.80900 45.43000
H  28.16800 -1.18100 47.06000
H  27.29900 -1.65000 45.74100
Mg 52.74900 23.19700 43.96100
C  49.83100 24.96800 43.17800
C  51.08000 20.38200 44.04500
C  55.68700 21.69000 43.72200
C  54.39900 26.32200 43.64000
N  50.66300 22.69900 43.35800
C  49.65500 23.56300 43.35100
C  48.26900 22.84100 43.42900
C  48.82600 21.47900 44.04300
C  50.28500 21.47400 43.83500
C  48.47600 21.03700 45.51600
C  47.54400 22.71000 42.04900
C  48.12100 22.01800 40.87100
H  47.94600 22.71900 39.49100
N  53.31900 21.32300 43.74900
C  52.47400 20.28500 43.95000
C  53.27000 19.09400 44.04900
C  54.65700 19.40100 44.08900
C  54.62400 20.84000 43.82500
C  52.70300 17.72300 44.06100
C  55.74800 18.34400 44.33000
O  55.49200 17.22700 44.63400
C  57.14900 18.70000 44.04700
N  54.74100 23.94100 43.59100
C  55.81000 23.02400 43.68600
C  57.15100 23.76900 43.97100
C  56.75400 25.28100 43.65000
C  55.18300 25.15500 43.64700
C  57.78900 23.53900 45.41500
C  57.16900 25.89800 42.30200
C  57.81900 27.28600 42.39400
N  52.29700 25.31100 43.72100
C  52.96000 26.45200 43.62700
C  52.14400 27.59900 43.56800
C  50.86400 27.08600 43.29800
C  51.04500 25.67600 43.37800
C  52.61600 29.07500 43.53600
C  49.53900 27.43900 42.98700
O  49.02400 28.51300 42.91800
C  48.86500 26.02100 42.73800
C  48.72100 26.04500 41.23600
O  49.50600 25.63300 40.37900
O  47.48700 26.59600 40.94000
C  47.25000 26.67000 39.50200
H  50.60800 19.40600 44.18200
H  56.60700 21.10400 43.77400
H  54.81700 27.31900 43.48700
H  47.64300 23.39200 44.13000
H  48.40600 20.70100 43.40600
H  49.38700 20.79300 46.06100
H  47.82100 20.16700 45.47400
H  48.01000 21.80300 46.13600
H  47.15800 23.66700 41.69700
H  46.67300 22.16900 42.41800
H  47.74900 20.99500 40.92500
H  49.20400 21.94700 40.98000
H  53.32900 17.02700 43.50400
H  51.67600 17.67900 43.69900
H  52.54200 17.27900 45.04300
H  57.69200 17.75500 44.01100
H  57.45100 19.23000 44.95100
H  57.19500 19.29200 43.13300
H  57.85900 23.36100 43.24900
H  56.98300 25.96800 44.46500
H  58.02000 24.49600 45.88400
H  58.67100 22.89900 45.36800
H  56.91600 23.09500 45.89400
H  56.22100 25.95300 41.76500
H  57.88200 25.18000 41.89700
H  57.24000 28.09700 41.95100
H  58.73700 27.06700 41.85000
H  58.11700 27.56700 43.40400
H  52.02500 29.71500 44.19100
H  52.55600 29.40700 42.50000
H  53.63200 29.17000 43.92000
H  47.90700 25.93600 43.25100
H  46.68400 25.80900 39.14700
H  48.13700 26.75700 38.87500
H  46.57900 27.52800 39.45600

