158

Mg -2.58800 17.28800 26.36500
C  -2.76000 14.90100 29.02900
C  -3.23500 19.65300 28.67900
C  -2.64200 19.44300 23.92100
C  -2.46600 14.65500 24.06700
N  -2.76800 17.26300 28.73000
C  -2.85600 16.18700 29.52400
C  -3.41000 16.58000 30.87600
C  -3.72600 18.11300 30.73100
C  -3.24600 18.36500 29.30400
C  -5.22600 18.53100 30.92100
C  -2.46400 16.25500 32.12600
C  -2.56300 16.99600 33.42600
H  -2.59100 16.25000 34.72300
N  -2.79200 19.33100 26.28400
C  -3.04600 20.12500 27.33100
C  -3.24900 21.51400 26.83600
C  -3.02500 21.44200 25.41500
C  -2.76900 20.02100 25.17100
C  -3.44900 22.75100 27.70100
C  -2.86700 22.57100 24.44100
O  -2.41100 22.34200 23.31700
C  -3.06400 24.02500 24.72700
N  -2.85600 17.05800 24.32300
C  -2.71100 18.11400 23.53700
C  -2.48300 17.67100 22.08800
C  -2.30200 16.15100 22.13000
C  -2.44300 15.94300 23.62200
C  -3.56400 18.04800 21.05500
C  -1.04300 15.59100 21.41700
C  0.27800 15.57400 22.20700
N  -2.55900 15.22100 26.42200
C  -2.51600 14.29500 25.39700
C  -2.47500 12.93700 25.96300
C  -2.61200 13.17300 27.32800
C  -2.66500 14.58800 27.59200
C  -2.47900 11.66200 25.19200
C  -2.76700 12.47800 28.59500
O  -2.76100 11.25600 28.74900
C  -2.81000 13.55200 29.69300
C  -1.66200 13.32500 30.62600
O  -0.59900 13.91400 30.59500
O  -2.07000 12.56400 31.63100
C  -0.93500 12.17500 32.47800
H  -3.29800 20.49600 29.37000
H  -2.51400 20.05500 23.02600
H  -2.41400 13.83600 23.34700
H  -4.32700 15.99100 30.86700
H  -3.05000 18.72600 31.32600
H  -5.75700 18.08300 31.76100
H  -5.81800 18.46300 30.00800
H  -5.22100 19.57300 31.24200
H  -1.44600 16.21300 31.73800
H  -2.77000 15.25900 32.44300
H  -3.43400 17.63200 33.27100
H  -1.71800 17.68300 33.47100
H  -3.64600 22.53200 28.75100
H  -4.35900 23.26400 27.39100
H  -2.67600 23.51400 27.61400
H  -4.08200 24.29800 25.00600
H  -3.00200 24.49300 23.74400
H  -2.35000 24.37200 25.47300
H  -1.48400 18.06600 21.90800
H  -3.14300 15.61300 21.69200
H  -3.41800 17.42600 20.17200
H  -3.39800 19.06700 20.70600
H  -4.55300 17.86600 21.47500
H  -0.86500 16.34100 20.64700
H  -1.30500 14.62400 20.98800
H  0.23000 15.80000 23.27200
H  0.91200 16.27300 21.66200
H  0.68400 14.56900 22.09400
H  -1.42800 11.43000 25.02400
H  -2.90100 11.78600 24.19400
H  -3.06700 10.91900 25.73100
H  -3.70000 13.50000 30.32100
H  0.04700 11.94900 32.06300
H  -1.22100 11.28200 33.03300
H  -0.84700 12.95800 33.23200
Mg 8.68700 47.73000 26.91100
C  6.69200 47.48900 29.79800
C  11.48000 47.89700 28.92900
C  10.70100 48.31900 24.30200
C  5.93800 47.66500 24.97400
N  8.98100 47.76000 29.05600
C  8.06300 47.50600 30.08800
C  8.75600 47.57100 31.47000
C  10.27600 47.81600 31.11100
C  10.25600 47.83800 29.59200
C  10.95900 49.09400 31.71400
C  8.50200 46.32600 32.37000
C  9.53600 45.98700 33.46300
H  9.03100 45.44600 34.79600
N  10.80800 47.83400 26.69600
C  11.78000 47.86700 27.63000
C  13.07900 48.01000 27.05600
C  12.92100 48.19200 25.65400
C  11.43400 48.15100 25.49600
C  14.30400 47.98000 27.92100
C  13.97300 48.44600 24.54200
O  13.66500 48.52900 23.38700
C  15.38300 48.40600 24.79000
N  8.34400 48.21100 24.89800
C  9.31100 48.43500 23.99700
C  8.76300 48.45500 22.55000
C  7.25000 48.06500 22.76000
C  7.14600 47.96100 24.31700
C  8.88400 49.90200 21.84000
C  6.90600 46.65700 22.15700
C  5.90300 46.63100 20.99700
N  6.63700 47.75700 27.30000
C  5.66200 47.63900 26.38900
C  4.32400 47.50800 27.10100
C  4.67100 47.54700 28.45600
C  6.12600 47.57900 28.51400
C  3.00500 47.27900 26.51300
C  4.17700 47.40900 29.79300
O  3.04900 47.36900 30.20200
C  5.49000 47.42300 30.71600
C  5.34100 46.01500 31.31800
O  5.92900 45.01000 31.01600
O  4.65300 46.14500 32.48100
C  4.60300 44.96700 33.36800
H  12.36400 47.90400 29.57000
H  11.36100 48.41500 23.43700
H  5.03100 47.73600 24.37100
H  8.31000 48.49100 31.84600
H  10.83000 46.89900 31.30600
H  11.94400 48.76800 32.04900
H  10.36400 49.70700 32.39200
H  11.14000 49.72800 30.84600
H  8.29300 45.50900 31.68000
H  7.58000 46.50000 32.92400
H  10.19000 46.84200 33.63100
H  10.25100 45.39200 32.89400
H  14.14400 47.42200 28.84400
H  14.51900 49.01800 28.17800
H  15.10200 47.50800 27.34900
H  16.00900 48.69400 23.94600
H  15.81200 47.44200 25.06400
H  15.61600 49.01800 25.66200
H  9.37000 47.77900 21.94900
H  6.61800 48.84600 22.33800
H  9.52600 50.62900 22.33700
H  7.97100 50.47900 21.69300
H  9.34200 49.61900 20.89200
H  6.60600 45.97600 22.95400
H  7.84400 46.15900 21.91200
H  6.58400 46.68500 20.14700
H  5.20400 47.46400 21.06600
H  5.36700 45.68300 20.96100
H  2.29600 48.05000 26.81800
H  2.57000 46.36000 26.90600
H  2.93400 47.17700 25.43000
H  5.42300 48.17700 31.50100
H  4.83300 45.37100 34.35300
H  5.24800 44.13500 33.08700
H  3.62800 44.48200 33.40800

