158

Mg 44.09400 3.54400 46.84100
C  42.16400 6.33100 46.60700
C  41.33200 1.67600 46.12300
C  46.08300 0.84300 46.54100
C  47.00600 5.62000 47.30800
N  42.01100 4.03600 46.36900
C  41.41500 5.20800 46.31600
C  39.90800 5.17800 45.97700
C  39.68900 3.61300 45.92500
C  41.15400 3.05500 46.14200
C  38.68400 3.03900 46.97800
C  39.63000 5.92200 44.61000
C  40.70500 6.06400 43.54900
H  40.24700 6.29700 42.06700
N  43.69100 1.49600 46.61200
C  42.48600 0.93000 46.40400
C  42.68000 -0.51000 46.31800
C  44.10400 -0.73800 46.42900
C  44.70200 0.60900 46.51800
C  41.58500 -1.53700 45.98100
C  44.76500 -2.10100 46.33700
O  44.05600 -3.12600 46.27000
C  46.25000 -2.31000 46.35600
N  46.24400 3.29500 46.86700
C  46.76900 2.01300 46.87100
C  48.38500 2.10000 46.83500
C  48.62300 3.62500 46.95100
C  47.20200 4.21800 47.07400
C  49.06800 1.27600 48.05600
C  49.48200 4.24600 45.78300
C  50.97700 4.43200 46.06600
N  44.55800 5.56800 46.93700
C  45.72400 6.27400 47.32400
C  45.41800 7.69600 47.57300
C  43.99000 7.70500 47.19800
C  43.56300 6.43100 46.89000
C  46.44300 8.64500 47.98000
C  42.90800 8.67600 47.14900
O  42.81500 9.87900 47.41100
C  41.61000 7.78800 46.73700
C  40.61700 8.08700 47.83100
O  40.52300 7.56100 48.94300
O  39.69200 8.98800 47.33700
C  38.63800 9.21700 48.32800
H  40.46500 1.05400 45.89100
H  46.67400 -0.06400 46.40000
H  47.93100 6.19800 47.35300
H  39.29700 5.51700 46.81400
H  39.21400 3.41500 44.96400
H  38.57400 3.72200 47.82000
H  39.02200 2.06300 47.32600
H  37.64500 2.91400 46.67200
H  39.41300 6.94700 44.91000
H  38.64200 5.76000 44.17700
H  41.13300 5.06200 43.58500
H  41.44700 6.78700 43.88700
H  41.57300 -1.71600 44.90500
H  40.60100 -1.08900 46.12100
H  41.70900 -2.43100 46.59200
H  46.82400 -1.98500 45.48900
H  46.35100 -3.39000 46.46600
H  46.71900 -1.92400 47.26100
H  48.72800 1.64200 45.90700
H  49.07400 3.91400 47.90100
H  49.48200 0.34400 47.67100
H  48.27800 1.06500 48.77600
H  49.84400 1.92000 48.47000
H  49.08500 5.23200 45.53800
H  49.41400 3.57000 44.93100
H  51.18400 3.90500 46.99800
H  51.33900 5.45700 46.14000
H  51.55900 4.08400 45.21200
H  46.48600 9.53000 47.34600
H  47.44800 8.23100 47.89800
H  46.26400 8.94900 49.01100
H  41.14400 8.21600 45.85000
H  37.94900 8.39000 48.49800
H  38.03500 10.01700 47.89800
H  39.10000 9.62800 49.22600
Mg 46.41100 24.46200 28.48600
C  46.63900 26.83600 31.06400
C  45.37900 22.19400 30.88900
C  46.42500 22.09600 26.09700
C  47.62400 26.78300 26.34700
N  45.77600 24.57100 30.62800
C  46.13700 25.61800 31.50300
C  45.76500 25.25100 32.98600
C  45.43500 23.71900 32.89800
C  45.49600 23.46000 31.41700
C  46.42300 22.89300 33.71400
C  44.49100 26.08200 33.39600
C  44.56200 27.01400 34.60200
H  43.57000 26.83700 35.75400
N  45.98700 22.45300 28.50500
C  45.36900 21.74800 29.54900
C  45.11300 20.36800 29.11700
C  45.36500 20.33300 27.73000
C  45.90200 21.63600 27.35200
C  44.51400 19.34700 30.10100
C  45.18500 19.14400 26.71500
O  45.64800 19.29100 25.56100
C  44.52600 17.90300 27.08900
N  47.14300 24.37800 26.60000
C  46.93300 23.35900 25.74400
C  47.26900 23.72300 24.25700
C  47.46200 25.26600 24.43100
C  47.50500 25.48200 25.89600
C  48.49600 22.92800 23.70200
C  46.35300 26.15100 23.70900
C  45.08000 26.63300 24.54500
N  47.03300 26.45200 28.62800
C  47.46600 27.30100 27.66100
C  47.60600 28.61900 28.18100
C  47.35800 28.47000 29.51800
C  47.00900 27.15700 29.77200
C  48.00400 29.82100 27.42400
C  47.36700 29.15600 30.75700
O  47.82900 30.24900 30.99100
C  46.90500 28.08000 31.89300
C  48.04900 27.90100 32.86900
O  49.06300 27.27500 32.64400
O  47.76200 28.48400 34.04700
C  48.58000 28.14400 35.21500
H  45.14000 21.47100 31.67200
H  46.31600 21.40600 25.25800
H  48.03700 27.45300 25.59000
H  46.62100 25.40900 33.64200
H  44.43000 23.54400 33.28300
H  45.99500 22.78800 34.71000
H  47.33200 23.47800 33.85800
H  46.64600 21.90600 33.31000
H  43.72900 25.34300 33.64000
H  44.20600 26.67000 32.52400
H  44.59200 28.06700 34.32300
H  45.55800 26.97400 35.04300
H  43.58100 18.91800 29.73700
H  44.32800 19.68700 31.12000
H  45.23900 18.54400 30.23700
H  45.20200 17.09700 27.37500
H  44.12000 17.60400 26.12300
H  43.76500 17.93100 27.86800
H  46.42700 23.61000 23.57400
H  48.38300 25.70400 24.04800
H  49.17800 23.70000 23.34500
H  48.02600 22.37000 22.89200
H  48.82800 22.27400 24.50800
H  45.97300 25.69900 22.79200
H  46.94000 26.93400 23.22900
H  45.02300 26.22100 25.55300
H  44.14900 26.27600 24.10600
H  45.08600 27.72300 24.56000
H  47.28200 30.14300 26.67300
H  48.97100 29.56700 26.99100
H  48.21600 30.60600 28.15100
H  46.05600 28.50000 32.43300
H  49.62400 27.94700 34.97100
H  48.22700 27.11900 35.32600
H  48.48800 28.73700 36.12500

