158

Mg 7.79800 2.59300 28.69300
C  9.35000 1.41900 31.60700
C  5.59300 4.46600 30.54500
C  6.46400 3.54000 25.81800
C  9.86600 0.29400 26.77300
N  7.47200 2.85400 30.89000
C  8.36700 2.43000 31.86200
C  8.08600 3.18600 33.19600
C  6.83600 4.14200 32.84200
C  6.57900 3.80700 31.35500
C  5.53700 3.86600 33.69400
C  9.38400 3.88500 33.80700
C  9.74700 3.63600 35.29000
H  8.77000 3.20800 36.38200
N  6.14500 3.69600 28.24200
C  5.44000 4.49600 29.13400
C  4.54500 5.33000 28.42300
C  4.73000 5.09400 26.98700
C  5.80100 4.07900 26.96600
C  3.57800 6.17800 29.15000
C  4.05400 5.65000 25.81200
O  4.24900 5.33400 24.64700
C  2.97700 6.72300 26.00500
N  8.04700 1.86600 26.51500
C  7.49800 2.56400 25.54200
C  7.93700 2.09200 24.15300
C  9.20200 1.25000 24.53400
C  9.02700 1.14000 26.04100
C  6.90300 1.40600 23.23300
C  10.58200 1.72900 24.12000
C  11.15500 2.98400 24.85400
N  9.12900 1.01200 29.09100
C  9.88500 0.17700 28.25200
C  10.85600 -0.55900 29.05200
C  10.63200 -0.08300 30.36200
C  9.59500 0.84700 30.31700
C  11.86600 -1.51600 28.60100
C  11.20600 -0.18500 31.63600
O  12.17600 -0.79000 32.10600
C  10.37300 0.76400 32.58100
C  9.80800 -0.18300 33.61700
O  8.83800 -0.93800 33.42500
O  10.30800 0.11000 34.79700
C  9.55900 -0.50800 35.95800
H  5.05500 5.18100 31.17100
H  6.06900 4.02200 24.92000
H  10.54500 -0.37600 26.24200
H  7.68100 2.41000 33.84500
H  7.04500 5.21100 32.89500
H  4.70300 3.52500 33.08100
H  5.22700 4.74400 34.26000
H  5.81000 3.16600 34.48400
H  9.32900 4.96900 33.71100
H  10.23000 3.51800 33.22600
H  10.10000 4.59300 35.67400
H  10.57700 2.93500 35.20800
H  2.58300 6.23500 28.71000
H  4.06600 7.15100 29.09200
H  3.33300 5.77800 30.13400
H  2.59600 6.95600 25.01000
H  3.35100 7.57600 26.57100
H  2.13600 6.33800 26.58200
H  8.24900 2.92000 23.51700
H  9.19200 0.25500 24.09000
H  7.08700 0.33400 23.17000
H  6.95900 1.68700 22.18100
H  5.93100 1.72200 23.61300
H  10.57200 2.02400 23.07000
H  11.34500 0.95200 24.16600
H  11.21900 2.64700 25.88800
H  10.46900 3.82700 24.77600
H  12.10600 3.30100 24.42700
H  12.78300 -1.09400 28.19000
H  11.42900 -2.23400 27.90700
H  12.28800 -2.05100 29.45200
H  11.09500 1.47000 32.99000
H  9.62500 -1.59100 35.85300
H  8.54900 -0.22400 36.25200
H  10.21300 -0.25700 36.79300
Mg 54.74100 24.49400 44.03400
C  52.35400 26.96300 43.41700
C  52.62300 22.15200 43.18300
C  57.46500 22.50400 43.84400
C  57.03000 27.27500 44.43900
N  52.75400 24.56100 43.26600
C  51.93500 25.65900 43.15300
C  50.54000 25.21200 42.76300
C  50.58500 23.69500 43.19300
C  52.07800 23.39800 43.13200
C  49.90300 23.28700 44.56300
C  50.26600 25.42600 41.28500
C  48.82200 25.74000 40.88000
H  48.23300 25.27200 39.51800
N  55.01400 22.57400 43.50700
C  53.97300 21.71000 43.36300
C  54.57100 20.33700 43.35900
C  55.94600 20.42500 43.66600
C  56.18800 21.85400 43.76900
C  53.81900 19.08000 42.98000
C  56.86800 19.15800 43.82200
O  56.50800 17.97900 43.65500
C  58.30200 19.38600 43.96100
N  57.04500 24.86300 43.91100
C  57.91500 23.81000 43.88300
C  59.36900 24.29600 44.10800
C  59.14500 25.80300 44.55900
C  57.61900 26.06700 44.28400
C  60.39300 23.47400 44.91100
C  60.00000 26.92900 43.94500
C  60.68400 27.96700 44.83200
N  54.74400 26.66000 44.05300
C  55.70900 27.60500 44.36900
C  55.07300 28.91300 44.68900
C  53.78600 28.68600 44.14900
C  53.65100 27.34600 43.87800
C  55.81000 30.09600 45.02900
C  52.50700 29.31100 43.87400
O  52.14800 30.45900 43.93300
C  51.58200 28.27200 43.19800
C  51.55500 28.75200 41.83900
O  52.44300 28.86500 41.03300
O  50.31000 29.25000 41.60100
C  49.93200 29.76400 40.24000
H  51.85600 21.37500 43.19000
H  58.33400 21.84600 43.90900
H  57.71800 28.10000 44.63200
H  49.84800 25.68300 43.46100
H  50.14200 23.09500 42.39800
H  49.20200 22.47100 44.38500
H  49.45400 24.15200 45.05200
H  50.68300 23.00600 45.27000
H  50.60100 24.56300 40.70900
H  50.78600 26.32200 40.94700
H  48.60500 26.79200 41.06900
H  48.21900 25.20900 41.61700
H  52.79000 19.40300 42.82500
H  53.82900 18.58600 43.95100
H  54.18700 18.60200 42.07200
H  58.71900 19.67800 42.99700
H  58.66200 18.41600 44.30400
H  58.63300 20.11200 44.70300
H  59.66800 24.26100 43.06100
H  59.39400 25.81500 45.62000
H  61.23200 23.00400 44.39800
H  59.83700 22.68000 45.41000
H  60.86800 24.11200 45.65500
H  59.55200 27.48600 43.12100
H  60.79800 26.36600 43.46100
H  61.57700 28.20100 44.25200
H  60.93100 27.69000 45.85700
H  59.96300 28.78400 44.86600
H  56.81500 29.85300 45.37300
H  55.14900 30.38800 45.84500
H  55.75700 30.77400 44.17700
H  50.59900 28.25000 43.66800
H  50.85900 29.97800 39.70900
H  49.34200 30.67600 40.32900
H  49.24600 29.06200 39.76500

