158

Mg 47.43200 45.09700 42.93800
C  44.01600 44.61600 42.52500
C  47.99700 41.83900 42.23000
C  50.70600 45.82000 42.77600
C  46.79400 48.62700 43.33800
N  46.12500 43.41900 42.46300
C  44.76300 43.40600 42.42800
C  44.16900 42.06800 42.23100
C  45.44000 41.19200 42.32700
C  46.61600 42.15400 42.26300
C  45.50700 40.29400 43.51000
C  43.32900 41.79100 41.00200
C  43.67800 42.49200 39.66900
H  43.54200 41.71000 38.39400
N  49.13100 44.02100 42.64100
C  49.11400 42.62700 42.33500
C  50.48800 42.16400 42.33300
C  51.35700 43.29800 42.45700
C  50.47100 44.48100 42.68900
C  50.79700 40.71600 42.48000
C  52.87100 43.28600 42.35700
O  53.53600 42.25700 42.07600
C  53.65400 44.55700 42.53600
N  48.54300 46.94700 43.05400
C  49.91000 46.96400 43.00900
C  50.55800 48.43300 43.00100
C  49.32700 49.28300 43.36100
C  48.12400 48.24200 43.26200
C  51.77800 48.64200 44.02900
C  49.02000 50.46200 42.43700
C  48.33900 51.70300 43.17400
N  45.82500 46.38500 42.90000
C  45.72900 47.74600 43.11300
C  44.34400 48.13600 43.04600
C  43.63500 46.90700 42.89400
C  44.57100 45.92600 42.76900
C  43.60100 49.45900 43.21800
C  42.33000 46.40300 42.77800
O  41.25600 46.99100 42.76900
C  42.49100 44.90400 42.53300
C  41.75000 44.29300 43.67500
O  40.71800 43.55200 43.50100
O  42.25700 44.64400 44.89500
C  41.64100 43.96000 46.06900
H  48.11000 40.75500 42.16300
H  51.77900 45.97300 42.63900
H  46.67400 49.68300 43.58700
H  43.54300 41.93400 43.11300
H  45.46500 40.49100 41.49300
H  45.53600 39.22000 43.32500
H  44.64400 40.45600 44.15500
H  46.39500 40.49400 44.11000
H  42.29500 42.06400 41.21400
H  43.20900 40.72000 40.84400
H  44.71500 42.82200 39.72200
H  43.11000 43.41600 39.55500
H  51.86500 40.55800 42.63400
H  50.64400 40.19200 41.53700
H  50.17700 40.26000 43.25100
H  53.72500 45.13200 41.61200
H  54.65400 44.24100 42.83200
H  53.27900 45.13400 43.38100
H  50.98300 48.66800 42.02600
H  49.37200 49.71900 44.35900
H  51.83000 47.97200 44.88700
H  51.80200 49.66000 44.41700
H  52.77700 48.55100 43.60300
H  48.44000 50.14400 41.57100
H  49.96100 50.91100 42.11700
H  48.63400 52.68200 42.79600
H  48.65800 51.77300 44.21400
H  47.25300 51.65500 43.09300
H  42.79200 49.55000 42.49400
H  44.29200 50.23500 42.88800
H  43.44500 49.59300 44.28900
H  41.98200 44.63600 41.60800
H  41.58200 42.88700 45.88600
H  40.64500 44.26400 46.38900
H  42.24700 44.07600 46.96800
Mg -10.09900 39.34100 42.59800
C  -8.72000 36.38600 41.52600
C  -7.33100 41.03100 41.28600
C  -11.68700 42.43300 43.14700
C  -13.08000 37.75600 43.42400
N  -8.22400 38.70400 41.36500
C  -7.82800 37.41800 41.24100
C  -6.38200 37.36200 40.68600
C  -5.96800 38.87700 40.85600
C  -7.20600 39.63100 41.21600
C  -4.86600 39.19800 41.93800
C  -6.45400 36.87200 39.15900
C  -5.60400 35.71000 38.89900
H  -4.86500 35.61100 37.57300
N  -9.68600 41.35100 42.23000
C  -8.46700 41.78700 41.72600
C  -8.46700 43.25300 41.64500
C  -9.70700 43.68100 42.20700
C  -10.43600 42.47900 42.56600
C  -7.40400 44.24100 41.03000
C  -10.13100 45.14000 42.22200
O  -9.28700 46.06400 42.06000
C  -11.54200 45.61700 42.34400
N  -12.01900 39.98200 43.30500
C  -12.41700 41.29400 43.45100
C  -13.99100 41.48200 43.77600
C  -14.36400 39.90900 43.98200
C  -13.13400 39.15200 43.46700
C  -14.27000 42.48800 44.95500
C  -15.67600 39.51400 43.35500
C  -16.82800 39.18600 44.33800
N  -10.76600 37.49900 42.60000
C  -11.96100 36.97900 43.06900
C  -11.94600 35.51000 42.85700
C  -10.69700 35.27000 42.23300
C  -10.02400 36.49100 42.13000
C  -13.07600 34.65200 43.13800
C  -9.88000 34.18300 41.77500
O  -10.12000 32.96500 41.73800
C  -8.45700 34.91400 41.36900
C  -7.41600 34.45500 42.31700
O  -7.43000 34.56800 43.54200
O  -6.48800 33.77400 41.60700
C  -5.62100 32.83500 42.36900
H  -6.40600 41.57400 41.07900
H  -12.16300 43.38400 43.39500
H  -13.98000 37.19100 43.67600
H  -5.68000 36.72300 41.22300
H  -5.68900 39.16800 39.84300
H  -4.07800 39.81300 41.50100
H  -4.48100 38.28600 42.39300
H  -5.28400 39.74700 42.78200
H  -5.98200 37.71100 38.64700
H  -7.47700 36.80800 38.78800
H  -6.14900 34.81000 39.18500
H  -4.73500 35.79500 39.55200
H  -6.91200 44.92400 41.72300
H  -7.88900 44.92900 40.33800
H  -6.65200 43.63600 40.52300
H  -11.75400 46.13200 43.28100
H  -12.39900 44.95700 42.20500
H  -11.64700 46.57800 41.84100
H  -14.34000 41.87600 42.82100
H  -14.33200 39.75800 45.06100
H  -13.30900 42.62600 45.44900
H  -15.00800 42.00000 45.59200
H  -14.54300 43.43500 44.49000
H  -15.61900 38.59500 42.77100
H  -15.95400 40.29300 42.64500
H  -17.74800 39.69600 44.05100
H  -16.62300 39.53500 45.35000
H  -17.05700 38.12100 44.28900
H  -13.82100 34.81000 42.35800
H  -13.58000 34.88300 44.07600
H  -12.84400 33.59600 43.00000
H  -8.12700 34.76700 40.34100
H  -5.26100 33.24000 43.31400
H  -4.69500 32.74200 41.80100
H  -6.14100 31.89000 42.52600

