158

Mg -12.43900 38.92800 41.50200
C  -10.71800 35.95900 40.58000
C  -9.71900 40.80400 40.34300
C  -14.23900 41.64300 41.97900
C  -15.14400 36.88700 42.46900
N  -10.46200 38.45000 40.60500
C  -9.93400 37.15000 40.31100
C  -8.67700 37.19400 39.49200
C  -8.27100 38.65700 39.66900
C  -9.56300 39.41000 40.17400
C  -7.01300 38.80000 40.61700
C  -8.82500 36.71900 38.08800
C  -7.90600 35.60000 37.55500
H  -7.01900 36.04900 36.41100
N  -12.02800 41.03600 41.26100
C  -10.87800 41.58900 40.80000
C  -11.06400 43.03300 40.64600
C  -12.34700 43.37400 41.11700
C  -12.91500 41.96800 41.52000
C  -10.06500 43.96500 39.89800
C  -13.04100 44.68900 41.04800
O  -12.48400 45.71700 40.64100
C  -14.37800 44.79100 41.60000
N  -14.42600 39.19800 42.04000
C  -14.84000 40.41800 42.38200
C  -16.18600 40.42500 43.13000
C  -16.51200 38.91800 43.09700
C  -15.28000 38.27300 42.52300
C  -16.24900 41.17900 44.52800
C  -17.79800 38.39100 42.32700
C  -18.72600 37.61400 43.23400
N  -12.83200 36.92000 41.75900
C  -13.98300 36.25100 42.04900
C  -13.78900 34.81500 41.98100
C  -12.53800 34.69900 41.38000
C  -11.93300 36.01200 41.30000
C  -14.78200 33.78400 42.38800
C  -11.58800 33.67700 40.81800
O  -11.59800 32.46900 40.65900
C  -10.31100 34.50900 40.50700
C  -9.35700 34.02800 41.56600
O  -9.63900 33.48800 42.63900
O  -8.12400 34.27500 41.15400
C  -7.11600 34.35900 42.24400
H  -8.83000 41.37100 40.05800
H  -14.96900 42.40100 42.27100
H  -15.91800 36.29500 42.96300
H  -7.97100 36.52800 39.98800
H  -7.98600 39.11900 38.72400
H  -6.67200 37.81000 40.91800
H  -7.34400 39.28900 41.53300
H  -6.28300 39.43100 40.11100
H  -8.58800 37.58100 37.46400
H  -9.84800 36.41200 37.86900
H  -8.63900 34.85500 37.24700
H  -7.21900 35.18200 38.29100
H  -10.30800 44.29300 38.88700
H  -9.08400 43.52500 39.71900
H  -9.87000 44.80100 40.56900
H  -14.72100 45.82500 41.64100
H  -14.23300 44.39900 42.60700
H  -15.12400 44.13500 41.15200
H  -16.85300 40.89300 42.40600
H  -16.52800 38.58300 44.13400
H  -15.53600 40.64700 45.15800
H  -17.22500 41.21600 45.01100
H  -15.82900 42.17500 44.38100
H  -17.50600 37.76500 41.48400
H  -18.16200 39.32800 41.90400
H  -19.06700 36.83600 42.55100
H  -19.59500 38.19900 43.53300
H  -18.22400 37.20900 44.11300
H  -15.80100 34.06800 42.12700
H  -14.77500 33.64200 43.46900
H  -14.54800 32.81300 41.95300
H  -9.96200 34.15500 39.53700
H  -7.14500 33.43100 42.81500
H  -7.32200 35.11400 43.00200
H  -6.09000 34.52700 41.91500
Mg -6.61400 24.58500 25.31800
C  -5.42400 26.24100 28.01600
C  -8.49400 22.53800 27.38000
C  -7.77000 23.21200 22.67200
C  -4.51300 26.85500 23.21800
N  -6.87400 24.35300 27.45400
C  -6.31600 25.23300 28.39300
C  -6.84300 24.94400 29.81300
C  -7.46700 23.44800 29.64100
C  -7.68500 23.41100 28.06800
C  -6.86700 22.25200 30.27400
C  -7.71400 26.03000 30.41100
C  -7.48000 26.27400 31.92900
H  -7.06600 25.08400 32.83000
N  -8.05200 23.15200 25.06200
C  -8.70000 22.42500 25.97100
C  -9.62400 21.56400 25.34500
C  -9.54700 21.75900 23.94100
C  -8.46100 22.78100 23.84000
C  -10.56300 20.59700 26.19000
C  -10.37700 21.17800 22.81300
O  -10.39300 21.52600 21.64800
C  -11.39200 20.08900 23.20600
N  -6.13200 24.94800 23.20500
C  -6.76600 24.09200 22.35200
C  -6.26000 24.31500 20.87500
C  -5.31900 25.56500 21.01200
C  -5.36600 25.84500 22.55300
C  -5.67300 22.93400 20.33900
C  -5.71200 26.85400 20.20700
C  -4.54000 27.55200 19.58800
N  -5.22100 26.24800 25.52900
C  -4.53000 27.04200 24.60800
C  -3.66000 27.98100 25.41200
C  -3.98500 27.71600 26.75700
C  -4.95000 26.68300 26.77600
C  -2.62400 29.03100 24.95700
C  -3.74700 28.05800 28.10300
O  -2.94600 28.88200 28.59400
C  -4.71400 27.18000 28.91600
C  -3.89400 26.32500 29.92000
O  -2.93500 25.57200 29.63100
O  -4.17800 26.64700 31.18000
C  -3.33700 26.22400 32.29000
H  -9.07800 21.86700 28.01300
H  -8.27600 22.75500 21.81800
H  -3.96900 27.53400 22.55800
H  -5.96000 24.79700 30.43600
H  -8.47200 23.44700 30.06200
H  -6.29900 22.52400 31.16400
H  -6.09000 21.84300 29.62800
H  -7.57500 21.52100 30.66300
H  -8.76200 25.80200 30.21600
H  -7.51700 26.91800 29.81100
H  -8.34900 26.86500 32.21600
H  -6.61000 26.93100 31.91100
H  -11.55300 20.39000 25.78300
H  -10.86600 21.07600 27.12100
H  -9.94700 19.72000 26.38700
H  -11.97200 19.69200 22.37300
H  -12.12800 20.63600 23.79500
H  -10.86500 19.34300 23.80100
H  -7.19000 24.55500 20.36100
H  -4.32800 25.15900 20.81000
H  -5.93500 22.10300 20.99500
H  -4.59700 23.06200 20.22000
H  -6.03700 22.58300 19.37300
H  -6.33200 27.48300 20.84500
H  -6.42500 26.51200 19.45600
H  -4.75900 27.52800 18.52000
H  -3.65200 26.92100 19.60200
H  -4.25900 28.50600 20.03500
H  -3.04700 30.01100 24.73400
H  -2.01700 28.55900 24.18500
H  -1.88000 29.15000 25.74400
H  -5.40100 27.77300 29.52100
H  -3.73700 26.71800 33.17500
H  -2.28000 26.43900 32.13600
H  -3.40400 25.14200 32.40900

