158

Mg 2.43700 -1.08000 44.61700
C  5.91000 -0.45600 44.20200
C  1.93900 1.50400 42.47000
C  -0.70200 -2.29000 43.88400
C  3.37700 -4.45100 45.72700
N  3.75800 0.34800 43.49400
C  5.13300 0.49100 43.43500
C  5.62900 1.58200 42.38600
C  4.27100 2.26000 42.01200
C  3.23300 1.31600 42.73700
C  4.12200 3.72400 42.45100
C  6.36700 0.87000 41.20700
C  7.90200 0.90700 41.19200
H  8.79300 1.38300 40.02000
N  0.72200 -0.29700 43.60400
C  0.74400 0.79300 42.75800
C  -0.52200 0.98800 42.26200
C  -1.37000 -0.04500 42.74900
C  -0.49300 -0.98100 43.42300
C  -0.95100 2.17800 41.46600
C  -2.88100 -0.09200 42.41600
O  -3.34400 0.80100 41.76400
C  -3.63700 -1.23900 43.02200
N  1.52700 -3.09400 44.69100
C  0.20400 -3.20300 44.41100
C  -0.23100 -4.63700 44.66400
C  1.07500 -5.38700 45.07300
C  2.06500 -4.24100 45.16700
C  -1.38100 -4.83800 45.71300
C  1.53900 -6.59400 44.30900
C  0.48400 -7.70400 44.03400
N  4.22400 -2.14600 45.20300
C  4.41000 -3.41000 45.72800
C  5.80000 -3.59400 46.05100
C  6.38400 -2.39000 45.53000
C  5.42900 -1.56000 44.95200
C  6.38000 -4.87900 46.67400
C  7.64700 -1.66800 45.35800
O  8.79100 -1.93700 45.76800
C  7.40300 -0.39400 44.50000
C  7.73800 0.80900 45.33400
O  7.39000 0.94800 46.46600
O  8.59500 1.62500 44.59700
C  8.86600 2.91400 45.28300
H  1.72500 2.42400 41.92200
H  -1.68900 -2.74900 43.79200
H  3.63200 -5.43600 46.12500
H  6.25400 2.34400 42.85100
H  4.03300 2.12800 40.95600
H  5.02300 4.08600 42.94600
H  3.36300 3.77100 43.23200
H  3.80200 4.18600 41.51700
H  6.00700 1.28900 40.26800
H  6.10600 -0.18800 41.22600
H  8.05400 -0.17200 41.19600
H  8.29000 1.39700 42.08500
H  -1.74200 1.97000 40.74600
H  -0.08500 2.56900 40.93300
H  -1.32100 3.00800 42.06900
H  -4.67200 -1.05100 42.73500
H  -3.39800 -1.33700 44.08100
H  -3.29600 -2.16700 42.56300
H  -0.59300 -5.06400 43.72800
H  1.02800 -5.60600 46.14000
H  -1.51000 -4.00200 46.40100
H  -1.17100 -5.65400 46.40400
H  -2.22700 -5.05400 45.06100
H  2.32400 -7.03500 44.92400
H  2.13900 -6.32300 43.44000
H  0.86200 -8.56200 44.59000
H  0.50700 -7.76100 42.94600
H  -0.53600 -7.54400 44.38400
H  5.82800 -5.24900 47.53700
H  7.40600 -4.60700 46.92300
H  6.39800 -5.67000 45.92400
H  8.02300 -0.49100 43.60900
H  9.72600 2.88500 45.95300
H  7.99700 3.32000 45.80000
H  9.17900 3.56000 44.46300
Mg 0.71300 43.18100 26.29500
C  2.98100 43.75700 28.75400
C  -1.65700 42.66500 28.53100
C  -1.21200 42.32600 23.72000
C  3.49000 43.37700 23.93900
N  0.72000 42.91500 28.43100
C  1.76400 43.38400 29.27000
C  1.26500 43.36000 30.75100
C  -0.14700 42.74100 30.55500
C  -0.42700 42.82400 29.06800
C  -0.58200 41.38900 31.16200
C  1.22900 44.79600 31.39800
C  1.24200 44.80200 32.93200
H  0.98700 43.46400 33.65900
N  -1.23900 42.71400 26.17100
C  -2.06800 42.50800 27.20600
C  -3.41200 42.30700 26.62100
C  -3.28700 42.28600 25.18200
C  -1.89600 42.45200 24.93800
C  -4.65100 42.23800 27.43200
C  -4.41100 41.99700 24.08300
O  -4.17000 42.11300 22.90500
C  -5.90200 41.75400 24.35500
N  1.15800 42.84600 24.17600
C  0.14500 42.48600 23.37200
C  0.64300 42.26600 21.87700
C  2.03400 43.05700 21.93200
C  2.25800 43.10000 23.46500
C  0.78000 40.73400 21.43800
C  1.90300 44.48200 21.28300
C  2.91700 44.93600 20.21200
N  2.76000 43.54200 26.30100
C  3.79500 43.67200 25.31400
C  5.03000 44.08200 25.97400
C  4.76200 44.09000 27.35300
C  3.39800 43.74800 27.47400
C  6.27500 44.36600 25.32000
C  5.36900 44.30900 28.58100
O  6.57300 44.49900 28.89300
C  4.14300 44.14100 29.57000
C  4.64800 43.13600 30.57900
O  4.49700 41.96200 30.65400
O  4.97700 43.92500 31.71400
C  5.13000 43.28200 32.98200
H  -2.47400 42.57600 29.25000
H  -1.85800 42.12900 22.86200
H  4.34600 43.49300 23.27000
H  1.91100 42.75000 31.38200
H  -0.87700 43.40600 31.01800
H  0.21900 40.78900 31.59500
H  -1.08200 40.76400 30.42200
H  -1.31400 41.54400 31.95600
H  0.26000 45.23000 31.15200
H  2.00800 45.50000 31.10200
H  0.50700 45.53100 33.27200
H  2.18000 45.23400 33.28000
H  -5.07100 43.24400 27.42300
H  -4.41800 41.99300 28.46800
H  -5.34700 41.51700 27.00400
H  -6.44000 41.70500 23.40900
H  -6.33600 42.52100 24.99800
H  -5.84700 40.82900 24.92900
H  -0.07300 42.72400 21.19600
H  2.66200 42.41900 21.31200
H  0.39900 40.10500 22.24300
H  1.84100 40.48800 21.40200
H  0.17700 40.43000 20.58300
H  1.94300 45.19300 22.10800
H  0.91700 44.67600 20.86000
H  3.60000 44.15800 19.87200
H  3.61100 45.70900 20.54200
H  2.35900 45.29700 19.34800
H  6.79300 43.45800 25.01000
H  7.00000 44.88000 25.95100
H  6.08400 45.03700 24.48300
H  3.91600 45.15100 29.90900
H  6.02000 42.65500 32.93700
H  4.35700 42.58100 33.29900
H  5.32700 44.02000 33.76100

