158

Mg 26.63300 0.39900 30.06400
C  28.77600 -0.04200 32.81100
C  24.09100 0.85500 32.04500
C  24.59300 0.48200 27.23300
C  29.35800 -0.59400 28.10100
N  26.43500 0.37700 32.13300
C  27.42900 0.33600 33.07600
C  26.83000 0.73300 34.48300
C  25.26700 0.84600 34.27700
C  25.22000 0.59900 32.70800
C  24.36200 -0.03900 35.08100
C  27.52600 2.04300 35.08700
C  27.63300 1.85900 36.62500
H  27.25900 3.04300 37.52700
N  24.60200 0.76100 29.65200
C  23.72000 0.93200 30.64800
C  22.37100 1.10300 30.06300
C  22.51300 1.06200 28.62400
C  23.96800 0.76000 28.46100
C  21.12300 1.37100 30.87900
C  21.52700 1.39400 27.47400
O  21.84200 1.45200 26.29900
C  20.18300 1.85100 27.89400
N  26.92400 -0.03200 28.03700
C  25.96000 0.07000 27.03200
C  26.47600 -0.38200 25.67100
C  28.09000 -0.11500 25.88100
C  28.14600 -0.27600 27.42800
C  26.18900 -1.88500 25.39300
C  28.77800 1.13800 25.25900
C  30.30700 0.96000 24.89600
N  28.60600 -0.32100 30.30000
C  29.55000 -0.68700 29.44600
C  30.71000 -1.08300 30.13000
C  30.54100 -0.74800 31.46900
C  29.18200 -0.35100 31.51200
C  32.01900 -1.71000 29.51000
C  31.17100 -0.66500 32.75000
O  32.33100 -0.84700 33.11200
C  30.00300 -0.19600 33.73600
C  29.82300 -1.10300 34.95000
O  29.27200 -2.22500 34.89100
O  30.43400 -0.55000 36.05000
C  30.18400 -1.35000 37.24700
H  23.31100 1.06200 32.78100
H  23.91500 0.36600 26.38500
H  30.20700 -0.89600 27.48400
H  27.05100 -0.14200 35.09500
H  24.91800 1.87800 34.32000
H  23.68600 -0.72600 34.57200
H  23.76900 0.62600 35.70900
H  24.81400 -0.69200 35.82800
H  26.83400 2.87600 34.96200
H  28.48100 2.10000 34.56500
H  28.67800 1.71400 36.89800
H  27.02100 1.02300 36.96300
H  20.72200 2.34200 30.58900
H  21.45800 1.46500 31.91200
H  20.35500 0.64200 30.62100
H  19.79600 1.07600 28.55500
H  19.49400 1.93200 27.05300
H  20.27300 2.73300 28.52900
H  26.06800 0.19700 24.84300
H  28.71200 -0.97000 25.61600
H  25.54700 -2.06400 24.53000
H  25.65100 -2.15500 26.30100
H  27.13000 -2.42700 25.30300
H  28.55200 1.89100 26.01400
H  28.26200 1.49100 24.36600
H  30.60700 1.61300 24.07600
H  30.53600 -0.07800 24.65500
H  30.91900 1.37800 25.69500
H  32.03500 -1.71900 28.42100
H  32.04700 -2.73000 29.89300
H  32.91200 -1.22700 29.90800
H  30.26500 0.76900 34.17000
H  29.13700 -1.32200 37.55100
H  30.93700 -0.97200 37.93900
H  30.48200 -2.39400 37.15300
Mg 36.44800 0.51000 30.16000
C  34.59400 1.85100 32.71000
C  39.13800 0.33100 32.11200
C  38.12400 -0.55600 27.35300
C  33.54200 0.78300 28.09100
N  36.71300 0.99400 32.15400
C  35.85100 1.42700 33.04000
C  36.50300 1.69900 34.37900
C  38.08400 1.71600 34.00800
C  37.98100 0.92900 32.72200
C  38.80500 3.04800 34.10100
C  36.08400 0.51900 35.36200
C  35.37900 0.90100 36.68700
H  35.83900 2.09900 37.45200
N  38.29400 -0.17100 29.83400
C  39.22000 -0.30900 30.83800
C  40.37600 -0.98100 30.31800
C  40.15300 -1.06400 28.90900
C  38.79400 -0.61300 28.61500
C  41.54700 -1.33900 31.23000
C  41.19000 -1.57300 27.92500
O  41.02200 -1.55600 26.66700
C  42.54400 -2.00400 28.23800
N  35.89700 0.33900 28.00700
C  36.83100 -0.02500 27.09700
C  36.23800 -0.19200 25.68100
C  34.70600 0.08000 26.00800
C  34.69800 0.48000 27.45900
C  36.89600 0.75800 24.65200
C  33.82000 -1.17400 25.77900
C  33.78600 -1.94400 24.41800
N  34.50000 1.38600 30.23700
C  33.43900 1.40400 29.37400
C  32.37300 2.12200 29.98400
C  32.72400 2.23200 31.31900
C  34.06700 1.79100 31.38600
C  31.03800 2.39800 29.34000
C  32.35400 2.66100 32.56800
O  31.28900 3.19700 32.92300
C  33.45100 2.37400 33.53600
C  33.76500 3.69900 34.19300
O  34.29200 4.71200 33.71400
O  33.04300 3.67000 35.40100
C  33.02300 4.98800 36.04500
H  39.99000 0.21900 32.78600
H  38.68900 -1.02400 26.54400
H  32.60700 0.66600 27.53900
H  36.16700 2.63100 34.83400
H  38.64000 1.16300 34.76500
H  39.66700 3.00200 34.76800
H  38.14000 3.76800 34.57800
H  38.96500 3.41500 33.08700
H  36.88600 -0.21000 35.47200
H  35.28400 -0.09200 34.94500
H  35.51400 -0.00100 37.28300
H  34.30100 1.02000 36.57500
H  41.86300 -2.38300 31.22300
H  41.56900 -0.92300 32.23700
H  42.37400 -0.87100 30.69600
H  42.51900 -2.88400 28.88000
H  42.97100 -1.16800 28.79100
H  43.22500 -2.26700 27.42800
H  36.41400 -1.23100 25.40400
H  34.36400 0.92300 25.40800
H  37.94100 0.97300 24.87400
H  36.38000 1.71500 24.57100
H  36.80400 0.21200 23.71300
H  32.80100 -0.79500 25.85900
H  33.96900 -1.87900 26.59700
H  33.98700 -2.97000 24.72600
H  34.39300 -1.43200 23.67100
H  32.77600 -2.06700 24.02800
H  30.90200 1.89400 28.38300
H  31.01300 3.47000 29.14600
H  30.25000 2.10700 30.03500
H  33.17700 1.74900 34.38600
H  32.43700 5.67100 35.43000
H  34.06300 5.31400 36.07700
H  32.72800 4.98100 37.09500

