158

Mg 1.50700 -2.63800 45.68000
C  4.91900 -1.94100 45.46700
C  0.85800 0.26800 43.98400
C  -1.75400 -3.68300 45.33700
C  2.25300 -5.61700 47.20600
N  2.75700 -1.15300 44.57000
C  4.12600 -1.04800 44.68500
C  4.65500 0.18600 43.92100
C  3.35700 1.01700 43.92900
C  2.23600 0.02800 44.14000
C  3.35200 2.26700 44.89700
C  5.25600 -0.14300 42.59500
C  6.41200 0.81100 42.18400
H  6.40100 1.31700 40.74900
N  -0.16300 -1.79000 44.75500
C  -0.23500 -0.49500 44.22400
C  -1.60700 -0.23100 43.97100
C  -2.47000 -1.32600 44.38900
C  -1.45200 -2.38200 44.87300
C  -2.01100 1.15200 43.37000
C  -3.94100 -1.40100 44.24100
O  -4.50900 -0.32200 43.95900
C  -4.73100 -2.61100 44.58700
N  0.32000 -4.53400 46.10500
C  -0.94200 -4.75000 45.83800
C  -1.39500 -6.06100 46.33100
C  -0.00500 -6.78800 46.73700
C  0.91300 -5.53600 46.76200
C  -2.28800 -5.98700 47.62300
C  0.47700 -7.71900 45.51900
C  1.12000 -9.07600 45.86600
N  3.20800 -3.59100 46.23900
C  3.36400 -4.77500 46.94300
C  4.75000 -4.94600 47.35200
C  5.40300 -3.82700 46.76200
C  4.42600 -3.06800 46.08600
C  5.22600 -6.04200 48.21100
C  6.67000 -3.14800 46.61200
O  7.77900 -3.34700 47.11900
C  6.42700 -1.95200 45.63900
C  6.89600 -0.69200 46.32500
O  6.59800 -0.41200 47.50500
O  7.67900 0.10200 45.56900
C  8.03100 1.49900 45.97100
H  0.63100 1.30800 43.73900
H  -2.81200 -3.94600 45.28000
H  2.48200 -6.55400 47.71800
H  5.39600 0.69000 44.54000
H  3.05800 1.53600 43.01800
H  2.63400 2.17200 45.71200
H  3.07100 3.18400 44.38000
H  4.38300 2.51400 45.14900
H  4.44200 -0.12700 41.87000
H  5.73300 -1.12300 42.59500
H  7.39400 0.36500 42.33800
H  6.29000 1.67000 42.84300
H  -2.68700 1.60100 44.09800
H  -2.42400 1.21300 42.36300
H  -1.17300 1.84900 43.37800
H  -4.55100 -2.92600 45.61400
H  -4.46600 -3.32500 43.80700
H  -5.80200 -2.50100 44.41800
H  -1.97600 -6.50500 45.52300
H  -0.13400 -7.19900 47.73800
H  -2.48800 -4.93500 47.82300
H  -1.79300 -6.40400 48.50000
H  -3.26100 -6.46500 47.51200
H  1.18900 -7.17100 44.90300
H  -0.37000 -8.08500 44.93900
H  2.14900 -9.13100 45.51000
H  0.75200 -9.88000 45.22900
H  1.05800 -9.36000 46.91600
H  5.27600 -6.87800 47.51300
H  4.53400 -6.29000 49.01600
H  6.26600 -5.88400 48.49800
H  7.06000 -2.16900 44.77900
H  7.94200 2.19200 45.13500
H  9.04800 1.54900 46.36000
H  7.33000 1.91000 46.69700
Mg -0.43900 7.72900 27.66200
C  0.27400 9.89100 30.16200
C  -0.55300 5.03500 29.89300
C  -1.34500 5.78700 25.06000
C  0.13200 10.40100 25.38700
N  -0.05500 7.46300 29.74800
C  0.04100 8.53500 30.60200
C  -0.11500 8.06000 32.03600
C  0.17600 6.46700 31.88600
C  -0.26000 6.28100 30.42900
C  1.65400 5.97200 32.18400
C  -1.50400 8.48100 32.63700
C  -1.64400 8.57500 34.20000
H  -0.37900 8.43600 35.01200
N  -0.98300 5.71200 27.48100
C  -0.96600 4.75600 28.55500
C  -1.33700 3.45000 28.00600
C  -1.43900 3.66600 26.56500
C  -1.32100 5.08700 26.30100
C  -1.35200 2.14800 28.83400
C  -1.57200 2.60100 25.48900
O  -1.51700 2.87100 24.27900
C  -1.72800 1.16000 25.80400
N  -0.60000 8.05200 25.49800
C  -1.04600 7.04000 24.67700
C  -0.95300 7.51200 23.20900
C  -0.73100 9.07100 23.41900
C  -0.41500 9.25700 24.85600
C  0.08800 6.71000 22.36900
C  -1.85500 10.06000 22.92800
C  -1.58100 10.88400 21.64600
N  0.30400 9.72700 27.68900
C  0.47400 10.67300 26.73500
C  0.91800 11.92100 27.32500
C  0.83800 11.66200 28.72800
C  0.33400 10.31800 28.87200
C  1.30300 13.22600 26.69100
C  1.09400 12.13400 30.06600
O  1.49400 13.19700 30.39300
C  0.71000 11.00700 31.04400
C  1.90600 10.67200 31.88500
O  2.83900 9.99800 31.51400
O  1.80100 11.25600 33.13600
C  2.89900 11.05600 34.00900
H  -0.41000 4.19300 30.57300
H  -1.69000 5.21900 24.19400
H  0.33600 11.17800 24.64800
H  0.70600 8.51400 32.59200
H  -0.56000 5.91000 32.46600
H  2.07100 6.87900 32.62300
H  2.09600 5.63800 31.24500
H  1.60800 5.16300 32.91200
H  -2.12800 7.63400 32.35400
H  -1.86100 9.39200 32.15700
H  -2.46600 7.99800 34.62300
H  -2.06000 9.56600 34.37400
H  -0.62300 1.49700 28.35200
H  -2.36800 1.75300 28.81300
H  -1.04100 2.37100 29.85400
H  -2.55500 1.25700 26.50700
H  -0.77400 0.68700 26.03800
H  -2.18100 0.59100 24.99200
H  -1.91100 7.36500 22.71000
H  0.24600 9.31300 23.00000
H  -0.29600 6.18000 21.49700
H  0.59700 5.94600 22.95600
H  0.73600 7.43700 21.87900
H  -2.02200 10.84200 23.66800
H  -2.82900 9.57400 22.97500
H  -1.16600 11.85200 21.92600
H  -2.48300 10.83900 21.03500
H  -0.77700 10.39900 21.09200
H  1.39000 13.02400 25.62300
H  2.32800 13.51600 26.92000
H  0.54200 13.94600 26.99200
H  -0.16100 11.20600 31.66800
H  3.84600 10.85300 33.51000
H  2.56100 10.39000 34.80300
H  3.09700 12.05000 34.41100

