158

Mg 48.66300 45.82100 43.25500
C  45.36200 46.24800 42.24800
C  48.78000 42.74600 41.81600
C  51.95100 45.89500 43.89200
C  48.60400 49.44200 43.98900
N  47.22400 44.63800 42.19000
C  45.92100 45.01500 41.79700
C  45.32200 43.97200 40.87200
C  46.44000 42.84400 40.85900
C  47.50300 43.37600 41.77600
C  45.88800 41.42400 41.25400
C  45.08900 44.44500 39.35000
C  43.81400 44.00200 38.64200
H  43.98100 43.02500 37.46700
N  50.21000 44.51100 42.83900
C  50.02900 43.24800 42.24300
C  51.27300 42.56100 42.31000
C  52.23200 43.44100 42.91800
C  51.52800 44.73300 43.27200
C  51.40300 41.15500 41.66600
C  53.77000 43.09700 43.01600
O  54.16400 41.99800 42.61800
C  54.72600 44.12200 43.48000
N  50.09400 47.45400 43.85200
C  51.38300 47.12500 44.15400
C  52.13100 48.35300 44.67300
C  51.08600 49.47600 44.57700
C  49.84400 48.74300 44.11600
C  52.85400 48.24100 45.98300
C  51.46300 50.67000 43.55300
C  51.60600 52.02300 44.17000
N  47.25000 47.50000 43.29300
C  47.34400 48.84000 43.67300
C  46.06800 49.47000 43.61800
C  45.28200 48.44100 43.08000
C  46.06500 47.31100 42.75100
C  45.71700 50.74700 44.41000
C  43.82900 48.09400 42.85500
O  42.73800 48.74800 43.03700
C  43.92600 46.76200 42.06900
C  42.77800 45.83600 42.37300
O  42.00500 45.38900 41.54900
O  42.86200 45.28700 43.65700
C  42.24300 43.93000 43.82700
H  48.86300 41.83800 41.21400
H  53.01500 45.84000 44.13400
H  48.52900 50.52800 44.07400
H  44.51700 43.51300 41.44400
H  47.00300 42.90900 39.92800
H  46.48600 41.05900 42.09000
H  45.93800 40.75300 40.39700
H  44.91600 41.33100 41.73800
H  45.79400 44.07400 38.60700
H  45.12600 45.53500 39.34700
H  43.25800 44.91100 38.41100
H  43.22000 43.46800 39.38300
H  50.58100 40.44100 41.62100
H  52.12300 40.65200 42.31200
H  51.81600 41.28900 40.66600
H  54.54900 44.33700 44.53400
H  54.83100 44.93300 42.75800
H  55.60900 43.48700 43.40000
H  52.90400 48.56800 43.93500
H  50.74000 49.89700 45.52100
H  53.92600 48.30900 45.80000
H  52.64900 47.27800 46.45200
H  52.54500 49.03600 46.66100
H  50.81000 50.59800 42.68300
H  52.46500 50.45400 43.18100
H  51.20800 52.00800 45.18500
H  51.03100 52.76000 43.60900
H  52.62600 52.35300 44.36800
H  44.71100 51.10600 44.19600
H  46.37500 51.52800 44.02800
H  45.82300 50.57900 45.48200
H  43.87500 47.21700 41.08100
H  42.38500 43.56300 44.84300
H  42.64800 43.23000 43.09700
H  41.18900 43.81000 43.57500
Mg 16.43300 52.04100 26.40000
C  18.42100 50.40400 28.85600
C  14.31900 53.06400 28.83300
C  14.57100 53.32100 23.99600
C  18.61200 50.76200 23.97000
N  16.47200 51.65800 28.62100
C  17.34600 51.09700 29.43600
C  17.11800 51.45500 30.94200
C  15.61000 51.92800 30.89700
C  15.46300 52.28100 29.37100
C  14.65600 50.72000 31.27200
C  18.10100 52.53600 31.49900
C  18.43400 52.49600 32.98300
H  17.58800 51.63000 33.88300
N  14.64600 53.07200 26.40400
C  13.99700 53.44200 27.50100
C  13.04400 54.42200 27.14800
C  12.96300 54.48800 25.73000
C  14.01500 53.54100 25.30200
C  12.23000 55.17500 28.27600
C  12.04300 55.21500 24.75900
O  12.13000 55.11900 23.57900
C  11.05100 56.18500 25.24100
N  16.60200 51.98800 24.36100
C  15.69400 52.60400 23.56700
C  16.05300 52.54600 22.07400
C  17.44000 51.86000 22.11900
C  17.50800 51.54800 23.54800
C  14.94300 51.83200 21.25000
C  18.59300 52.64400 21.45900
C  19.66100 53.45700 22.26400
N  18.18200 50.89100 26.32400
C  18.93400 50.42000 25.33900
C  20.15400 49.71800 25.81000
C  19.99900 49.73300 27.19300
C  18.76400 50.39600 27.48700
C  21.30400 49.08100 25.10300
C  20.60100 49.37700 28.47100
O  21.67000 48.82800 28.68100
C  19.59000 49.80600 29.60700
C  19.15000 48.55200 30.34300
O  18.18000 47.85400 29.99000
O  19.96800 48.43600 31.48200
C  19.45900 47.70100 32.65200
H  13.69700 53.45500 29.64100
H  13.97300 53.74700 23.18800
H  19.26200 50.34900 23.19700
H  17.30200 50.52700 31.48200
H  15.43400 52.71000 31.63700
H  13.79900 50.63600 30.60400
H  14.32500 51.02200 32.26600
H  15.09700 49.72600 31.34400
H  17.81600 53.57400 31.32900
H  19.04500 52.25500 31.03300
H  18.45800 53.49700 33.41500
H  19.39000 51.98900 33.11500
H  12.93300 55.73100 28.89700
H  11.60500 54.44800 28.79500
H  11.54700 55.92900 27.88600
H  10.76100 56.83600 24.41600
H  11.39800 56.89400 25.99200
H  10.18600 55.63000 25.60300
H  16.03500 53.55200 21.65700
H  17.35200 50.86900 21.67500
H  15.41100 51.05400 20.64800
H  14.42900 52.53100 20.59100
H  14.15200 51.36000 21.83200
H  18.23100 53.39800 20.76000
H  19.11100 51.86000 20.90600
H  19.43000 53.35500 23.32400
H  19.62600 54.53700 22.12300
H  20.68100 53.13100 22.06100
H  21.38200 49.72800 24.23000
H  21.21500 48.08600 24.66700
H  22.18700 49.07900 25.74400
H  20.03900 50.39500 30.40700
H  19.65500 48.30600 33.53700
H  20.07500 46.80300 32.70300
H  18.40300 47.44100 32.58000

