158

Mg 1.43900 -1.92400 43.33900
C  4.87000 -1.35000 42.67000
C  0.61400 0.94000 41.71500
C  -1.80500 -3.11900 43.08200
C  2.38900 -5.32500 44.23600
N  2.61000 -0.61000 42.12500
C  3.93600 -0.52000 42.12300
C  4.33100 0.63900 41.14400
C  3.07900 1.52500 41.29400
C  1.97800 0.52200 41.64900
C  3.21800 2.77700 42.23700
C  4.64500 0.08800 39.73300
C  6.02400 0.55100 39.25000
H  6.14000 1.19600 37.88800
N  -0.32500 -1.11300 42.73200
C  -0.47700 0.11200 42.10000
C  -1.89600 0.33400 41.85500
C  -2.57500 -0.80100 42.42500
C  -1.55200 -1.79500 42.73600
C  -2.47200 1.69500 41.39600
C  -4.08500 -0.85200 42.58500
O  -4.81400 0.08200 42.35900
C  -4.77600 -2.05400 43.26200
N  0.46900 -4.06700 43.45900
C  -0.91000 -4.18700 43.39500
C  -1.29800 -5.64400 43.62600
C  0.08000 -6.37800 43.75300
C  1.06900 -5.21600 43.81000
C  -2.29900 -5.92400 44.74500
C  0.29700 -7.39300 42.60300
C  0.69200 -8.78400 43.06700
N  3.23600 -3.10600 43.54700
C  3.39700 -4.38200 44.03700
C  4.85200 -4.58400 44.16400
C  5.48500 -3.41500 43.69400
C  4.44900 -2.55600 43.33100
C  5.43700 -5.86100 44.70100
C  6.71300 -2.70100 43.48600
O  7.87600 -3.00500 43.74000
C  6.37300 -1.43700 42.58500
C  7.06000 -0.28300 43.05200
O  7.99600 0.26900 42.58600
O  6.51600 0.17200 44.28300
C  7.13700 1.26700 44.94400
H  0.53000 1.99400 41.44500
H  -2.82300 -3.51300 43.04300
H  2.75500 -6.31100 44.52900
H  5.23900 1.13600 41.48600
H  2.93100 1.96400 40.30800
H  2.48000 2.68700 43.03400
H  3.12300 3.77500 41.80900
H  4.15300 2.64700 42.78200
H  3.90400 0.54600 39.07800
H  4.47300 -0.98500 39.64600
H  6.71200 -0.29300 39.21600
H  6.52600 1.17700 39.98800
H  -3.28900 1.60900 40.67900
H  -1.64400 2.25400 40.96000
H  -2.85800 2.26800 42.23800
H  -5.78900 -1.70400 43.46000
H  -4.38800 -2.25900 44.26000
H  -4.78200 -2.94800 42.63700
H  -1.91000 -5.95700 42.78000
H  0.22200 -6.92000 44.68700
H  -3.16800 -6.52100 44.46800
H  -2.80300 -5.04800 45.15400
H  -1.86200 -6.45800 45.58900
H  1.12600 -7.04100 41.99100
H  -0.55100 -7.41000 41.91900
H  -0.17700 -9.43300 42.96000
H  1.03400 -8.78100 44.10200
H  1.48500 -9.30300 42.52900
H  4.80300 -6.11400 45.55000
H  6.33600 -5.73500 45.30400
H  5.55600 -6.66500 43.97600
H  6.81100 -1.50300 41.58900
H  8.05400 0.89000 45.39600
H  6.37200 1.65600 45.61600
H  7.44600 2.02800 44.22700
Mg 36.16000 48.77400 25.95700
C  36.34300 47.22600 29.08100
C  34.67800 51.48300 27.58800
C  35.54200 50.07500 22.97400
C  37.03200 45.78000 24.49500
N  35.52700 49.25600 28.06700
C  35.86400 48.55100 29.13900
C  35.46700 49.32700 30.46200
C  34.67700 50.56300 29.94300
C  34.99600 50.44700 28.42700
C  33.19900 50.64100 30.31400
C  36.79700 49.73500 31.19600
C  37.09500 49.18500 32.57200
H  36.10800 49.53800 33.74500
N  35.32300 50.61300 25.33800
C  34.77200 51.59500 26.20800
C  34.32700 52.69100 25.37700
C  34.61300 52.32100 23.97100
C  35.08800 50.95600 24.03700
C  33.82700 54.06600 26.02800
C  34.41600 53.05700 22.67500
O  34.62200 52.56000 21.54000
C  33.87100 54.42200 22.69900
N  36.22900 48.00500 24.00600
C  36.06400 48.80200 22.99100
C  36.27300 48.03000 21.66200
C  36.81300 46.57900 22.15400
C  36.83300 46.82900 23.60200
C  34.97700 47.99700 20.80700
C  38.18500 46.33100 21.54700
C  38.22900 45.30200 20.42100
N  36.46600 46.83500 26.57800
C  36.82200 45.70900 25.92400
C  36.96200 44.57000 26.84000
C  36.85800 45.16500 28.10600
C  36.54300 46.51100 27.88500
C  37.26400 43.14700 26.49400
C  36.96700 44.85500 29.54500
O  37.24100 43.84900 30.10700
C  36.67400 46.24200 30.24400
C  35.55300 46.12200 31.17100
O  34.34400 46.16200 30.88400
O  36.00800 45.74100 32.45900
C  35.08800 45.39500 33.50200
H  34.05200 52.25300 28.04500
H  35.44000 50.49400 21.97000
H  37.19100 44.81400 24.01000
H  34.81800 48.69000 31.06400
H  35.07600 51.52600 30.26300
H  32.62300 50.65900 29.38900
H  33.08200 51.56300 30.88200
H  33.04200 49.74100 30.90900
H  36.77400 50.81000 31.37700
H  37.65200 49.59500 30.53500
H  38.09500 49.53900 32.82300
H  37.29600 48.11500 32.62100
H  34.61500 54.72500 26.39300
H  33.17400 53.89900 26.88400
H  33.29900 54.55900 25.21100
H  34.39200 55.23100 23.21200
H  32.85300 54.39600 23.09000
H  33.71900 54.64000 21.64100
H  37.00900 48.58300 21.07800
H  36.13200 45.75300 21.95300
H  34.90700 47.02300 20.32100
H  34.92200 48.81100 20.08500
H  34.08300 48.18600 21.40100
H  38.80700 45.79400 22.26300
H  38.71100 47.21000 21.17500
H  38.50400 45.75000 19.46600
H  37.25400 44.85700 20.21900
H  38.97500 44.54300 20.65700
H  38.20100 42.99400 27.02900
H  37.45900 43.01300 25.43000
H  36.60000 42.34100 26.80500
H  37.52500 46.60300 30.82000
H  35.34800 44.36900 33.76100
H  34.03100 45.52400 33.26900
H  35.10900 46.02400 34.39100

