158

Mg 49.92200 44.40500 41.55400
C  46.68100 44.97500 40.39500
C  49.43200 41.07800 40.76000
C  53.09700 44.02100 42.10500
C  50.10400 47.81200 42.41200
N  48.22600 43.18400 40.78900
C  46.97400 43.64600 40.43700
C  46.16400 42.53800 39.79700
C  46.89900 41.25300 40.33000
C  48.29900 41.86500 40.61800
C  46.24700 40.62600 41.63000
C  46.22000 42.60500 38.29400
C  44.82800 42.64400 37.57200
H  44.74500 43.57800 36.31300
N  51.20200 42.75500 41.36800
C  50.78500 41.46300 41.04100
C  51.99600 40.64100 41.02600
C  53.07900 41.43200 41.49100
C  52.50900 42.77600 41.69400
C  52.07900 39.31500 40.59500
C  54.57500 41.04900 41.63100
O  55.00500 39.95600 41.38100
C  55.68300 42.06800 41.90500
N  51.40400 45.73300 42.17000
C  52.69900 45.29900 42.36200
C  53.60600 46.43400 42.87200
C  52.63700 47.67800 42.95700
C  51.28600 47.04800 42.53200
C  54.33000 46.08700 44.23100
C  53.12200 48.98400 42.32700
C  54.43500 49.54800 42.72400
N  48.63700 46.11200 41.47400
C  48.86800 47.46100 41.78500
C  47.73000 48.26900 41.39200
C  46.86000 47.28900 40.81700
C  47.46700 46.01700 40.88600
C  47.68300 49.77400 41.41100
C  45.60900 47.16800 40.10800
O  44.75800 47.99200 39.82500
C  45.47300 45.63200 39.82500
C  44.22000 45.13500 40.44700
O  43.32500 44.58300 39.80800
O  44.18500 45.47900 41.78000
C  42.81500 45.62100 42.26900
H  49.31600 40.02700 40.48800
H  54.11000 44.01800 42.51300
H  50.23900 48.80600 42.84300
H  45.14000 42.55000 40.17000
H  46.76600 40.41900 39.64100
H  45.49700 41.17900 42.19500
H  47.09900 40.67800 42.30700
H  45.98300 39.58300 41.45500
H  46.92500 41.88500 37.87800
H  46.58500 43.59200 38.01000
H  43.98900 42.97900 38.18200
H  44.59000 41.62300 37.27500
H  52.32000 39.25300 39.53300
H  51.12600 38.82800 40.80200
H  52.87400 38.79900 41.13200
H  55.73900 42.42200 42.93400
H  55.49200 42.90100 41.22900
H  56.63100 41.71300 41.49900
H  54.41500 46.51500 42.14600
H  52.47600 47.96600 43.99600
H  54.33100 45.02400 44.47500
H  53.90800 46.67600 45.04500
H  55.34400 46.48600 44.20800
H  52.37600 49.75000 42.54000
H  53.29800 48.92300 41.25300
H  54.98400 49.87300 41.83900
H  55.07900 48.89800 43.31700
H  54.12600 50.43900 43.27000
H  47.01000 50.23600 42.13200
H  47.44400 50.12200 40.40600
H  48.71900 50.10800 41.46400
H  45.40400 45.27800 38.79600
H  42.90000 46.16000 43.21200
H  42.64300 44.58700 42.56600
H  42.02200 45.92000 41.58300
Mg 41.31000 40.32500 27.38700
C  40.91500 42.79000 29.91600
C  42.38400 38.20800 29.64000
C  41.88000 38.16400 24.82300
C  40.52300 42.90800 25.00900
N  41.63500 40.50400 29.58600
C  41.31600 41.53100 30.46300
C  41.60000 41.15500 31.96300
C  42.37800 39.75900 31.66400
C  42.10600 39.44900 30.19100
C  43.90100 39.89200 31.97300
C  40.26300 41.01100 32.81800
C  40.19300 41.96000 34.05100
H  39.40500 41.48600 35.35100
N  42.07700 38.42900 27.21800
C  42.36500 37.68200 28.33600
C  42.70800 36.30300 27.89500
C  42.45600 36.32700 26.47100
C  42.16400 37.67300 26.10500
C  43.17800 35.22200 28.91500
C  42.38000 35.14900 25.57100
O  41.93400 35.30600 24.46800
C  42.83100 33.87200 25.99100
N  41.29100 40.58600 25.25500
C  41.51500 39.47000 24.47800
C  41.26700 39.81000 23.00300
C  40.61200 41.22300 23.10900
C  40.85700 41.67400 24.53200
C  42.46900 39.72400 22.02600
C  39.04000 41.10200 22.86700
C  38.27400 40.03200 23.54300
N  40.83800 42.44200 27.40400
C  40.50000 43.26000 26.34000
C  40.21800 44.61800 26.92300
C  40.34800 44.40100 28.28700
C  40.66600 43.07800 28.52800
C  39.91600 45.88200 26.04100
C  40.27100 45.10900 29.53300
O  39.84600 46.22400 29.72200
C  40.63000 44.10100 30.63500
C  41.69200 44.70500 31.39100
O  42.81500 44.55800 31.12000
O  41.13700 45.28900 32.57200
C  42.18900 45.92700 33.40100
H  42.69900 37.45600 30.36600
H  42.08300 37.65900 23.87600
H  40.36900 43.72400 24.29900
H  42.27400 41.94600 32.29300
H  42.03000 38.95300 32.31000
H  44.40600 40.85800 31.94700
H  44.47500 39.29400 31.26600
H  44.12300 39.52000 32.97300
H  40.11100 39.98100 33.13900
H  39.44900 41.25700 32.13700
H  39.81200 42.94500 33.78100
H  41.23500 42.08600 34.34600
H  42.54200 34.34100 28.99300
H  43.43600 35.58800 29.90900
H  44.20000 34.98200 28.61900
H  43.83700 33.77700 26.40200
H  42.77800 33.19400 25.14000
H  42.12300 33.51900 26.74100
H  40.75000 38.90600 22.68200
H  41.09200 41.85600 22.36200
H  42.66600 40.66300 21.50900
H  42.35100 38.99300 21.22600
H  43.44400 39.58600 22.49500
H  38.96700 40.92400 21.79400
H  38.47000 42.01500 23.03500
H  37.87800 39.29100 22.84800
H  37.54300 40.61300 24.10600
H  38.92700 39.61400 24.30900
H  39.08700 45.53900 25.42100
H  40.74900 46.04700 25.35800
H  39.62200 46.73100 26.65800
H  39.75500 44.08400 31.28500
H  43.09600 46.29900 32.92400
H  42.46600 45.27700 34.23200
H  41.75300 46.76500 33.94500

