158

Mg 16.10500 -2.09600 27.72600
C  15.02500 -0.16700 30.30000
C  18.16000 -3.93600 29.91000
C  17.34100 -3.62300 25.15400
C  14.23500 0.00300 25.50500
N  16.73900 -1.84500 29.83900
C  15.90600 -1.20300 30.71800
C  16.27200 -1.53500 32.22200
C  17.41800 -2.55800 32.00400
C  17.47300 -2.80400 30.49400
C  18.78900 -1.89500 32.48100
C  15.14500 -2.06300 33.09200
C  15.15100 -1.49000 34.53900
H  16.39700 -0.95000 35.34100
N  17.34800 -3.70600 27.50000
C  18.02400 -4.35800 28.53900
C  18.56700 -5.57300 28.01900
C  18.39500 -5.45700 26.59400
C  17.73100 -4.26100 26.34800
C  19.22500 -6.71600 28.82800
C  18.68700 -6.57500 25.51400
O  18.40700 -6.40800 24.32600
C  19.26400 -7.85500 25.89000
N  15.90400 -1.74700 25.59400
C  16.62200 -2.47100 24.72900
C  16.57700 -1.89500 23.26400
C  15.35900 -0.93400 23.40100
C  15.12900 -0.88900 24.94900
C  17.88300 -1.28100 22.67800
C  14.08900 -1.45700 22.76200
C  13.44000 -0.48400 21.86400
N  14.79700 -0.40700 27.80700
C  14.10100 0.26700 26.84200
C  13.28200 1.31000 27.48600
C  13.58900 1.16300 28.82000
C  14.57400 0.14000 28.96200
C  12.47100 2.30700 26.86500
C  13.30800 1.69500 30.20000
O  12.50000 2.54200 30.57900
C  14.21200 0.76700 31.19100
C  15.11300 1.65400 31.93800
O  16.20600 2.12400 31.56000
O  14.44900 2.16800 32.99500
C  14.99400 3.39000 33.57800
H  18.91500 -4.41000 30.54000
H  17.72500 -4.13700 24.27000
H  13.58100 0.52400 24.80300
H  16.72900 -0.63800 32.64000
H  17.27000 -3.45700 32.60200
H  18.76600 -0.80600 32.44600
H  19.59900 -2.34200 31.90500
H  18.81200 -2.13200 33.54500
H  15.03400 -3.14600 33.14300
H  14.21200 -1.61900 32.74700
H  14.57400 -2.19200 35.14100
H  14.51000 -0.61000 34.48500
H  18.58300 -7.59500 28.90000
H  19.47300 -6.46800 29.86000
H  20.25500 -6.91500 28.53300
H  18.61300 -8.37800 26.59100
H  20.29000 -7.75600 26.24600
H  19.23200 -8.49000 25.00400
H  16.27600 -2.69500 22.58700
H  15.66000 0.03200 22.99500
H  18.48700 -1.58000 23.53500
H  17.82100 -0.22400 22.42000
H  18.12800 -1.93800 21.84400
H  13.43400 -1.86600 23.53100
H  14.34600 -2.22500 22.03400
H  13.83000 0.52700 21.98300
H  12.36800 -0.39200 22.04200
H  13.53000 -0.78000 20.81900
H  11.83600 2.86900 27.55000
H  11.65600 1.89600 26.26900
H  13.08400 2.99200 26.28000
H  13.66200 0.36300 32.04100
H  15.63200 3.96900 32.91000
H  15.56700 3.16700 34.47900
H  14.11200 3.92300 33.93200
Mg -11.79800 15.95700 42.71500
C  -8.68800 14.34200 42.04900
C  -10.47700 18.76800 41.08700
C  -14.86800 17.25200 42.72300
C  -13.09500 12.86200 43.66000
N  -9.74100 16.47900 41.77100
C  -8.68400 15.67000 41.55500
C  -7.60400 16.41200 40.72700
C  -8.23200 17.77600 40.45500
C  -9.58200 17.66900 41.15500
C  -7.45800 18.97900 41.06900
C  -7.11700 15.68900 39.38700
C  -5.67600 15.79600 39.20300
H  -5.13600 15.40300 37.83800
N  -12.53800 17.79200 42.04500
C  -11.88900 18.82000 41.41800
C  -12.83500 19.89100 41.06900
C  -14.06800 19.47700 41.57500
C  -13.91900 18.06000 42.17200
C  -12.49400 21.05400 40.31500
C  -15.32000 20.20700 41.39600
O  -15.36100 21.35300 40.91100
C  -16.55800 19.65100 41.78200
N  -13.71400 15.15300 43.16800
C  -14.86200 15.92400 43.12600
C  -16.07100 15.09300 43.63500
C  -15.50200 13.68200 43.75200
C  -13.99600 13.91600 43.64200
C  -16.70900 15.64200 44.90100
C  -15.99400 12.74900 42.61000
C  -17.03000 11.69000 42.88800
N  -11.07600 14.00800 42.96700
C  -11.74500 12.87100 43.40400
C  -10.76700 11.85100 43.47700
C  -9.56800 12.40000 42.97800
C  -9.81900 13.68100 42.63600
C  -11.17700 10.34800 43.83000
C  -8.06300 12.18400 42.75200
O  -7.39800 11.19800 43.00300
C  -7.52100 13.41700 42.05000
C  -6.32200 13.93100 42.85900
O  -6.38500 14.85500 43.65200
O  -5.16200 13.25800 42.55700
C  -3.92500 13.79300 43.10000
H  -10.16700 19.62700 40.48800
H  -15.91500 17.55400 42.66000
H  -13.66600 12.00400 44.02000
H  -6.82000 16.50200 41.48000
H  -8.36700 18.04400 39.40800
H  -6.43300 18.66200 40.87700
H  -7.64200 19.06600 42.14000
H  -7.48000 19.90000 40.48700
H  -7.55200 16.18200 38.51700
H  -7.52900 14.68000 39.35700
H  -5.24600 15.18700 39.99800
H  -5.37100 16.82000 39.41900
H  -12.72300 20.89000 39.26200
H  -11.41600 21.21000 40.30500
H  -12.98700 21.94100 40.71500
H  -16.73400 18.74300 41.20600
H  -17.31100 20.40200 41.54200
H  -16.70300 19.43400 42.84100
H  -16.82900 15.07900 42.85200
H  -15.67700 13.22400 44.72500
H  -16.35800 16.63600 45.17600
H  -16.62400 14.98600 45.76700
H  -17.76500 15.88000 44.77600
H  -15.18200 12.10900 42.26500
H  -16.21900 13.34800 41.72800
H  -17.83200 11.94600 43.58100
H  -16.63400 10.71200 43.16000
H  -17.57800 11.67300 41.94600
H  -11.57700 9.88800 42.92700
H  -11.99800 10.39800 44.54600
H  -10.35400 9.74200 44.21000
H  -7.25400 13.30900 40.99800
H  -3.62100 14.79800 42.80600
H  -3.10200 13.25700 42.62700
H  -3.89200 13.61700 44.17500

