158

Mg 41.90100 40.55200 25.95700
C  41.05700 43.01400 28.42200
C  42.29200 38.28200 28.38900
C  42.87900 38.39500 23.61000
C  41.46100 42.96800 23.57200
N  41.74400 40.75500 28.15900
C  41.33200 41.75300 28.97200
C  41.31600 41.31200 30.52600
C  41.54300 39.71400 30.42100
C  41.82100 39.55500 28.89900
C  42.59000 39.12600 31.37400
C  39.95200 41.72800 31.24200
C  39.57600 41.08300 32.51000
H  39.19800 42.01000 33.63400
N  42.48600 38.54400 25.93500
C  42.59400 37.81600 27.05600
C  43.05400 36.47900 26.77800
C  43.14300 36.37900 25.36000
C  42.87000 37.83200 24.86800
C  43.27900 35.43100 27.84400
C  43.50200 35.22900 24.39000
O  43.51000 35.31500 23.16700
C  43.64700 33.83800 24.97600
N  42.28700 40.69900 23.87400
C  42.66000 39.67300 23.11800
C  42.53800 39.97300 21.61300
C  41.64200 41.28200 21.70800
C  41.82800 41.66000 23.17000
C  43.93500 40.16200 20.97600
C  40.25800 41.22100 21.08300
C  39.32800 40.14900 21.58800
N  41.42600 42.58800 25.89900
C  41.29700 43.47700 24.84700
C  40.96900 44.81900 25.34600
C  40.87700 44.65500 26.70700
C  41.17900 43.30700 27.03200
C  40.70100 46.05000 24.52700
C  40.40600 45.34500 27.93300
O  39.90800 46.45100 28.10300
C  40.60800 44.30500 29.07400
C  41.59500 44.94600 30.00400
O  42.81200 44.73300 30.10300
O  40.91900 45.83000 30.86700
C  41.52700 46.17300 32.11600
H  42.27000 37.51400 29.16500
H  43.02800 37.65100 22.82500
H  41.16300 43.67700 22.79700
H  42.08100 41.90000 31.03400
H  40.62000 39.19200 30.67500
H  42.21000 38.32500 32.00700
H  42.83100 39.85200 32.15000
H  43.45900 38.82300 30.78900
H  39.10000 41.66100 30.56500
H  40.04100 42.76600 31.56200
H  40.38900 40.41100 32.78500
H  38.62900 40.57700 32.32600
H  42.27700 35.10600 28.12600
H  43.68100 35.85700 28.76300
H  43.84400 34.55800 27.51700
H  43.56500 33.16100 24.12600
H  42.82100 33.69800 25.67400
H  44.61400 33.89500 25.47700
H  42.08300 39.13600 21.08300
H  42.08000 42.07100 21.09600
H  44.50600 39.43500 21.55400
H  44.28900 41.18300 20.83700
H  43.87900 39.73100 19.97600
H  40.31200 41.09700 20.00100
H  39.96100 42.25700 21.24500
H  38.83500 39.63600 20.76300
H  38.58500 40.45700 22.32300
H  39.93900 39.49300 22.20700
H  39.66500 46.14300 24.20000
H  41.22800 45.99400 23.57500
H  41.14400 46.94200 24.96900
H  39.62600 44.21800 29.53700
H  42.58500 46.35900 31.93300
H  41.47500 45.33700 32.81300
H  40.94600 47.01400 32.49400
Mg 7.17600 53.94100 42.34700
C  6.84600 50.51800 41.99200
C  10.39200 53.71700 41.21900
C  7.36900 57.29600 42.26300
C  3.94200 54.12700 43.57900
N  8.35900 52.35700 41.55600
C  7.98300 51.06500 41.43600
C  9.04400 50.29900 40.72300
C  10.29300 51.21300 40.87100
C  9.63700 52.56100 41.24600
C  11.27800 50.76900 41.95100
C  8.71900 49.85100 39.27300
C  7.77000 50.81000 38.50200
H  7.79100 50.62300 36.93700
N  8.71200 55.34600 41.80400
C  9.98800 55.04600 41.38200
C  10.76100 56.28500 41.22100
C  9.88300 57.33200 41.57700
C  8.59000 56.70100 41.86700
C  12.21800 56.22900 40.89700
C  10.14900 58.81000 41.53000
O  11.26700 59.15400 41.23200
C  9.14200 59.83100 42.05700
N  5.71600 55.46300 42.60000
C  6.09300 56.72500 42.48900
C  4.90400 57.60100 42.79200
C  3.72700 56.62600 43.14800
C  4.51600 55.32300 43.11200
C  5.30600 58.68500 43.92100
C  2.46100 56.59700 42.17700
C  2.44100 55.73600 40.86400
N  5.63900 52.63700 42.83100
C  4.40800 52.79300 43.37400
C  3.86400 51.44700 43.77500
C  4.82000 50.56200 43.22400
C  5.86100 51.32400 42.64600
C  2.70000 51.13300 44.58300
C  5.18600 49.19800 43.09500
O  4.69800 48.23700 43.62300
C  6.47100 49.06000 42.22700
C  6.04300 48.30200 40.97000
O  5.06200 48.63000 40.26700
O  6.84200 47.26600 40.60000
C  6.45200 46.62500 39.39500
H  11.47200 53.66100 41.06400
H  7.45700 58.38000 42.16900
H  2.94400 54.15300 44.02100
H  9.21300 49.36400 41.25700
H  10.79900 51.37600 39.91900
H  12.10700 50.36100 41.37300
H  10.74400 50.03700 42.55700
H  11.60600 51.55900 42.62800
H  8.30900 48.84500 39.36100
H  9.62900 49.79100 38.67500
H  8.03600 51.84900 38.70000
H  6.78600 50.65400 38.94500
H  12.43300 56.91500 40.07700
H  12.54100 55.20900 40.68700
H  12.80800 56.55200 41.75400
H  9.63100 60.78700 42.24300
H  8.93700 59.38900 43.03200
H  8.38100 59.99200 41.29400
H  4.60400 58.09100 41.86600
H  3.36700 56.75000 44.16900
H  4.57500 58.58100 44.72300
H  5.12500 59.66100 43.47100
H  6.33000 58.59600 44.28600
H  2.24400 57.61700 41.86000
H  1.63200 56.27700 42.80700
H  2.15600 56.40700 40.05400
H  1.74900 54.90500 40.72700
H  3.45900 55.40300 40.66300
H  2.40500 50.08700 44.51200
H  1.88200 51.75000 44.21300
H  2.88900 51.35000 45.63500
H  7.16400 48.42800 42.78200
H  6.21400 47.41000 38.67700
H  5.58600 46.02900 39.68300
H  7.18300 46.00900 38.87200

