158

Mg 45.15200 4.80200 46.62300
C  43.04400 7.73900 46.43100
C  42.24800 2.96400 46.69800
C  47.19800 2.34500 46.76500
C  47.92400 7.05600 46.63600
N  42.93800 5.36600 46.37300
C  42.26200 6.55800 46.38500
C  40.75100 6.46500 46.36400
C  40.56800 4.93000 46.53900
C  42.00100 4.36300 46.63500
C  39.58400 4.50400 47.63200
C  40.09100 7.07000 45.13000
C  40.94700 7.18900 43.85400
H  40.30900 7.18400 42.43500
N  44.75200 2.95600 46.79100
C  43.45700 2.31500 46.69100
C  43.73300 0.88700 46.64200
C  45.15400 0.69200 46.79000
C  45.77700 2.05100 46.76700
C  42.60200 -0.14300 46.66000
C  45.89200 -0.64100 46.85800
O  45.17500 -1.66300 46.77900
C  47.41200 -0.77100 46.97100
N  47.22500 4.72500 46.50700
C  47.84000 3.51800 46.68800
C  49.38300 3.61800 46.72200
C  49.59500 5.14800 46.69400
C  48.16600 5.65400 46.51400
C  49.98800 2.86900 47.98900
C  50.66900 5.69200 45.67300
C  51.77600 6.64300 46.20400
N  45.45000 6.90700 46.50900
C  46.63800 7.64500 46.61400
C  46.30200 9.09000 46.69800
C  44.96800 9.13700 46.54400
C  44.44700 7.82500 46.43900
C  47.27600 10.21900 46.80500
C  43.80600 9.96400 46.56400
O  43.66800 11.15400 46.61200
C  42.53100 9.07100 46.45200
C  41.60800 9.29200 47.72300
O  41.67600 8.66500 48.79800
O  40.79400 10.40800 47.54700
C  39.84200 10.76900 48.62400
H  41.31400 2.39800 46.69600
H  47.93000 1.53600 46.72800
H  48.75200 7.76300 46.71500
H  40.48500 7.02000 47.26300
H  40.23400 4.50100 45.59400
H  40.07600 3.80200 48.30500
H  38.70000 4.01600 47.22200
H  39.15800 5.35400 48.16700
H  39.68700 8.03300 45.44200
H  39.27000 6.47700 44.72600
H  41.74300 6.44800 43.92300
H  41.35700 8.19900 43.87400
H  42.55600 -0.72100 45.73700
H  41.58600 0.24200 46.75100
H  42.83300 -0.79100 47.50500
H  47.59600 -1.84500 46.95100
H  47.70000 -0.32300 47.92100
H  47.86900 -0.35200 46.07400
H  49.76300 3.22100 45.78100
H  49.88700 5.57300 47.65500
H  49.07100 2.69700 48.55300
H  50.61200 3.58600 48.52100
H  50.49200 1.91900 47.81000
H  50.11800 6.13000 44.84100
H  51.20800 4.83900 45.26100
H  52.72800 6.17400 45.95400
H  51.85200 6.87300 47.26700
H  51.76500 7.55700 45.61100
H  46.75900 11.14100 46.53800
H  48.03100 10.10100 46.02700
H  47.82900 10.15800 47.74200
H  41.96400 9.38800 45.57800
H  40.36500 11.37000 49.36700
H  39.45700 9.91100 49.17500
H  38.92600 11.26800 48.30600
Mg 41.06500 9.19500 29.91500
C  43.03800 10.60000 32.33200
C  38.92100 7.96900 32.28800
C  39.18000 7.69100 27.48400
C  43.59400 9.91600 27.46000
N  40.96900 9.29200 32.04600
C  41.89600 9.95000 32.86500
C  41.38600 9.98700 34.27000
C  40.24200 8.94700 34.23300
C  40.01300 8.65300 32.73200
C  40.57400 7.61400 35.07000
C  41.00300 11.41200 34.73400
C  40.48400 11.60200 36.21800
H  41.33500 12.37200 37.31300
N  39.15500 8.14200 29.84200
C  38.43200 7.76800 30.99300
C  37.14800 7.22100 30.48000
C  37.22600 7.14000 29.06200
C  38.55500 7.64700 28.74100
C  36.11800 6.73000 31.51100
C  36.17800 6.69700 28.02500
O  36.33600 6.61500 26.84200
C  34.88100 6.39200 28.50100
N  41.35200 8.80300 27.77700
C  40.39900 8.20000 27.04600
C  40.70300 8.26100 25.52700
C  42.08100 8.98400 25.52400
C  42.38900 9.29100 26.99500
C  40.68500 6.92600 24.74300
C  42.10700 10.22100 24.59600
C  41.80800 11.59600 25.12700
N  42.96100 10.10000 29.84800
C  43.85400 10.27800 28.79000
C  45.04000 10.86400 29.31100
C  44.72200 11.11100 30.70300
C  43.51900 10.52600 30.95000
C  46.33500 11.21300 28.60000
C  45.17600 11.71100 31.91800
O  46.24100 12.20400 32.18100
C  44.16600 11.27900 33.11000
C  44.90100 10.42800 34.04200
O  45.25000 9.24600 33.84000
O  45.14800 11.17500 35.10600
C  45.99000 10.58700 36.10600
H  38.21900 7.63200 33.05300
H  38.55500 7.37400 26.64500
H  44.35500 10.19600 26.72900
H  42.21200 9.58800 34.85800
H  39.38600 9.37200 34.75600
H  41.62300 7.32000 35.03500
H  40.04300 6.75700 34.65500
H  40.29500 7.82200 36.10300
H  40.26800 11.91800 34.10800
H  41.95500 11.91300 34.56200
H  40.23600 10.70000 36.77800
H  39.47900 12.00200 36.35200
H  36.42300 6.67200 32.55600
H  35.83000 5.75800 31.11100
H  35.22800 7.35700 31.45200
H  34.40900 7.25100 28.97800
H  35.06200 5.56600 29.18900
H  34.22100 5.97000 27.74300
H  39.89700 8.90000 25.16500
H  42.90200 8.34600 25.19800
H  40.07800 6.94100 23.83800
H  40.17800 6.16700 25.33900
H  41.70700 6.60500 24.54100
H  41.37300 10.08400 23.80200
H  43.04600 10.37200 24.06500
H  42.79700 11.98700 25.36400
H  41.22500 11.42200 26.03100
H  41.17200 12.22700 24.50700
H  46.14700 11.02800 27.54200
H  47.16600 10.59200 28.93700
H  46.56300 12.21400 28.96600
H  43.76500 12.16700 33.59900
H  45.82900 9.56600 36.45400
H  45.76600 11.24100 36.94900
H  46.96600 10.64200 35.62300

