158

Mg -2.26500 17.11300 27.70700
C  -2.83900 15.13500 30.57100
C  -2.35600 19.84300 29.62800
C  -2.33400 18.76100 24.88300
C  -2.57000 14.11200 25.83600
N  -2.49300 17.41800 29.88400
C  -2.71800 16.51600 30.81000
C  -2.73700 17.10800 32.23800
C  -2.80000 18.58000 31.88100
C  -2.60800 18.63400 30.36700
C  -3.97500 19.39700 32.45400
C  -1.59300 16.80100 33.26900
C  -1.11800 17.79300 34.37900
H  -1.06500 17.16400 35.73400
N  -2.28500 19.06700 27.28500
C  -2.24700 20.08100 28.22200
C  -1.93800 21.32700 27.50900
C  -1.86600 21.05700 26.10600
C  -2.16100 19.60600 26.04200
C  -1.77300 22.66400 28.21300
C  -1.45200 21.96900 24.97100
O  -1.40700 21.60000 23.83900
C  -1.22600 23.46000 25.22500
N  -2.62900 16.56900 25.68500
C  -2.60000 17.46100 24.71500
C  -2.79400 16.78800 23.28800
C  -2.56800 15.33300 23.66300
C  -2.49700 15.33700 25.20100
C  -4.19100 17.11400 22.71300
C  -1.49500 14.57000 22.84200
C  -0.08000 14.53600 23.33900
N  -2.62000 15.03100 28.10100
C  -2.80700 13.95700 27.22100
C  -2.94500 12.70100 27.99900
C  -3.03400 13.12400 29.33900
C  -2.86200 14.57500 29.32100
C  -3.12700 11.31000 27.43900
C  -3.21000 12.73000 30.68000
O  -3.36500 11.62900 31.12600
C  -3.13500 14.03000 31.56800
C  -1.97300 13.71300 32.41700
O  -0.81800 13.84400 32.15600
O  -2.46500 13.26500 33.64300
C  -1.48700 12.87200 34.60500
H  -2.48100 20.78700 30.16400
H  -2.29700 19.31900 23.94500
H  -2.74200 13.26000 25.17400
H  -3.70500 16.76400 32.60500
H  -1.90500 19.12000 32.19200
H  -4.51400 19.63000 31.53600
H  -3.79900 20.27900 33.06900
H  -4.72300 18.79100 32.96700
H  -0.72100 16.67700 32.62700
H  -1.89900 15.88800 33.77900
H  -1.78400 18.65400 34.41900
H  -0.18600 18.29500 34.12200
H  -0.89800 23.26700 27.96900
H  -1.81600 22.58200 29.29900
H  -2.64100 23.25400 27.92100
H  -2.14600 23.84900 25.66200
H  -1.23700 23.82400 24.19800
H  -0.24100 23.62400 25.66200
H  -2.03000 17.11500 22.58300
H  -3.46000 14.74100 23.46000
H  -4.71100 16.18700 22.47400
H  -4.08600 17.65900 21.77500
H  -4.85000 17.62500 23.41500
H  -1.45900 14.75400 21.76800
H  -1.82600 13.53200 22.85700
H  0.27700 15.24200 24.08900
H  0.45000 14.79900 22.42400
H  0.13700 13.51900 23.66700
H  -2.21000 10.72100 27.42500
H  -3.54200 11.34000 26.43200
H  -3.80500 10.78600 28.11300
H  -4.06100 14.24000 32.10300
H  -1.05900 13.75000 35.09000
H  -0.59100 12.49300 34.11400
H  -1.84700 12.15800 35.34500
Mg 0.76300 42.87300 25.02500
C  2.26800 42.97800 28.06000
C  -2.11200 41.47100 26.55000
C  -0.47000 41.91100 21.96400
C  3.79900 43.63200 23.46800
N  0.11200 42.39800 26.99400
C  0.89700 42.64000 28.09300
C  0.13000 42.54400 29.44700
C  -1.21800 41.88300 28.97100
C  -1.10600 41.85300 27.46900
C  -1.49300 40.47400 29.61100
C  0.00000 43.90200 30.21800
C  0.49700 43.72000 31.60500
H  -0.56200 43.70700 32.66000
N  -1.05600 41.93800 24.31500
C  -2.05800 41.40700 25.11700
C  -3.04500 40.83500 24.27300
C  -2.65200 40.99800 22.96600
C  -1.36200 41.71400 23.00300
C  -4.28100 40.06100 24.79100
C  -3.32500 40.62000 21.67300
O  -2.88000 40.81400 20.51400
C  -4.60000 39.83700 21.74700
N  1.48100 42.95600 23.02600
C  0.82500 42.47400 21.92100
C  1.74500 42.36500 20.69900
C  2.98700 43.09700 21.11300
C  2.76200 43.26100 22.60300
C  1.91600 40.93400 20.02300
C  3.28600 44.46300 20.43800
C  2.41300 45.69600 20.75400
N  2.57500 43.47000 25.55800
C  3.76500 43.71500 24.90900
C  4.90000 43.98300 25.79900
C  4.33300 43.60300 27.03400
C  2.96400 43.36200 26.85400
C  6.34000 44.37300 25.35100
C  4.61100 43.37800 28.44400
O  5.68600 43.40600 28.98200
C  3.28600 43.11000 29.17600
C  3.48000 41.91800 30.03300
O  3.71200 40.80900 29.67600
O  3.65900 42.30300 31.34000
C  4.13400 41.40200 32.39700
H  -2.95000 41.11000 27.15000
H  -0.76300 41.66400 20.94200
H  4.69800 43.98900 22.96200
H  0.51000 41.76000 30.10100
H  -2.06900 42.51600 29.22300
H  -1.80100 39.81100 28.80300
H  -2.32600 40.50900 30.31300
H  -0.62600 39.97900 30.05100
H  -1.01000 44.30900 30.25600
H  0.57400 44.75600 29.85800
H  1.14400 44.57500 31.79700
H  1.23200 42.93100 31.76800
H  -5.22600 40.59400 24.68000
H  -4.22600 39.68700 25.81300
H  -4.43700 39.14400 24.22200
H  -4.41800 38.83300 22.12900
H  -4.77200 39.71700 20.67800
H  -5.34700 40.48900 22.19900
H  1.24700 43.06200 20.02500
H  3.81800 42.39200 21.07600
H  2.95300 40.66700 19.82000
H  1.46900 41.00400 19.03200
H  1.31300 40.22900 20.59500
H  3.37200 44.42200 19.35300
H  4.26100 44.81600 20.77300
H  1.82800 45.61200 19.83800
H  2.95700 46.63200 20.88300
H  1.69600 45.50900 21.55300
H  6.69600 45.15600 26.02000
H  6.40100 44.70700 24.31500
H  7.08200 43.62500 25.63200
H  3.17600 44.00800 29.78500
H  5.08400 41.79700 32.75600
H  4.22900 40.34900 32.13200
H  3.51600 41.41800 33.29500

