158

Mg 35.45900 1.64800 29.53900
C  33.58100 2.96500 32.03400
C  38.26800 1.79000 31.68500
C  37.54900 0.84100 27.00400
C  32.88800 2.20300 27.25000
N  35.86100 2.17500 31.65000
C  34.86900 2.64800 32.43900
C  35.37800 2.57700 33.89000
C  36.90100 2.60700 33.77000
C  37.07700 2.22000 32.29100
C  37.49700 3.92000 34.17300
C  34.77600 1.35200 34.70300
C  34.18100 1.84500 36.05600
H  34.70000 3.06800 36.75300
N  37.58000 1.30500 29.34100
C  38.51600 1.31800 30.38200
C  39.74000 0.75900 29.95500
C  39.58900 0.41300 28.58700
C  38.20800 0.86400 28.22400
C  40.89300 0.58900 30.93300
C  40.62500 -0.07700 27.60600
O  40.34100 -0.25900 26.45900
C  41.98300 -0.27300 28.02800
N  35.33300 1.70600 27.33300
C  36.27200 1.12500 26.58700
C  35.74500 0.96200 25.19200
C  34.18200 1.07800 25.33200
C  34.15100 1.75200 26.70300
C  36.32900 2.00800 24.16500
C  33.36300 -0.24500 25.32200
C  32.36600 -0.34900 24.14500
N  33.57300 2.39700 29.59000
C  32.60000 2.50800 28.59500
C  31.43400 3.02100 29.17800
C  31.76900 3.26600 30.50900
C  33.05700 2.81800 30.71400
C  30.10800 3.26900 28.49600
C  31.24100 3.82100 31.70200
O  30.13900 4.23800 32.07000
C  32.39300 3.53000 32.81300
C  32.59300 4.87600 33.51200
O  33.42200 5.66300 33.19000
O  31.76300 5.02200 34.62200
C  31.86900 6.30700 35.43000
H  39.06000 1.84000 32.43400
H  38.07800 0.43300 26.14100
H  32.06800 2.07500 26.54000
H  35.02600 3.48800 34.37300
H  37.37300 1.81800 34.35500
H  38.48300 3.71000 34.58700
H  36.96200 4.49800 34.92600
H  37.60800 4.58600 33.31700
H  35.58200 0.63100 34.84400
H  34.04800 0.75400 34.15500
H  34.31900 0.99200 36.72000
H  33.10600 1.99300 35.95600
H  40.66900 0.62400 31.99900
H  41.55200 1.44200 30.77200
H  41.40600 -0.37300 30.95100
H  42.56200 -0.70500 27.21300
H  41.92000 -1.03300 28.80700
H  42.41600 0.59000 28.53400
H  35.94300 -0.05300 24.84800
H  33.77400 1.71600 24.54900
H  35.62500 2.78300 23.86100
H  36.74200 1.39300 23.36600
H  37.17300 2.55200 24.58900
H  32.83500 -0.31000 26.27300
H  33.98700 -1.13000 25.19900
H  32.60300 -1.14000 23.43400
H  32.39100 0.55600 23.53700
H  31.39000 -0.50800 24.60200
H  29.81700 4.22200 28.93600
H  29.47500 2.41900 28.75100
H  30.15500 3.45000 27.42200
H  31.99900 2.86300 33.58100
H  30.81100 6.50300 35.60100
H  32.16100 7.19100 34.86200
H  32.38700 6.19300 36.38200
Mg 46.12400 24.41600 28.58900
C  46.99800 26.71600 31.11600
C  45.83900 22.02400 30.99600
C  45.50500 22.18700 26.07800
C  47.21000 26.74300 26.24000
N  46.19800 24.46200 30.78200
C  46.53500 25.51200 31.56800
C  46.42900 25.12400 33.04300
C  46.52900 23.51700 33.03500
C  46.10600 23.30400 31.51400
C  47.92300 22.92900 33.44700
C  45.12800 25.69100 33.61500
C  45.37700 26.84000 34.64800
H  44.68700 26.75500 35.99000
N  45.58000 22.39800 28.59200
C  45.54300 21.57400 29.72800
C  45.29500 20.18600 29.27100
C  45.33300 20.23100 27.79000
C  45.46200 21.60300 27.40200
C  45.39300 19.00300 30.18500
C  45.38900 18.99600 26.82000
O  45.44600 19.07800 25.59400
C  45.48900 17.65500 27.41200
N  46.38600 24.42300 26.52800
C  45.96200 23.48200 25.69800
C  46.17600 23.80800 24.19300
C  46.49800 25.28700 24.30500
C  46.71100 25.50900 25.74900
C  47.30500 22.83000 23.67600
C  45.37400 26.14300 23.74500
C  45.72400 27.39000 23.00500
N  47.02300 26.25900 28.58900
C  47.34300 27.11300 27.56000
C  47.67600 28.42700 28.04900
C  47.57600 28.30400 29.45600
C  47.18800 26.98600 29.71100
C  48.17500 29.52500 27.25000
C  47.77400 28.96200 30.78700
O  48.30400 30.04500 30.95000
C  47.37400 27.98400 31.91500
C  48.66000 27.74000 32.75100
O  49.60500 27.29700 32.25000
O  48.56400 28.17900 34.05300
C  49.78000 28.07200 34.85500
H  45.82700 21.30100 31.81400
H  45.24600 21.54100 25.23700
H  47.47900 27.42100 25.42700
H  47.29400 25.52300 33.57200
H  45.77200 23.06100 33.67300
H  48.30000 22.34700 32.60600
H  47.69400 22.40500 34.37500
H  48.63300 23.75400 33.51500
H  44.48100 24.94800 34.08200
H  44.54600 26.01700 32.75300
H  44.83400 27.69600 34.24700
H  46.45600 26.94600 34.76900
H  45.49400 19.30600 31.22800
H  46.31500 18.42700 30.11000
H  44.49000 18.39400 30.16400
H  46.46800 17.56400 27.88200
H  45.46800 16.88100 26.64400
H  44.63800 17.43600 28.05700
H  45.17900 23.64800 23.78200
H  47.41800 25.50900 23.76400
H  48.22300 23.41000 23.58900
H  47.04100 22.60000 22.64400
H  47.31700 21.92100 24.27800
H  44.66000 26.34200 24.54400
H  44.90900 25.58500 22.93300
H  45.59500 27.30300 21.92600
H  46.80400 27.52400 23.07500
H  45.20200 28.24900 23.42600
H  47.71300 29.45900 26.26500
H  49.25900 29.50000 27.14200
H  47.82200 30.43100 27.74200
H  46.56800 28.22800 32.60700
H  49.57100 27.56200 35.79500
H  50.02900 29.11800 35.03200
H  50.59800 27.60600 34.30700

