158

Mg 25.95400 0.31100 29.22500
C  27.84400 0.06500 32.22300
C  23.13800 0.55200 31.11000
C  24.25700 0.46300 26.37000
C  28.92800 -0.34800 27.38500
N  25.67500 0.53200 31.40300
C  26.49800 0.30000 32.42300
C  25.79400 0.61500 33.82400
C  24.25300 0.40800 33.39700
C  24.34000 0.47500 31.82600
C  23.45100 -0.81400 33.90900
C  26.24900 2.09300 34.45000
C  27.17100 2.04900 35.67500
H  26.68900 2.81100 36.97200
N  23.88100 0.44200 28.78600
C  22.88400 0.57600 29.70100
C  21.64600 0.58900 28.94900
C  22.00200 0.58000 27.58600
C  23.43700 0.52600 27.48600
C  20.38100 0.67500 29.61000
C  21.04600 0.57600 26.39200
O  21.43500 0.70800 25.19700
C  19.55900 0.29900 26.56500
N  26.53200 0.09500 27.13500
C  25.62600 0.23000 26.19300
C  26.27200 0.23900 24.74200
C  27.77600 0.09700 25.15000
C  27.78600 -0.05200 26.64700
C  25.67200 -0.72000 23.70000
C  28.66600 1.28500 24.62100
C  29.93000 0.99000 23.79300
N  27.95300 -0.11900 29.64400
C  29.04100 -0.34900 28.80100
C  30.10400 -0.77600 29.60200
C  29.72500 -0.60200 30.92000
C  28.36500 -0.15100 30.89800
C  31.38600 -1.42400 29.07400
C  30.14300 -0.61300 32.32800
O  31.16400 -1.00900 32.77600
C  28.95900 -0.26500 33.22500
C  28.61500 -1.42700 34.07000
O  28.01100 -2.40200 33.78800
O  29.21100 -1.18900 35.27900
C  29.08000 -2.36500 36.14100
H  22.25700 0.58200 31.75400
H  23.74000 0.66200 25.43000
H  29.80200 -0.56300 26.76500
H  26.13900 -0.20200 34.45700
H  23.69200 1.23500 33.83300
H  22.89400 -1.29800 33.10600
H  22.79400 -0.45200 34.69900
H  24.20000 -1.44100 34.39200
H  25.39100 2.68300 34.77200
H  26.80300 2.56600 33.63900
H  28.11100 2.42000 35.26800
H  27.24900 0.98400 35.89300
H  19.97000 1.60400 29.21500
H  20.38300 0.67500 30.70000
H  19.82200 -0.21300 29.31700
H  19.54400 -0.78200 26.70000
H  18.98700 0.40700 25.64400
H  19.11400 0.89300 27.36300
H  26.08300 1.26700 24.43400
H  28.14700 -0.85100 24.76100
H  24.82500 -1.20500 24.18600
H  26.50400 -1.40700 23.54500
H  25.29900 -0.19600 22.82000
H  28.99700 1.74900 25.55000
H  28.00200 2.02900 24.18200
H  30.08700 -0.08700 23.84100
H  30.76800 1.47200 24.29700
H  29.67600 1.28000 22.77400
H  32.12300 -0.69800 28.73200
H  31.21700 -2.11800 28.25100
H  31.76600 -2.03200 29.89500
H  29.19400 0.69200 33.69100
H  29.53900 -3.25000 35.70000
H  28.11100 -2.59800 36.58200
H  29.80800 -2.25500 36.94500
Mg 47.63000 46.71800 44.50700
C  44.26500 46.29100 43.17800
C  48.49500 43.77500 43.09000
C  50.76300 47.65900 44.95100
C  46.47600 50.16300 45.15700
N  46.45900 45.25900 43.13500
C  45.15500 45.30100 42.74100
C  44.89400 43.95200 41.95600
C  46.13100 43.07300 42.19700
C  47.14500 44.10400 42.82700
C  45.90500 41.84900 43.09400
C  44.47800 44.19700 40.46400
C  43.07500 43.62800 39.95400
H  42.96900 42.31600 39.16000
N  49.40600 45.77300 44.24700
C  49.57600 44.51900 43.73000
C  50.99900 44.14600 43.90200
C  51.69800 45.31100 44.43600
C  50.65900 46.32600 44.53500
C  51.51000 42.81000 43.58300
C  53.21600 45.32000 44.74000
O  53.87200 44.28700 44.66600
C  53.85500 46.68600 44.95700
N  48.47100 48.64500 44.85800
C  49.84300 48.73800 44.95600
C  50.23000 50.14200 45.59800
C  48.85300 50.88200 45.72100
C  47.86400 49.83200 45.19700
C  50.91700 50.08100 46.97900
C  48.73900 52.24500 44.97900
C  48.45500 53.49600 45.82600
N  45.76500 47.90900 44.33000
C  45.52800 49.27300 44.61400
C  44.11700 49.48100 44.58400
C  43.52100 48.39600 43.95000
C  44.59100 47.49100 43.82300
C  43.43800 50.63500 45.16200
C  42.27800 47.69200 43.53500
O  41.11100 48.06000 43.56000
C  42.74900 46.26300 43.10000
C  42.18200 45.19700 43.94300
O  41.67800 44.18900 43.45900
O  42.23200 45.29500 45.27700
C  41.99000 44.11300 46.16700
H  48.79300 42.75100 42.85600
H  51.75300 48.02900 45.22400
H  46.15900 51.09400 45.63100
H  44.07600 43.43100 42.45200
H  46.59700 42.68300 41.29200
H  45.10700 41.15100 42.84100
H  45.65100 42.29700 44.05500
H  46.76000 41.18700 43.23200
H  45.25500 43.84900 39.78500
H  44.35700 45.28000 40.43200
H  42.88400 44.42800 39.24000
H  42.28500 43.68200 40.70400
H  51.80800 42.44000 44.56400
H  52.40400 42.91600 42.96800
H  50.81900 42.17400 43.03000
H  53.73800 47.43300 44.17200
H  54.91200 46.48800 45.13500
H  53.55300 47.05000 45.93900
H  50.83500 50.72900 44.90700
H  48.56500 50.94100 46.77000
H  51.93800 50.46100 46.93300
H  50.80700 49.05800 47.33700
H  50.45000 50.73000 47.72000
H  47.94800 52.24300 44.22900
H  49.66500 52.50600 44.46700
H  48.15700 53.22300 46.83800
H  47.74800 54.12600 45.28600
H  49.38100 54.04800 45.98800
H  43.89800 50.93400 46.10400
H  42.40600 50.31900 45.31100
H  43.29900 51.50200 44.51600
H  42.38300 46.03200 42.10000
H  40.99400 44.31000 46.56500
H  42.75800 43.93200 46.91900
H  41.80600 43.16800 45.65800

