158

Mg -12.44900 37.25900 42.03700
C  -10.08300 34.92500 41.04000
C  -10.52300 39.77100 40.60800
C  -15.08300 39.27400 42.30700
C  -14.54300 34.54900 42.97400
N  -10.72800 37.29900 40.65400
C  -9.81400 36.24800 40.61600
C  -8.56000 36.69400 39.75900
C  -8.60400 38.23400 39.91000
C  -10.06700 38.45200 40.47900
C  -7.50100 38.76300 40.82200
C  -8.63500 36.17300 38.22700
C  -7.34800 35.58900 37.67900
H  -6.58500 36.47300 36.65200
N  -12.78500 39.31400 41.52600
C  -11.84700 40.21200 41.01600
C  -12.43000 41.51100 40.95100
C  -13.73900 41.38200 41.47600
C  -13.95900 39.96100 41.80700
C  -11.67600 42.69400 40.39100
C  -14.82700 42.51900 41.48200
O  -14.55400 43.65100 41.09500
C  -16.16400 42.24500 42.04900
N  -14.57200 36.92500 42.46600
C  -15.42600 37.95900 42.56200
C  -16.79800 37.51500 43.11400
C  -16.65800 36.01200 43.35400
C  -15.13800 35.81600 43.00300
C  -17.25200 38.34100 44.31500
C  -17.63700 35.09000 42.46900
C  -18.44000 34.10000 43.34900
N  -12.32200 35.14900 42.12300
C  -13.19900 34.18800 42.62100
C  -12.52100 32.92100 42.72900
C  -11.30900 33.11600 42.07100
C  -11.24500 34.47000 41.65200
C  -13.03600 31.65900 43.31100
C  -10.10400 32.55600 41.48400
O  -9.71300 31.39700 41.65300
C  -9.29400 33.66400 40.78800
C  -7.99700 33.64000 41.47300
O  -7.67400 34.46000 42.31400
O  -7.27000 32.60300 40.99900
C  -5.96100 32.58300 41.60500
H  -9.82400 40.54200 40.27800
H  -15.99500 39.87000 42.37300
H  -15.28000 33.84900 43.37400
H  -7.66700 36.32200 40.26100
H  -8.53300 38.72400 38.94000
H  -7.12900 37.86200 41.31000
H  -7.84500 39.41800 41.62300
H  -6.71600 39.29100 40.28100
H  -8.99000 36.97100 37.57500
H  -9.39300 35.39000 38.20800
H  -7.54700 34.66300 37.14000
H  -6.72000 35.31700 38.52800
H  -11.88600 42.75100 39.32300
H  -10.60200 42.73000 40.57500
H  -11.98000 43.54700 40.99800
H  -16.62500 41.49100 41.41000
H  -16.72700 43.17800 42.07600
H  -15.92500 41.94100 43.06800
H  -17.45300 37.75300 42.27600
H  -16.73600 35.64400 44.37700
H  -17.69900 37.66000 45.04000
H  -18.01500 39.08700 44.09200
H  -16.34400 38.82000 44.68100
H  -17.03200 34.62500 41.69000
H  -18.41200 35.69100 41.99300
H  -18.28000 34.24100 44.41700
H  -17.96200 33.15500 43.09000
H  -19.42500 34.05600 42.88400
H  -14.07400 31.49300 43.02200
H  -13.02800 31.56700 44.39700
H  -12.44500 30.91100 42.78200
H  -9.17800 33.52000 39.71400
H  -6.01800 32.06300 42.56100
H  -5.41000 33.52000 41.68800
H  -5.40900 31.92600 40.93300
Mg 0.84200 43.05200 25.89000
C  3.19500 43.33000 28.53600
C  -1.39300 42.03500 28.27000
C  -1.13200 42.42000 23.41300
C  3.50800 43.72600 23.61900
N  0.90800 42.92900 28.22800
C  1.93700 43.12000 29.04400
C  1.57800 42.93200 30.55800
C  0.08000 42.56000 30.42800
C  -0.18300 42.41200 28.87800
C  -0.34500 41.32200 31.19900
C  1.80800 44.22700 31.35500
C  1.14200 44.46800 32.72000
H  0.94000 43.11900 33.59000
N  -1.03100 42.39600 25.83100
C  -1.78200 41.93100 26.92900
C  -3.05500 41.34700 26.42100
C  -2.96900 41.43800 24.94500
C  -1.68600 42.12700 24.67200
C  -4.06900 40.74400 27.36100
C  -3.98100 41.02000 23.88100
O  -3.90700 41.27700 22.63100
C  -5.23200 40.21600 24.25800
N  1.19100 42.90000 23.78000
C  0.15000 42.66000 22.96500
C  0.48100 42.72400 21.43900
C  1.92700 43.46100 21.56800
C  2.26400 43.37600 23.07400
C  0.58900 41.33400 20.66400
C  1.86700 44.84900 20.88200
C  1.26200 45.98500 21.65200
N  2.91700 43.53700 25.95100
C  3.89200 43.71000 24.96900
C  5.16600 43.80800 25.62500
C  4.96900 43.63700 26.98900
C  3.61000 43.51300 27.18000
C  6.50300 43.84500 24.83600
C  5.63600 43.49900 28.24000
O  6.86200 43.40800 28.43400
C  4.51600 43.43900 29.36800
C  4.83600 42.30000 30.27100
O  5.21800 41.17300 29.99700
O  4.69800 42.77500 31.56700
C  5.09900 41.95200 32.70300
H  -2.12500 41.64000 28.97700
H  -1.82700 42.24000 22.59100
H  4.37800 44.06200 23.05000
H  2.17700 42.09300 30.91200
H  -0.59700 43.35200 30.74700
H  -1.03000 41.71000 31.95300
H  0.51300 41.01600 31.79800
H  -0.76100 40.54000 30.56300
H  1.50300 45.07000 30.73500
H  2.87400 44.44200 31.42800
H  0.23900 45.04600 32.52400
H  1.69500 45.19600 33.31300
H  -5.08000 40.87600 26.97400
H  -4.03500 41.25600 28.32300
H  -3.93600 39.67000 27.48900
H  -4.94700 39.42200 24.94900
H  -5.46800 39.64100 23.36300
H  -6.01600 40.93400 24.49700
H  -0.31600 43.29000 20.95700
H  2.71800 42.88100 21.09300
H  0.18400 40.55500 21.31100
H  1.59900 41.04200 20.37400
H  0.04700 41.35600 19.71900
H  1.42000 44.78400 19.89000
H  2.89200 45.18900 20.73200
H  0.87000 45.72000 22.63400
H  0.53300 46.38300 20.94600
H  2.04800 46.74000 21.68200
H  6.50000 43.43800 23.82500
H  7.16200 43.17100 25.38400
H  6.89500 44.86200 24.84900
H  4.56500 44.32300 30.00400
H  6.14300 42.18600 32.91600
H  4.87000 40.89100 32.60200
H  4.43000 42.19800 33.52800

