158

Mg 1.49800 -2.93300 45.07300
C  4.90600 -1.98200 44.28700
C  0.49900 -0.35400 42.90700
C  -1.55800 -4.04100 45.39500
C  2.78600 -5.42100 46.96300
N  2.57300 -1.48600 43.55900
C  3.88800 -1.21000 43.53400
C  4.14300 -0.01800 42.65500
C  2.72400 0.56800 42.35300
C  1.88500 -0.49000 43.00900
C  2.59100 1.98400 42.94000
C  5.01000 -0.43300 41.42400
C  6.10000 0.54300 40.99900
H  5.88500 1.39200 39.71900
N  -0.22700 -2.27300 44.23700
C  -0.47500 -1.21600 43.37800
C  -1.89900 -1.11800 43.17000
C  -2.49200 -2.24500 43.79900
C  -1.41800 -2.93700 44.49800
C  -2.65000 -0.10300 42.37600
C  -4.01500 -2.51800 43.75400
O  -4.86700 -1.79800 43.24200
C  -4.60200 -3.75800 44.40000
N  0.78900 -4.53600 45.87500
C  -0.52200 -4.80400 45.96500
C  -0.78300 -6.09200 46.76100
C  0.57800 -6.46200 47.42300
C  1.45600 -5.43000 46.69400
C  -1.93800 -6.04200 47.83100
C  1.03700 -7.97500 47.16200
C  1.44700 -8.66700 48.46300
N  3.41800 -3.68800 45.53500
C  3.78900 -4.63900 46.42900
C  5.22000 -4.77300 46.50900
C  5.67800 -3.69800 45.80800
C  4.56600 -3.10700 45.12600
C  6.00300 -5.87400 47.23900
C  6.83600 -2.99400 45.35500
O  8.00200 -3.13100 45.67100
C  6.40000 -1.74600 44.54500
C  6.51500 -0.50200 45.43400
O  5.76300 -0.35900 46.37800
O  7.47500 0.37500 44.97700
C  7.50200 1.71900 45.61300
H  0.14700 0.50100 42.32500
H  -2.54700 -4.43600 45.63800
H  3.24100 -6.12700 47.66100
H  4.80400 0.61600 43.24700
H  2.59800 0.54300 41.27100
H  3.52400 2.36600 43.35400
H  1.79000 2.13500 43.66400
H  2.46100 2.74100 42.16600
H  4.33700 -0.29600 40.57700
H  5.47200 -1.39300 41.65400
H  6.98300 -0.05000 40.76400
H  6.43500 1.21500 41.79000
H  -3.25700 0.45700 43.08800
H  -3.30500 -0.42700 41.56800
H  -2.02500 0.62300 41.85600
H  -4.55700 -3.58300 45.47500
H  -3.96100 -4.56800 44.05200
H  -5.58900 -3.90000 43.96000
H  -1.04800 -6.70800 45.90200
H  0.57500 -6.34400 48.50600
H  -2.32200 -5.02900 47.95200
H  -1.63600 -6.47600 48.78500
H  -2.67200 -6.66300 47.31600
H  1.77700 -7.98900 46.36100
H  0.25500 -8.58800 46.71400
H  1.54300 -7.94500 49.27400
H  2.36200 -9.19700 48.19800
H  0.79400 -9.47600 48.79000
H  5.66900 -5.69800 48.26200
H  7.07300 -5.75200 47.07500
H  5.75900 -6.89400 46.94200
H  6.94700 -1.56600 43.61900
H  7.76700 2.46800 44.86700
H  8.16200 1.69600 46.48100
H  6.52300 1.93300 46.04100
Mg 23.32300 -6.26400 45.18500
C  25.59000 -3.98000 43.70800
C  20.78200 -4.72500 43.41200
C  21.26200 -8.86200 46.03100
C  25.98700 -7.80700 46.73200
N  23.17300 -4.47200 43.81400
C  24.24600 -3.72500 43.38200
C  23.78700 -2.54700 42.49600
C  22.23500 -2.64100 42.64700
C  22.00900 -3.95500 43.34500
C  21.49600 -1.44300 43.38400
C  24.23100 -2.83900 41.05600
C  24.61100 -1.57100 40.21100
H  23.98700 -1.43900 38.87900
N  21.31700 -6.71900 44.71700
C  20.43600 -5.92100 44.01700
C  19.11200 -6.52900 43.97200
C  19.24400 -7.70700 44.77700
C  20.65600 -7.78500 45.24600
C  17.90300 -5.92300 43.25400
C  18.08300 -8.66100 45.03900
O  16.93900 -8.37600 44.59400
C  18.26300 -9.88200 45.94100
N  23.54800 -8.07700 46.36800
C  22.59400 -9.00400 46.48500
C  23.05600 -10.15200 47.38900
C  24.52300 -9.74600 47.78700
C  24.74400 -8.50400 46.86000
C  22.19200 -10.49800 48.58500
C  25.54600 -10.96400 47.69000
C  26.18300 -11.34100 49.06900
N  25.41600 -6.03500 45.24400
C  26.34400 -6.70000 45.95300
C  27.61600 -6.04100 45.81300
C  27.40100 -5.05700 44.88900
C  26.00400 -5.09500 44.55200
C  28.85600 -6.32500 46.54400
C  28.07200 -3.92300 44.22500
O  29.24400 -3.52100 44.25700
C  26.87800 -3.15200 43.39400
C  26.89100 -1.72800 43.82700
O  26.26100 -1.29200 44.75800
O  27.79500 -1.01500 43.14000
C  27.95800 0.39000 43.55000
H  19.97900 -4.26800 42.82900
H  20.70100 -9.73700 46.36500
H  26.82700 -8.36500 47.15100
H  24.22400 -1.61500 42.85500
H  21.70700 -2.73200 41.69800
H  22.15700 -0.60700 43.61600
H  21.22400 -1.71900 44.40300
H  20.59500 -1.11200 42.86800
H  23.40400 -3.23100 40.46500
H  25.09000 -3.50900 41.02500
H  25.68100 -1.64300 40.01700
H  24.38600 -0.62000 40.69400
H  17.25800 -6.64200 42.74900
H  18.09900 -5.13100 42.53200
H  17.33200 -5.42900 44.04100
H  17.24600 -10.26600 46.02600
H  18.59800 -9.57800 46.93300
H  18.93900 -10.63500 45.53800
H  22.98000 -11.02200 46.73600
H  24.51400 -9.36800 48.80900
H  22.01100 -11.56700 48.47300
H  21.23400 -9.98400 48.66100
H  22.75400 -10.39600 49.51300
H  26.29200 -10.91600 46.89700
H  24.96400 -11.80100 47.30500
H  25.76400 -12.27500 49.44500
H  26.01400 -10.50700 49.74900
H  27.27000 -11.26800 49.09700
H  29.19600 -5.35100 46.89700
H  29.64600 -6.82600 45.98600
H  28.69600 -6.83500 47.49500
H  27.07600 -3.09000 42.32400
H  27.04900 0.90300 43.23600
H  28.84200 0.88300 43.14500
H  28.07600 0.34300 44.63200

