158

Mg 2.08200 -1.04700 43.98800
C  5.49800 -0.45400 43.71000
C  1.41600 1.94300 42.75000
C  -1.25000 -2.07200 43.69300
C  2.75700 -4.37300 44.95400
N  3.29600 0.50100 43.21900
C  4.68200 0.56600 43.17100
C  5.17900 1.84500 42.60000
C  3.86300 2.69600 42.61500
C  2.80400 1.67000 42.82700
C  3.87900 3.87700 43.65000
C  5.85600 1.53500 41.21800
C  7.09700 2.39500 40.83400
H  7.11000 2.73000 39.30800
N  0.29300 -0.11500 43.43600
C  0.25300 1.11400 42.88000
C  -1.07300 1.47800 42.69500
C  -1.90800 0.38500 43.04500
C  -0.97200 -0.74000 43.38300
C  -1.54100 2.84600 42.32700
C  -3.44600 0.40600 43.06600
O  -4.05000 1.44100 42.80500
C  -4.19900 -0.74500 43.55300
N  0.93200 -3.00500 44.14300
C  -0.41900 -3.05100 44.17500
C  -0.92200 -4.46900 44.54400
C  0.35900 -5.13900 45.10500
C  1.45100 -4.12400 44.72000
C  -2.22900 -4.58900 45.39800
C  0.64800 -6.61000 44.54200
C  0.81600 -7.69900 45.63800
N  3.77100 -2.17000 44.34400
C  3.88500 -3.53100 44.68000
C  5.28100 -3.83300 44.89200
C  5.95600 -2.69900 44.44300
C  4.99400 -1.67300 44.13700
C  5.69700 -5.21100 45.25100
C  7.25600 -2.17900 44.18500
O  8.39600 -2.63400 44.27200
C  7.04300 -0.64100 43.64800
C  7.65800 0.29900 44.54500
O  7.33800 0.62400 45.70900
O  8.49200 1.07300 43.84400
C  9.23900 2.15300 44.39800
H  1.16300 2.96000 42.44500
H  -2.31000 -2.33000 43.65200
H  2.90600 -5.33000 45.45900
H  5.99000 2.31600 43.15400
H  3.84000 3.20900 41.65400
H  4.86400 3.92900 44.11200
H  3.23000 3.53900 44.45800
H  3.51200 4.69200 43.02600
H  5.08100 1.45000 40.45700
H  6.25000 0.52000 41.25700
H  8.02200 1.87700 41.08900
H  7.13200 3.32700 41.39800
H  -2.52700 2.98000 41.88100
H  -0.83800 3.26800 41.60900
H  -1.45100 3.47800 43.21000
H  -5.24800 -0.45000 43.57700
H  -3.79100 -1.21500 44.44800
H  -4.17200 -1.49600 42.76400
H  -1.14500 -4.86100 43.55200
H  0.33100 -5.10200 46.19400
H  -2.08700 -5.24900 46.25300
H  -2.98200 -5.16000 44.85400
H  -2.60400 -3.60200 45.67000
H  1.61600 -6.60800 44.04100
H  -0.10800 -6.93000 43.82400
H  0.50700 -7.31200 46.60900
H  1.81600 -8.11800 45.74900
H  0.18900 -8.57000 45.44900
H  5.31800 -5.93800 44.53200
H  5.30800 -5.44200 46.24300
H  6.78600 -5.24200 45.24400
H  7.45800 -0.70900 42.64200
H  10.04900 2.37900 43.70400
H  9.65500 1.88600 45.36900
H  8.67400 3.07600 44.52500
Mg 48.57500 45.42400 43.43100
C  45.28500 45.83500 42.23400
C  48.40700 42.21900 42.08300
C  51.94000 45.22400 43.82800
C  48.64400 48.70500 44.58400
N  47.07700 44.25900 42.16000
C  45.75600 44.61600 41.87200
C  45.00400 43.56400 41.03300
C  45.90500 42.31200 41.35400
C  47.24600 42.94200 41.93000
C  45.16000 41.38200 42.34600
C  44.86200 43.93900 39.51300
C  43.60100 43.48800 38.73000
H  43.80700 42.40800 37.74500
N  50.00600 43.95200 42.90900
C  49.69700 42.67700 42.44200
C  50.98300 41.94200 42.33300
C  51.99100 42.82200 42.82400
C  51.32500 44.02100 43.24800
C  51.00700 40.41300 41.87400
C  53.44500 42.45200 42.87600
O  53.85700 41.41100 42.36300
C  54.47300 43.35300 43.44500
N  50.04500 46.68100 44.30700
C  51.34600 46.43800 44.22100
C  52.19800 47.60200 44.76000
C  51.09700 48.67200 45.01500
C  49.87600 47.94200 44.71700
C  53.06400 47.29800 46.07400
C  51.21800 50.02400 44.15300
C  50.69100 51.27600 44.85100
N  47.14300 46.98000 43.60100
C  47.35200 48.24800 44.12300
C  46.19900 49.00300 43.88900
C  45.32400 48.06100 43.19200
C  45.97700 46.85000 43.00300
C  45.96300 50.40300 44.34700
C  44.02300 47.94600 42.60500
O  43.08300 48.74400 42.56700
C  43.85000 46.56400 41.80300
C  42.67200 45.79600 42.13900
O  41.84700 45.42700 41.27400
O  42.57600 45.53500 43.45000
C  41.36000 44.87800 43.92100
H  48.28000 41.16200 41.83600
H  53.02500 45.34000 43.80300
H  48.54100 49.74800 44.88900
H  43.96600 43.55800 41.36600
H  46.13100 41.80100 40.41700
H  45.23000 40.40500 41.86700
H  44.17400 41.81100 42.52400
H  45.59800 41.39800 43.34400
H  45.72700 43.51900 38.99900
H  45.06800 45.00400 39.41000
H  43.20200 44.39400 38.27400
H  42.86600 43.04300 39.40100
H  51.79500 40.14800 41.16900
H  50.09600 40.06900 41.38400
H  51.04400 39.83700 42.79900
H  54.05300 43.78300 44.35400
H  54.75500 44.17400 42.78600
H  55.30200 42.64800 43.51900
H  53.03300 47.82200 44.09500
H  50.99200 48.83900 46.08700
H  53.80700 48.06500 46.29400
H  53.59800 46.35800 45.93100
H  52.46800 47.10300 46.96500
H  50.72700 49.74400 43.22100
H  52.26300 50.13600 43.86400
H  51.38700 52.11200 44.78500
H  50.44300 50.94100 45.85800
H  49.73900 51.51900 44.37900
H  44.89900 50.61100 44.46200
H  46.43800 51.06600 43.62400
H  46.38300 50.54000 45.34400
H  44.00500 46.70500 40.73400
H  41.39600 43.79000 43.86000
H  40.52200 45.23400 43.32200
H  41.15500 45.05100 44.97800

