158

Mg 17.51900 -0.42800 28.31100
C  16.70600 1.35700 31.16200
C  19.55400 -2.55700 30.27500
C  18.88200 -1.81700 25.38900
C  15.78800 1.87600 26.32600
N  18.19600 -0.43500 30.37200
C  17.66500 0.30200 31.37400
C  18.04900 -0.25600 32.79900
C  19.27800 -1.13500 32.48000
C  19.05600 -1.38600 30.92300
C  20.68300 -0.65500 32.71600
C  16.81100 -0.88100 33.51000
C  16.76900 -0.93200 35.07000
H  17.83200 -0.25600 35.85100
N  18.80100 -2.04500 27.90700
C  19.43900 -2.83700 28.86700
C  20.03100 -4.01700 28.19800
C  19.94300 -3.73600 26.81700
C  19.14600 -2.48300 26.63200
C  20.49000 -5.17000 29.06200
C  20.27500 -4.62100 25.75700
O  20.02800 -4.44800 24.57800
C  21.10700 -5.79500 26.02900
N  17.32800 0.04000 26.18800
C  18.01600 -0.68200 25.16700
C  17.59300 -0.15900 23.76900
C  16.54500 0.97600 24.06100
C  16.47000 0.88400 25.63600
C  18.89000 0.31000 22.88200
C  15.20900 0.91400 23.28700
C  14.79400 2.12700 22.45400
N  16.41700 1.26600 28.62400
C  15.72900 2.05100 27.74400
C  15.01800 3.03900 28.52600
C  15.36500 2.74300 29.83600
C  16.25500 1.68500 29.81500
C  14.20400 4.18300 28.09600
C  15.15100 3.22200 31.23300
O  14.46900 4.11500 31.69300
C  16.05400 2.33300 32.10200
C  16.94900 3.13600 33.03800
O  18.09000 3.51400 32.82600
O  16.23000 3.44500 34.13300
C  16.87600 4.32400 35.10400
H  20.16700 -3.31300 30.77100
H  19.20700 -2.24500 24.43800
H  15.19500 2.63000 25.80500
H  18.40000 0.59000 33.39000
H  19.10200 -2.07800 32.99700
H  21.23900 -0.73300 31.78200
H  21.19400 -1.25500 33.46900
H  20.58100 0.39700 32.98100
H  16.72000 -1.90700 33.15300
H  15.88900 -0.44700 33.12200
H  16.70600 -1.94600 35.46600
H  15.88300 -0.30900 35.19300
H  20.17600 -6.12600 28.64300
H  20.05000 -5.01300 30.04700
H  21.56700 -5.05600 29.18700
H  21.84200 -5.42500 26.74400
H  21.58200 -6.26700 25.16900
H  20.34600 -6.47600 26.41000
H  17.16100 -1.04200 23.30000
H  16.96900 1.97000 23.91500
H  19.21400 -0.42200 22.14200
H  19.72600 0.67700 23.47700
H  18.60200 1.17500 22.28500
H  14.43300 0.65500 24.00800
H  15.28600 0.04200 22.63700
H  14.87600 1.83000 21.40800
H  15.38100 3.02500 22.64200
H  13.76200 2.34800 22.72600
H  13.68300 3.98700 27.15800
H  14.79100 5.10100 28.07500
H  13.38700 4.31500 28.80600
H  15.34300 1.82700 32.75400
H  16.45700 4.02700 36.06500
H  16.74000 5.40000 34.98800
H  17.95900 4.23300 35.18400
Mg 44.76700 5.03200 47.85000
C  42.47600 7.58500 47.69300
C  42.21200 2.76500 47.78000
C  46.97500 2.64600 47.33300
C  47.35700 7.49400 47.25600
N  42.67300 5.22500 47.50800
C  41.87400 6.36000 47.56900
C  40.34800 6.05600 47.28100
C  40.35100 4.46100 47.58400
C  41.85900 4.10900 47.63800
C  39.34200 3.93400 48.70900
C  39.81300 6.43900 45.89500
C  40.72800 7.06400 44.78500
H  40.39000 6.56200 43.33400
N  44.59600 2.92200 47.58900
C  43.46400 2.21300 47.65700
C  43.82700 0.81900 47.51400
C  45.25900 0.69100 47.58900
C  45.68600 2.12000 47.49000
C  42.84300 -0.21600 47.37500
C  45.97700 -0.68800 47.56900
O  45.37700 -1.76200 47.53700
C  47.49800 -0.80900 47.60400
N  46.91800 5.06800 47.53500
C  47.57300 3.88200 47.35000
C  49.05700 4.16600 47.12500
C  49.19900 5.72600 46.95100
C  47.77300 6.16100 47.33100
C  49.95900 3.68700 48.20700
C  49.64200 6.14200 45.51400
C  48.92000 5.45700 44.33500
N  44.96000 7.15900 47.65500
C  46.04600 8.00800 47.50100
C  45.61700 9.32800 47.45700
C  44.19900 9.25600 47.63000
C  43.89500 7.89400 47.68600
C  46.51700 10.47400 47.12900
C  42.99500 10.02800 47.68300
O  42.69400 11.24300 47.62100
C  41.81700 8.94100 47.75800
C  40.96400 9.26000 48.97600
O  40.93800 8.67600 50.07700
O  40.10700 10.25100 48.58900
C  38.98400 10.46900 49.48100
H  41.35800 2.09900 47.63500
H  47.77600 1.90600 47.26500
H  48.13100 8.21700 46.99300
H  39.73300 6.53800 48.04100
H  39.94700 3.92700 46.72300
H  38.49500 4.58600 48.92000
H  39.90800 3.64300 49.59400
H  39.02800 2.98200 48.28100
H  39.05500 7.19200 46.11100
H  39.39900 5.52300 45.47500
H  41.69200 6.66500 45.10100
H  40.70000 8.15400 44.79400
H  42.76800 -0.85300 48.25600
H  43.12100 -1.04500 46.72400
H  41.79700 0.00100 47.15700
H  47.86000 -0.26200 48.47500
H  47.88000 -0.34500 46.69400
H  47.79300 -1.85800 47.57000
H  49.29600 3.67300 46.18300
H  49.92900 6.12600 47.65400
H  49.36800 3.58100 49.11700
H  50.70100 4.38400 48.59500
H  50.38400 2.71200 47.97100
H  50.72200 5.99100 45.52300
H  49.53500 7.21300 45.34600
H  47.95000 5.02100 44.57200
H  49.42900 4.60300 43.88800
H  48.67200 6.09300 43.48500
H  47.23900 10.10400 46.40000
H  47.00700 10.79100 48.04900
H  45.92000 11.28300 46.70900
H  41.17300 8.96800 46.87900
H  39.28400 10.64600 50.51400
H  38.28600 9.63300 49.44200
H  38.35200 11.31100 49.19600

