158

Mg 47.84800 24.86700 28.14800
C  48.60200 27.02100 30.89800
C  47.62700 22.24200 30.49100
C  47.31700 22.82200 25.65200
C  49.03600 27.31400 25.87900
N  48.01100 24.62800 30.42600
C  48.30500 25.68400 31.30600
C  48.28500 25.17400 32.76400
C  48.26200 23.67700 32.56900
C  47.91200 23.50800 31.10500
C  49.62200 22.94600 33.00500
C  47.06100 25.71000 33.57400
C  47.42500 26.67100 34.74600
H  46.42500 26.62300 35.83400
N  47.41300 22.78700 28.12800
C  47.25100 21.92500 29.13900
C  46.68300 20.69700 28.62300
C  46.45900 20.96900 27.27200
C  47.10100 22.21400 26.96100
C  46.46500 19.46700 29.48400
C  45.65300 20.10100 26.27900
O  45.38600 20.41500 25.12200
C  44.88200 18.97500 26.87000
N  48.28700 25.00200 26.06600
C  47.78400 24.04900 25.28400
C  47.81300 24.47400 23.76200
C  48.19400 26.03500 23.93300
C  48.52300 26.10400 25.38600
C  48.61300 23.60000 22.79500
C  46.99000 26.91400 23.50600
C  47.18200 27.87000 22.31900
N  48.65500 26.80700 28.33600
C  49.16300 27.62900 27.27500
C  49.64200 28.84300 27.97200
C  49.37400 28.70500 29.38200
C  48.82800 27.38200 29.56000
C  50.23600 30.02400 27.28900
C  49.46600 29.35000 30.66100
O  49.91400 30.43900 30.96400
C  48.91100 28.24500 31.68800
C  50.05700 28.01000 32.54900
O  50.92100 27.17600 32.49300
O  49.97800 28.96600 33.61100
C  50.99500 28.87700 34.64500
H  47.54100 21.45800 31.24600
H  46.95100 22.19100 24.83900
H  49.36500 28.06300 25.15600
H  49.16700 25.50100 33.31400
H  47.43200 23.22900 33.11500
H  50.09300 22.31600 32.25100
H  49.39900 22.22900 33.79500
H  50.31000 23.69300 33.40200
H  46.64100 24.86500 34.11900
H  46.33200 26.01100 32.82200
H  47.53400 27.68100 34.34900
H  48.37600 26.30600 35.13200
H  45.42800 19.13400 29.52600
H  46.74900 19.62400 30.52400
H  47.07400 18.67700 29.04400
H  45.61500 18.26000 27.24200
H  44.33500 18.57800 26.01500
H  44.22400 19.35500 27.65100
H  46.76500 24.45100 23.46500
H  49.11900 26.24000 23.39400
H  48.92400 22.71300 23.34600
H  49.51900 24.15300 22.54500
H  48.06200 23.36300 21.88500
H  46.74900 27.59800 24.32000
H  46.17600 26.24600 23.22400
H  46.29400 27.81000 21.69000
H  48.06800 27.52600 21.78400
H  47.28800 28.92000 22.59300
H  50.88400 30.41500 28.07300
H  49.50100 30.78800 27.03800
H  50.78200 29.57000 26.46100
H  48.07500 28.68500 32.23000
H  50.83500 28.10000 35.39200
H  50.96300 29.85400 35.12900
H  51.96700 28.82300 34.15400
Mg 9.42700 48.91700 24.76500
C  7.01600 49.63200 27.06200
C  11.84200 50.36100 26.97400
C  11.88700 48.13600 22.55200
C  7.01700 48.54000 22.35900
N  9.43000 49.81000 26.81400
C  8.25800 49.98800 27.61900
C  8.63900 50.56900 28.99100
C  10.16300 50.80700 28.89400
C  10.49400 50.35800 27.47600
C  10.62900 52.28300 29.29400
C  8.02100 49.85300 30.26100
C  8.86600 49.81600 31.61600
H  9.12500 48.38100 32.29500
N  11.61500 49.18500 24.79700
C  12.37600 49.76500 25.76500
C  13.79500 49.61600 25.36100
C  13.75500 48.84200 24.10300
C  12.36300 48.60900 23.81900
C  14.94000 49.97000 26.20300
C  14.93900 48.39300 23.25200
O  14.70300 47.74800 22.25300
C  16.36100 48.63600 23.63600
N  9.50100 48.43400 22.74000
C  10.60900 48.06100 22.06000
C  10.18000 47.65400 20.63700
C  8.65100 48.10400 20.51800
C  8.36200 48.30400 21.96600
C  11.03700 48.05800 19.42800
C  7.80800 47.07600 19.82900
C  7.34700 47.37500 18.41000
N  7.38000 48.92800 24.66400
C  6.51300 48.82700 23.58600
C  5.17400 48.86100 24.08800
C  5.35900 49.14300 25.44600
C  6.70500 49.28300 25.72700
C  3.87800 48.55600 23.31800
C  4.60100 49.37400 26.69600
O  3.42500 49.29500 27.01400
C  5.63400 49.79700 27.79600
C  5.50900 48.83200 28.86400
O  5.88900 47.65300 28.77500
O  4.87700 49.39900 29.96900
C  4.54100 48.37800 30.96300
H  12.56200 50.91800 27.57700
H  12.54600 47.90200 21.71400
H  6.21700 48.54500 21.61500
H  8.19700 51.56300 29.05700
H  10.64900 50.07900 29.54300
H  11.44100 52.08000 29.99300
H  9.73300 52.80100 29.63500
H  11.19000 52.76600 28.49400
H  7.75500 48.85100 29.92400
H  7.19500 50.52300 30.50000
H  8.27700 50.26000 32.41900
H  9.81900 50.34400 31.57900
H  14.68800 50.38200 27.18100
H  15.57800 50.73300 25.75700
H  15.51900 49.07400 26.42300
H  16.60500 48.34400 24.65700
H  16.56900 49.69000 23.45200
H  17.05700 48.09000 22.99900
H  10.16200 46.57800 20.80900
H  8.62000 49.08800 20.05000
H  12.02400 48.39800 19.74000
H  10.60700 48.86200 18.82900
H  11.14500 47.18600 18.78300
H  7.01200 46.78300 20.51300
H  8.42100 46.22200 19.54000
H  7.00500 48.40900 18.45200
H  6.58400 46.63700 18.16200
H  8.10100 47.41000 17.62400
H  3.55000 47.55000 23.58100
H  4.00500 48.64300 22.23900
H  3.16500 49.35200 23.53300
H  5.45700 50.81600 28.14200
H  3.88100 47.62900 30.52600
H  4.02200 48.94300 31.73700
H  5.45900 47.93600 31.35100

