158

Mg 40.83100 9.36800 29.07500
C  42.47300 10.53100 32.00300
C  38.50400 7.75900 31.27900
C  39.45800 8.05000 26.41300
C  43.40900 10.73600 27.17700
N  40.52700 9.15100 31.47800
C  41.26000 9.88200 32.39700
C  40.65700 9.73100 33.76900
C  39.56200 8.63500 33.60000
C  39.50900 8.48600 32.04400
C  39.76200 7.28100 34.42000
C  40.15500 11.01700 34.48000
C  39.68500 11.02600 36.09400
H  40.48100 11.97300 37.02600
N  39.23500 8.08600 28.83900
C  38.40000 7.59500 29.83000
C  37.34600 6.85500 29.21500
C  37.44600 7.04300 27.82900
C  38.76700 7.73400 27.61600
C  36.37000 5.95700 29.92000
C  36.58800 6.59700 26.64000
O  36.85100 6.90900 25.49400
C  35.32400 5.88900 26.93300
N  41.32500 9.41900 27.10100
C  40.53400 8.81800 26.17500
C  41.22000 8.91700 24.81900
C  42.37600 10.04600 24.98900
C  42.38000 10.13700 26.49200
C  41.58600 7.53700 24.08600
C  42.03900 11.41600 24.36500
C  40.86200 12.22600 24.83300
N  42.59000 10.42100 29.49700
C  43.55100 10.86200 28.59000
C  44.63600 11.48700 29.32500
C  44.15700 11.48700 30.64800
C  42.95100 10.72200 30.69500
C  45.89300 12.04800 28.69600
C  44.53300 11.86700 31.99400
O  45.44700 12.60500 32.36300
C  43.33200 11.40600 32.87400
C  43.84600 10.75200 34.11400
O  44.53200 9.73000 34.04200
O  43.34900 11.43600 35.24300
C  43.71300 10.72900 36.48500
H  37.70800 7.40000 31.93500
H  39.09100 7.73000 25.43600
H  44.22300 11.04600 26.51900
H  41.41200 9.24300 34.38600
H  38.56800 8.99300 33.86900
H  38.91600 7.08200 35.07800
H  40.50800 7.39700 35.20600
H  39.96700 6.32100 33.94800
H  39.27200 11.36000 33.94100
H  40.99900 11.69400 34.35200
H  39.72900 10.05800 36.59200
H  38.62000 11.25700 36.11800
H  35.34300 6.32100 29.93500
H  36.55000 5.82700 30.98700
H  36.23200 5.00500 29.40700
H  34.71400 6.43100 27.65500
H  35.59000 4.87500 27.23100
H  34.72300 5.88300 26.02400
H  40.46300 9.40700 24.20700
H  43.25800 9.55400 24.57800
H  41.70500 6.78800 24.86800
H  42.45900 7.48100 23.43600
H  40.72500 7.14700 23.54400
H  41.94800 11.19600 23.30200
H  42.92400 12.02300 24.55500
H  40.11200 12.22300 24.04200
H  41.24300 13.23300 25.00000
H  40.40800 11.87300 25.75900
H  46.25400 11.39000 27.90500
H  46.63400 12.08600 29.49400
H  45.87400 13.07200 28.32300
H  42.80500 12.32100 33.14600
H  43.76700 11.49800 37.25500
H  44.58900 10.09100 36.36400
H  42.88400 10.06200 36.71900
Mg 48.42500 46.21200 43.41800
C  45.21800 46.71800 41.91100
C  48.69500 43.37100 41.68400
C  51.68200 46.12600 44.26900
C  48.31800 49.63800 44.39700
N  47.06200 45.12700 41.97500
C  45.74200 45.44000 41.65300
C  45.16200 44.38300 40.64100
C  46.29300 43.27300 40.66400
C  47.48800 43.99600 41.45200
C  45.80200 41.89500 41.11900
C  44.86900 44.90300 39.20200
C  43.60600 44.37300 38.57800
H  43.61400 43.96000 37.13600
N  49.94500 44.87700 43.02900
C  49.76400 43.68700 42.42200
C  51.05200 42.97500 42.40800
C  51.98100 43.80100 43.13000
C  51.23600 45.02400 43.52800
C  51.22900 41.62200 41.71800
C  53.42700 43.37600 43.30600
O  53.91100 42.40600 42.76300
C  54.45100 44.12600 44.10800
N  49.83600 47.71400 44.25800
C  51.11200 47.36200 44.57100
C  51.85100 48.54900 45.31000
C  50.80800 49.71700 45.19200
C  49.57000 49.02100 44.56500
C  52.28800 48.24100 46.80000
C  51.20600 50.90800 44.30400
C  51.16400 52.29300 45.05500
N  47.13100 47.84600 43.27500
C  47.16700 49.13100 43.79800
C  45.92200 49.80300 43.52900
C  45.14200 48.93100 42.75600
C  45.93000 47.71500 42.65800
C  45.50300 51.32800 43.81500
C  43.85900 48.72400 42.01600
O  42.88800 49.47200 41.80500
C  43.87600 47.26900 41.48600
C  42.74100 46.48800 42.02000
O  42.50800 46.22100 43.16200
O  41.96900 45.96300 41.02200
C  41.00100 44.92900 41.34500
H  48.75600 42.37900 41.23100
H  52.68500 45.98500 44.67700
H  48.39600 50.68500 44.69800
H  44.19900 44.04900 41.02700
H  46.68100 43.16500 39.65100
H  45.99100 41.93000 42.19200
H  46.26300 41.00200 40.69600
H  44.73200 41.88600 40.91100
H  45.73300 44.56900 38.62700
H  44.88300 45.98900 39.10500
H  42.91400 45.21400 38.60200
H  43.14800 43.65800 39.26100
H  50.37900 40.98900 41.46200
H  51.66600 40.99800 42.49800
H  51.91500 41.79100 40.88800
H  54.11200 44.18900 45.14200
H  54.45100 45.08400 43.58800
H  55.42400 43.63700 44.06200
H  52.76100 48.77300 44.75200
H  50.49500 50.00800 46.19400
H  52.16200 47.18200 47.02900
H  51.80200 48.90000 47.51900
H  53.36300 48.40100 46.87900
H  50.52500 50.98400 43.45600
H  52.21100 50.82200 43.89300
H  52.14600 52.74800 45.18200
H  50.88100 52.17700 46.10200
H  50.46300 52.91900 44.50300
H  44.44200 51.37800 44.05800
H  45.78600 51.85800 42.90500
H  46.00100 51.78400 44.67100
H  43.88100 47.24600 40.39600
H  41.42700 43.98800 40.99500
H  40.05000 45.16200 40.86600
H  40.83500 44.79100 42.41300

