158

Mg 24.13700 -5.56000 45.33900
C  26.19600 -3.13900 43.86200
C  21.41700 -4.28400 43.55500
C  22.50900 -8.36600 45.83400
C  26.98900 -6.76700 47.03900
N  23.84500 -3.86500 43.93200
C  24.84400 -3.03300 43.47600
C  24.34700 -2.10400 42.34300
C  22.78700 -2.29500 42.48000
C  22.62100 -3.58200 43.40700
C  21.97700 -0.96900 42.92600
C  24.91400 -2.49300 40.94400
C  25.39800 -1.31000 40.07100
H  25.07900 -1.44000 38.56100
N  22.18000 -6.16900 44.94300
C  21.16800 -5.49300 44.23000
C  20.05600 -6.28200 44.09000
C  20.32000 -7.45400 44.75900
C  21.71700 -7.35200 45.20900
C  18.72800 -5.83900 43.36500
C  19.31800 -8.61600 44.99200
O  18.19900 -8.49300 44.46700
C  19.59300 -9.69300 45.97100
N  24.66700 -7.32700 46.39500
C  23.76900 -8.31100 46.44900
C  24.44700 -9.49700 47.18100
C  25.90000 -9.00500 47.63000
C  25.90200 -7.59900 47.00800
C  23.52600 -10.07100 48.36600
C  27.01400 -9.93300 47.10100
C  28.19300 -10.28400 47.96400
N  26.18900 -4.93700 45.57200
C  27.15600 -5.55900 46.33500
C  28.49800 -4.85900 46.20600
C  28.16800 -3.87700 45.16400
C  26.71100 -4.02800 44.83300
C  29.80500 -5.38900 46.70000
C  28.71500 -2.86900 44.15000
O  29.91400 -2.51400 43.88300
C  27.49200 -2.34300 43.39200
C  27.45400 -0.88100 43.60800
O  26.87300 -0.35500 44.57000
O  27.98100 -0.23900 42.55800
C  27.85100 1.22900 42.61800
H  20.61000 -3.91800 42.91600
H  22.01700 -9.32900 45.98800
H  27.81600 -7.18500 47.61600
H  24.57200 -1.08100 42.64500
H  22.38400 -2.63900 41.52800
H  22.64000 -0.11100 43.04100
H  21.70500 -1.24200 43.94500
H  21.11100 -0.76700 42.29500
H  24.12500 -2.89500 40.30800
H  25.70200 -3.22500 41.11600
H  26.46800 -1.12600 40.16600
H  24.97500 -0.44000 40.57400
H  18.79700 -6.02100 42.29200
H  18.74200 -4.76600 43.55700
H  17.76900 -6.24000 43.69200
H  18.62700 -10.02300 46.35200
H  20.17100 -9.26900 46.79200
H  20.16300 -10.44800 45.42900
H  24.48700 -10.30300 46.44900
H  25.83800 -8.89300 48.71300
H  24.13100 -10.39500 49.21200
H  23.16300 -11.03200 48.00100
H  22.68400 -9.41200 48.58000
H  27.34500 -9.50900 46.15300
H  26.56700 -10.87900 46.79600
H  28.13500 -11.32400 48.28800
H  28.17300 -9.63200 48.83800
H  29.01100 -10.12200 47.26100
H  30.13700 -4.90200 47.61700
H  30.55000 -5.36300 45.90500
H  29.86300 -6.40700 47.08400
H  27.63000 -2.48500 42.32000
H  27.83100 1.56300 41.58100
H  28.76700 1.66200 43.02100
H  26.99900 1.68400 43.12200
Mg 43.60400 42.34300 26.37200
C  42.80300 44.64900 28.88500
C  45.46600 40.51700 28.72700
C  44.61700 40.36400 24.03100
C  42.14900 44.44800 24.01300
N  44.12300 42.57600 28.53900
C  43.56300 43.58600 29.37800
C  44.00200 43.41000 30.83100
C  44.84900 42.12600 30.73900
C  44.85700 41.66600 29.32600
C  46.17300 42.04600 31.51400
C  42.89800 43.34500 31.90000
C  43.35700 44.06600 33.12600
H  42.48500 44.48300 34.31800
N  44.67800 40.58600 26.36900
C  45.45100 40.03000 27.36000
C  46.02300 38.76700 26.87700
C  45.61700 38.64900 25.50200
C  44.88400 39.88700 25.24900
C  46.67400 37.86100 27.84600
C  45.96500 37.57800 24.49900
O  45.47100 37.49900 23.34400
C  46.78400 36.39500 24.98600
N  43.59200 42.54100 24.27900
C  44.04100 41.51800 23.53600
C  43.90600 41.78600 22.00900
C  42.81700 42.92700 22.06600
C  42.93800 43.36300 23.50200
C  45.31500 42.25800 21.47700
C  41.48600 42.46100 21.43700
C  40.79400 41.31100 22.33700
N  42.75600 44.18900 26.41300
C  42.20900 44.93000 25.36900
C  41.62700 46.16000 25.89000
C  41.77600 46.11600 27.23100
C  42.49500 44.90600 27.49300
C  41.05800 47.29900 25.12200
C  41.61100 46.82600 28.50900
O  41.07500 47.89500 28.83500
C  42.30200 45.91300 29.64700
C  43.37900 46.67700 30.41900
O  44.54900 46.86200 30.09800
O  42.80100 47.23600 31.50500
C  43.78400 48.00400 32.27300
H  45.91800 39.95700 29.54900
H  45.00300 39.80400 23.17700
H  41.65000 45.06700 23.26300
H  44.73300 44.17900 31.08000
H  44.15500 41.36900 31.10400
H  45.99500 41.49900 32.44100
H  46.43800 43.02900 31.90300
H  46.99400 41.66400 30.90800
H  42.77800 42.31500 32.23500
H  41.90300 43.62400 31.55300
H  43.77000 45.02600 32.81500
H  44.21100 43.59500 33.61300
H  46.59800 38.23000 28.86800
H  47.73800 37.78500 27.62400
H  46.12300 36.92100 27.89400
H  46.41500 36.00500 25.93500
H  47.81300 36.73000 25.11700
H  46.76100 35.59900 24.24200
H  43.50700 40.88300 21.54700
H  43.12500 43.82400 21.52900
H  45.04200 42.95800 20.68700
H  45.87200 41.40300 21.09300
H  45.98500 42.64400 22.24500
H  41.81100 42.13400 20.44900
H  40.85900 43.34600 21.33200
H  40.05200 41.75900 22.99700
H  41.50900 40.75400 22.94300
H  40.45600 40.50900 21.68100
H  41.90400 47.96300 24.94600
H  40.49200 47.89200 25.84100
H  40.42700 47.17800 24.24100
H  41.51900 45.63600 30.35300
H  44.64000 47.40100 32.57600
H  43.30400 48.28000 33.21200
H  44.29800 48.77800 31.70300

