158

Mg 44.86000 4.73700 47.47300
C  42.81600 7.50400 47.14300
C  42.07400 2.77600 46.92100
C  46.93700 2.11500 47.09600
C  47.52500 6.93800 47.51100
N  42.67500 5.17200 47.07400
C  42.06400 6.35600 46.96400
C  40.57700 6.22000 46.55300
C  40.34300 4.70900 46.96300
C  41.80300 4.15600 47.02800
C  39.46300 4.45400 48.26100
C  40.44300 6.41500 45.01600
C  39.72800 7.63900 44.58600
H  40.17600 8.38200 43.28700
N  44.51400 2.72800 47.18200
C  43.31500 2.12700 46.94900
C  43.49000 0.68500 46.75000
C  44.92200 0.46400 46.82300
C  45.55500 1.76900 47.05200
C  42.40800 -0.35600 46.49200
C  45.49300 -0.90900 46.72200
O  44.79900 -1.87200 46.59400
C  46.96600 -1.18600 46.82900
N  46.92100 4.55700 47.18200
C  47.55900 3.33600 47.33600
C  49.10200 3.48000 47.39800
C  49.25100 4.95500 47.72200
C  47.84100 5.54000 47.53600
C  49.70100 2.50300 48.42000
C  50.44900 5.70500 47.00300
C  51.36100 6.66000 47.75800
N  45.15300 6.79800 47.35800
C  46.31300 7.54700 47.32900
C  45.95300 8.99000 47.35200
C  44.60600 8.99900 47.31800
C  44.19500 7.63200 47.23800
C  46.95400 10.22000 47.37200
C  43.40200 9.80000 47.31900
O  43.29300 11.04400 47.40300
C  42.17700 8.87700 47.11200
C  41.25800 9.07300 48.33000
O  41.21600 8.32900 49.32900
O  40.34200 10.07800 48.04900
C  39.33300 10.29700 49.08300
H  41.16600 2.21900 46.68100
H  47.59300 1.24200 47.09400
H  48.34000 7.65900 47.59600
H  39.93800 6.92100 47.08900
H  40.00500 4.14200 46.09500
H  38.81800 5.31700 48.42600
H  40.18700 4.33200 49.06700
H  38.98400 3.47500 48.24400
H  39.94000 5.53600 44.61200
H  41.47900 6.42900 44.67900
H  39.69900 8.35700 45.40500
H  38.67300 7.44800 44.38900
H  42.62800 -0.85200 45.54600
H  41.44000 0.11400 46.31500
H  42.17400 -1.02800 47.31800
H  47.29000 -2.22000 46.71100
H  47.28800 -0.85100 47.81500
H  47.55600 -0.62400 46.10500
H  49.44400 3.21100 46.39800
H  49.31200 5.23100 48.77500
H  50.32200 3.05700 49.12500
H  50.36700 1.74900 48.00200
H  48.95400 1.94600 48.98600
H  49.96300 6.39300 46.31200
H  51.04500 5.01500 46.40600
H  51.06400 6.58400 48.80400
H  51.18100 7.69300 47.46000
H  52.43300 6.49400 47.65000
H  47.41900 10.36400 46.39700
H  47.72500 10.04400 48.12300
H  46.44200 11.14600 47.63500
H  41.65700 9.10700 46.18200
H  38.92900 11.27800 48.83200
H  39.70300 10.38300 50.10500
H  38.49300 9.62700 48.90100
Mg -10.89900 39.53000 40.61300
C  -9.45900 36.43300 39.72400
C  -8.42400 41.14600 39.07500
C  -12.85300 42.29900 40.75900
C  -13.86600 37.52400 41.62500
N  -9.29400 38.76900 39.21600
C  -8.78000 37.53600 39.08600
C  -7.43100 37.51700 38.34900
C  -7.07200 39.06500 38.37600
C  -8.33500 39.70100 38.90100
C  -5.76600 39.40200 39.13000
C  -7.47600 36.77000 37.00500
C  -6.95300 37.49700 35.74900
H  -8.02100 38.22300 34.91400
N  -10.65600 41.46700 39.98700
C  -9.49100 42.00600 39.47200
C  -9.53800 43.42300 39.45800
C  -10.83300 43.77100 39.95600
C  -11.53400 42.46100 40.26900
C  -8.38200 44.33600 38.99400
C  -11.38900 45.23700 40.01800
O  -10.66800 46.15800 39.76600
C  -12.86200 45.58300 40.23600
N  -13.15000 39.81500 40.78600
C  -13.57500 41.10200 40.98900
C  -15.00200 41.11800 41.60400
C  -15.41700 39.67300 41.72000
C  -14.11700 38.93800 41.38500
C  -15.07200 41.93000 42.93000
C  -16.46800 39.26800 40.69700
C  -17.30300 37.98800 40.94300
N  -11.52200 37.45200 40.85400
C  -12.69100 36.84100 41.28800
C  -12.38700 35.44200 41.50100
C  -11.15500 35.23300 40.93400
C  -10.69200 36.45700 40.43800
C  -13.35700 34.39900 42.11000
C  -10.18500 34.24100 40.52600
O  -10.17000 33.02900 40.69900
C  -9.05300 34.99300 39.74700
C  -7.79200 34.66700 40.46500
O  -7.33800 33.53400 40.43800
O  -7.22400 35.75400 41.15900
C  -6.18400 35.32100 42.11400
H  -7.54100 41.67900 38.71700
H  -13.37900 43.24100 40.92800
H  -14.61900 36.97800 42.19800
H  -6.71500 36.95500 38.94900
H  -6.88700 39.47100 37.38100
H  -5.20900 40.05100 38.45500
H  -5.26700 38.48100 39.43300
H  -6.03300 40.05900 39.95700
H  -8.52900 36.52900 36.86500
H  -6.75500 35.96900 37.16800
H  -6.38800 36.91500 35.02100
H  -6.15300 38.18800 36.01900
H  -7.47900 43.73500 38.88100
H  -8.16100 45.09700 39.74200
H  -8.62300 44.75100 38.01500
H  -12.99200 46.56500 39.78000
H  -13.12000 45.56100 41.29500
H  -13.43800 44.83800 39.68800
H  -15.61100 41.63100 40.86000
H  -15.73000 39.45700 42.74100
H  -15.73800 41.45900 43.65300
H  -15.51100 42.90600 42.72700
H  -14.10900 42.04000 43.43000
H  -15.97100 39.23500 39.72800
H  -17.20600 40.05800 40.55700
H  -17.11200 37.24800 40.16500
H  -18.36300 38.23900 40.97900
H  -17.12800 37.54500 41.92300
H  -13.15700 33.41300 41.69200
H  -14.39300 34.72200 42.01200
H  -13.12700 34.43600 43.17500
H  -9.09700 34.55700 38.74900
H  -6.51800 34.66800 42.92000
H  -5.67900 36.15000 42.60900
H  -5.36200 34.82500 41.59700

