158

Mg 43.96200 4.89400 46.96500
C  41.73200 7.75900 46.93500
C  41.09800 2.98700 46.49400
C  45.93000 2.30600 46.26000
C  46.70000 6.99000 46.92800
N  41.65500 5.37800 46.55900
C  41.01600 6.58500 46.79600
C  39.50600 6.37100 46.75100
C  39.30100 4.87500 46.66100
C  40.76400 4.33300 46.63900
C  38.50300 4.43500 47.84700
C  38.73500 7.26900 45.70300
C  39.52000 7.43600 44.40500
H  38.79400 7.41900 43.07000
N  43.58600 2.88500 46.54000
C  42.36800 2.32400 46.39300
C  42.51000 0.91400 46.02400
C  43.92600 0.69500 45.97700
C  44.57600 2.00700 46.29000
C  41.36300 -0.04200 45.62800
C  44.54300 -0.62700 45.55800
O  43.81000 -1.55100 45.31700
C  46.02600 -0.88900 45.34600
N  46.10500 4.66600 46.50500
C  46.63700 3.45000 46.50600
C  48.19700 3.52600 46.80200
C  48.45000 5.13000 46.86400
C  47.05400 5.66800 46.73400
C  48.65000 2.73600 48.06800
C  49.34400 5.73000 45.67600
C  50.66700 6.38800 46.28000
N  44.21800 6.98200 47.00800
C  45.40600 7.72200 47.01100
C  45.09200 9.10800 47.21700
C  43.62800 9.13500 47.19400
C  43.14300 7.86700 46.96100
C  46.10400 10.19100 47.43700
C  42.48800 10.03100 47.27300
O  42.44900 11.29400 47.30200
C  41.21300 9.16100 47.21900
C  40.49400 9.20600 48.50600
O  40.74900 8.45700 49.39500
O  39.48500 10.18100 48.51500
C  38.70500 10.31200 49.78900
H  40.24500 2.32400 46.33300
H  46.68300 1.53300 46.09200
H  47.49000 7.74300 46.97400
H  39.14800 6.76400 47.70300
H  38.70300 4.63600 45.78200
H  39.06500 4.80600 48.70400
H  38.46500 3.34800 47.91700
H  37.55700 4.97300 47.89600
H  38.63200 8.30000 46.04300
H  37.77400 6.85200 45.40100
H  40.26200 6.64700 44.28500
H  40.14500 8.31300 44.56800
H  41.28300 -0.89700 46.30000
H  41.57400 -0.31400 44.59400
H  40.35800 0.37900 45.66400
H  46.60900 -0.64100 46.23400
H  46.34900 -0.18700 44.57700
H  46.25500 -1.88500 44.96700
H  48.84400 3.13700 46.01600
H  48.90400 5.43000 47.80800
H  48.01000 2.95300 48.92300
H  49.70300 2.92800 48.27600
H  48.61000 1.68800 47.77100
H  48.78900 6.48600 45.12100
H  49.59600 4.86300 45.06400
H  51.05400 6.98500 45.45400
H  51.35900 5.66600 46.71300
H  50.31400 7.05300 47.06800
H  47.05900 9.88600 47.00900
H  46.36100 10.40300 48.47500
H  45.90400 11.08300 46.84300
H  40.55800 9.55400 46.44200
H  38.59900 11.33900 50.13800
H  39.03600 9.81200 50.69800
H  37.77400 9.78500 49.58200
Mg 27.43300 50.45100 26.80400
C  25.13500 51.37700 29.16100
C  29.75500 50.27000 29.19700
C  29.73400 50.12100 24.26900
C  25.07900 51.31500 24.33500
N  27.44100 50.76500 28.90400
C  26.34100 50.89000 29.66200
C  26.59600 50.69700 31.16400
C  28.15700 50.30700 31.16000
C  28.48000 50.50000 29.69100
C  29.03800 51.05700 32.17100
C  25.65000 49.63300 31.89400
C  24.85900 50.19400 33.09800
H  24.80300 49.47900 34.40600
N  29.46800 50.04100 26.75100
C  30.24900 50.04300 27.86800
C  31.61200 49.90800 27.49300
C  31.65300 49.80500 26.07500
C  30.21900 49.95400 25.58900
C  32.71400 49.98700 28.48100
C  32.84400 49.62300 25.13300
O  32.76100 49.80200 23.90500
C  34.20000 49.27400 25.78400
N  27.39100 50.56000 24.70800
C  28.40500 50.32900 23.92300
C  28.02600 50.42500 22.43300
C  26.50400 50.66800 22.42100
C  26.32900 50.78600 23.94900
C  28.99100 51.30600 21.62900
C  25.71200 49.53800 21.73000
C  25.66100 48.27400 22.54800
N  25.45600 51.23900 26.70100
C  24.61000 51.52400 25.68600
C  23.37200 52.07900 26.17300
C  23.53400 51.97400 27.55900
C  24.78800 51.51300 27.80100
C  22.21300 52.50400 25.35400
C  22.79300 52.19500 28.78800
O  21.65900 52.59700 28.99500
C  23.84700 51.73800 29.91200
C  24.03700 52.85500 30.84200
O  24.89700 53.74200 30.73800
O  23.22400 52.72600 31.92300
C  23.44400 53.79400 32.94500
H  30.48900 50.14200 29.99600
H  30.52900 49.95300 23.54000
H  24.35300 51.54400 23.55300
H  26.47800 51.61100 31.74600
H  28.22100 49.22700 31.28800
H  29.42100 50.32500 32.88300
H  28.47500 51.85000 32.66300
H  29.91600 51.46900 31.67400
H  26.26500 48.75200 32.08100
H  24.84900 49.33900 31.21600
H  23.82500 50.43200 32.84700
H  25.26200 51.17000 33.36700
H  33.05300 48.99900 28.79500
H  32.36100 50.52000 29.36400
H  33.67400 50.35700 28.12300
H  34.92000 48.94500 25.03600
H  34.11700 48.45900 26.50400
H  34.71100 50.12700 26.23100
H  28.12300 49.39300 22.09600
H  26.49500 51.68100 22.02000
H  29.87000 51.65000 22.17300
H  28.40700 52.10300 21.16700
H  29.26600 50.53600 20.90900
H  26.22100 49.30500 20.79500
H  24.72700 49.91000 21.44800
H  25.64700 47.45700 21.82600
H  24.71400 48.17900 23.08000
H  26.46200 48.13700 23.27400
H  22.22100 53.59000 25.44900
H  21.21100 52.18200 25.63800
H  22.42400 52.33300 24.29900
H  23.46000 50.90300 30.49400
H  23.59900 54.80000 32.55700
H  24.23300 53.40700 33.59000
H  22.49900 54.00700 33.44500

