158

Mg 17.51600 -1.21300 28.21100
C  16.53700 0.67400 31.02100
C  19.70300 -3.03400 30.24500
C  19.03700 -2.60500 25.54700
C  15.83000 1.00500 26.17300
N  18.17200 -1.01300 30.31900
C  17.45200 -0.34900 31.31400
C  17.96100 -0.64900 32.74800
C  19.10100 -1.70300 32.39600
C  18.92500 -2.00200 30.90800
C  20.55900 -1.30100 32.61000
C  16.90000 -1.18200 33.76000
C  16.68900 -0.19800 34.94200
H  17.86700 0.45300 35.51400
N  18.90100 -2.88500 27.95300
C  19.64500 -3.46700 28.90400
C  20.55900 -4.35800 28.23100
C  20.19500 -4.34000 26.83000
C  19.32200 -3.28000 26.74600
C  21.43700 -5.35400 29.06300
C  20.71100 -5.19500 25.70500
O  20.59600 -4.96600 24.54200
C  21.53900 -6.50400 25.90800
N  17.54700 -0.74200 26.11100
C  18.23700 -1.53700 25.25600
C  18.15500 -1.01400 23.86000
C  17.06400 0.05100 24.04200
C  16.78100 0.16800 25.54600
C  19.56600 -0.67300 23.28600
C  15.82300 -0.26400 23.12100
C  14.64100 -0.86300 23.84200
N  16.36900 0.51500 28.48900
C  15.63100 1.24800 27.59500
C  14.88000 2.28700 28.30200
C  15.22200 2.00700 29.64600
C  16.15000 0.99700 29.75100
C  14.05100 3.33600 27.67400
C  14.89900 2.47100 30.96300
O  14.16200 3.32100 31.40400
C  15.78000 1.63700 31.90000
C  16.68600 2.64000 32.57000
O  17.82800 2.80600 32.17500
O  16.01000 3.17700 33.63000
C  16.82100 4.11700 34.44400
H  20.35300 -3.62200 30.89600
H  19.46300 -2.87400 24.57800
H  15.31500 1.71600 25.52300
H  18.43600 0.27400 33.08000
H  18.85000 -2.63000 32.91300
H  21.02200 -0.92400 31.69800
H  21.19700 -2.04200 33.09300
H  20.61700 -0.48600 33.33100
H  17.09500 -2.18100 34.15200
H  15.94900 -1.37000 33.26100
H  16.17100 -0.72400 35.74300
H  15.99800 0.56100 34.57700
H  22.15300 -4.81000 29.67900
H  22.07100 -5.89800 28.36300
H  20.76100 -6.02600 29.59100
H  21.16100 -7.15700 26.69500
H  22.55400 -6.22200 26.18600
H  21.60000 -7.05300 24.96800
H  17.77700 -1.87100 23.30300
H  17.41800 1.04500 23.76900
H  20.47800 -1.00400 23.78200
H  19.68200 0.41100 23.26600
H  19.68200 -1.09600 22.28800
H  16.04900 -1.03200 22.38100
H  15.47500 0.68000 22.70300
H  14.05500 -0.00800 24.18000
H  15.00500 -1.39000 24.72400
H  14.08000 -1.55400 23.21300
H  14.50000 3.70500 26.75200
H  14.03500 4.13500 28.41500
H  13.03200 3.07500 27.38800
H  15.15600 1.27100 32.71500
H  17.85800 4.36300 34.21600
H  16.76700 3.79900 35.48500
H  16.28600 5.06600 34.49300
Mg 6.01100 54.56600 40.44900
C  5.90800 51.04900 40.65100
C  9.29700 54.09600 39.34200
C  5.97800 57.75200 39.89000
C  2.63400 54.52900 41.61700
N  7.38400 52.70200 39.85500
C  7.14100 51.44100 40.15900
C  8.38700 50.55700 39.86500
C  9.54200 51.57500 39.66700
C  8.69100 52.90200 39.55800
C  10.46900 51.67800 40.85300
C  8.29400 49.73200 38.53400
C  7.35000 50.17600 37.39400
H  7.92800 50.42300 36.04700
N  7.36900 55.77900 39.65700
C  8.72500 55.44300 39.36300
C  9.44200 56.61700 39.01600
C  8.51800 57.77600 39.13300
C  7.22400 57.15100 39.57900
C  10.85500 56.61900 38.50500
C  8.79900 59.21700 38.78200
O  9.85300 59.58700 38.35100
C  7.76300 60.31200 38.87400
N  4.44900 55.88400 40.54100
C  4.82400 57.23900 40.37500
C  3.60800 58.12800 40.62300
C  2.59900 57.13300 41.29000
C  3.21400 55.76800 41.08600
C  3.90400 59.42100 41.40600
C  1.25300 57.23200 40.62900
C  0.17900 57.53700 41.68700
N  4.52700 53.12200 40.90300
C  3.24100 53.22700 41.46300
C  2.78700 51.94500 42.03800
C  3.81000 51.04700 41.73300
C  4.74600 51.79300 40.95800
C  1.56800 51.66800 42.94000
C  4.32000 49.70400 41.93500
O  3.93300 48.68400 42.49200
C  5.58300 49.64200 41.10200
C  5.24900 48.64300 40.00100
O  4.88000 48.96200 38.87900
O  5.56400 47.39200 40.39300
C  5.14400 46.30100 39.43100
H  10.36700 53.95900 39.17700
H  5.88600 58.81000 39.63300
H  1.61500 54.56200 42.00600
H  8.54300 49.88100 40.70600
H  10.18500 51.49800 38.79000
H  10.20800 52.30500 41.70500
H  11.44200 51.89800 40.41300
H  10.45000 50.69100 41.31500
H  7.83100 48.80400 38.87100
H  9.26400 49.48300 38.10400
H  6.85700 51.11800 37.63600
H  6.61000 49.38300 37.29100
H  10.84000 57.12300 37.53900
H  11.18800 55.60300 38.29400
H  11.58700 57.17300 39.09200
H  8.27200 61.26400 38.72200
H  7.52800 60.29800 39.93800
H  6.92100 60.23700 38.18600
H  3.23500 58.44400 39.64900
H  2.56900 57.28700 42.36800
H  3.21500 59.38200 42.25000
H  3.52000 60.24600 40.80700
H  4.98100 59.51600 41.54600
H  1.05300 56.36500 39.99900
H  1.10100 58.08600 39.96900
H  -0.56900 56.75900 41.53200
H  -0.25400 58.53000 41.57100
H  0.48800 57.35400 42.71700
H  1.48400 50.59300 43.09900
H  0.64900 51.91800 42.41000
H  1.59200 52.41700 43.73200
H  6.35000 49.12900 41.68200
H  5.04700 45.36900 39.98800
H  5.82900 46.14900 38.59700
H  4.16500 46.58800 39.04700

