158

Mg 39.67900 8.39500 29.22300
C  41.77000 9.59700 31.82200
C  37.29300 7.76200 31.53600
C  37.99600 6.74100 26.82500
C  42.41600 8.81400 27.05200
N  39.59600 8.59700 31.46900
C  40.48000 9.29000 32.20600
C  39.88900 9.38800 33.63600
C  38.58500 8.57200 33.59600
C  38.42400 8.26500 32.09000
C  38.49400 7.35700 34.58700
C  39.73000 10.82500 34.31200
C  39.13900 10.81300 35.71300
H  40.02600 11.23400 36.90700
N  37.88500 7.44300 29.17900
C  37.00000 7.34600 30.22300
C  35.79200 6.72200 29.70900
C  36.08500 6.27900 28.38400
C  37.38400 6.78900 28.03800
C  34.61600 6.48400 30.65100
C  35.29100 5.47200 27.37500
O  35.57900 5.11400 26.23300
C  33.86800 5.04900 27.80300
N  40.13500 7.87700 27.27600
C  39.29800 7.20300 26.42400
C  39.82300 7.09500 25.01500
C  41.06700 7.94900 25.09100
C  41.27000 8.19400 26.55000
C  40.05300 5.69400 24.38800
C  41.10200 9.29100 24.28200
C  40.32000 10.48200 24.94300
N  41.70700 9.08300 29.30700
C  42.63300 9.22500 28.38600
C  43.84600 9.85800 28.96000
C  43.48000 9.99800 30.28500
C  42.24900 9.41300 30.53200
C  45.01000 10.23800 28.14600
C  43.83700 10.68200 31.52500
O  44.78300 11.46000 31.71700
C  42.87500 10.23000 32.64800
C  43.50300 9.24700 33.56300
O  43.38600 8.02900 33.46400
O  44.26200 9.91400 34.48200
C  44.52800 9.14000 35.72600
H  36.38100 7.69600 32.13200
H  37.45300 6.35300 25.96100
H  43.15600 8.93000 26.25700
H  40.62900 8.84400 34.22300
H  37.69800 9.15600 33.84300
H  37.83300 7.63200 35.40900
H  39.42300 7.09400 35.09400
H  38.02600 6.52700 34.05800
H  39.00400 11.24800 33.61800
H  40.63200 11.43600 34.29100
H  38.80100 9.80300 35.94100
H  38.33600 11.54900 35.66500
H  33.72400 7.00600 30.30500
H  34.82900 6.60000 31.71400
H  34.34100 5.43400 30.54700
H  34.03300 4.26700 28.54300
H  33.36200 4.78600 26.87400
H  33.31600 5.87100 28.26000
H  39.11300 7.58800 24.35100
H  41.90700 7.33800 24.76100
H  41.04400 5.63700 23.93800
H  39.34800 5.48300 23.58400
H  39.95300 4.89000 25.11600
H  40.64900 9.15000 23.30100
H  42.13500 9.61500 24.15300
H  39.62600 10.24500 25.75000
H  39.63700 10.94200 24.22900
H  41.05500 11.25300 25.17500
H  44.74500 10.18000 27.09000
H  45.83900 9.57500 28.39700
H  45.37600 11.24200 28.35800
H  42.70500 11.16500 33.18200
H  43.57600 8.89600 36.19600
H  45.07600 9.85800 36.33600
H  45.17700 8.27200 35.60700
Mg 48.10700 34.08800 26.86500
C  46.06600 32.90500 29.41100
C  48.75100 36.89200 28.78000
C  49.59600 35.59600 24.17100
C  47.26100 31.34600 24.87300
N  47.54000 34.75200 28.85300
C  46.75200 34.08600 29.75300
C  47.01400 34.76900 31.19500
C  47.35700 36.20400 30.74400
C  47.96100 35.95300 29.39400
C  46.31400 37.42600 30.84600
C  48.13100 34.06400 32.13000
C  47.99200 33.98800 33.67600
H  47.08700 35.00700 34.48200
N  49.07600 35.95900 26.51800
C  49.23500 36.90700 27.47200
C  50.08000 37.94400 26.93400
C  50.32500 37.62600 25.56400
C  49.67500 36.33900 25.33600
C  50.55700 39.19600 27.71800
C  50.97200 38.56300 24.54500
O  51.02100 38.26100 23.37700
C  51.66300 39.84600 24.90000
N  48.28800 33.59300 24.85800
C  48.92300 34.40500 23.93100
C  48.88100 33.70500 22.57200
C  48.65000 32.16700 22.90600
C  48.07100 32.30600 24.31000
C  47.79700 34.36400 21.61000
C  49.97800 31.32900 22.89300
C  50.91500 31.54800 24.08800
N  46.90900 32.42300 27.02500
C  46.70800 31.38400 26.18700
C  45.85600 30.43100 26.81000
C  45.64700 30.94800 28.12800
C  46.31000 32.17000 28.17700
C  45.40300 29.14900 26.15900
C  44.95400 30.71900 29.42500
O  44.31200 29.75800 29.86600
C  45.13700 32.13100 30.23300
C  45.51200 31.82000 31.58000
O  46.39100 31.03700 31.88200
O  44.68400 32.49500 32.42000
C  44.77800 32.02100 33.81800
H  48.96900 37.81800 29.31600
H  50.12300 36.07900 23.34600
H  47.22800 30.39300 24.34200
H  46.14900 34.76700 31.85800
H  48.19300 36.64100 31.29000
H  46.49600 38.02800 31.73600
H  45.29700 37.03500 30.79600
H  46.44200 37.98900 29.92200
H  49.08400 34.56300 31.95000
H  48.16700 33.06500 31.69700
H  48.97800 33.97800 34.13900
H  47.68200 32.96500 33.89100
H  51.62500 38.98000 27.69700
H  50.24300 39.12800 28.75900
H  50.24600 40.16700 27.33300
H  52.25100 39.66900 25.80000
H  50.87600 40.60000 24.91200
H  52.38200 40.02300 24.10000
H  49.90800 33.89800 22.26400
H  47.95600 31.63600 22.25400
H  47.27200 35.21000 22.05400
H  47.13300 33.60000 21.20600
H  48.30500 34.75400 20.72800
H  50.44700 31.58300 21.94200
H  49.71200 30.27300 22.91100
H  50.61600 31.10000 25.03600
H  51.15000 32.59900 24.25700
H  51.91600 31.16900 23.87900
H  46.02500 28.88600 25.30300
H  44.37200 29.14400 25.80600
H  45.58600 28.35700 26.88600
H  44.10500 32.47600 30.28100
H  45.76200 32.13900 34.27200
H  44.43900 30.99500 33.96200
H  44.15800 32.70000 34.40300

