158

Mg 46.45700 24.82900 28.42900
C  47.51700 27.23400 30.93000
C  45.17900 22.94600 30.92800
C  45.76600 22.45600 26.04400
C  48.33200 26.73100 26.13800
N  46.21200 25.19000 30.64600
C  46.76000 26.18000 31.47600
C  46.11900 26.03900 32.84100
C  45.58100 24.53500 32.92100
C  45.66900 24.17600 31.42200
C  46.28900 23.54500 34.01700
C  44.96200 27.07100 33.13800
C  44.99700 27.80800 34.56200
H  45.74800 27.11300 35.68000
N  45.59600 22.97800 28.48700
C  45.11200 22.39000 29.64100
C  44.57400 21.13900 29.35800
C  44.57800 20.98400 27.92400
C  45.28700 22.15600 27.40300
C  43.83400 20.23300 30.39900
C  44.04400 19.93600 26.96800
O  44.00800 20.09800 25.76200
C  43.42400 18.64300 27.43400
N  47.05000 24.58700 26.45700
C  46.48100 23.61200 25.69900
C  46.94000 23.84300 24.24500
C  47.66800 25.25800 24.16900
C  47.66600 25.54900 25.68800
C  47.71400 22.65000 23.60500
C  46.77800 26.36000 23.45000
C  47.49300 26.92500 22.22000
N  47.61200 26.68900 28.46400
C  48.33700 27.29500 27.40900
C  48.87600 28.54400 27.88400
C  48.58800 28.57100 29.26300
C  47.85700 27.37300 29.59600
C  49.64700 29.48900 26.95400
C  48.87500 29.25900 30.50700
O  49.66200 30.19600 30.72800
C  48.17100 28.40200 31.58900
C  49.21900 28.12600 32.61100
O  50.05300 27.22500 32.54400
O  48.99900 28.85100 33.76500
C  49.83600 28.57500 34.97500
H  44.81000 22.27200 31.70400
H  45.51500 21.82500 25.18900
H  48.78600 27.24800 25.29000
H  46.96900 26.12300 33.51800
H  44.51800 24.50500 33.15800
H  45.56100 23.23100 34.76500
H  47.17800 24.09500 34.32600
H  46.68400 22.71500 33.43200
H  43.97100 26.65900 32.94800
H  45.14200 27.83800 32.38500
H  43.98700 27.81800 34.97200
H  45.25600 28.85200 34.38700
H  42.79800 20.06100 30.10700
H  44.01400 20.55700 31.42500
H  44.17500 19.21700 30.20500
H  44.11600 18.08100 28.06200
H  43.18400 18.08000 26.53200
H  42.50800 18.85800 27.98400
H  45.99500 23.86000 23.70300
H  48.69600 25.23800 23.80700
H  48.29400 22.19300 24.40700
H  48.33500 23.07700 22.81700
H  47.00600 21.96300 23.14300
H  46.55900 27.20400 24.10400
H  45.80500 25.95300 23.17700
H  47.31000 26.30200 21.34500
H  48.56200 26.87500 22.42600
H  47.25700 27.98200 22.10600
H  48.95800 29.86700 26.19900
H  50.33200 28.78800 26.47600
H  50.13000 30.31400 27.47600
H  47.36300 28.97100 32.04900
H  50.24300 29.53500 35.29100
H  50.63600 27.83700 34.90600
H  49.17800 28.31300 35.80400
Mg -11.44600 38.21900 42.73100
C  -9.39400 35.53800 41.49200
C  -9.27700 40.41400 41.33400
C  -13.92400 40.42700 43.18600
C  -13.71600 35.62800 43.57600
N  -9.63100 37.97700 41.54200
C  -8.92800 36.83800 41.14300
C  -7.70100 37.08900 40.25600
C  -7.59400 38.62800 40.53300
C  -8.92200 39.06000 41.17300
C  -6.36600 38.99700 41.33400
C  -8.01700 36.69900 38.76400
C  -7.18500 35.62600 38.06400
H  -6.14500 35.90900 36.97800
N  -11.56800 40.17600 42.30200
C  -10.54400 40.95900 41.78200
C  -10.96600 42.36800 41.93300
C  -12.25300 42.35000 42.56500
C  -12.64400 40.96100 42.68400
C  -10.07400 43.55400 41.59700
C  -12.97400 43.64600 42.89200
O  -12.62900 44.78800 42.58300
C  -14.18700 43.49900 43.62100
N  -13.52600 38.04500 43.30700
C  -14.30600 39.14200 43.47500
C  -15.78900 38.81000 43.73400
C  -15.69900 37.24400 43.98600
C  -14.24900 36.94500 43.52100
C  -16.35800 39.43800 45.04700
C  -16.74800 36.35900 43.39800
C  -18.03000 36.42600 44.25000
N  -11.48900 36.01500 42.83000
C  -12.50100 35.16800 43.16600
C  -11.96500 33.77800 43.14900
C  -10.75700 33.84600 42.40000
C  -10.50000 35.29100 42.27300
C  -12.52500 32.53800 43.72500
C  -9.57800 33.13500 41.84300
O  -9.30500 31.98500 41.86500
C  -8.61000 34.21600 41.26200
C  -7.14800 34.09700 41.58700
O  -6.60700 34.39700 42.64700
O  -6.40900 33.42000 40.65600
C  -5.03600 33.02800 40.98200
H  -8.45300 41.12600 41.24700
H  -14.86100 40.97900 43.28000
H  -14.33800 34.82100 43.96800
H  -6.83300 36.58400 40.67900
H  -7.51500 39.16700 39.58800
H  -6.62700 39.56600 42.22700
H  -5.64400 39.48400 40.67800
H  -5.84300 38.10800 41.68600
H  -8.18500 37.55800 38.11400
H  -8.99600 36.24200 38.90800
H  -7.88500 34.86500 37.71900
H  -6.57500 35.13400 38.82200
H  -10.56700 44.15900 40.83500
H  -9.07400 43.25800 41.27900
H  -9.89600 44.07300 42.53800
H  -14.90400 42.91400 43.04400
H  -14.59200 44.50200 43.75800
H  -14.13000 43.04200 44.60900
H  -16.40700 39.05500 42.87000
H  -15.57900 37.03200 45.04900
H  -16.72000 38.70200 45.76500
H  -17.25800 40.00100 44.80200
H  -15.65700 40.09200 45.56600
H  -16.55200 35.28800 43.35000
H  -16.85000 36.78100 42.39800
H  -17.88300 36.89700 45.22200
H  -18.56100 35.47600 44.31800
H  -18.80500 37.02900 43.77600
H  -11.72700 31.99200 44.22800
H  -13.17400 31.99100 43.04100
H  -13.27300 32.74600 44.49100
H  -8.66500 33.84100 40.24000
H  -4.85400 32.97100 42.05500
H  -4.47000 33.87900 40.60500
H  -4.61800 32.18900 40.42500

