158

Mg 36.29100 49.16000 25.38800
C  36.27700 47.15000 28.35200
C  35.07400 51.77100 27.36200
C  35.65800 50.85100 22.67100
C  36.98600 46.25700 23.60800
N  35.71300 49.45100 27.55700
C  35.91300 48.49400 28.55400
C  35.63800 49.05400 29.96600
C  35.10800 50.44600 29.63400
C  35.25500 50.59100 28.11000
C  33.60400 50.79000 30.05300
C  36.92000 49.10300 30.84100
C  36.77600 48.66300 32.27700
H  35.47500 49.00000 32.99000
N  35.44300 51.06700 25.01500
C  35.07600 52.00600 25.92500
C  34.94500 53.31600 25.30800
C  35.17300 53.07300 23.89800
C  35.48200 51.60400 23.79400
C  34.50900 54.57900 26.14400
C  35.06500 54.06100 22.82700
O  35.14000 53.65600 21.65100
C  34.84300 55.53900 23.14200
N  36.34900 48.58400 23.41100
C  35.96600 49.46100 22.48800
C  36.12200 48.80000 21.03800
C  36.79700 47.45100 21.40100
C  36.72800 47.41900 22.92700
C  34.76000 48.72200 20.29900
C  38.23900 47.36800 20.77900
C  39.48600 48.02600 21.53900
N  36.65000 47.13000 25.84000
C  37.00600 46.10400 24.96700
C  37.30100 44.91500 25.75800
C  36.98700 45.26000 27.08200
C  36.63000 46.64300 27.08800
C  37.89600 43.64700 25.25600
C  37.04700 44.78500 28.49500
O  37.38500 43.77100 29.04100
C  36.47000 46.06500 29.38800
C  35.19100 45.71600 30.09000
O  34.18500 45.23900 29.53400
O  35.36200 45.83400 31.42300
C  34.26000 45.25000 32.18800
H  34.71100 52.54200 28.04400
H  35.39800 51.41000 21.77000
H  37.23000 45.48000 22.88000
H  34.85500 48.41100 30.36700
H  35.65800 51.26100 30.10300
H  33.78200 51.60800 30.75100
H  33.38000 49.87400 30.60000
H  32.93500 51.07900 29.24300
H  37.20300 50.15200 30.92900
H  37.73800 48.55600 30.37400
H  37.44400 49.24000 32.91700
H  37.02500 47.60200 32.29100
H  35.32000 55.27600 25.93600
H  34.27700 54.36400 27.18800
H  33.56500 54.98900 25.78500
H  35.72800 55.94500 23.63100
H  33.84200 55.75200 23.51900
H  34.74400 55.94500 22.13500
H  36.79900 49.41100 20.44000
H  36.22700 46.59000 21.05100
H  33.94400 49.01700 20.95800
H  34.52000 47.70100 20.00200
H  34.68400 49.36300 19.42000
H  38.21800 47.78100 19.77000
H  38.55300 46.33100 20.66200
H  39.31900 48.36300 22.56300
H  39.80000 48.91800 20.99700
H  40.30600 47.31300 21.46700
H  38.37700 43.79400 24.28900
H  36.97300 43.11800 25.01700
H  38.54400 43.19700 26.00800
H  37.30400 46.44800 29.97600
H  34.57000 45.06000 33.21600
H  33.90400 44.32500 31.73300
H  33.41300 45.93500 32.16700
Mg 26.77000 50.28100 27.02400
C  24.68100 51.42600 29.57000
C  29.06900 49.59900 29.47100
C  28.89700 49.44200 24.60400
C  24.57000 51.58500 24.60600
N  26.84700 50.55700 29.17500
C  25.83200 50.91200 30.02700
C  26.21600 50.67800 31.44100
C  27.75600 50.43100 31.43400
C  27.97700 50.25500 29.91600
C  28.69300 51.52600 32.11500
C  25.27100 49.63100 32.05600
C  24.74800 50.13700 33.41900
H  25.78200 50.50400 34.54700
N  28.70400 49.51600 27.06800
C  29.46900 49.23300 28.12600
C  30.73900 48.61300 27.66000
C  30.69800 48.58700 26.26800
C  29.40300 49.20300 25.92700
C  31.83900 48.09200 28.67600
C  31.81400 48.22500 25.20700
O  31.75000 48.41200 24.04100
C  33.07100 47.54600 25.66100
N  26.62900 50.30600 24.90000
C  27.68500 49.93000 24.15200
C  27.31400 49.96400 22.63000
C  25.81100 50.48600 22.67300
C  25.64500 50.85300 24.14400
C  28.29500 50.74000 21.79500
C  24.71500 49.49000 22.09300
C  23.52100 50.03800 21.33100
N  24.98600 51.30400 27.01000
C  24.16700 51.65700 25.94700
C  22.93700 52.23200 26.40700
C  23.07100 52.19700 27.86000
C  24.40200 51.67000 28.15200
C  21.81100 52.77500 25.56700
C  22.50900 52.53500 29.18400
O  21.54400 53.11100 29.52000
C  23.52200 52.09000 30.32700
C  23.98300 53.15500 31.25300
O  25.10600 53.70500 31.26000
O  23.02800 53.35500 32.17100
C  23.46400 54.34700 33.21900
H  29.78200 49.20900 30.20200
H  29.62500 49.17700 23.83300
H  23.86200 52.00900 23.89100
H  26.01300 51.61400 31.96100
H  27.93300 49.54900 32.04900
H  29.20100 51.00200 32.92500
H  28.04300 52.32300 32.47600
H  29.46300 51.93900 31.46300
H  25.71400 48.64800 32.21500
H  24.40000 49.48900 31.41600
H  24.13400 49.36000 33.87400
H  24.06300 50.95600 33.19700
H  31.61700 48.35900 29.71000
H  32.77800 48.62100 28.51500
H  32.17200 47.07600 28.46400
H  33.79100 48.35400 25.79600
H  33.47100 46.92800 24.85700
H  33.02200 46.92000 26.55200
H  27.35500 48.88900 22.45200
H  25.83200 51.46400 22.19100
H  29.14500 51.07700 22.38700
H  27.88500 51.47500 21.10300
H  28.61400 49.98100 21.08100
H  24.21400 49.12200 22.98900
H  25.12000 48.75300 21.40000
H  23.52700 49.49900 20.38400
H  23.73800 51.07500 21.07100
H  22.55400 49.82200 21.78500
H  21.48300 52.18000 24.71500
H  22.10800 53.75600 25.19700
H  20.97900 52.88500 26.26300
H  23.01700 51.31400 30.90200
H  23.82000 55.26100 32.74300
H  24.28300 53.92900 33.80400
H  22.59800 54.58900 33.83400

