158

Mg 29.84700 57.67400 40.25400
C  27.11300 55.65300 39.15800
C  32.01600 55.34700 39.48100
C  32.32400 60.04900 40.59300
C  27.49500 60.04800 41.27800
N  29.59900 55.86400 39.28600
C  28.40900 55.13500 39.08800
C  28.70000 53.65700 38.65300
C  30.27000 53.64200 38.72400
C  30.67100 55.06800 39.22500
C  30.81300 52.49500 39.71100
C  28.01100 53.13100 37.42800
C  27.61100 54.07700 36.24100
H  28.38300 54.02100 34.97500
N  31.96400 57.66300 40.00300
C  32.66500 56.55500 39.77700
C  34.09300 56.78300 39.74100
C  34.25200 58.11000 40.18800
C  32.83000 58.72400 40.27400
C  35.08600 55.72100 39.44500
C  35.60400 58.79600 40.46900
O  36.64300 58.09700 40.41400
C  35.66000 60.15000 40.79600
N  29.80900 59.76700 40.80600
C  31.01400 60.50100 40.86200
C  30.69100 61.91600 41.30900
C  29.16100 61.86000 41.54900
C  28.75200 60.41900 41.28700
C  31.43200 62.38200 42.59500
C  28.44000 62.91200 40.71500
C  27.28800 63.73700 41.42500
N  27.66700 57.87700 40.18700
C  26.88700 58.92700 40.64800
C  25.56300 58.66300 40.39100
C  25.55300 57.34400 39.84100
C  26.87400 56.93000 39.74300
C  24.38200 59.51700 40.72700
C  24.71300 56.22600 39.34600
O  23.48900 56.20700 39.28000
C  25.66600 55.10800 38.87700
C  25.25400 53.78600 39.63500
O  25.70800 53.39500 40.70000
O  24.22400 53.18900 38.93500
C  23.82200 51.92500 39.52400
H  32.69500 54.50600 39.32900
H  33.11900 60.76700 40.80400
H  26.79500 60.74000 41.75200
H  28.33600 52.97800 39.42400
H  30.84500 53.34500 37.84700
H  30.94200 52.79400 40.75100
H  31.78100 52.22400 39.29000
H  30.15700 51.63100 39.81600
H  27.15100 52.54900 37.76000
H  28.73100 52.43200 37.00400
H  27.76100 55.09700 36.59300
H  26.54100 54.06500 36.03500
H  36.10400 56.09700 39.33700
H  34.97900 55.12500 38.53900
H  35.02300 54.97200 40.23400
H  36.74000 60.29200 40.76700
H  35.11500 60.30400 41.72800
H  35.21500 60.83400 40.07300
H  30.97600 62.56800 40.48300
H  28.91200 62.06200 42.59100
H  32.25900 61.69700 42.78300
H  30.76300 62.43700 43.45400
H  31.88700 63.36100 42.44300
H  27.85100 62.35700 39.98400
H  29.15900 63.58000 40.24100
H  27.42900 63.55900 42.49100
H  26.24900 63.48500 41.21400
H  27.46800 64.78600 41.19300
H  23.60400 58.80500 40.99900
H  24.04100 60.14000 39.90000
H  24.60000 59.98700 41.68600
H  25.58700 55.00900 37.79400
H  24.70700 51.28900 39.50600
H  23.08600 51.39000 38.92500
H  23.56200 52.09500 40.56900
Mg 36.41900 49.83800 24.75300
C  36.52600 47.72300 27.70100
C  35.03100 52.19600 26.78100
C  35.63300 51.43800 21.89100
C  37.49700 47.03300 22.87800
N  35.84600 49.90500 27.02200
C  36.09600 49.05000 28.01300
C  35.80000 49.67600 29.44500
C  35.08600 51.06100 29.03800
C  35.33400 51.05600 27.54700
C  33.59000 51.26100 29.41400
C  36.96600 49.68100 30.48000
C  36.55200 49.84000 32.00800
H  35.06700 49.85900 32.39000
N  35.53700 51.64400 24.38600
C  35.07900 52.46100 25.40300
C  34.94100 53.76500 24.68900
C  34.96100 53.52400 23.26700
C  35.31500 52.13000 23.11800
C  34.54700 54.90400 25.47300
C  34.54700 54.47000 22.15700
O  34.48200 54.10500 20.97100
C  34.15800 55.86700 22.44700
N  36.45000 49.32600 22.70100
C  36.19200 50.21700 21.69400
C  36.61700 49.65500 20.39200
C  37.49400 48.45100 20.78900
C  37.13100 48.22700 22.21600
C  35.55200 49.29900 19.36100
C  39.05800 48.60800 20.56100
C  39.62100 47.67400 19.40500
N  37.00700 47.87500 25.13300
C  37.35200 46.88000 24.26600
C  37.69800 45.64600 25.03700
C  37.38400 45.97000 26.32700
C  36.95800 47.32600 26.37200
C  38.19600 44.26700 24.46300
C  37.39200 45.43900 27.69800
O  37.76700 44.40400 28.12900
C  36.88900 46.58700 28.64700
C  35.76700 46.03500 29.43100
O  34.99600 45.16400 28.96500
O  35.67800 46.51200 30.71200
C  34.68000 45.84600 31.55300
H  34.55700 52.97100 27.38600
H  35.41900 51.99800 20.97800
H  37.99100 46.33300 22.20100
H  35.08800 48.93000 29.79900
H  35.69000 51.85100 29.48400
H  32.90600 50.94800 28.62400
H  33.46100 52.27100 29.80200
H  33.22900 50.62200 30.22000
H  37.71000 50.45700 30.30500
H  37.55800 48.77300 30.36500
H  37.04500 50.72100 32.41900
H  36.94000 48.94200 32.49000
H  34.86600 55.86100 25.05900
H  35.06300 54.90600 26.43300
H  33.47200 54.92800 25.64900
H  35.00400 56.45800 22.80000
H  33.33000 55.78900 23.15100
H  33.79000 56.28900 21.51200
H  37.22800 50.43000 19.93000
H  37.18000 47.56200 20.24300
H  35.94800 48.57200 18.65200
H  35.27200 50.21700 18.84500
H  34.65800 48.84600 19.78900
H  39.49800 48.20400 21.47200
H  39.40100 49.61200 20.31300
H  40.04300 46.79300 19.88900
H  40.39500 48.18300 18.83100
H  38.79600 47.25700 18.82700
H  38.81800 43.71500 25.16800
H  38.63400 44.43100 23.47900
H  37.34900 43.60300 24.29000
H  37.73300 46.64500 29.33500
H  35.04100 45.99400 32.57100
H  34.51800 44.77200 31.45600
H  33.69600 46.28700 31.40000

