158

Mg 49.80000 47.05300 43.52100
C  46.48800 47.41800 42.53300
C  49.84700 43.95900 42.07800
C  53.09000 46.92000 44.15500
C  49.90800 50.55700 44.25100
N  48.32500 45.75800 42.46900
C  47.09900 46.20600 42.09100
C  46.32200 45.02000 41.40500
C  47.39500 43.83900 41.44100
C  48.61000 44.51800 42.03600
C  47.04000 42.63300 42.34900
C  45.83700 45.45700 39.94500
C  44.30500 45.33600 39.85000
H  43.67400 44.74700 38.60200
N  51.31500 45.59200 43.19000
C  51.15900 44.40700 42.61100
C  52.40100 43.75600 42.58400
C  53.35800 44.58200 43.16400
C  52.60500 45.75900 43.54200
C  52.46100 42.28300 42.07800
C  54.80900 44.22000 43.29200
O  55.21300 43.16400 42.86900
C  55.78200 45.19300 43.82300
N  51.26400 48.51700 44.09800
C  52.51400 48.18800 44.34200
C  53.28100 49.38900 44.92400
C  52.33100 50.54000 44.68200
C  51.08400 49.87500 44.28700
C  53.70700 49.04500 46.42000
C  52.74500 51.51000 43.56000
C  53.65600 52.71200 43.91400
N  48.48200 48.70900 43.51600
C  48.63800 49.99300 43.82000
C  47.41600 50.62800 43.77600
C  46.48300 49.66600 43.34200
C  47.23000 48.48100 43.10100
C  47.11900 52.08200 44.05400
C  45.06200 49.34700 43.08900
O  44.03200 50.06600 43.12600
C  45.03800 47.85600 42.54800
C  44.19300 46.98600 43.34700
O  44.52300 46.34500 44.34600
O  42.89300 47.09100 42.92100
C  41.99900 46.11800 43.47900
H  49.94500 43.00100 41.56400
H  54.06900 46.80500 44.62500
H  49.99200 51.62700 44.45300
H  45.46800 44.75100 42.02700
H  47.66700 43.48900 40.44500
H  46.24600 42.97200 43.01500
H  47.94500 42.32300 42.87200
H  46.63300 41.90200 41.65000
H  46.24900 44.86400 39.12900
H  46.11000 46.47200 39.65800
H  43.80000 46.29700 39.94700
H  43.93200 44.61900 40.58100
H  51.53400 41.83300 41.72400
H  52.90300 41.72600 42.90300
H  53.06000 42.30000 41.16700
H  55.84700 46.02700 43.12500
H  56.78400 44.77000 43.90000
H  55.53400 45.52200 44.83200
H  54.13100 49.70700 44.32000
H  52.32100 51.10400 45.61500
H  53.16200 48.17800 46.79500
H  53.48800 49.93200 47.01300
H  54.78900 48.91200 46.42900
H  51.84200 51.85800 43.06000
H  53.28600 50.91400 42.82500
H  53.70100 52.87600 44.99100
H  53.11400 53.55200 43.47800
H  54.67600 52.56700 43.55900
H  46.09500 52.30800 43.75500
H  47.76300 52.61800 43.35600
H  47.24700 52.48100 45.06000
H  44.76900 47.73700 41.49800
H  40.97000 46.32600 43.18400
H  42.01100 46.25400 44.56000
H  42.42500 45.13500 43.28200
Mg 7.27600 53.30800 40.35800
C  6.50700 49.79000 40.41300
C  10.48400 52.54000 39.71900
C  7.79700 56.65500 39.98500
C  3.79700 53.98400 40.79400
N  8.35000 51.41600 40.04300
C  7.84100 50.12200 40.21600
C  9.02300 49.15600 40.13300
C  10.24200 50.04100 40.22700
C  9.66600 51.40000 39.99900
C  11.13400 50.01700 41.43200
C  9.15200 48.21600 38.83900
C  8.83300 48.90000 37.50500
H  7.67600 48.38200 36.67500
N  8.95300 54.47900 39.83600
C  10.21200 53.90700 39.56000
C  11.08100 54.95100 39.23700
C  10.40300 56.17700 39.44700
C  8.96500 55.85400 39.70700
C  12.55200 54.71300 38.94800
C  11.06300 57.64100 39.30300
O  12.26800 57.78500 39.05400
C  10.26600 58.84100 39.41800
N  5.93800 55.08800 40.28900
C  6.46300 56.30900 40.23200
C  5.40000 57.37200 40.66600
C  4.06400 56.54300 40.86900
C  4.65200 55.12200 40.68700
C  5.84200 58.48100 41.72700
C  2.93200 56.86100 39.76400
C  1.56400 57.05300 40.42000
N  5.51200 52.21900 40.40800
C  4.20900 52.59700 40.70300
C  3.42900 51.39600 41.06400
C  4.35100 50.34800 40.93400
C  5.56200 50.86300 40.55600
C  1.95000 51.36800 41.29700
C  4.46200 48.90100 41.12500
O  3.57200 48.05400 41.47300
C  5.89600 48.48400 40.77800
C  5.66500 47.53800 39.67000
O  5.34200 47.83300 38.52500
O  5.80700 46.23900 40.14700
C  5.42500 45.17800 39.14200
H  11.51100 52.20700 39.55100
H  8.00200 57.72400 40.07100
H  2.75500 54.05700 41.11300
H  9.08400 48.60100 41.07000
H  10.94600 49.91800 39.40300
H  12.13500 50.32800 41.13200
H  11.21500 49.00000 41.81600
H  10.96900 50.70300 42.26300
H  8.45000 47.38200 38.85800
H  10.15500 47.80200 38.73800
H  9.68600 48.99200 36.83300
H  8.70300 49.96500 37.69700
H  12.80500 53.67100 38.75600
H  13.06900 54.92000 39.88400
H  12.84100 55.30600 38.07900
H  10.78900 59.74100 39.09500
H  10.01900 58.86400 40.47900
H  9.36500 58.60500 38.85200
H  5.37600 57.88900 39.70600
H  3.76500 56.72400 41.90100
H  6.85300 58.19900 42.02000
H  5.12600 58.53500 42.54700
H  5.78700 59.43800 41.20700
H  2.83500 56.04100 39.05300
H  3.17200 57.70300 39.11400
H  0.94100 57.68500 39.78800
H  1.65100 57.58400 41.36800
H  1.08500 56.08000 40.52900
H  1.51500 51.94700 40.48200
H  1.78500 51.78000 42.29200
H  1.48400 50.38300 41.32300
H  6.38200 47.96500 41.60400
H  6.10500 44.33800 39.28600
H  5.66300 45.48000 38.12200
H  4.35900 44.95700 39.20100

