158

Mg 2.21300 42.04400 25.23800
C  3.66100 42.04000 28.40700
C  -0.64000 40.62300 26.58900
C  0.95500 41.59400 22.11400
C  5.34000 42.81400 23.92700
N  1.57900 41.37300 27.26200
C  2.35100 41.58600 28.40400
C  1.53700 41.13800 29.66700
C  0.14800 40.57400 29.03400
C  0.39200 40.74400 27.52100
C  -0.20800 39.05600 29.42400
C  1.20600 42.31300 30.64200
C  1.76300 42.25700 32.11300
H  0.79800 42.52000 33.23800
N  0.32900 41.45400 24.48200
C  -0.67600 40.89300 25.19700
C  -1.79100 40.60300 24.30800
C  -1.37200 41.06100 22.98100
C  -0.00700 41.43200 23.14400
C  -3.09000 40.00800 24.80100
C  -2.16200 41.14500 21.74000
O  -1.73700 41.55700 20.67800
C  -3.63500 40.80300 21.68500
N  3.06000 42.24100 23.37500
C  2.33100 41.88700 22.27900
C  3.16700 42.18600 20.98100
C  4.49200 42.69900 21.63500
C  4.30000 42.52800 23.06600
C  3.35600 41.01700 20.03300
C  4.85300 44.15600 21.32400
C  5.03400 44.53700 19.87600
N  4.14000 42.42000 25.93700
C  5.26500 42.85000 25.32700
C  6.25700 43.15100 26.27800
C  5.71200 42.82700 27.50200
C  4.41900 42.36100 27.27900
C  7.56800 43.69800 26.08300
C  5.90200 42.90600 28.91700
O  6.85300 43.36300 29.48300
C  4.67100 42.29400 29.59100
C  4.99000 41.18300 30.47300
O  5.25300 40.01500 30.13400
O  5.07500 41.61900 31.74700
C  5.20900 40.63000 32.82800
H  -1.57900 40.24000 26.99400
H  0.61300 41.58900 21.07700
H  6.23600 43.16500 23.41100
H  2.01000 40.27200 30.12900
H  -0.77000 41.08200 29.33000
H  -0.00000 38.31800 28.65000
H  -1.21600 38.89200 29.80700
H  0.39800 38.76100 30.28100
H  0.12300 42.39500 30.73600
H  1.57500 43.25800 30.24400
H  2.55600 43.00500 32.11400
H  2.25600 41.33300 32.41400
H  -3.88600 40.75200 24.80800
H  -2.96400 39.51700 25.76600
H  -3.26800 39.17700 24.11800
H  -3.62200 39.79000 21.28100
H  -4.31200 41.41100 21.08600
H  -3.99800 40.75600 22.71100
H  2.64300 43.00900 20.49700
H  5.36600 42.08600 21.41600
H  3.05400 40.04200 20.41700
H  4.39200 40.83500 19.74600
H  2.90900 41.15500 19.04900
H  5.86900 44.25400 21.70700
H  4.22400 44.80100 21.93800
H  4.62400 43.75500 19.23700
H  6.10300 44.62800 19.68100
H  4.53500 45.49100 19.70800
H  8.29500 42.88900 26.01300
H  7.68000 44.39300 26.91500
H  7.72100 44.26900 25.16700
H  4.20100 43.04500 30.22700
H  6.14100 40.07500 32.72100
H  4.42000 39.87700 32.81100
H  4.97700 41.11800 33.77500
Mg -4.31000 24.71100 26.00900
C  -2.96000 25.82400 28.94900
C  -6.60700 22.84700 27.86600
C  -5.66000 23.36700 23.19200
C  -1.94900 26.30000 24.16700
N  -4.56700 24.33500 28.14300
C  -4.10100 25.09800 29.22700
C  -4.67500 24.65300 30.58000
C  -5.56000 23.46400 30.15700
C  -5.61300 23.51700 28.61900
C  -5.10800 22.12600 30.74600
C  -5.52700 25.87900 31.25300
C  -5.69700 25.80000 32.82200
H  -4.95900 24.70600 33.73400
N  -5.97800 23.38300 25.60200
C  -6.79700 22.80800 26.49000
C  -7.81700 22.05500 25.81600
C  -7.59900 22.23000 24.40100
C  -6.36500 23.06200 24.33000
C  -8.98400 21.33200 26.51000
C  -8.43300 21.73600 23.18500
O  -8.03900 21.79600 22.01000
C  -9.71000 21.06500 23.48100
N  -3.88000 24.91300 23.94700
C  -4.52000 24.22100 22.99000
C  -3.71700 24.27600 21.68000
C  -2.52300 25.21300 22.02500
C  -2.74500 25.47900 23.42800
C  -3.26200 22.84200 21.28900
C  -2.43500 26.45900 21.14200
C  -1.19800 26.51800 20.26600
N  -2.75000 25.93500 26.43600
C  -1.82600 26.50400 25.54500
C  -0.89000 27.32900 26.31700
C  -1.31400 27.11100 27.67800
C  -2.36500 26.17400 27.65800
C  0.22400 28.20200 25.94600
C  -0.92300 27.37300 29.09600
O  -0.10100 28.16200 29.50500
C  -2.01200 26.67800 29.89500
C  -1.37800 26.00200 31.03100
O  -0.47400 25.16300 30.85700
O  -1.85500 26.44700 32.17200
C  -1.10300 25.91100 33.28200
H  -7.34100 22.17600 28.31700
H  -5.93000 22.88100 22.25200
H  -1.30900 26.97800 23.59800
H  -3.90900 24.39700 31.31200
H  -6.57400 23.56700 30.54300
H  -5.98000 21.75100 31.28200
H  -4.28900 22.19700 31.46100
H  -4.86100 21.36800 30.00300
H  -6.49200 26.04800 30.77700
H  -4.92700 26.78700 31.19400
H  -6.78200 25.69700 32.83200
H  -5.54800 26.70200 33.41500
H  -9.06100 21.63000 27.55600
H  -8.80200 20.26200 26.41000
H  -9.92600 21.59000 26.02600
H  -10.16900 20.78300 22.53400
H  -10.28500 21.80200 24.04100
H  -9.56800 20.22000 24.15600
H  -4.39600 24.75300 20.97300
H  -1.58100 24.68700 21.86900
H  -2.18000 22.71100 21.29100
H  -3.49000 22.63800 20.24300
H  -3.49600 22.10700 22.05900
H  -2.42700 27.38000 21.72600
H  -3.30500 26.50600 20.48800
H  -0.60400 25.60600 20.20700
H  -0.52700 27.22700 20.75000
H  -1.32700 26.99800 19.29500
H  0.39500 28.21100 24.87000
H  1.10900 27.78100 26.42400
H  0.09900 29.25200 26.20900
H  -2.54900 27.52500 30.32200
H  -0.04800 25.98000 33.02000
H  -1.32100 24.85700 33.45600
H  -1.36900 26.50700 34.15500

