158

Mg 24.87900 -4.64800 46.74000
C  26.82600 -2.27800 45.08300
C  22.28200 -3.75800 44.63400
C  23.26400 -7.42300 47.76100
C  27.79600 -5.64500 48.47500
N  24.59700 -3.06700 45.18800
C  25.52000 -2.17900 44.66000
C  25.01600 -1.28200 43.50000
C  23.41600 -1.72400 43.56200
C  23.39900 -2.90900 44.54700
C  22.54000 -0.48100 44.18200
C  25.73800 -1.69500 42.16100
C  26.39200 -0.54600 41.40000
H  25.89200 -0.35200 39.96900
N  22.97000 -5.37500 46.42600
C  22.07800 -4.90600 45.44600
C  20.91900 -5.79700 45.40100
C  21.13400 -6.74000 46.43000
C  22.49600 -6.53800 46.98400
C  19.76200 -5.67200 44.37700
C  20.20700 -7.93400 46.84600
O  19.17200 -8.17700 46.28200
C  20.52600 -8.83000 48.07100
N  25.46700 -6.27400 47.96300
C  24.56700 -7.23600 48.29300
C  25.28100 -8.29600 49.19700
C  26.47600 -7.49400 49.71600
C  26.60500 -6.42400 48.65800
C  24.38700 -9.09300 50.19800
C  27.76000 -8.34300 50.13200
C  28.10400 -8.30300 51.63000
N  26.94900 -4.09700 46.82600
C  27.98000 -4.60500 47.55900
C  29.13100 -3.83700 47.22900
C  28.71800 -2.89000 46.27000
C  27.36400 -3.11600 46.07500
C  30.51200 -3.99700 47.83300
C  29.25600 -1.76400 45.46800
O  30.30500 -1.21600 45.48100
C  28.02600 -1.34400 44.66700
C  27.79100 0.07000 44.97600
O  27.40600 0.48300 46.01400
O  28.07400 0.83800 43.83800
C  27.91300 2.27100 43.95700
H  21.42600 -3.41000 44.05200
H  22.92900 -8.46000 47.82700
H  28.66200 -6.01700 49.02700
H  25.11800 -0.21800 43.71400
H  22.94300 -2.07700 42.64600
H  21.81300 -0.13200 43.44900
H  23.09500 0.36600 44.58700
H  21.97000 -0.92700 44.99800
H  24.96500 -2.06900 41.49000
H  26.36000 -2.57000 42.34900
H  27.46600 -0.72100 41.33400
H  26.29400 0.40600 41.92200
H  19.21200 -6.58900 44.16300
H  20.08700 -5.21000 43.44500
H  19.04000 -4.92500 44.70400
H  21.03200 -8.24400 48.83900
H  21.22900 -9.62000 47.80900
H  19.57800 -9.13200 48.51600
H  25.52200 -9.04700 48.44400
H  26.02700 -7.04900 50.60400
H  23.32200 -8.99700 49.98900
H  24.56000 -8.77400 51.22600
H  24.76300 -10.11600 50.18800
H  28.66000 -8.02400 49.60600
H  27.53800 -9.36600 49.83000
H  27.19700 -7.96400 52.13100
H  28.87100 -7.58400 51.91700
H  28.35600 -9.30500 51.97700
H  30.75200 -5.06000 47.81700
H  30.47200 -3.68400 48.87700
H  31.30600 -3.39000 47.39800
H  28.46400 -1.47200 43.67800
H  26.95600 2.63200 43.58000
H  28.71200 2.79200 43.43000
H  27.82000 2.66900 44.96800
Mg 25.34700 2.07900 30.08400
C  27.50600 1.91900 32.85500
C  22.65200 1.98500 32.27900
C  23.37500 1.63500 27.56700
C  28.10600 1.64900 28.03100
N  25.08400 1.86300 32.28000
C  26.12200 2.02600 33.22600
C  25.65100 2.24300 34.64900
C  24.08600 2.26000 34.39600
C  23.91300 2.07200 32.92300
C  23.26900 1.26000 35.20700
C  26.18600 3.68900 35.14700
C  26.45000 3.68700 36.70300
H  25.92600 4.79100 37.60900
N  23.29600 2.08300 29.95400
C  22.34100 1.94100 30.93000
C  21.07700 1.78300 30.27900
C  21.19600 1.72700 28.87500
C  22.71300 1.78100 28.75100
C  19.78900 1.77600 31.10100
C  20.12500 1.58900 27.76200
O  20.42400 1.51700 26.58400
C  18.61400 1.54600 28.18700
N  25.66400 1.72400 28.02900
C  24.69300 1.45500 27.19300
C  25.15300 1.51000 25.67300
C  26.68300 1.66700 25.91800
C  26.85500 1.65000 27.42900
C  24.69800 0.27700 24.86800
C  27.30500 2.99400 25.32600
C  26.59600 4.34600 25.65800
N  27.39600 1.71300 30.35000
C  28.36300 1.59400 29.37100
C  29.66300 1.33600 29.96900
C  29.42400 1.49000 31.36800
C  27.99800 1.69200 31.51200
C  30.90100 1.09600 29.28500
C  29.93700 1.52200 32.72200
O  31.10300 1.34900 33.07000
C  28.78700 1.93300 33.68000
C  28.73000 1.07500 34.90100
O  28.33800 -0.06700 34.96500
O  29.11800 1.86900 36.02100
C  29.10100 1.18500 37.30000
H  21.80100 2.13000 32.94800
H  22.73400 1.46000 26.70100
H  28.92300 1.39200 27.35400
H  26.00500 1.35200 35.16700
H  23.80400 3.28100 34.65400
H  22.34500 1.74000 35.52900
H  23.94000 1.02500 36.03300
H  23.05700 0.34700 34.65100
H  25.49300 4.48000 34.86300
H  27.05900 3.89100 34.52600
H  27.51200 3.90500 36.81100
H  26.24400 2.71100 37.14400
H  18.99000 2.41700 30.72800
H  19.97100 1.75300 32.17500
H  19.42900 0.74900 31.04000
H  17.94800 1.33500 27.35100
H  18.40500 2.46800 28.73000
H  18.46800 0.78900 28.95800
H  24.74500 2.41300 25.21900
H  27.31300 0.87500 25.51200
H  25.51700 -0.43500 24.96200
H  24.52100 0.54300 23.82600
H  23.74100 -0.09900 25.22900
H  27.47600 2.86000 24.25800
H  28.29900 3.05800 25.76800
H  26.04600 4.28300 26.59700
H  25.90200 4.68000 24.88700
H  27.40300 5.07500 25.72200
H  31.05700 1.82000 28.48600
H  30.96700 0.06600 28.93300
H  31.74700 1.28800 29.94600
H  29.03800 2.98400 33.82600
H  28.34600 1.56200 37.99000
H  30.03100 1.43800 37.80900
H  29.10600 0.10000 37.19500

