158

Mg 36.13400 1.50700 30.40000
C  33.57200 2.68500 32.57000
C  38.13400 1.09800 33.06400
C  38.51800 0.45100 28.25100
C  33.89700 1.82400 27.77900
N  35.85800 1.94400 32.57800
C  34.78000 2.48700 33.26700
C  34.96900 2.40600 34.75200
C  36.57100 2.18500 34.85700
C  36.82900 1.62300 33.39200
C  37.42600 3.47000 35.08900
C  34.06600 1.34200 35.48100
C  33.52000 1.82200 36.83900
H  34.24300 2.91900 37.60800
N  38.06100 0.83400 30.64600
C  38.63100 0.61400 31.82900
C  39.92100 -0.00800 31.58600
C  39.99100 -0.26100 30.21100
C  38.81400 0.28600 29.63700
C  40.93600 -0.33800 32.72500
C  40.97200 -1.02600 29.36600
O  40.73200 -1.45200 28.23000
C  42.25700 -1.55800 29.96700
N  36.28100 1.33900 28.25000
C  37.34100 0.95000 27.54400
C  37.00600 0.85200 26.04600
C  35.53400 1.25400 25.93300
C  35.20100 1.53000 27.41300
C  37.89800 1.63200 25.00000
C  34.57100 0.21100 25.33900
C  34.00900 0.56000 23.96500
N  34.15800 2.10600 30.13000
C  33.40800 2.23700 29.02100
C  32.13500 2.75400 29.34200
C  32.10800 2.94300 30.74700
C  33.37400 2.52800 31.20100
C  31.07800 3.09200 28.34200
C  31.31800 3.45400 31.85500
O  30.20900 3.93900 31.92500
C  32.21500 3.22900 33.12100
C  32.38500 4.53900 33.86700
O  33.14100 5.40000 33.60200
O  31.50900 4.61600 34.89500
C  31.51800 5.84400 35.67500
H  38.88300 1.01400 33.85300
H  39.23700 0.22500 27.46000
H  33.19800 1.90000 26.94300
H  34.77300 3.40400 35.14400
H  36.81800 1.50400 35.67100
H  37.11900 3.99700 35.99200
H  37.35300 4.11500 34.21400
H  38.51300 3.42700 35.14900
H  34.65000 0.45500 35.72400
H  33.21400 1.09100 34.85000
H  33.42200 0.91900 37.44100
H  32.50100 2.14100 36.62000
H  41.19600 -1.39300 32.80400
H  40.42500 -0.18600 33.67600
H  41.84700 0.22300 32.51700
H  42.22000 -2.04400 30.94200
H  42.98200 -0.75900 29.81100
H  42.73600 -2.34600 29.38700
H  37.22800 -0.20000 25.86600
H  35.32500 2.26000 25.56700
H  38.71100 2.20600 25.44500
H  37.31100 2.33800 24.41300
H  38.38600 0.87600 24.38500
H  33.72900 -0.04800 25.98000
H  35.02200 -0.75600 25.11300
H  32.92100 0.55900 24.03400
H  34.26200 -0.11600 23.14800
H  34.30400 1.57900 23.71400
H  31.39100 3.17400 27.30100
H  30.55500 4.01100 28.60600
H  30.37600 2.25900 28.33700
H  31.67500 2.48300 33.70500
H  31.71800 6.66400 34.98600
H  32.19600 5.72300 36.52000
H  30.44900 5.94000 35.86700
Mg 35.02100 48.21500 26.19200
C  35.13900 46.20900 29.04200
C  34.06400 50.87600 28.03300
C  34.43500 49.90900 23.31800
C  35.49800 45.19900 24.31500
N  34.51300 48.50300 28.23900
C  34.74600 47.56700 29.26800
C  34.56900 48.22300 30.67400
C  33.91000 49.60700 30.27500
C  34.18400 49.69700 28.74600
C  32.35800 49.72700 30.56400
C  35.91600 48.43000 31.39500
C  36.11200 48.11600 32.91600
H  36.24900 49.29000 33.88700
N  34.40900 50.14300 25.79400
C  34.04300 51.08900 26.61700
C  33.62600 52.35100 26.02000
C  33.81900 52.06300 24.61100
C  34.23500 50.63900 24.54400
C  32.95600 53.46900 26.74900
C  33.49100 52.95900 23.39400
O  33.54300 52.55200 22.24900
C  33.02700 54.38700 23.48400
N  34.71800 47.61500 24.18000
C  34.68200 48.50900 23.18200
C  34.56400 47.83600 21.85400
C  35.10900 46.43300 22.09400
C  35.19600 46.35700 23.63700
C  33.23000 47.71400 21.08200
C  36.51500 46.12100 21.46600
C  36.77800 44.66700 20.91100
N  35.27500 46.10600 26.54500
C  35.44900 44.99000 25.66600
C  35.73800 43.77600 26.43600
C  35.65500 44.20000 27.78100
C  35.32300 45.65400 27.78400
C  36.16100 42.45200 25.89800
C  35.77500 43.82000 29.24600
O  36.23300 42.80900 29.79300
C  35.42400 45.11700 30.06900
C  34.29000 44.79300 30.97600
O  33.20400 44.33400 30.59600
O  34.64600 44.90800 32.34400
C  33.51400 44.79600 33.27400
H  33.93100 51.74900 28.67500
H  34.30200 50.37800 22.34100
H  35.68300 44.34900 23.65500
H  33.91400 47.65900 31.33900
H  34.49200 50.37900 30.77900
H  32.33700 50.62500 31.18100
H  32.00000 48.74100 30.86000
H  31.73100 50.11400 29.76100
H  36.39200 49.40500 31.29200
H  36.58700 47.82200 30.79000
H  37.06900 47.59300 32.92100
H  35.24800 47.54600 33.25700
H  33.71400 54.18500 27.06900
H  32.42900 53.07800 27.61900
H  32.24100 53.99600 26.11700
H  32.00200 54.49900 23.83600
H  33.31600 54.83200 22.53200
H  33.64900 54.91600 24.20700
H  35.30000 48.40400 21.28500
H  34.37900 45.70400 21.74300
H  32.36600 48.16400 21.57100
H  32.95100 46.72100 20.73000
H  33.37900 48.24600 20.14200
H  37.17700 46.32400 22.30700
H  36.75300 46.77100 20.62400
H  35.81400 44.30300 20.55500
H  37.19000 44.07200 21.72700
H  37.54500 44.56100 20.14400
H  36.65000 42.74900 24.97000
H  35.32600 41.77200 25.73200
H  37.04800 42.14300 26.45000
H  36.23100 45.47300 30.71100
H  32.71800 45.50100 33.03200
H  34.00400 44.92100 34.24000
H  33.12600 43.77800 33.30700

