158

Mg 34.70000 3.16600 29.44300
C  32.68700 4.33700 32.09700
C  37.30500 3.14400 31.63600
C  36.69700 2.78600 26.77900
C  31.85900 3.92300 27.31900
N  34.95600 3.60200 31.66400
C  33.95300 3.90700 32.56300
C  34.42800 3.82300 34.01000
C  36.02400 3.54100 33.83200
C  36.13800 3.49500 32.25900
C  36.85400 4.48600 34.60400
C  33.62400 2.89400 34.91600
C  33.19500 3.22600 36.37600
H  34.04200 4.34200 37.06000
N  36.67300 2.81200 29.25300
C  37.57800 2.74700 30.26100
C  38.85800 2.38400 29.76200
C  38.69400 2.26300 28.35500
C  37.33500 2.64100 28.05700
C  40.04500 2.01700 30.59100
C  39.71800 1.85800 27.24300
O  39.42300 1.74700 26.06300
C  41.17200 1.48300 27.60600
N  34.29700 3.38800 27.43200
C  35.32700 3.06300 26.49000
C  34.79700 3.06800 25.02000
C  33.25300 3.34900 25.28300
C  33.08200 3.52800 26.78000
C  35.44300 4.13100 24.14700
C  32.30600 2.13400 24.79800
C  32.12900 0.95600 25.74200
N  32.70800 3.94000 29.63500
C  31.69600 4.13600 28.70900
C  30.52500 4.67800 29.28300
C  30.86200 4.78200 30.64500
C  32.23800 4.34800 30.80500
C  29.32700 5.00400 28.68400
C  30.39100 5.15700 31.94900
O  29.34700 5.64900 32.37700
C  31.49000 4.78800 32.95700
C  31.68900 5.93500 33.98000
O  32.36000 6.96500 33.79500
O  30.82300 5.72300 34.99000
C  30.59300 6.88100 35.78200
H  37.95400 3.00800 32.50400
H  37.15000 2.40700 25.86000
H  31.03500 4.18400 26.65100
H  34.26100 4.87500 34.24000
H  36.24600 2.49100 34.02300
H  37.61700 4.94400 33.97500
H  37.39700 3.90600 35.35000
H  36.33200 5.28500 35.13100
H  34.26500 2.07000 35.23000
H  32.78100 2.45500 34.38300
H  33.40100 2.38100 37.03300
H  32.11600 3.38200 36.36800
H  39.69600 1.70500 31.57600
H  40.85600 2.74300 30.64500
H  40.48800 1.07700 30.26200
H  41.16100 0.67500 28.33800
H  41.60600 2.36300 28.08000
H  41.73700 1.17000 26.72800
H  34.84800 2.05400 24.62300
H  32.94500 4.26100 24.77100
H  35.87900 3.68200 23.25400
H  36.21000 4.50700 24.82400
H  34.80600 4.96100 23.84200
H  32.68000 1.69000 23.87500
H  31.32400 2.60100 24.71600
H  31.10200 0.83500 26.08400
H  32.78500 0.94900 26.61200
H  32.27300 -0.01500 25.26700
H  28.67100 5.41800 29.45000
H  28.75900 4.24300 28.14900
H  29.51500 5.70000 27.86600
H  31.11300 3.85300 33.37100
H  31.50600 7.22800 36.26600
H  29.86900 6.53300 36.51900
H  30.07700 7.61500 35.16300
Mg 42.63400 41.94600 26.04500
C  41.75400 44.23700 28.37300
C  43.89400 39.94700 28.72400
C  43.91900 39.68900 23.76600
C  42.27100 44.32100 23.55300
N  42.75900 42.16100 28.27300
C  42.19300 43.07100 28.96600
C  42.05200 42.59400 30.45300
C  43.05500 41.43600 30.57400
C  43.19500 41.10400 29.08600
C  44.29900 41.67400 31.38500
C  40.56700 42.38000 30.84900
C  40.40800 41.64400 32.25300
H  39.98500 42.61900 33.38800
N  43.68000 40.05200 26.25700
C  44.03100 39.40100 27.41600
C  44.53800 38.11900 27.07900
C  44.38200 37.89000 25.60400
C  44.00300 39.24700 25.13600
C  45.18900 37.23000 28.06500
C  44.70800 36.70400 24.77600
O  44.70500 36.75800 23.57400
C  45.05100 35.45000 25.49600
N  43.02300 42.02700 24.00200
C  43.40600 40.91400 23.26900
C  43.31400 41.16300 21.82200
C  42.67300 42.57100 21.71700
C  42.69800 43.07000 23.18100
C  44.65700 40.92300 21.07500
C  41.15300 42.66200 21.18000
C  40.13600 42.09600 22.19500
N  42.07600 43.89600 25.96100
C  41.88100 44.75000 24.84300
C  41.21000 45.98100 25.33700
C  41.17000 45.84700 26.75700
C  41.69800 44.60000 27.05400
C  40.84600 47.11900 24.50600
C  40.73800 46.46500 28.03300
O  40.21400 47.53000 28.38700
C  41.20000 45.42200 29.18600
C  42.33400 45.93100 30.06100
O  43.49500 46.06200 29.74000
O  41.98700 46.03900 31.37900
C  43.04200 46.49000 32.32500
H  44.17700 39.35900 29.60000
H  44.26800 39.05500 22.94900
H  42.20200 45.04700 22.74100
H  42.34200 43.43800 31.07900
H  42.55000 40.62900 31.10300
H  45.25900 41.35000 30.98400
H  44.18700 41.07400 32.28800
H  44.34000 42.71700 31.70200
H  40.11700 41.78100 30.05700
H  40.06700 43.34700 30.87900
H  41.31100 41.19200 32.66300
H  39.70700 40.81800 32.13000
H  44.60000 36.35800 28.35000
H  45.44500 37.80500 28.95500
H  46.11000 36.83800 27.63200
H  44.26100 35.05800 26.13500
H  46.01800 35.47300 26.00000
H  45.10800 34.61500 24.79800
H  42.71200 40.34500 21.42700
H  43.22100 43.28300 21.10000
H  45.00700 41.84500 20.61000
H  44.49800 40.20900 20.26800
H  45.43300 40.48800 21.70400
H  41.03200 42.15100 20.22500
H  40.97000 43.70900 20.93800
H  40.69300 41.51400 22.93000
H  39.42600 41.36000 21.82000
H  39.50700 42.86100 22.64900
H  41.63200 47.73600 24.07100
H  40.37800 47.86400 25.14900
H  40.20500 46.91200 23.64900
H  40.33500 45.20700 29.81400
H  43.56600 45.56000 32.54300
H  42.78200 46.98900 33.25800
H  43.70100 47.21300 31.84400

