158

Mg 44.25600 5.49500 47.89700
C  41.90100 8.11000 47.44800
C  41.79100 3.21300 47.67300
C  46.62500 3.12000 47.93500
C  46.80700 7.85000 47.29300
N  42.05600 5.68700 47.57300
C  41.29000 6.81800 47.53800
C  39.79100 6.43400 47.44300
C  39.75200 4.84100 47.57400
C  41.34400 4.51000 47.62400
C  39.00900 4.35000 48.83600
C  38.90600 7.03400 46.30200
C  39.18900 6.66000 44.86100
H  39.39600 7.82700 43.95700
N  44.27300 3.40000 47.82400
C  43.12100 2.63900 47.69500
C  43.50800 1.24900 47.67400
C  44.93200 1.17000 47.74200
C  45.35000 2.58700 47.82400
C  42.46200 0.09400 47.59300
C  45.75100 -0.14600 47.85700
O  45.12700 -1.19300 48.00800
C  47.26100 -0.12900 47.78000
N  46.36100 5.51100 47.61900
C  47.15800 4.41800 47.86200
C  48.63900 4.57700 47.55800
C  48.60900 6.12500 47.10100
C  47.18900 6.53200 47.32800
C  49.57500 4.23400 48.76500
C  49.17000 6.46300 45.62900
C  48.77200 5.52900 44.51900
N  44.38500 7.55700 47.63900
C  45.48600 8.42300 47.40600
C  45.06800 9.79000 47.35500
C  43.64300 9.61700 47.36100
C  43.28900 8.27600 47.47600
C  45.87500 11.10900 47.13600
C  42.40500 10.40300 47.26800
O  42.30600 11.61100 47.11500
C  41.18800 9.41700 47.39100
C  40.39900 9.71500 48.59100
O  40.46200 9.13200 49.66600
O  39.44000 10.65100 48.27100
C  38.57900 11.18100 49.28600
H  40.98200 2.48300 47.61100
H  47.33000 2.30300 48.10300
H  47.67700 8.50100 47.18400
H  39.46600 6.97800 48.33000
H  39.36800 4.30200 46.70800
H  38.70600 5.27400 49.33000
H  39.79100 3.99100 49.50600
H  38.15100 3.73600 48.56300
H  38.94300 8.10100 46.52300
H  37.92300 6.77000 46.69300
H  38.31700 6.13200 44.47500
H  40.06600 6.02200 44.75900
H  42.81400 -0.69800 46.93300
H  41.51600 0.38000 47.13300
H  42.27500 -0.25200 48.61000
H  47.58900 0.54800 46.99100
H  47.50900 -1.17500 47.59600
H  47.73700 0.10900 48.73100
H  48.97300 3.83800 46.83000
H  49.19300 6.68900 47.82900
H  50.37800 4.96000 48.89100
H  50.07600 3.27900 48.61100
H  49.08800 4.10600 49.73200
H  50.22500 6.69600 45.76700
H  48.84800 7.44800 45.29000
H  48.57800 6.12500 43.62800
H  47.87000 4.96400 44.75600
H  49.59900 4.89100 44.20900
H  45.22100 11.98100 47.15700
H  46.62300 11.16600 46.34500
H  46.35600 11.10700 48.11400
H  40.55700 9.38300 46.50300
H  38.23800 12.20000 49.10500
H  39.12500 11.16100 50.22900
H  37.69500 10.57000 49.46600
Mg 17.42300 52.24000 25.86300
C  19.59000 50.75800 28.24400
C  15.30100 53.02400 28.38400
C  15.48200 53.46100 23.52900
C  19.83800 51.28900 23.42100
N  17.48400 51.85400 28.05100
C  18.46700 51.28600 28.82400
C  18.11400 51.40700 30.34800
C  16.66600 52.01600 30.34600
C  16.48600 52.38300 28.85200
C  15.44200 51.14900 30.82900
C  18.97300 52.35600 31.12400
C  19.41100 51.90200 32.54100
H  18.38500 51.18000 33.38500
N  15.58500 52.99600 25.90800
C  14.80900 53.25800 27.03500
C  13.46200 53.75800 26.59600
C  13.52000 54.01100 25.21800
C  14.87400 53.47500 24.85600
C  12.37700 53.96400 27.48100
C  12.55500 54.55600 24.23100
O  12.67100 54.64600 23.01700
C  11.31400 55.31100 24.84600
N  17.60100 52.21700 23.76000
C  16.68200 52.92200 23.09400
C  17.01900 52.99500 21.59400
C  18.39900 52.41500 21.51800
C  18.65400 51.89300 22.96200
C  15.95200 52.40400 20.60900
C  19.55000 53.40100 21.06000
C  20.04600 54.44900 22.08900
N  19.34000 51.27400 25.77700
C  20.17300 50.97000 24.71800
C  21.38100 50.29000 25.15300
C  21.20100 50.20500 26.56200
C  19.93000 50.78100 26.87200
C  22.54500 49.83100 24.33000
C  21.77900 49.71900 27.85200
O  22.82300 49.10800 28.10100
C  20.73600 50.02700 28.91300
C  20.45100 48.73100 29.50400
O  20.15600 47.72200 28.86300
O  20.28200 48.88300 30.82400
C  19.73500 47.76900 31.60400
H  14.72600 53.39200 29.23600
H  14.88700 53.95700 22.75900
H  20.64800 51.15800 22.70000
H  18.11200 50.41000 30.78800
H  16.44900 52.95300 30.85900
H  15.91300 50.43400 31.50400
H  15.01200 50.51600 30.05300
H  14.77000 51.82700 31.35600
H  18.53500 53.33200 31.33400
H  19.89800 52.50500 30.56800
H  19.88500 52.75600 33.02400
H  20.22100 51.18900 32.39100
H  12.11200 55.01300 27.61300
H  12.65100 53.49200 28.42400
H  11.46200 53.50100 27.10900
H  10.69600 54.74100 25.54000
H  10.70800 55.73600 24.04600
H  11.64500 56.21100 25.36600
H  17.10300 54.04900 21.33100
H  18.36700 51.55000 20.85500
H  16.44300 51.59200 20.07300
H  15.46700 53.11800 19.94300
H  15.09400 52.02200 21.16200
H  19.21000 53.71700 20.07400
H  20.42400 52.75500 20.98800
H  19.32800 54.59100 22.89700
H  20.04500 55.38100 21.52300
H  21.08600 54.29800 22.37700
H  23.20000 49.15900 24.88300
H  23.12500 50.70000 24.01900
H  22.15700 49.26300 23.48400
H  21.12400 50.79000 29.58900
H  20.36100 46.91900 31.33200
H  18.69700 47.55600 31.35100
H  19.82600 47.93700 32.67800

