158

Mg -2.40200 17.70000 25.55200
C  -2.58300 15.56700 28.36800
C  -2.88100 20.47100 27.54900
C  -2.57100 19.60800 22.86300
C  -2.54200 14.77300 23.54200
N  -2.69700 17.93000 27.70300
C  -2.85200 16.95400 28.66900
C  -3.15700 17.59000 30.12300
C  -3.53400 19.09500 29.71600
C  -2.99400 19.21800 28.28700
C  -5.05300 19.32600 29.64700
C  -1.91900 17.47400 31.09800
C  -2.21300 17.95800 32.49100
H  -1.36900 17.38200 33.64600
N  -2.47700 19.80500 25.26100
C  -2.50000 20.78400 26.22400
C  -2.32500 22.08800 25.60400
C  -2.00300 21.79100 24.26400
C  -2.38900 20.38500 24.05300
C  -2.23200 23.32900 26.40900
C  -1.47700 22.70300 23.20300
O  -1.20500 22.35000 22.07200
C  -1.04600 24.14700 23.49700
N  -2.56800 17.24100 23.60700
C  -2.62000 18.24300 22.64500
C  -2.68500 17.72500 21.20600
C  -2.60800 16.20100 21.45200
C  -2.57500 16.06700 22.93700
C  -3.84400 18.18300 20.38900
C  -1.41800 15.53600 20.65000
C  0.02400 15.88300 21.00900
N  -2.47700 15.62900 25.84900
C  -2.49500 14.58000 24.93300
C  -2.37300 13.32500 25.64100
C  -2.37700 13.65300 26.99300
C  -2.54200 15.09700 27.06800
C  -2.26400 11.95400 24.99000
C  -2.37100 13.07000 28.33000
O  -2.25400 11.94000 28.70700
C  -2.50600 14.28500 29.25400
C  -1.18400 14.28800 30.00300
O  -0.20200 14.78200 29.52700
O  -1.26800 13.71600 31.23000
C  -0.09600 13.74800 32.15400
H  -3.13600 21.37900 28.09700
H  -2.59200 20.28400 22.00600
H  -2.44400 13.90200 22.89000
H  -4.07100 17.10800 30.46700
H  -3.09600 19.87100 30.34300
H  -5.55200 18.51700 30.18000
H  -5.37300 19.34400 28.60500
H  -5.38300 20.23400 30.15100
H  -1.11100 18.09100 30.70600
H  -1.57600 16.44200 31.17600
H  -3.28600 17.89300 32.67400
H  -2.01200 19.02100 32.36300
H  -2.23500 23.13500 27.48100
H  -3.13900 23.89600 26.19900
H  -1.35200 23.92700 26.17200
H  -0.16900 24.06400 24.13800
H  -1.81400 24.75800 23.97100
H  -0.74200 24.56400 22.53700
H  -1.81800 18.04500 20.62800
H  -3.51000 15.71000 21.08600
H  -3.43300 18.96400 19.75000
H  -4.59400 18.50400 21.11200
H  -4.11400 17.31700 19.78400
H  -1.60000 15.93000 19.65100
H  -1.52700 14.46200 20.80000
H  0.11300 16.26600 22.02600
H  0.42200 16.60700 20.29800
H  0.55000 14.93900 21.15000
H  -3.22400 11.44300 24.91600
H  -1.62600 11.35000 25.63500
H  -1.70100 11.96900 24.05700
H  -3.26000 14.28100 30.04100
H  -0.04400 12.74000 32.56500
H  -0.19600 14.45700 32.97600
H  0.79900 13.97300 31.57300
Mg -2.33800 34.80000 26.34100
C  -3.63200 32.86300 29.16000
C  -1.09500 37.11100 28.57300
C  -1.79800 36.69000 23.77800
C  -4.08200 32.30900 24.28700
N  -2.38600 34.95500 28.65500
C  -2.80400 34.02200 29.49600
C  -2.46000 34.45300 30.92300
C  -1.64000 35.80900 30.72700
C  -1.62800 35.94000 29.25100
C  -1.94200 36.96700 31.67800
C  -1.83300 33.33300 31.82300
C  -2.57100 33.15000 33.20600
H  -1.66600 32.81500 34.38900
N  -1.41700 36.56800 26.17800
C  -0.92800 37.36200 27.16600
C  -0.16000 38.48600 26.60600
C  -0.25400 38.29500 25.17200
C  -1.17200 37.17300 24.95500
C  0.67100 39.53900 27.39100
C  0.38900 39.06500 24.07100
O  0.13200 38.81500 22.86600
C  1.21500 40.29300 24.32600
N  -2.95500 34.55900 24.32400
C  -2.56100 35.52200 23.42100
C  -2.90500 35.05000 21.95100
C  -3.45400 33.57200 22.18000
C  -3.46000 33.46800 23.70000
C  -3.69100 35.95900 20.98700
C  -2.73900 32.35600 21.48000
C  -1.33000 31.93000 21.99100
N  -3.68100 32.98800 26.58700
C  -4.23900 32.11400 25.65900
C  -4.91600 31.11300 26.38400
C  -4.73200 31.34800 27.70800
C  -3.94700 32.46500 27.82500
C  -5.61200 29.89600 25.73700
C  -5.04200 30.90300 29.04800
O  -5.61800 29.95000 29.46000
C  -4.39400 31.92800 30.05300
C  -5.41700 32.73700 30.84100
O  -5.82400 33.84200 30.49400
O  -5.67900 32.15400 32.01400
C  -6.66700 32.88100 32.82900
H  -0.81800 37.83200 29.34500
H  -1.59400 37.26600 22.87300
H  -4.59700 31.68400 23.55400
H  -3.50600 34.59700 31.19300
H  -0.61300 35.58700 31.01800
H  -1.07300 37.18500 32.29800
H  -2.63500 36.60600 32.43900
H  -2.32200 37.91700 31.30300
H  -0.86300 33.64300 32.21400
H  -1.76800 32.37600 31.30400
H  -3.21800 32.27500 33.13900
H  -3.05500 34.11100 33.38000
H  1.71900 39.59700 27.09600
H  0.67300 39.43500 28.47600
H  0.26400 40.52700 27.17600
H  1.57100 40.77200 23.41400
H  2.04600 39.91900 24.92500
H  0.63700 41.06700 24.83300
H  -1.99700 34.82100 21.39400
H  -4.51300 33.54200 21.92400
H  -3.12700 36.16200 20.07700
H  -3.76000 36.94000 21.45800
H  -4.69100 35.55100 20.84300
H  -2.66600 32.61100 20.42300
H  -3.41800 31.50300 21.50000
H  -1.40300 30.87000 22.23200
H  -1.13300 32.50700 22.89400
H  -0.62100 32.14200 21.19000
H  -5.12600 29.02300 26.17200
H  -5.66700 29.98500 24.65200
H  -6.63200 29.76800 26.09900
H  -3.79900 31.38800 30.79000
H  -6.22600 33.60500 33.51400
H  -7.29800 32.19500 33.39400
H  -7.32500 33.48500 32.20400

