158

Mg 43.98500 4.16100 47.69500
C  41.93300 6.86200 46.99900
C  41.21500 2.07400 47.31800
C  46.09700 1.50500 47.55500
C  46.87200 6.20400 47.32600
N  41.77200 4.40500 47.08400
C  41.12500 5.64700 47.02600
C  39.58300 5.49400 46.81700
C  39.44800 3.96900 47.18300
C  40.88800 3.44700 47.23000
C  38.80400 3.77500 48.57500
C  39.06900 5.70100 45.31600
C  38.34300 6.94600 45.08200
H  38.79700 7.80600 43.95300
N  43.69100 2.08700 47.48700
C  42.47200 1.42800 47.36700
C  42.67700 -0.00800 47.28600
C  44.11300 -0.17000 47.27200
C  44.74400 1.19000 47.42300
C  41.56700 -1.04600 47.27300
C  44.78300 -1.57300 47.03400
O  44.20400 -2.64700 46.92600
C  46.23300 -1.72200 46.94700
N  46.23600 3.93500 47.68300
C  46.80700 2.68900 47.72000
C  48.33700 2.81100 47.61600
C  48.59100 4.37700 47.53000
C  47.17000 4.88800 47.53800
C  49.04000 2.12800 48.90400
C  49.52300 4.86400 46.38700
C  51.11200 4.89700 46.47200
N  44.36200 6.12500 47.22300
C  45.56600 6.82800 47.16500
C  45.31500 8.25000 47.06800
C  43.94300 8.28200 47.02600
C  43.35100 6.97500 47.08400
C  46.32800 9.39300 47.04700
C  42.84400 9.18700 46.84000
O  42.90600 10.41500 46.81300
C  41.51000 8.27800 46.83800
C  40.58400 8.74400 47.97900
O  40.68300 8.33300 49.13400
O  39.68400 9.66100 47.54600
C  38.52000 10.03500 48.39200
H  40.27500 1.52800 47.21200
H  46.72200 0.65500 47.27300
H  47.80600 6.77000 47.31000
H  39.13500 6.21100 47.50500
H  38.95100 3.40300 46.39600
H  38.51500 4.63900 49.17500
H  39.57800 3.34000 49.20700
H  37.90800 3.19500 48.35200
H  38.48800 4.83500 44.99600
H  40.00500 5.66000 44.75900
H  38.30500 7.58300 45.96600
H  37.32400 6.62700 44.86400
H  41.72400 -1.74000 48.09900
H  41.52600 -1.59900 46.33400
H  40.57200 -0.60000 47.29900
H  46.58900 -1.01700 46.19500
H  46.47800 -2.76700 46.75700
H  46.73800 -1.53100 47.89400
H  48.54700 2.18600 46.74800
H  49.10200 4.78600 48.40100
H  49.93500 2.71700 49.10400
H  49.44500 1.18400 48.53800
H  48.35600 2.03700 49.74800
H  49.29100 5.90800 46.17700
H  49.31500 4.43500 45.40600
H  51.41300 4.53700 47.45600
H  51.48800 5.89100 46.23000
H  51.47100 4.18000 45.73300
H  46.04900 10.15400 46.31900
H  47.30800 9.03700 46.72900
H  46.26900 9.84300 48.03800
H  40.98000 8.42400 45.89700
H  38.94100 10.25500 49.37300
H  37.86100 9.19700 48.62200
H  37.97000 10.89600 48.01200
Mg 50.24200 45.63200 42.24400
C  47.04500 46.92900 41.28800
C  49.64900 42.95200 40.15800
C  53.47900 44.60400 42.60200
C  51.02600 48.81000 43.36900
N  48.48300 45.05300 40.81500
C  47.23500 45.63100 40.70900
C  46.32500 44.86400 39.74500
C  47.15800 43.52000 39.59500
C  48.50900 43.82800 40.22000
C  46.48800 42.33800 40.32900
C  46.05200 45.61200 38.36900
C  44.69500 45.39700 37.77900
H  44.56400 44.28500 36.67400
N  51.33000 43.94700 41.60100
C  50.86800 43.01300 40.78600
C  51.82300 41.97000 40.74600
C  53.00300 42.44300 41.29100
C  52.67700 43.70900 41.91900
C  51.64000 40.64800 40.02400
C  54.37200 41.83500 41.16000
O  54.51800 40.85700 40.44300
C  55.61900 42.40700 41.73400
N  52.04100 46.55700 42.87100
C  53.20500 45.95800 43.06400
C  54.24700 46.88400 43.66200
C  53.56600 48.26800 43.58500
C  52.07900 47.82500 43.28400
C  54.77900 46.60900 45.01700
C  54.09900 49.19000 42.46900
C  54.79500 50.48800 42.90700
N  49.21900 47.50000 42.44900
C  49.65000 48.67200 42.98300
C  48.60400 49.67400 42.95400
C  47.57900 48.98600 42.34800
C  48.03100 47.67900 41.99300
C  48.69300 51.09500 43.37000
C  46.24500 49.16600 41.85200
O  45.47800 50.10900 42.04700
C  45.84700 47.78300 41.15800
C  44.46800 47.34900 41.57300
O  44.09000 47.03300 42.67500
O  43.67200 47.34900 40.46400
C  42.24400 47.04600 40.64700
H  49.30900 42.15200 39.49800
H  54.54300 44.40500 42.74000
H  51.26600 49.74900 43.87300
H  45.39300 44.72000 40.29200
H  47.18100 43.01700 38.62900
H  45.51100 42.56600 40.75500
H  47.13000 42.10900 41.18000
H  46.43700 41.46600 39.67700
H  46.70700 45.23500 37.58300
H  46.28100 46.67500 38.43900
H  44.39600 46.38600 37.43100
H  43.99800 45.10900 38.56600
H  51.98200 40.67400 38.98900
H  50.58200 40.38800 39.98600
H  51.96100 39.82400 40.66100
H  55.63400 42.40900 42.82400
H  55.75400 43.43000 41.38500
H  56.51800 41.85300 41.46600
H  55.03400 46.87400 42.90800
H  53.51700 48.81000 44.52900
H  54.55100 45.59800 45.35500
H  54.44400 47.35800 45.73500
H  55.85800 46.66100 44.86800
H  53.21900 49.44500 41.87800
H  54.72800 48.58900 41.81300
H  55.29200 50.40300 43.87300
H  54.22400 51.41500 42.86000
H  55.72600 50.44100 42.34200
H  48.96300 51.70500 42.50800
H  49.36300 51.19900 44.22400
H  47.69000 51.40100 43.66500
H  45.69600 48.00600 40.10200
H  41.90600 46.75700 39.65200
H  41.86400 48.06500 40.72500
H  41.98000 46.37400 41.46400

