158

Mg 49.72700 36.48400 27.52400
C  47.26300 34.84800 29.43100
C  50.05100 38.67400 29.97800
C  51.30000 38.35000 25.30500
C  48.72600 34.33900 24.72200
N  48.61400 36.77500 29.45800
C  47.99000 35.77100 30.13800
C  48.08000 36.03500 31.61200
C  48.60100 37.51100 31.73900
C  49.17700 37.72300 30.34500
C  47.52300 38.61100 32.02100
C  48.95200 35.02400 32.39700
C  48.65100 34.85700 33.87200
H  47.79400 35.94000 34.54700
N  50.55000 38.28400 27.62200
C  50.68000 39.03100 28.76400
C  51.57400 40.15200 28.50500
C  51.93000 40.04400 27.13500
C  51.25100 38.86300 26.59700
C  51.98400 41.12500 29.56400
C  52.76500 41.05600 26.32300
O  52.91400 40.96300 25.08800
C  53.62500 42.23700 27.02800
N  49.90400 36.41600 25.23500
C  50.61700 37.31700 24.63800
C  50.90700 37.01600 23.16500
C  50.35600 35.54200 23.05600
C  49.58000 35.37300 24.41500
C  50.16300 37.99000 22.15900
C  51.39700 34.34700 23.01700
C  51.02100 33.01100 22.31100
N  48.35900 34.85500 27.06000
C  48.06200 34.09100 25.92700
C  47.18000 33.02100 26.31200
C  46.70200 33.33600 27.63700
C  47.49700 34.49900 28.04100
C  46.76700 31.92100 25.40800
C  45.78200 32.96100 28.66600
O  45.02800 32.00600 28.76100
C  46.14000 34.00000 29.86100
C  46.21600 33.33400 31.18500
O  46.74500 32.25600 31.38600
O  45.41900 34.01300 32.07800
C  45.30800 33.36200 33.44600
H  50.36200 39.36600 30.76300
H  51.87900 38.85100 24.52700
H  48.50400 33.66200 23.89400
H  47.07100 35.93300 32.01100
H  49.32800 37.58300 32.54700
H  46.52700 38.24500 32.27200
H  47.51500 39.37300 31.24100
H  47.82200 39.07700 32.96000
H  50.02200 35.19200 32.27400
H  48.77900 34.02700 31.99300
H  49.62600 34.93400 34.35500
H  48.33400 33.84300 34.11400
H  51.53400 40.94200 30.54000
H  51.70900 42.13300 29.25400
H  53.06900 41.08800 29.65900
H  53.00600 42.95100 27.57100
H  54.12300 42.89300 26.31400
H  54.33900 41.77600 27.71000
H  51.98400 37.13400 23.04600
H  49.56300 35.34600 22.33400
H  50.75900 38.05600 21.24800
H  50.05400 38.93300 22.69400
H  49.17000 37.62000 21.90300
H  51.66400 34.00600 24.01700
H  52.28600 34.75300 22.53400
H  51.59200 32.81300 21.40400
H  49.97700 32.91500 22.01200
H  51.25000 32.07300 22.81600
H  46.24300 31.06500 25.83200
H  47.65100 31.46200 24.96700
H  46.24400 32.28100 24.52300
H  45.33600 34.72400 29.99100
H  44.47400 32.66300 33.51700
H  45.02300 34.20200 34.08000
H  46.22900 32.98300 33.88800
Mg -13.19200 16.22300 42.96000
C  -10.08900 14.44300 42.61200
C  -11.81500 18.81900 41.05800
C  -16.27200 17.52300 42.40400
C  -14.67600 13.16900 43.83900
N  -11.17100 16.63300 41.94800
C  -10.09900 15.76800 42.03500
C  -8.87500 16.44900 41.26500
C  -9.35300 17.92300 41.07800
C  -10.87900 17.81800 41.28100
C  -8.71100 19.10600 41.87700
C  -8.49400 15.71500 39.97800
C  -7.14800 15.02700 39.89400
H  -6.49000 14.86600 38.50500
N  -13.91100 18.03700 42.09300
C  -13.16800 18.90100 41.31900
C  -13.97900 20.01100 40.91600
C  -15.29500 19.68400 41.31300
C  -15.17500 18.32900 41.97000
C  -13.45100 21.21500 40.14700
C  -16.51500 20.50000 41.14600
O  -16.44600 21.64300 40.68600
C  -17.86800 20.22600 41.69500
N  -15.17500 15.44600 42.99900
C  -16.29600 16.28900 42.86000
C  -17.60200 15.60000 43.22000
C  -17.06000 14.19400 43.69400
C  -15.55500 14.25200 43.55600
C  -18.47600 16.31400 44.22700
C  -17.70100 12.95500 42.82000
C  -18.31100 11.74800 43.63600
N  -12.54500 14.20200 43.30700
C  -13.26000 13.10900 43.74800
C  -12.37100 11.99300 43.90800
C  -11.11700 12.45900 43.45300
C  -11.23000 13.81700 43.07800
C  -12.60000 10.59400 44.59000
C  -9.68000 12.06200 43.25000
O  -9.02400 11.08500 43.48900
C  -8.99600 13.40900 42.60900
C  -7.86900 13.70900 43.44300
O  -8.01000 14.03000 44.63600
O  -6.65000 13.67200 42.81200
C  -5.44800 13.85200 43.66800
H  -11.33200 19.53500 40.39000
H  -17.27400 17.88600 42.16400
H  -15.08900 12.24900 44.25800
H  -7.97000 16.40500 41.87100
H  -9.32200 18.16500 40.01500
H  -8.24300 19.87100 41.25800
H  -7.87500 18.85400 42.52900
H  -9.40700 19.66400 42.50300
H  -8.41600 16.43400 39.16300
H  -9.15100 14.90000 39.67400
H  -7.23600 14.00700 40.26800
H  -6.50900 15.53200 40.61800
H  -13.69900 21.06500 39.09600
H  -12.36100 21.20900 40.17200
H  -13.80600 22.16900 40.53700
H  -18.19900 19.43100 41.02600
H  -18.42300 21.16200 41.63300
H  -17.93300 19.90200 42.73300
H  -18.18200 15.49000 42.30400
H  -17.47900 13.98000 44.67700
H  -17.90500 16.98600 44.86800
H  -18.78800 15.51300 44.89800
H  -19.29200 16.90200 43.80800
H  -16.94600 12.56600 42.13600
H  -18.50800 13.35300 42.20500
H  -17.43300 11.16600 43.91400
H  -19.03500 11.11000 43.12900
H  -18.84400 12.16100 44.49200
H  -11.85900 10.48700 45.38200
H  -12.39700 9.77100 43.90600
H  -13.63100 10.54400 44.94200
H  -8.79900 13.24500 41.54900
H  -5.41600 13.09100 44.44800
H  -5.31300 14.89600 43.95400
H  -4.52800 13.67400 43.11200

