158

Mg 7.75600 2.17600 28.13800
C  9.42600 0.97700 30.99400
C  5.89100 4.13300 30.12500
C  5.98600 2.97300 25.45100
C  9.66500 0.03900 26.21000
N  7.62500 2.37700 30.37600
C  8.50600 1.97800 31.30600
C  8.25500 2.78100 32.66400
C  7.03700 3.66500 32.29000
C  6.79000 3.35900 30.84400
C  5.76400 3.29700 33.17300
C  9.53100 3.62500 33.12500
C  10.14400 3.41800 34.52400
H  9.80900 4.50600 35.58200
N  6.26600 3.53300 27.86400
C  5.62100 4.26800 28.76300
C  4.51000 5.08000 28.12900
C  4.52900 4.64400 26.75100
C  5.61700 3.67900 26.65600
C  3.65100 6.03500 28.96000
C  3.66200 5.17000 25.59100
O  3.69800 4.79700 24.41500
C  2.75200 6.27700 26.00800
N  7.79100 1.59000 26.09000
C  7.00200 2.08800 25.13600
C  7.14800 1.43900 23.78300
C  8.45900 0.61200 24.00900
C  8.69100 0.73900 25.57700
C  6.00600 0.57000 23.34400
C  9.69200 1.26500 23.24300
C  9.99700 0.80900 21.81700
N  9.18800 0.72600 28.46800
C  9.89900 -0.02500 27.60000
C  10.75800 -0.96400 28.24200
C  10.62200 -0.48900 29.57900
C  9.65200 0.47400 29.66100
C  11.48400 -2.02400 27.54900
C  11.09200 -0.80200 30.86900
O  11.85300 -1.70100 31.25300
C  10.47300 0.23100 31.81400
C  10.01800 -0.41800 33.09900
O  8.88900 -0.82000 33.33200
O  10.98700 -0.15200 34.11100
C  10.49000 -0.42800 35.47800
H  5.37700 4.79400 30.82600
H  5.25600 3.03700 24.64100
H  10.11300 -0.61900 25.46300
H  8.03400 1.95800 33.34400
H  7.27800 4.70500 32.51200
H  6.10300 2.63400 33.96800
H  4.89600 2.88600 32.65600
H  5.39600 4.21900 33.62200
H  9.40900 4.68400 32.90100
H  10.21500 3.29800 32.34200
H  11.23200 3.35200 34.52400
H  9.82800 2.45600 34.92700
H  3.80300 5.91700 30.03300
H  2.60800 5.80400 28.73900
H  3.84500 7.08000 28.72000
H  3.22300 7.04100 26.62600
H  1.88900 5.85700 26.52400
H  2.34300 6.67400 25.07900
H  7.28200 2.31500 23.14700
H  8.27000 -0.42900 23.74700
H  5.73100 0.98100 22.37200
H  5.17700 0.62600 24.04900
H  6.16600 -0.50200 23.22900
H  10.55900 1.13400 23.88900
H  9.56000 2.34300 23.16100
H  9.34700 0.06600 21.35500
H  11.04100 0.49600 21.81200
H  9.82500 1.67700 21.18100
H  10.77400 -2.84700 27.45900
H  12.46100 -2.24400 27.97800
H  11.61400 -1.76400 26.49800
H  11.25300 0.92600 32.12500
H  9.83500 0.38700 35.78500
H  11.36400 -0.51000 36.12400
H  9.92500 -1.36100 35.47700
Mg 36.80900 50.20500 26.78400
C  37.22800 47.80800 29.22200
C  35.72600 52.37500 29.11000
C  36.27700 52.55300 24.30300
C  37.75300 47.93300 24.37600
N  36.21100 49.96100 28.86300
C  36.52500 48.89800 29.69200
C  36.18100 49.30000 31.16500
C  35.43800 50.70600 31.00700
C  35.90000 51.02800 29.58000
C  33.86800 50.74700 31.18800
C  37.51300 49.36600 32.08200
C  37.35500 48.96900 33.53200
H  35.95500 49.01900 34.16100
N  36.21700 52.28800 26.73400
C  35.82200 52.92400 27.81300
C  35.62100 54.35000 27.46400
C  35.67400 54.36300 26.02400
C  36.01400 53.02100 25.63200
C  35.29100 55.38800 28.54900
C  35.33000 55.46600 25.05600
O  35.17300 55.25800 23.88100
C  35.15700 56.81800 25.63300
N  36.88700 50.12800 24.70500
C  36.70600 51.29500 23.93700
C  36.98000 50.96000 22.40000
C  37.70200 49.57900 22.53900
C  37.42100 49.21700 23.90100
C  35.65400 50.85400 21.52000
C  39.19600 49.64900 22.08900
C  40.20600 49.75900 23.24600
N  37.35300 48.28700 26.72900
C  37.69700 47.44100 25.70000
C  38.15200 46.20900 26.19800
C  37.99500 46.28700 27.57800
C  37.45400 47.52700 27.87900
C  38.80900 45.07600 25.47200
C  38.27700 45.62900 28.86300
O  38.80400 44.52700 29.03300
C  37.69700 46.57700 29.98900
C  36.62400 45.93000 30.75100
O  35.52700 45.51500 30.34200
O  37.08900 45.77400 32.06300
C  36.03500 45.25800 32.94700
H  35.37700 53.03100 29.91000
H  35.95100 53.24900 23.52700
H  38.17100 47.20300 23.68000
H  35.52700 48.55100 31.60900
H  35.82100 51.42000 31.73600
H  33.37100 50.79100 30.21900
H  33.54300 51.55800 31.84100
H  33.60500 49.76400 31.57900
H  37.91200 50.37900 32.03900
H  38.21500 48.68800 31.59600
H  38.03500 49.52200 34.18100
H  37.62500 47.91500 33.58700
H  36.21800 55.94600 28.41400
H  35.20000 55.01900 29.57000
H  34.41400 55.88900 28.13900
H  34.21300 56.95100 26.16200
H  35.38500 57.61000 24.91900
H  35.93600 56.84900 26.39500
H  37.64400 51.72200 21.99100
H  37.11500 48.80100 22.05200
H  34.84400 51.19900 22.16300
H  35.44700 49.87700 21.08300
H  35.74500 51.40900 20.58600
H  39.38300 50.54800 21.50100
H  39.34800 48.83500 21.38000
H  40.72900 50.71600 23.27200
H  40.91900 48.96500 23.02300
H  39.90600 49.54300 24.27100
H  39.41800 45.47900 24.66300
H  38.07800 44.36000 25.09400
H  39.53600 44.58300 26.11700
H  38.58700 46.72400 30.60100
H  35.22500 45.97100 32.78900
H  36.45000 45.23700 33.95400
H  35.66700 44.24500 32.78600

