158

Mg 44.99500 2.38000 46.79700
C  43.25000 5.47700 46.14600
C  41.97600 0.82200 46.57000
C  46.59800 -0.46100 46.74900
C  47.90000 4.19100 46.40800
N  42.93000 3.06800 46.33900
C  42.40400 4.37500 46.19100
C  40.88100 4.44200 46.04700
C  40.53600 2.96300 46.60900
C  41.87900 2.23700 46.54200
C  39.78000 2.92100 48.02500
C  40.38500 4.58500 44.53600
C  39.42300 5.74700 44.36000
H  38.55400 5.69900 43.14700
N  44.35700 0.41700 46.72300
C  43.09100 -0.01800 46.75200
C  43.13200 -1.48300 46.83400
C  44.47200 -1.90400 46.70300
C  45.24500 -0.64200 46.65300
C  41.92900 -2.35300 46.93700
C  44.93100 -3.37400 46.69900
O  44.16300 -4.32000 46.58200
C  46.46900 -3.68900 46.72000
N  46.97100 1.99300 46.63600
C  47.37600 0.74000 46.71700
C  48.94700 0.61800 46.70700
C  49.39500 2.10500 46.47000
C  47.99300 2.84800 46.47200
C  49.51600 -0.05000 48.04500
C  50.17300 2.39400 45.11900
C  51.44100 3.24600 45.22200
N  45.57400 4.46000 46.43300
C  46.77300 4.99400 46.28900
C  46.66400 6.41100 46.30800
C  45.26500 6.72300 46.18200
C  44.65300 5.46300 46.27200
C  47.89000 7.34000 46.31800
C  44.20600 7.70200 45.96500
O  44.27000 8.94200 45.83800
C  42.82300 6.89200 46.07500
C  42.19200 7.33900 47.36500
O  42.73900 7.25400 48.45000
O  40.96000 7.84000 47.11000
C  40.13600 8.20100 48.29300
H  41.10300 0.20600 46.79700
H  47.23000 -1.35000 46.81100
H  48.83200 4.75700 46.47800
H  40.34500 5.13200 46.69900
H  39.85300 2.46700 45.91900
H  40.08800 3.69400 48.72800
H  40.06700 1.97600 48.48600
H  38.73000 2.98100 47.73900
H  39.81900 3.69200 44.27400
H  41.19200 4.74600 43.82100
H  40.12100 6.56500 44.17900
H  38.75300 5.85300 45.21300
H  41.25100 -1.77300 47.56300
H  42.02700 -3.37200 47.31200
H  41.41800 -2.38100 45.97500
H  46.99400 -3.30000 45.84800
H  46.70100 -4.75300 46.68400
H  46.89900 -3.31000 47.64800
H  49.28300 0.12500 45.79400
H  49.93200 2.51000 47.32800
H  50.12000 0.59900 48.67900
H  50.10900 -0.94700 47.86600
H  48.62000 -0.22900 48.63900
H  49.52200 2.89000 44.40000
H  50.46100 1.48200 44.59700
H  52.26200 2.63700 44.84300
H  51.58600 3.51100 46.27000
H  51.35900 4.17500 44.65900
H  48.51000 7.21500 45.43000
H  48.53200 6.99800 47.13000
H  47.58000 8.38200 46.39600
H  42.19500 7.12000 45.21400
H  40.71000 8.45000 49.18500
H  39.36200 7.50500 48.61500
H  39.80800 9.18400 47.95600
Mg 8.59800 47.73800 25.08700
C  6.49200 47.78600 27.88900
C  11.16100 48.82200 27.21000
C  10.68400 47.95500 22.38700
C  5.94000 47.31000 22.98000
N  8.74200 48.31700 27.38500
C  7.76800 48.12400 28.30400
C  8.32500 48.42400 29.75300
C  9.78600 48.88400 29.43700
C  9.93900 48.71900 27.88400
C  10.18600 50.25300 30.06700
C  8.10900 47.24500 30.74900
C  9.10000 47.02500 31.94300
H  8.41100 46.42000 33.22300
N  10.65200 48.30300 24.78900
C  11.53000 48.67500 25.75100
C  12.82600 48.74300 25.15700
C  12.74600 48.43200 23.80600
C  11.28200 48.27500 23.59900
C  14.03700 49.13000 26.03700
C  13.80600 48.48100 22.80900
O  13.62700 48.21700 21.62800
C  15.30800 48.45400 23.19800
N  8.29700 47.77200 22.87600
C  9.36300 47.69400 22.00600
C  8.83400 47.23800 20.61000
C  7.27800 47.00800 20.85000
C  7.11900 47.33000 22.30900
C  9.40300 48.13900 19.43100
C  6.93000 45.61400 20.43400
C  5.50300 45.36300 19.88200
N  6.68900 47.46800 25.34500
C  5.66100 47.43300 24.39900
C  4.34400 47.43700 25.04100
C  4.68500 47.38700 26.37900
C  6.08900 47.43500 26.52100
C  2.94800 47.46600 24.36000
C  4.07800 47.35200 27.71100
O  2.87800 47.27700 27.98600
C  5.23600 47.58400 28.74300
C  5.16100 46.42400 29.72700
O  5.41900 45.25600 29.47200
O  4.65100 46.84800 30.94500
C  4.26400 45.75300 31.84300
H  11.93700 49.15700 27.90100
H  11.38100 47.78300 21.56400
H  5.03400 47.16700 22.38700
H  7.79600 49.29500 30.14000
H  10.48900 48.12500 29.77900
H  9.31100 50.86500 30.28300
H  10.83800 50.75100 29.35000
H  10.81800 49.94500 30.90000
H  8.14100 46.31000 30.19000
H  7.12200 47.45800 31.16000
H  9.53400 48.00300 32.15300
H  9.96400 46.42500 31.65700
H  13.86600 49.33800 27.09300
H  14.37400 50.09700 25.66200
H  14.86300 48.43700 26.19300
H  15.72200 49.29100 23.76200
H  15.91400 48.27100 22.31100
H  15.46400 47.59200 23.84700
H  9.34100 46.29400 20.41000
H  6.73300 47.67600 20.18300
H  8.57900 48.76600 19.08900
H  9.73800 47.50000 18.61400
H  10.32800 48.61400 19.75900
H  6.86000 44.97400 21.31300
H  7.60700 45.26200 19.65600
H  5.51700 44.52300 19.18800
H  4.98400 46.23300 19.48200
H  4.95900 45.04400 20.77200
H  2.43400 46.57300 24.71500
H  3.06500 47.31000 23.28800
H  2.37400 48.38000 24.51500
H  5.13500 48.54700 29.24200
H  3.67300 46.18900 32.64900
H  5.08100 45.25800 32.36700
H  3.56500 45.06700 31.36400

