158

Mg 42.87300 4.27100 47.52600
C  40.38400 6.67600 46.96600
C  40.44600 1.86900 47.44100
C  45.18500 1.91400 47.05900
C  45.17300 6.74300 46.32800
N  40.69100 4.30500 47.16300
C  39.84800 5.34600 47.00000
C  38.37700 4.97000 46.74800
C  38.43100 3.43900 47.36800
C  39.96900 3.11800 47.30900
C  37.92900 3.35900 48.80200
C  37.90000 5.10400 45.26600
C  36.91300 6.24200 44.83500
H  37.36700 6.97800 43.59600
N  42.83400 2.15300 47.47500
C  41.75000 1.33800 47.50600
C  42.18500 -0.05300 47.36300
C  43.57400 -0.08300 47.31100
C  43.90800 1.33600 47.22700
C  41.20400 -1.11500 47.28000
C  44.48000 -1.27300 47.24800
O  43.98000 -2.40600 47.37000
C  45.96600 -1.24400 47.12200
N  44.93000 4.36500 46.67000
C  45.67700 3.22900 46.84700
C  47.14200 3.49000 46.37000
C  47.13600 5.09000 46.20800
C  45.68300 5.40900 46.37100
C  48.42200 3.02700 47.08800
C  47.75400 5.67700 44.93100
C  46.98400 5.86300 43.54200
N  42.83400 6.36500 47.09300
C  43.88100 7.24300 46.70300
C  43.34500 8.61200 46.69000
C  41.94000 8.45000 46.73900
C  41.72300 7.06600 47.01200
C  44.13900 9.81700 46.47200
C  40.74200 9.17000 46.78500
O  40.55500 10.39600 46.69000
C  39.64300 8.06600 46.83700
C  38.60500 8.34700 47.86900
O  38.73800 8.28700 49.11800
O  37.48000 8.92200 47.27000
C  36.64200 9.64100 48.24000
H  39.61000 1.17700 47.56200
H  45.91300 1.13500 46.82100
H  45.89700 7.48300 45.98200
H  37.75100 5.62400 47.35600
H  37.90100 2.69500 46.77400
H  37.44500 4.30200 49.05500
H  38.73800 3.11400 49.49000
H  37.23100 2.52200 48.83500
H  37.46700 4.13200 45.03100
H  38.79300 5.19400 44.64600
H  36.68400 7.01000 45.57300
H  35.97600 5.71800 44.64600
H  41.45600 -1.71000 46.40300
H  40.17800 -0.77300 47.14000
H  41.34200 -1.70700 48.18500
H  46.38800 -0.53500 47.83500
H  46.10600 -0.86700 46.10900
H  46.37600 -2.22000 47.38200
H  47.21300 3.14500 45.33800
H  47.67300 5.63100 46.98800
H  49.26700 2.98200 46.40000
H  48.40100 1.98800 47.41700
H  48.71600 3.72000 47.87600
H  48.60100 5.04800 44.65700
H  48.10800 6.67300 45.19900
H  45.93200 5.72900 43.79200
H  47.26100 5.08100 42.83500
H  47.32400 6.79600 43.09200
H  44.90100 9.75800 47.24800
H  43.67700 10.78800 46.65200
H  44.51000 9.85500 45.44700
H  39.11200 7.99100 45.88700
H  36.24300 8.85800 48.88400
H  35.82200 10.17300 47.75600
H  37.09500 10.42400 48.84900
Mg 53.58400 24.61800 44.41700
C  50.75700 26.68500 43.95000
C  51.60400 21.85800 43.95700
C  56.39400 22.83400 44.27900
C  55.51100 27.57900 44.86500
N  51.51100 24.32600 43.77200
C  50.52800 25.27700 43.56900
C  49.15000 24.70800 43.27600
C  49.39300 23.27300 43.67900
C  50.93900 23.13900 43.82400
C  48.50300 22.70200 44.91700
C  48.58600 24.91600 41.80800
C  49.71900 25.37300 40.86000
H  49.18100 25.71500 39.49600
N  53.94300 22.60600 44.07700
C  53.03100 21.66100 43.98100
C  53.69200 20.34500 43.96700
C  55.07700 20.61900 43.89000
C  55.20100 22.04900 44.10600
C  52.95400 19.01400 44.03000
C  56.21700 19.65600 43.60400
O  55.88400 18.45500 43.44300
C  57.67700 19.97500 43.61500
N  55.73500 25.17300 44.54000
C  56.67100 24.22800 44.40800
C  58.06500 24.80500 44.68400
C  57.69800 26.35200 44.54700
C  56.19300 26.37800 44.72100
C  58.41600 24.31100 46.13700
C  58.25500 26.96100 43.22200
C  59.56900 27.69700 43.31600
N  53.26300 26.73300 44.38800
C  54.10900 27.78500 44.76500
C  53.28700 29.02300 44.93900
C  51.98400 28.58300 44.59000
C  52.01000 27.23800 44.33700
C  53.90300 30.35700 45.33800
C  50.63300 29.03100 44.37300
O  50.16900 30.17700 44.49400
C  49.73600 27.86200 44.00100
C  49.00100 28.13100 42.73500
O  49.58700 28.49700 41.70800
O  47.62600 28.10900 42.88000
C  46.84800 28.33700 41.53400
H  50.98300 20.96000 43.92300
H  57.32200 22.25900 44.32100
H  55.95000 28.57000 45.00000
H  48.42900 25.19400 43.93200
H  49.04600 22.58900 42.90500
H  49.05900 22.11500 45.64800
H  47.75000 22.04100 44.48700
H  47.99700 23.49100 45.47400
H  47.67500 25.50700 41.71200
H  48.24600 23.92700 41.50000
H  50.50000 24.61300 40.83700
H  50.22100 26.23700 41.29500
H  52.50500 18.71200 43.08400
H  52.27000 19.02100 44.87800
H  53.70400 18.23600 44.17700
H  58.19500 19.03800 43.41400
H  57.82400 20.32200 44.63800
H  57.89400 20.75200 42.88100
H  58.72300 24.46700 43.88400
H  58.12100 26.98000 45.33100
H  58.57000 25.21400 46.72800
H  59.30300 23.67800 46.16200
H  57.64700 23.82400 46.73600
H  57.49500 27.56500 42.72800
H  58.45400 26.21500 42.45200
H  59.48500 28.68600 42.86400
H  60.26600 27.08300 42.74400
H  59.86300 27.77400 44.36300
H  53.17600 31.16700 45.28900
H  54.73600 30.68600 44.71700
H  54.40900 30.26400 46.29900
H  49.00200 27.68100 44.78600
H  46.51800 27.32500 41.30000
H  47.35200 28.84600 40.71200
H  45.86100 28.74600 41.74800

