158

Mg 4.97500 54.99100 40.75300
C  4.55500 51.54000 40.68200
C  7.89900 54.67400 39.29800
C  4.97800 58.28100 40.40300
C  1.78900 55.14500 42.20600
N  5.99700 53.28100 39.94400
C  5.79500 51.91900 40.15000
C  6.92800 51.06200 39.69700
C  8.10500 52.12400 39.45100
C  7.26400 53.40600 39.53800
C  9.32600 52.09000 40.41400
C  6.66600 50.07800 38.44500
C  5.63800 50.51600 37.38200
H  6.16700 51.04000 36.03300
N  6.26300 56.33400 39.90000
C  7.46400 55.98100 39.41400
C  8.11200 57.12400 38.87000
C  7.40200 58.28100 39.31800
C  6.14300 57.66300 39.90400
C  9.45500 56.99200 38.08700
C  7.75600 59.66300 39.09800
O  8.77500 59.92700 38.49400
C  6.95600 60.82900 39.62800
N  3.49500 56.47100 41.07900
C  3.82600 57.76600 40.93200
C  2.63000 58.63300 41.39500
C  1.53200 57.63000 41.57100
C  2.26200 56.32400 41.60000
C  3.03600 59.54600 42.63900
C  0.39000 57.56700 40.48600
C  -0.99200 57.86500 40.96300
N  3.47000 53.61700 41.36700
C  2.28900 53.83900 41.99300
C  1.66200 52.58500 42.37400
C  2.57100 51.56300 41.87300
C  3.53600 52.30900 41.19600
C  0.42700 52.45200 43.17800
C  2.82500 50.18400 41.72000
O  2.11600 49.21900 42.12600
C  4.23300 50.07100 41.09200
C  4.12700 49.07100 40.01700
O  3.35200 49.22300 39.03000
O  4.85000 47.90800 40.33700
C  4.85700 46.83900 39.31500
H  8.89400 54.56900 38.86200
H  4.96000 59.35900 40.22600
H  0.78800 55.15500 42.64200
H  7.25200 50.37300 40.47600
H  8.54000 51.95700 38.46600
H  10.17400 51.79000 39.79900
H  9.28900 51.45900 41.30200
H  9.44500 53.09400 40.82000
H  6.42100 49.09800 38.85600
H  7.62600 50.10800 37.93000
H  4.87500 51.21400 37.72800
H  5.21800 49.54700 37.11200
H  10.12700 56.89700 38.93900
H  9.83400 57.91500 37.64800
H  9.46800 56.08800 37.47700
H  7.55600 61.73300 39.51800
H  6.65600 60.56800 40.64300
H  5.99400 60.93700 39.12900
H  2.40100 59.34300 40.60100
H  1.19400 57.69200 42.60500
H  2.65600 59.13700 43.57400
H  2.67200 60.57300 42.59700
H  4.09600 59.61200 42.88600
H  0.20100 56.60200 40.01500
H  0.51500 58.37800 39.76800
H  -1.28300 58.82900 40.54600
H  -0.95700 57.91000 42.05100
H  -1.70800 57.08000 40.71800
H  0.17100 51.42400 42.92100
H  -0.41600 53.13700 43.08900
H  0.79200 52.41000 44.20400
H  5.02600 49.78700 41.78400
H  4.57400 47.25200 38.34700
H  4.18400 46.04000 39.62500
H  5.83900 46.37400 39.22400
Mg 17.11200 51.96700 25.81300
C  18.82000 50.45000 28.48400
C  14.82000 53.20600 28.14400
C  15.30400 53.05000 23.28900
C  19.33600 50.39400 23.62200
N  16.89600 51.87800 28.00600
C  17.69600 51.14700 28.87800
C  17.22200 51.36400 30.35100
C  15.80500 51.93500 30.14800
C  15.79600 52.32400 28.65500
C  14.73800 50.93200 30.40200
C  18.23500 52.33200 31.11100
C  18.39600 52.24000 32.63300
H  17.22400 51.68100 33.48800
N  15.35300 53.10300 25.72500
C  14.60100 53.53700 26.79900
C  13.57200 54.43900 26.27200
C  13.66800 54.40900 24.82800
C  14.77700 53.45100 24.53100
C  12.60000 55.15000 27.11700
C  12.82500 55.14800 23.77600
O  13.00100 55.14800 22.55800
C  11.78500 56.07000 24.34700
N  17.26400 51.61600 23.72400
C  16.34400 52.17900 22.87300
C  16.67400 51.90300 21.41000
C  18.14500 51.28300 21.49200
C  18.32500 51.15000 23.05700
C  15.64300 51.17900 20.53600
C  19.21000 52.23700 20.82500
C  20.68600 51.82200 20.69000
N  18.74600 50.69700 25.96700
C  19.50500 50.11100 24.98900
C  20.55100 49.34000 25.61600
C  20.39700 49.47200 27.00300
C  19.24400 50.32300 27.18800
C  21.68600 48.72700 24.91800
C  20.89800 49.13400 28.29400
O  21.87200 48.51600 28.64100
C  19.95500 49.82700 29.29400
C  19.56000 48.76900 30.27500
O  18.89800 47.77300 29.99700
O  19.93000 49.01000 31.55700
C  19.16800 48.16100 32.57100
H  14.07100 53.44400 28.90200
H  14.65600 53.50200 22.53600
H  20.07700 50.00000 22.92400
H  17.18200 50.40200 30.86300
H  15.61900 52.77100 30.82200
H  13.81500 51.50900 30.46400
H  14.79300 50.45400 31.38100
H  14.63400 50.31400 29.51000
H  18.01400 53.37000 30.86300
H  19.18000 52.08500 30.62700
H  18.54100 53.25100 33.01400
H  19.31000 51.67700 32.82400
H  12.49300 56.20700 26.87200
H  12.90400 55.27000 28.15700
H  11.68400 54.56400 27.18800
H  11.11400 55.70600 25.12600
H  11.14700 56.19200 23.47200
H  12.31000 56.99600 24.58100
H  16.80600 52.93500 21.08500
H  18.25100 50.33800 20.95800
H  16.08900 50.65600 19.68900
H  14.95600 51.88700 20.07400
H  15.10200 50.40600 21.08200
H  19.20100 53.10500 21.48400
H  18.81700 52.53100 19.85200
H  21.01100 52.17100 19.71000
H  20.93200 50.78400 20.91600
H  21.23100 52.34700 21.47500
H  22.15500 49.28000 24.10400
H  21.32900 47.71200 24.74400
H  22.42100 48.69200 25.72300
H  20.53500 50.60600 29.78900
H  19.15800 47.07200 32.52400
H  18.14000 48.52300 32.58800
H  19.66500 48.37300 33.51800

