158

Mg 9.34100 4.32700 27.90900
C  10.71200 2.67600 30.66700
C  7.24000 5.92500 29.95600
C  7.84900 5.72100 25.11100
C  10.93900 2.02000 25.74200
N  8.97700 4.20600 30.16700
C  9.71800 3.57800 31.13500
C  9.14800 3.88700 32.51900
C  7.93400 4.83900 32.23900
C  8.09300 5.03300 30.69800
C  6.48800 4.35000 32.59600
C  10.20800 4.30500 33.63400
C  9.58400 4.27200 35.03300
H  10.48000 4.37600 36.21900
N  7.85800 5.77600 27.63800
C  7.03500 6.20500 28.56800
C  6.11700 7.22300 28.02200
C  6.24000 7.16200 26.60300
C  7.42500 6.25900 26.37700
C  5.19300 8.06300 28.78800
C  5.45200 7.87400 25.44800
O  5.78300 7.82700 24.29600
C  4.32300 8.85000 25.69300
N  9.35600 3.98300 25.76500
C  8.63600 4.62100 24.84200
C  8.80100 4.00500 23.44300
C  9.80900 2.85200 23.67400
C  10.12400 3.02700 25.16600
C  7.49600 3.57400 22.73600
C  11.05300 2.75000 22.75500
C  11.04800 1.69500 21.63800
N  10.59700 2.66900 28.06200
C  11.20900 1.84300 27.12300
C  11.98900 0.90200 27.85700
C  11.98600 1.30900 29.22700
C  10.96700 2.29300 29.28800
C  12.80000 -0.23700 27.20400
C  12.46600 0.96300 30.55900
O  13.23000 0.08400 30.93700
C  11.72600 1.92700 31.50200
C  11.10800 1.16200 32.55800
O  10.11400 0.42200 32.44700
O  11.73400 1.41800 33.73000
C  11.22700 0.67700 34.85700
H  6.57600 6.47200 30.62800
H  7.31800 6.10800 24.23900
H  11.23700 1.24100 25.03600
H  8.89400 2.90500 32.91700
H  8.10500 5.85200 32.60300
H  6.43700 3.54200 33.32500
H  5.90000 4.09200 31.71500
H  5.88100 5.19700 32.91700
H  10.55300 5.31600 33.42000
H  11.07900 3.65600 33.54100
H  9.04200 3.32600 35.03600
H  8.80600 5.02900 35.13000
H  5.76300 8.98800 28.87000
H  4.86200 7.61500 29.72400
H  4.28500 8.33300 28.24900
H  3.88600 9.26300 24.78400
H  4.61000 9.72400 26.27800
H  3.51300 8.32000 26.19500
H  9.29200 4.81000 22.89600
H  9.25200 1.91700 23.62300
H  6.69900 3.64500 23.47700
H  7.52200 2.55200 22.35800
H  7.50100 4.35900 21.98000
H  11.94500 2.70500 23.38100
H  11.11500 3.73900 22.30100
H  10.06100 1.25200 21.50500
H  11.69400 0.88400 21.97400
H  11.33700 2.06300 20.65300
H  12.52500 -1.20300 27.62900
H  13.83800 0.07600 27.31500
H  12.54400 -0.38000 26.15400
H  12.43200 2.57700 32.01800
H  10.18700 0.36200 34.76500
H  11.23300 1.21000 35.80700
H  11.82000 -0.23500 34.92200
Mg 6.29500 54.90900 41.19400
C  6.13000 51.39900 40.97200
C  9.52500 54.82200 40.01400
C  6.34000 58.21900 41.10200
C  3.13100 54.85400 42.68600
N  7.57200 53.27800 40.35300
C  7.34600 51.94500 40.46800
C  8.55800 51.14900 40.10800
C  9.72400 52.24500 40.06100
C  8.93300 53.53100 40.19300
C  10.93900 52.13700 41.07500
C  8.37100 50.23100 38.81300
C  7.55700 50.80400 37.58800
H  8.13900 50.98400 36.19200
N  7.63500 56.27900 40.45600
C  8.91800 56.08100 40.06600
C  9.53000 57.33800 39.70000
C  8.64000 58.39300 39.96700
C  7.47000 57.64800 40.54300
C  10.92200 57.40900 39.14700
C  8.84600 59.82000 39.68300
O  9.86700 60.17700 39.16700
C  7.71700 60.82000 39.70500
N  4.81300 56.31800 41.65600
C  5.20200 57.63400 41.70600
C  4.11600 58.53100 42.25500
C  3.08500 57.43000 42.73600
C  3.72000 56.13000 42.39600
C  4.54700 59.46400 43.39200
C  1.77300 57.44800 41.98800
C  0.96400 58.75200 42.23100
N  4.79300 53.41300 41.58400
C  3.61400 53.51900 42.32000
C  3.14000 52.19500 42.66400
C  4.11100 51.35400 42.10100
C  5.10400 52.14500 41.41600
C  1.78900 51.95700 43.47100
C  4.50800 49.93900 42.05100
O  4.05800 48.82900 42.45500
C  5.80100 49.93500 41.29500
C  5.57700 49.00000 40.04400
O  5.02000 49.39200 39.03100
O  5.95400 47.67700 40.27700
C  5.60400 46.81000 39.17700
H  10.58100 54.57200 39.88700
H  6.40400 59.30700 41.03800
H  2.14800 54.71500 43.14200
H  8.80700 50.58900 41.00900
H  10.13400 52.34400 39.05600
H  11.08100 53.00900 41.71500
H  11.90000 51.97000 40.58900
H  10.65100 51.28900 41.69600
H  7.90800 49.26000 38.98900
H  9.36400 50.06200 38.39600
H  7.20900 51.82300 37.75600
H  6.59000 50.31700 37.46000
H  11.29400 56.43300 38.83500
H  11.49500 57.81600 39.98000
H  11.01700 57.93200 38.19500
H  7.86600 61.60000 38.95900
H  7.62600 61.21500 40.71700
H  6.79900 60.32500 39.38700
H  3.76600 59.02400 41.34800
H  2.88500 57.26700 43.79500
H  4.65100 59.07900 44.40600
H  3.81700 60.27200 43.33400
H  5.43800 60.03200 43.12500
H  1.19900 56.60100 42.36300
H  1.95500 57.18100 40.94700
H  0.10400 58.35600 42.77000
H  0.67300 59.32800 41.35300
H  1.38400 59.47200 42.93300
H  0.92100 52.39000 42.97600
H  2.01000 52.47900 44.40200
H  1.66400 50.89200 43.67000
H  6.56900 49.43000 41.88000
H  6.01000 47.21700 38.25000
H  4.52300 46.68900 39.10300
H  6.05200 45.81600 39.18400

