158

Mg 27.69400 49.87900 26.46600
C  25.38100 51.08200 29.03000
C  29.75400 49.04100 28.83700
C  29.58800 48.87100 23.99400
C  25.25300 51.02800 24.17600
N  27.48300 50.08100 28.69800
C  26.53600 50.52300 29.54300
C  26.90200 50.27300 31.00000
C  28.45800 49.97000 30.87100
C  28.56800 49.62700 29.37000
C  29.41000 51.15700 31.34400
C  26.06600 49.20900 31.68900
C  25.08500 49.75200 32.76800
H  25.35000 49.21500 34.21000
N  29.47800 49.14900 26.46800
C  30.19000 48.84500 27.53000
C  31.38700 48.03800 27.11200
C  31.41000 48.06500 25.69600
C  30.13600 48.69600 25.32100
C  32.35800 47.43100 28.09300
C  32.36800 47.48900 24.70100
O  32.37300 47.87400 23.55400
C  33.46200 46.53600 25.17200
N  27.53400 50.15800 24.31900
C  28.41500 49.51400 23.53300
C  27.98500 49.56400 22.07900
C  26.48300 50.00000 22.21600
C  26.42100 50.46000 23.67900
C  28.77400 50.62900 21.21800
C  25.46400 48.92500 21.85500
C  24.22800 49.48700 21.13600
N  25.74400 51.02500 26.51300
C  24.83300 51.35000 25.52600
C  23.55300 51.94300 26.06800
C  23.78800 51.89600 27.42800
C  25.10200 51.33000 27.67500
C  22.43000 52.53700 25.33800
C  23.23400 52.27000 28.73500
O  22.14200 52.82300 29.03600
C  24.22500 51.70000 29.81100
C  24.67000 52.88400 30.58000
O  25.63000 53.60300 30.37600
O  23.83500 53.10400 31.66100
C  24.05500 54.28700 32.43600
H  30.34100 48.56600 29.62700
H  30.07900 48.26700 23.22800
H  24.50800 51.18400 23.39300
H  26.85700 51.24300 31.49500
H  28.81800 49.11300 31.44000
H  28.87100 52.04000 31.68900
H  29.98700 51.52400 30.49500
H  30.11000 50.89900 32.13800
H  26.71400 48.53200 32.24500
H  25.42000 48.67700 30.99100
H  24.08400 49.42800 32.48500
H  25.04000 50.84100 32.78800
H  32.05500 47.60600 29.12600
H  33.34200 47.87100 27.93100
H  32.31000 46.36000 27.90000
H  34.35600 46.93500 25.65100
H  33.81000 46.14100 24.21700
H  33.01100 45.66700 25.65200
H  28.04300 48.60500 21.56400
H  26.22800 50.87500 21.61700
H  29.64000 50.97300 21.78200
H  28.12700 51.40100 20.80300
H  29.29300 50.23000 20.34600
H  25.18200 48.53300 22.83200
H  26.00800 48.17800 21.27600
H  23.37500 49.52300 21.81300
H  24.03400 48.83900 20.28100
H  24.42800 50.48300 20.74000
H  22.62600 53.60400 25.43900
H  21.45600 52.19900 25.69000
H  22.54300 52.22400 24.30000
H  23.70100 51.04200 30.50400
H  23.24300 54.44700 33.14600
H  24.14700 55.20000 31.84800
H  25.00300 54.11500 32.94500
Mg 10.48700 47.25900 26.25900
C  8.45000 47.79400 29.04800
C  13.06800 48.83700 27.95500
C  12.38400 46.89600 23.49700
C  7.55100 46.62300 24.30600
N  10.69400 48.28000 28.24700
C  9.79800 48.07700 29.28000
C  10.46200 48.56800 30.60200
C  11.57000 49.46600 30.04600
C  11.85600 48.85000 28.67000
C  11.28700 50.97500 29.96600
C  10.91600 47.45600 31.49600
C  11.09900 47.70500 33.02900
H  10.77000 46.50300 33.98900
N  12.49900 47.65700 25.85900
C  13.38000 48.29900 26.70300
C  14.74800 48.28500 26.04100
C  14.53700 47.65200 24.77500
C  13.09300 47.37700 24.61400
C  15.92600 48.84100 26.68800
C  15.51900 47.16400 23.79400
O  15.28600 46.41900 22.81100
C  16.88300 47.64400 23.93500
N  9.98500 46.94600 24.11900
C  11.01200 46.63600 23.26000
C  10.40400 46.11000 21.95100
C  8.96200 45.82300 22.34000
C  8.79800 46.52900 23.65300
C  10.54000 47.03600 20.70100
C  8.53800 44.35100 22.37300
C  9.26800 43.51700 23.36100
N  8.34800 47.18300 26.59600
C  7.32600 46.95000 25.75200
C  6.08300 47.16400 26.45500
C  6.47800 47.41800 27.84300
C  7.88900 47.47600 27.78500
C  4.59300 47.12600 25.95100
C  6.07500 47.61000 29.19200
O  4.93800 47.68400 29.62800
C  7.35100 47.77600 30.07000
C  7.45400 46.56700 30.92900
O  7.94400 45.47600 30.60000
O  6.94200 46.82200 32.14700
C  6.85400 45.71200 33.13200
H  13.85900 49.31000 28.54000
H  12.96600 46.59700 22.62300
H  6.67000 46.29300 23.75100
H  9.81900 49.29600 31.09700
H  12.54700 49.32600 30.50900
H  10.23100 51.22000 30.07900
H  11.51500 51.46800 29.02100
H  11.69100 51.49800 30.83300
H  11.84700 47.11300 31.04300
H  10.22300 46.62700 31.34900
H  10.39700 48.49800 33.28700
H  12.12300 47.94000 33.32200
H  15.77200 49.28500 27.67100
H  16.33000 49.61600 26.03600
H  16.69100 48.07900 26.83700
H  16.78500 48.72800 23.98400
H  17.52400 47.26600 23.13800
H  17.21800 47.25600 24.89700
H  10.96600 45.19200 21.78300
H  8.18200 46.25100 21.71100
H  10.35700 48.10000 20.84600
H  9.86100 46.70700 19.91400
H  11.55400 47.05200 20.30100
H  8.54900 43.91900 21.37200
H  7.46100 44.33300 22.54000
H  8.75600 43.30300 24.29800
H  10.24300 43.91200 23.64700
H  9.59000 42.62400 22.82500
H  4.42200 48.07000 25.43400
H  3.94900 46.97800 26.81800
H  4.47100 46.23600 25.33300
H  7.27500 48.61100 30.76600
H  7.57100 44.91800 32.92300
H  5.84000 45.32400 33.23300
H  7.12400 45.98300 34.15200

