158

Mg 24.19600 -5.01900 45.32800
C  26.42400 -2.64300 43.93600
C  21.60500 -3.68200 43.45400
C  22.33000 -7.46300 46.29200
C  27.10700 -6.28000 47.01200
N  24.13000 -3.41000 43.78500
C  25.14200 -2.58300 43.35000
C  24.65400 -1.60100 42.31600
C  23.04400 -1.73700 42.51200
C  22.84500 -2.99900 43.30600
C  22.41600 -0.50900 43.14500
C  25.10500 -1.97700 40.87500
C  25.64200 -0.80400 40.01400
H  25.36700 -1.03800 38.47900
N  22.23600 -5.42500 45.03200
C  21.35300 -4.81400 44.17600
C  20.04900 -5.47500 44.23500
C  20.24400 -6.55900 45.09800
C  21.67300 -6.52600 45.54500
C  18.86900 -4.98200 43.56700
C  19.13400 -7.67700 45.30500
O  17.97500 -7.48800 44.97600
C  19.45600 -8.95300 46.00800
N  24.64600 -6.55800 46.54500
C  23.67000 -7.46200 46.78900
C  24.22900 -8.80800 47.34100
C  25.71300 -8.34500 47.71400
C  25.82800 -7.01600 47.03500
C  23.49300 -9.43100 48.52700
C  26.82200 -9.31000 47.34600
C  27.14100 -10.31700 48.46500
N  26.31100 -4.54200 45.48700
C  27.35800 -5.13300 46.26200
C  28.60500 -4.37900 46.12400
C  28.22300 -3.32800 45.21800
C  26.87700 -3.54200 44.88000
C  29.88900 -4.64800 46.74400
C  28.69800 -2.16600 44.54300
O  29.76800 -1.55700 44.62300
C  27.56000 -1.69800 43.63400
C  27.38900 -0.20400 43.79300
O  26.67900 0.38800 44.62700
O  28.19300 0.41300 42.85800
C  28.45300 1.92600 42.95900
H  20.77100 -3.17000 42.96900
H  21.66300 -8.20200 46.74100
H  28.00100 -6.74600 47.43200
H  25.04200 -0.61300 42.56500
H  22.58300 -1.88900 41.53600
H  21.73900 -0.70200 43.97700
H  21.81400 0.10200 42.47300
H  23.28600 0.06800 43.46100
H  24.30900 -2.46900 40.31600
H  25.94100 -2.67400 40.83100
H  26.67800 -0.59000 40.27800
H  25.12200 0.10200 40.32300
H  17.98400 -5.61500 43.63400
H  19.02200 -4.47500 42.61400
H  18.67300 -4.12600 44.21200
H  18.62400 -9.64700 45.88700
H  19.69500 -8.63800 47.02400
H  20.30600 -9.43900 45.52900
H  24.20600 -9.56100 46.55300
H  25.74400 -8.07600 48.77000
H  22.72700 -8.79300 48.96800
H  24.30000 -9.73700 49.19200
H  22.92000 -10.34200 48.35600
H  27.72500 -8.80300 47.00500
H  26.44800 -9.81000 46.45300
H  28.11500 -10.80500 48.48100
H  26.37500 -11.07700 48.31000
H  26.99800 -9.81200 49.42100
H  29.86400 -4.16300 47.72000
H  30.75500 -4.24300 46.22000
H  30.03100 -5.71800 46.89600
H  27.78500 -1.88600 42.58400
H  29.38300 2.08700 42.41300
H  28.55900 2.26600 43.98900
H  27.64900 2.48000 42.47500
Mg 5.57200 54.12200 40.98300
C  4.61800 50.71500 40.32100
C  8.60300 53.46600 39.60500
C  6.13400 57.48600 41.16300
C  2.31900 54.51100 42.35700
N  6.30900 52.41600 39.81100
C  5.83700 51.14600 39.75600
C  6.78200 50.30400 38.93200
C  8.17900 51.01000 39.21200
C  7.67200 52.37500 39.60600
C  9.12000 50.42800 40.27600
C  6.33700 50.28800 37.42800
C  7.24600 49.39100 36.47300
H  6.30900 48.56600 35.50500
N  7.17900 55.34900 40.36400
C  8.34800 54.84300 39.94400
C  9.29400 55.97400 39.85100
C  8.51800 57.16500 40.09800
C  7.19800 56.72400 40.52900
C  10.65300 55.77900 39.39600
C  9.04100 58.50800 40.06500
O  10.18900 58.74700 39.63100
C  8.25500 59.73700 40.42200
N  4.34000 55.70100 41.48200
C  4.88200 56.95800 41.60000
C  3.93800 57.97100 42.31300
C  2.75600 57.02000 42.79900
C  3.16100 55.63200 42.21100
C  4.61600 58.86000 43.47800
C  1.30100 57.53300 42.33200
C  0.54100 58.30800 43.34500
N  3.72500 52.83300 41.25900
C  2.57800 53.18100 41.98300
C  1.77700 51.94200 42.12200
C  2.60400 50.99700 41.53400
C  3.68600 51.54900 40.96700
C  0.42900 51.81000 42.79600
C  2.51300 49.63100 41.27700
O  1.71500 48.78800 41.64700
C  3.93000 49.37000 40.43500
C  3.50500 48.62200 39.15600
O  2.45300 48.59200 38.50400
O  4.63200 47.87600 38.83200
C  4.70600 46.64000 38.10200
H  9.62200 53.25600 39.27300
H  6.33900 58.54200 41.35200
H  1.40500 54.73000 42.91400
H  6.95700 49.31500 39.35600
H  8.63600 51.11000 38.22800
H  10.12800 50.24600 39.90300
H  8.75000 49.47900 40.66400
H  9.15900 51.10100 41.13300
H  6.44400 51.29200 37.01700
H  5.29400 50.02300 37.25800
H  7.95400 48.62700 36.79100
H  7.82000 50.10900 35.88800
H  11.33000 56.24000 40.11600
H  10.66000 55.98100 38.32500
H  10.87600 54.72700 39.57100
H  8.91200 60.54600 40.10200
H  8.05600 59.74900 41.49400
H  7.37200 59.75300 39.78400
H  3.50700 58.60800 41.54100
H  2.63500 56.83400 43.86600
H  4.19100 58.71000 44.47000
H  4.26100 59.88200 43.34500
H  5.69700 58.73200 43.52600
H  0.72600 56.67400 41.98600
H  1.45000 58.15500 41.45000
H  -0.15200 58.98600 42.84700
H  1.23700 58.88700 43.95200
H  -0.02200 57.56600 43.91100
H  0.01100 50.88200 42.40600
H  -0.19900 52.66200 42.53800
H  0.64000 51.73700 43.86300
H  4.39000 48.65000 41.11100
H  4.15400 45.86000 38.62500
H  5.73800 46.35200 37.90300
H  4.32000 46.90400 37.11700

