158

Mg 53.27300 23.96200 44.83300
C  50.60100 26.19100 44.09100
C  51.21700 21.39100 43.67200
C  55.98700 22.05700 44.56500
C  55.23400 26.80600 45.24100
N  51.30800 23.81500 43.81200
C  50.33900 24.87100 43.66300
C  49.12300 24.31100 42.90800
C  49.17500 22.84400 43.32900
C  50.69800 22.67300 43.57100
C  48.32700 22.52900 44.58900
C  49.32500 24.54200 41.37400
C  48.01600 24.68300 40.61500
H  48.02700 25.01300 39.12600
N  53.56400 21.97600 44.36600
C  52.60600 21.02400 43.97700
C  53.17500 19.79300 44.14500
C  54.59400 19.91400 44.31500
C  54.76800 21.35000 44.39700
C  52.38400 18.53700 44.21500
C  55.69700 18.79100 44.39300
O  55.41200 17.64100 44.38800
C  57.08900 18.99500 44.65000
N  55.35900 24.40100 44.67900
C  56.26200 23.43600 44.76400
C  57.70600 23.84700 44.94100
C  57.49500 25.45500 45.10500
C  55.90500 25.57000 44.99400
C  58.58000 23.15300 45.97600
C  58.25400 26.42800 44.12100
C  58.27200 26.14400 42.61800
N  52.98100 26.04400 44.95900
C  53.84100 27.00600 45.29700
C  53.13500 28.28200 45.42000
C  51.86400 28.02200 45.02000
C  51.83400 26.68300 44.62100
C  53.69000 29.61800 45.88100
C  50.61800 28.61900 44.72900
O  50.11900 29.68700 44.97200
C  49.74200 27.38000 44.12500
C  49.14400 27.81700 42.83200
O  49.77000 27.67000 41.76300
O  47.80400 28.17800 42.90500
C  47.15500 28.29300 41.60300
H  50.51800 20.57500 43.47300
H  56.86200 21.40500 44.61700
H  55.94000 27.61200 45.45500
H  48.21900 24.82400 43.23400
H  48.93300 22.22200 42.46700
H  48.98400 22.00600 45.28300
H  47.70000 21.71900 44.21700
H  47.84700 23.35200 45.11900
H  49.96700 23.80800 40.88700
H  49.88900 25.47400 41.34400
H  47.42300 25.49000 41.04600
H  47.39600 23.83000 40.89200
H  52.42500 18.13300 43.20400
H  51.38200 18.84900 44.51000
H  52.83700 17.92500 44.99400
H  57.61400 18.08300 44.93500
H  57.10000 19.64400 45.52600
H  57.27100 19.35400 43.63800
H  58.21100 23.69000 43.98800
H  57.86200 25.73900 46.09100
H  59.34600 22.63600 45.39900
H  58.04300 22.30100 46.39300
H  58.90200 23.77000 46.81500
H  59.27200 26.52800 44.49700
H  57.74000 27.38200 44.23900
H  58.07300 27.05200 42.04900
H  57.51200 25.42100 42.31800
H  59.18300 25.58800 42.39700
H  54.24100 29.36000 46.78500
H  52.88900 30.27700 46.21600
H  54.22600 30.05200 45.03600
H  48.89200 27.25900 44.79700
H  47.66100 27.70700 40.83600
H  47.31000 29.33000 41.30600
H  46.07000 28.21300 41.53100
Mg 26.04900 51.04800 26.64600
C  23.76000 51.92200 29.25300
C  28.33300 50.23500 29.02900
C  28.35700 51.00000 24.15300
C  23.66800 52.32900 24.25800
N  26.05200 51.28500 28.88000
C  25.04800 51.58200 29.74300
C  25.45100 51.42600 31.16900
C  26.96100 51.10100 31.12300
C  27.16300 50.82900 29.56300
C  28.02100 52.14000 31.66600
C  24.62400 50.22700 31.92600
C  23.88400 50.64100 33.14900
H  24.71200 51.11800 34.31300
N  28.09200 50.51000 26.58600
C  28.83700 50.13300 27.70800
C  30.10600 49.76200 27.30500
C  30.24300 50.18100 25.88700
C  28.90700 50.64900 25.48600
C  31.18200 49.25700 28.30500
C  31.44400 50.22900 25.04900
O  31.35000 50.67700 23.96400
C  32.66800 49.88700 25.60200
N  25.96900 51.60400 24.55300
C  27.05700 51.40200 23.73300
C  26.78600 51.78500 22.23800
C  25.26900 52.11200 22.26300
C  24.93800 51.94600 23.79100
C  27.79900 52.91400 21.78200
C  24.35400 51.36200 21.31800
C  23.96500 52.03300 19.94600
N  24.07300 51.85100 26.64900
C  23.20300 52.28200 25.61600
C  21.94600 52.76400 26.24200
C  22.12800 52.52600 27.60600
C  23.43500 52.03100 27.82400
C  20.74300 53.23800 25.46500
C  21.42100 52.66800 28.92500
O  20.27100 53.02200 29.21300
C  22.58100 52.53600 30.03100
C  22.78300 53.83300 30.75200
O  23.07900 54.88200 30.20400
O  22.60600 53.66800 32.09900
C  22.61900 54.86400 32.96400
H  28.90700 49.79500 29.84700
H  29.02600 51.07300 23.29200
H  22.94600 52.68500 23.52000
H  25.29100 52.39100 31.65000
H  27.26700 50.16600 31.59100
H  28.45800 51.62200 32.52000
H  27.54500 52.99400 32.14800
H  28.84100 52.40900 31.00000
H  25.25400 49.35000 32.07400
H  24.05900 49.83900 31.07900
H  23.18600 49.83900 33.39100
H  23.36500 51.55400 32.85900
H  30.67800 48.79000 29.15100
H  31.79900 50.08100 28.66300
H  31.70800 48.41000 27.86400
H  33.51000 50.23700 25.00600
H  32.63000 48.80400 25.72300
H  32.79800 50.46400 26.51700
H  26.92100 50.89200 21.62800
H  25.16000 53.10400 21.82400
H  28.45800 52.53600 21.00000
H  28.39400 53.13500 22.66800
H  27.27600 53.77200 21.35900
H  23.38100 51.17600 21.77200
H  24.65700 50.34300 21.07800
H  23.83600 51.26300 19.18500
H  24.77700 52.67100 19.59700
H  23.09100 52.67800 20.03300
H  20.90200 54.28000 25.18400
H  19.82000 53.19100 26.04200
H  20.66800 52.65900 24.54500
H  22.18200 51.92600 30.84200
H  21.60500 55.01300 33.33400
H  23.00500 55.77100 32.49800
H  23.19000 54.75200 33.88600

