158

Mg 35.77100 2.40200 30.19400
C  33.44100 3.84600 32.32800
C  38.07000 2.24200 32.73700
C  38.05400 1.29700 27.88600
C  33.26200 2.43100 27.65800
N  35.72800 3.03000 32.21300
C  34.66200 3.58000 32.90700
C  35.05000 3.64400 34.44200
C  36.55900 3.49100 34.49900
C  36.78000 2.84400 33.10000
C  37.42700 4.69200 34.72300
C  34.25500 2.64700 35.33500
C  34.08600 3.03500 36.75500
H  34.71100 4.30700 37.33100
N  37.74400 1.90000 30.30900
C  38.54400 1.86600 31.44400
C  39.78200 1.25800 31.16800
C  39.74000 0.88400 29.80200
C  38.45300 1.39300 29.26100
C  40.82300 1.06900 32.30000
C  40.83600 0.21000 29.06200
O  40.68500 -0.20900 27.92700
C  42.18800 -0.09200 29.71700
N  35.68200 1.92900 28.12400
C  36.77300 1.52300 27.42400
C  36.39400 1.26200 25.97100
C  34.81400 1.32400 26.00900
C  34.57900 2.02700 27.32700
C  36.98700 2.36800 25.03100
C  34.16600 -0.09900 25.93100
C  32.74700 -0.12600 25.36900
N  33.79100 3.12000 29.91600
C  32.92100 3.16500 28.84500
C  31.65200 3.73300 29.24300
C  31.80900 3.96200 30.59600
C  33.10400 3.64400 30.96400
C  30.43300 3.93900 28.41800
C  31.10000 4.44300 31.76900
O  29.94300 4.72600 31.92400
C  32.12400 4.46600 32.98800
C  32.33600 5.83200 33.48800
O  33.15400 6.61800 33.08200
O  31.51300 6.01200 34.58600
C  31.70200 7.20900 35.41000
H  38.74400 2.20900 33.59600
H  38.83500 0.91000 27.22800
H  32.58000 2.20200 26.83600
H  34.88600 4.66000 34.80300
H  36.80500 2.75300 35.26200
H  37.65200 4.79500 35.78500
H  36.76000 5.54600 34.60100
H  38.31900 4.72200 34.09700
H  34.69100 1.64800 35.35500
H  33.28500 2.47700 34.86600
H  34.33000 2.19400 37.40400
H  33.00500 2.99900 36.88600
H  41.89100 0.93100 32.13600
H  40.45000 0.26300 32.93300
H  40.69500 1.99300 32.86300
H  42.52900 0.73400 30.34100
H  42.95000 -0.44700 29.02300
H  42.19300 -0.96000 30.37600
H  36.54600 0.25000 25.59500
H  34.34600 1.90400 25.21400
H  37.59400 2.00200 24.20300
H  37.48900 3.14700 25.60400
H  36.20800 2.97600 24.57000
H  34.12100 -0.39400 26.98000
H  34.84000 -0.80100 25.43900
H  32.58800 0.47000 24.47000
H  31.98800 0.07200 26.12600
H  32.69500 -1.09500 24.87300
H  29.71100 3.13000 28.52200
H  30.68800 4.06400 27.36500
H  30.14700 4.92600 28.78100
H  31.72200 3.83600 33.78200
H  32.75600 7.42900 35.57800
H  31.11700 7.01500 36.30900
H  31.24900 8.02600 34.84800
Mg 35.57200 48.59500 25.36800
C  35.99900 46.69700 28.29600
C  34.37400 51.13700 27.32700
C  34.61100 50.14400 22.53300
C  36.30400 45.69300 23.52700
N  35.06100 48.80500 27.58400
C  35.33000 47.88100 28.62500
C  35.01900 48.49700 29.93500
C  34.30000 49.86900 29.59000
C  34.64200 49.98200 28.08200
C  32.74300 49.93500 29.81900
C  36.26700 48.74600 30.94300
C  36.09200 48.73900 32.43000
H  34.67000 48.58500 32.99900
N  34.63600 50.41300 25.03200
C  34.29100 51.34400 25.91300
C  33.93300 52.58200 25.26100
C  33.87500 52.26200 23.91600
C  34.39700 50.88700 23.75000
C  33.77200 53.91200 25.92500
C  33.41800 53.19400 22.74600
O  33.28600 52.80300 21.57200
C  33.10100 54.64400 22.96000
N  35.29100 47.93400 23.37500
C  35.00000 48.83000 22.39300
C  35.13400 48.17700 21.03900
C  35.72500 46.77200 21.33300
C  35.75800 46.77300 22.85300
C  33.80900 48.09700 20.24100
C  37.19000 46.51500 20.68300
C  38.36300 47.09300 21.48300
N  36.08900 46.63600 25.76200
C  36.55100 45.70500 24.91500
C  37.07800 44.58400 25.71800
C  36.81400 44.91800 27.04900
C  36.22100 46.21000 26.96800
C  37.77800 43.35700 25.21800
C  36.91600 44.46600 28.36400
O  37.33800 43.38500 28.78200
C  36.45400 45.64700 29.25600
C  35.38100 45.13900 30.13500
O  34.20000 44.96500 29.76800
O  35.96100 44.86200 31.32200
C  34.93900 44.63100 32.30400
H  34.02000 51.90800 28.01400
H  34.51500 50.71300 21.60600
H  36.54600 44.77900 22.98000
H  34.24000 47.91000 30.42100
H  34.72800 50.71800 30.12400
H  32.31800 50.03400 28.82000
H  32.37500 50.83600 30.31000
H  32.27200 49.07300 30.29100
H  36.73900 49.71000 30.75500
H  36.99500 47.95000 30.79000
H  36.40800 49.73300 32.74600
H  36.66200 48.00300 32.99700
H  32.92400 54.52100 25.61200
H  34.60200 54.56600 25.66000
H  33.65000 53.78100 27.00000
H  33.88600 55.13300 23.53700
H  32.11600 54.62200 23.42700
H  33.08400 55.00000 21.93000
H  35.81900 48.70300 20.37400
H  34.96500 46.05300 21.02700
H  33.00700 48.61600 20.76600
H  33.59900 47.06400 19.96500
H  34.02600 48.68500 19.34900
H  37.31000 47.02500 19.72700
H  37.51900 45.48700 20.53000
H  37.99500 47.44400 22.44700
H  38.74300 48.02100 21.05500
H  39.07900 46.28200 21.61700
H  38.40100 43.12100 26.08000
H  38.29500 43.51700 24.27100
H  36.96900 42.63000 25.14700
H  37.29200 45.95100 29.88300
H  34.60100 43.61400 32.10300
H  34.05600 45.27000 32.26800
H  35.49800 44.67000 33.23900

