158

Mg 46.78800 34.53600 28.44000
C  45.43700 32.74500 31.07200
C  47.15700 37.22900 30.53700
C  47.79800 36.50000 25.84400
C  46.08700 31.97900 26.36000
N  46.24800 34.85700 30.60000
C  45.83200 33.97700 31.51400
C  45.98900 34.61600 32.96500
C  45.97000 36.14700 32.58600
C  46.53800 36.07600 31.09700
C  44.59600 36.83100 32.57600
C  47.18200 34.11800 33.75000
C  47.16300 33.72400 35.19600
H  46.70800 34.81600 36.10500
N  47.35800 36.62100 28.22600
C  47.54900 37.51400 29.20200
C  48.09500 38.73300 28.68300
C  48.36500 38.52000 27.29700
C  47.81900 37.20100 27.03700
C  48.47100 39.92600 29.47500
C  48.98300 39.47600 26.28200
O  49.24400 39.09300 25.16800
C  49.40400 40.74800 26.68500
N  46.94400 34.31200 26.38300
C  47.47400 35.18900 25.48500
C  47.57400 34.58200 24.02900
C  46.96600 33.12800 24.25100
C  46.60100 33.15300 25.74500
C  46.63500 35.41200 23.10400
C  47.97000 32.00000 23.80200
C  47.45800 31.00500 22.74100
N  45.95500 32.72300 28.60700
C  45.85800 31.74300 27.66900
C  45.34200 30.60800 28.28000
C  45.00700 30.94800 29.59000
C  45.52900 32.20900 29.76100
C  44.92400 29.27700 27.63900
C  44.51700 30.48800 30.89300
O  44.04800 29.42400 31.27600
C  44.51800 31.78200 31.80200
C  44.92100 31.42600 33.12800
O  46.01700 30.99500 33.46700
O  43.90100 31.64300 33.99000
C  44.01500 30.96200 35.25900
H  47.31600 38.03600 31.25500
H  48.04400 37.07900 24.95100
H  45.83300 31.22200 25.61500
H  45.08000 34.41100 33.53000
H  46.72900 36.67600 33.16200
H  44.67400 37.70100 33.22800
H  43.80000 36.21300 32.99100
H  44.20300 37.14300 31.60900
H  48.10800 34.68300 33.63700
H  47.44600 33.12300 33.39400
H  48.05800 33.17900 35.49600
H  46.31200 33.04300 35.20600
H  49.54600 40.06200 29.35800
H  48.21100 39.84500 30.53100
H  48.01700 40.85100 29.12100
H  49.85000 41.22400 25.81200
H  50.16200 40.69800 27.46700
H  48.47100 41.22300 26.98700
H  48.54400 34.59300 23.53300
H  46.05200 33.02400 23.66500
H  46.48400 36.38700 23.56700
H  45.61200 35.03800 23.09400
H  46.96200 35.54800 22.07300
H  48.20300 31.40700 24.68700
H  48.90700 32.45300 23.47800
H  47.15600 30.11900 23.30000
H  48.14800 30.62500 21.98700
H  46.61600 31.35400 22.14300
H  45.41600 29.06800 26.68900
H  43.86200 29.34400 27.40100
H  45.17500 28.48300 28.34200
H  43.47700 32.10500 31.82000
H  44.50300 29.99800 35.11100
H  43.01400 30.64600 35.55300
H  44.47600 31.51900 36.07500
Mg 15.72400 52.34800 25.37600
C  17.95300 51.02700 27.93700
C  13.40700 52.87000 27.72600
C  13.85800 53.28800 22.91700
C  18.26000 51.28100 23.00800
N  15.80000 52.13700 27.58400
C  16.79800 51.60200 28.41800
C  16.35200 51.80900 29.83500
C  14.81900 52.05500 29.72100
C  14.62200 52.41100 28.26900
C  13.93200 50.80400 30.17500
C  17.10900 53.11900 30.36000
C  17.12100 53.44900 31.84300
H  16.14100 52.62200 32.74100
N  13.85900 53.00800 25.36700
C  13.00900 53.11800 26.41400
C  11.71200 53.66000 25.93400
C  11.94200 53.91700 24.55800
C  13.28200 53.40000 24.20400
C  10.48900 53.89300 26.81900
C  10.88500 54.45600 23.59300
O  11.11100 54.47300 22.36300
C  9.52900 54.89600 24.13400
N  16.08800 52.24800 23.27400
C  15.16100 52.85000 22.50000
C  15.54400 52.76200 21.01300
C  16.98000 52.24500 21.03300
C  17.15800 51.95200 22.52100
C  14.57000 52.05600 20.04800
C  18.05900 53.11200 20.35300
C  18.47500 52.65200 18.93300
N  17.69400 51.31100 25.42900
C  18.54300 50.95900 24.37400
C  19.66800 50.20300 24.91700
C  19.56500 50.26100 26.31300
C  18.33300 50.97000 26.59700
C  20.74800 49.59800 24.12800
C  20.09400 49.92300 27.60200
O  21.09300 49.35200 27.95500
C  19.09500 50.49900 28.70000
C  18.81200 49.58600 29.83500
O  18.53400 48.34600 29.75800
O  19.15200 50.23500 30.98000
C  19.06500 49.47900 32.26400
H  12.61500 53.05900 28.45300
H  13.17700 53.47300 22.08400
H  19.00000 50.99400 22.25800
H  16.43800 50.92300 30.46400
H  14.58400 53.00200 30.20700
H  14.49200 49.90500 30.43100
H  13.22300 50.54000 29.39000
H  13.25200 51.07400 30.98300
H  16.58800 53.97500 29.93300
H  18.10200 53.07400 29.91200
H  16.84500 54.48200 32.05500
H  18.13500 53.31400 32.22100
H  9.67900 53.21100 26.56200
H  10.21900 54.94100 26.94600
H  10.68400 53.57200 27.84200
H  8.98700 54.20100 24.77500
H  9.02200 54.84000 23.17100
H  9.75300 55.89000 24.52200
H  15.52100 53.81200 20.72300
H  16.90400 51.29500 20.50300
H  13.60800 51.74600 20.45500
H  14.92600 51.07600 19.73100
H  14.39500 52.61300 19.12800
H  18.91200 53.22400 21.02200
H  17.63800 54.11700 20.30700
H  17.99600 51.76600 18.51600
H  19.52400 52.42700 19.12600
H  18.47800 53.53800 18.29800
H  21.63200 50.18300 23.87600
H  20.22600 49.09500 23.31300
H  20.95200 48.74000 24.76800
H  19.65600 51.30200 29.17700
H  19.86700 48.74100 32.26200
H  18.12700 48.94300 32.41200
H  19.12800 50.17400 33.10100

