158

Mg 8.67400 4.61900 27.44600
C  9.46000 2.56200 30.23400
C  6.28500 6.11100 29.36300
C  7.56300 6.07400 24.64200
C  10.12200 2.00100 25.43400
N  7.88300 4.24300 29.49900
C  8.54500 3.52700 30.57000
C  8.02400 4.08300 31.88300
C  6.84100 5.00600 31.55300
C  6.97800 5.10500 30.02500
C  5.43000 4.47700 31.91100
C  9.07400 4.87500 32.67600
C  9.18100 4.74700 34.20000
H  10.49200 4.73800 35.00700
N  7.17700 5.92700 27.06300
C  6.35500 6.51600 28.02900
C  5.48000 7.46800 27.41600
C  5.86500 7.51100 26.00700
C  6.95500 6.50700 25.86800
C  4.27100 8.23800 28.07400
C  5.30700 8.41100 24.88400
O  5.70500 8.39000 23.73900
C  4.18000 9.38500 25.17800
N  8.82200 4.06000 25.30100
C  8.30000 4.95300 24.38500
C  8.70100 4.45600 22.99600
C  9.46100 3.09800 23.19900
C  9.45900 3.02000 24.73500
C  7.63700 4.35500 21.96500
C  10.90100 3.14600 22.52800
C  11.20400 2.14700 21.34300
N  9.84800 2.77100 27.66200
C  10.28300 1.81100 26.83100
C  10.91500 0.74300 27.55500
C  10.71300 1.13100 28.93300
C  9.91400 2.25600 28.94800
C  11.58100 -0.48800 26.90400
C  11.04500 0.71800 30.25600
O  11.85300 -0.15200 30.66600
C  10.24300 1.67100 31.20100
C  9.26100 0.89700 32.06400
O  8.21000 0.38900 31.69700
O  9.68400 0.97500 33.36800
C  8.67700 0.39400 34.32500
H  5.63300 6.82900 29.86500
H  7.39000 6.69200 23.75900
H  10.44000 1.21700 24.74300
H  7.75500 3.20000 32.46100
H  6.91200 6.01400 31.96200
H  5.71900 3.59200 32.47800
H  4.81300 4.12100 31.08500
H  4.89700 5.19700 32.53100
H  9.01500 5.91500 32.35300
H  10.08000 4.60100 32.35700
H  8.47700 4.00800 34.58200
H  8.68300 5.64100 34.57600
H  4.08300 7.99900 29.12000
H  3.33200 7.96900 27.59000
H  4.13600 9.28200 27.79300
H  4.51700 10.10600 25.92300
H  3.24200 8.91000 25.46600
H  3.88400 9.93300 24.28300
H  9.45200 5.18100 22.68100
H  8.99400 2.20700 22.77700
H  6.62200 4.45700 22.34900
H  7.63700 3.39300 21.45200
H  7.86600 5.00900 21.12400
H  11.62300 2.98600 23.32800
H  11.24500 4.10800 22.14700
H  10.32000 1.53200 21.17700
H  11.95700 1.45100 21.71300
H  11.57700 2.60700 20.42800
H  11.14600 -0.57000 25.90800
H  11.37800 -1.34800 27.54200
H  12.64400 -0.27000 26.80000
H  10.91800 2.29200 31.79000
H  9.09600 0.66300 35.29500
H  8.68900 -0.69600 34.34300
H  7.67300 0.79400 34.18100
Mg 49.83500 45.59000 41.30400
C  46.64400 46.16400 40.07500
C  49.55600 42.28100 40.23700
C  53.18800 45.21200 41.73000
C  50.21400 49.03700 41.76100
N  48.31200 44.39700 40.13800
C  47.02100 44.84500 39.88400
C  46.23500 43.75300 39.11900
C  47.16900 42.42100 39.29100
C  48.40200 43.02500 40.03800
C  46.60400 41.19500 40.02700
C  46.09200 44.28500 37.67500
C  44.74800 44.25800 37.08000
H  44.52300 44.27400 35.56000
N  51.15400 43.95900 41.16600
C  50.80500 42.66000 40.78900
C  51.90200 41.74600 41.03700
C  53.02300 42.57500 41.49200
C  52.52400 44.01200 41.46000
C  51.79800 40.29400 40.83700
C  54.46100 42.14000 41.80200
O  54.78700 40.92500 41.73200
C  55.46400 43.11400 42.27000
N  51.53400 46.95900 41.63000
C  52.77400 46.52000 41.84400
C  53.76300 47.67200 42.05000
C  52.77200 48.82500 42.25500
C  51.38700 48.24900 41.83400
C  54.92900 47.56300 43.07900
C  53.15500 50.08400 41.38500
C  53.08900 51.34700 42.18700
N  48.68800 47.28800 41.04600
C  48.92200 48.58100 41.32200
C  47.73000 49.41800 41.00100
C  46.90800 48.51200 40.47800
C  47.47800 47.17500 40.61300
C  47.61600 50.85300 41.07400
C  45.61800 48.41700 39.82900
O  44.78300 49.24900 39.46800
C  45.32700 46.86800 39.61700
C  44.03100 46.57500 40.35900
O  43.05500 46.20600 39.75500
O  44.19100 46.59600 41.70200
C  43.19600 45.87400 42.42800
H  49.42300 41.22700 39.98500
H  54.27400 45.22800 41.83800
H  50.44700 50.06800 42.03200
H  45.27500 43.63600 39.62200
H  47.53600 42.03100 38.34200
H  45.51600 41.25600 40.03600
H  47.00200 41.11200 41.03900
H  46.86600 40.24800 39.55500
H  46.77300 43.62100 37.14200
H  46.33800 45.34600 37.63900
H  44.06700 45.02800 37.44100
H  44.21300 43.36000 37.39100
H  52.20400 39.95500 39.88400
H  50.78400 39.95100 41.04000
H  52.31900 39.83800 41.67900
H  54.99600 43.72300 43.04300
H  55.87900 43.64800 41.41500
H  56.32600 42.63800 42.73800
H  54.26300 47.85500 41.10000
H  52.72300 49.08400 43.31300
H  54.80300 46.62300 43.61600
H  54.98900 48.34700 43.83500
H  55.86100 47.65700 42.52100
H  52.40800 50.24700 40.60800
H  54.14000 49.97600 40.93200
H  54.06100 51.83700 42.12000
H  52.89800 51.18000 43.24600
H  52.37800 52.03500 41.73000
H  46.61200 51.11500 41.40800
H  47.73200 51.31900 40.09500
H  48.33400 51.27200 41.77900
H  45.12300 46.69900 38.56000
H  42.93000 45.00200 41.83000
H  42.27300 46.44100 42.55000
H  43.60100 45.68400 43.42200

