158

Mg 0.66600 41.93800 25.48600
C  2.23400 42.42800 28.69300
C  -2.19400 41.01700 27.08600
C  -0.54500 40.96400 22.54700
C  3.83300 42.37100 24.09600
N  0.11600 41.73100 27.66600
C  0.78200 42.20700 28.71900
C  -0.05200 41.94800 29.99500
C  -1.45100 41.56800 29.48600
C  -1.18700 41.44200 27.96800
C  -2.13900 40.24500 30.14300
C  0.06300 43.26200 30.93900
C  0.34700 43.08800 32.36400
H  -0.60500 43.64900 33.42700
N  -1.13500 41.16000 24.92400
C  -2.19500 40.88000 25.69200
C  -3.22100 40.34200 24.88500
C  -2.68000 40.13400 23.56400
C  -1.36800 40.69000 23.63400
C  -4.58900 40.04500 25.51100
C  -3.28100 39.42900 22.27800
O  -2.59100 39.34400 21.23000
C  -4.65000 38.74400 22.37200
N  1.56100 41.58800 23.60100
C  0.86800 41.34000 22.51100
C  1.78000 41.26900 21.27900
C  3.07900 41.98400 21.79600
C  2.84700 41.91100 23.29100
C  1.85900 39.79300 20.83600
C  3.31700 43.42800 21.29200
C  2.31100 44.50300 21.78100
N  2.64200 42.52800 26.13200
C  3.80500 42.61500 25.47500
C  4.88800 42.86300 26.40700
C  4.31400 42.68200 27.64800
C  2.89800 42.55200 27.44200
C  6.40000 43.11700 26.09300
C  4.64900 42.63600 29.09900
O  5.68700 42.61400 29.69300
C  3.25800 42.65100 29.81800
C  3.29600 41.49900 30.76200
O  3.09900 40.34100 30.46100
O  3.55600 41.84200 32.03300
C  3.45300 40.72200 32.97300
H  -3.04900 40.81000 27.73200
H  -1.02500 40.81200 21.57800
H  4.85800 42.60400 23.80000
H  0.41300 41.12600 30.53900
H  -2.17700 42.36700 29.63700
H  -1.56600 39.89100 31.00000
H  -2.02700 39.46100 29.39500
H  -3.16200 40.51500 30.40500
H  -0.90400 43.74000 30.78400
H  0.78100 43.96200 30.51100
H  1.21200 43.74400 32.46700
H  0.70600 42.07300 32.53100
H  -5.39200 40.10200 24.77500
H  -4.71800 40.77500 26.31000
H  -4.49400 39.05200 25.95100
H  -4.75200 38.14500 21.46700
H  -5.42600 39.50900 22.34300
H  -4.61000 38.02600 23.19100
H  1.23000 41.80600 20.50600
H  3.85100 41.22900 21.65000
H  1.56000 39.19200 21.69400
H  2.77200 39.59100 20.27500
H  1.17100 39.71000 19.99500
H  3.34000 43.51500 20.20600
H  4.31500 43.69300 21.64100
H  2.80000 45.03800 22.59500
H  1.40300 44.03100 22.15500
H  2.12100 45.15700 20.93000
H  6.53800 43.09900 25.01200
H  7.10200 42.33600 26.38500
H  6.70300 44.08400 26.49300
H  3.12400 43.62700 30.28400
H  2.54300 40.15500 32.77500
H  3.47200 41.03200 34.01800
H  4.20400 39.98100 32.69900
Mg -2.08100 34.15200 27.19000
C  -3.99600 32.17400 29.76000
C  -1.14900 36.10700 29.74000
C  -0.95000 35.98100 24.97100
C  -4.02000 32.25300 24.81800
N  -2.54700 34.08600 29.43500
C  -3.33000 33.30000 30.25500
C  -3.27100 33.75200 31.71100
C  -2.64200 35.22400 31.63200
C  -2.10700 35.15400 30.16600
C  -3.63800 36.39100 31.83600
C  -2.29000 32.76100 32.46400
C  -2.83700 31.70000 33.44100
H  -2.11600 31.73800 34.79600
N  -1.06300 35.82300 27.36200
C  -0.59800 36.41500 28.47200
C  0.37400 37.40400 28.10400
C  0.45900 37.33900 26.68300
C  -0.57800 36.39000 26.27500
C  1.14200 38.15300 29.12700
C  1.41300 38.00900 25.65300
O  1.40000 37.90400 24.47400
C  2.59900 38.80000 26.29900
N  -2.75700 34.31100 25.18900
C  -1.90600 35.05900 24.43900
C  -2.08000 34.92100 22.91800
C  -2.99800 33.65300 22.83000
C  -3.34600 33.37100 24.39700
C  -2.49600 36.14500 22.19100
C  -2.41900 32.36000 22.14200
C  -3.31000 31.85100 21.06000
N  -3.54400 32.45000 27.22400
C  -4.16100 31.82300 26.15400
C  -4.98700 30.75400 26.61200
C  -4.98100 30.90400 27.99600
C  -4.04500 31.90200 28.34200
C  -5.79200 29.85200 25.82900
C  -5.53700 30.36600 29.29900
O  -6.39000 29.50100 29.50600
C  -4.96400 31.20200 30.41100
C  -6.06700 31.96300 31.01600
O  -6.59800 32.96900 30.59800
O  -6.41100 31.35200 32.16100
C  -7.33400 32.13100 33.04700
H  -0.85000 36.79800 30.53100
H  -0.29200 36.45600 24.24000
H  -4.51900 31.64500 24.06100
H  -4.23800 33.73900 32.21500
H  -1.81000 35.29100 32.33300
H  -4.64700 36.03000 32.03900
H  -3.62900 37.10400 31.01200
H  -3.27800 36.93900 32.70700
H  -1.52900 33.23700 33.08200
H  -1.75600 32.12900 31.75500
H  -2.72200 30.65900 33.14000
H  -3.88900 31.93200 33.61000
H  2.19900 38.03500 28.88900
H  1.06900 37.70600 30.11900
H  0.88400 39.21100 29.09300
H  2.81900 39.54300 25.53300
H  3.40200 38.11900 26.58200
H  2.29700 39.45900 27.11200
H  -1.14300 34.50200 22.55200
H  -3.98600 33.89200 22.43800
H  -3.49100 35.98100 21.77600
H  -1.96200 36.29700 21.25300
H  -2.34700 37.00700 22.84100
H  -2.19200 31.54300 22.82700
H  -1.48600 32.64800 21.65700
H  -2.81900 31.91300 20.08900
H  -4.22500 32.44200 21.02000
H  -3.56400 30.83800 21.37300
H  -6.80300 30.23200 25.68200
H  -5.88600 28.90900 26.36700
H  -5.32700 29.67300 24.86000
H  -4.50900 30.65600 31.23800
H  -8.29700 32.18600 32.54100
H  -7.10500 33.14300 33.38200
H  -7.54000 31.60600 33.97900

