158

Mg 49.01100 44.60200 43.15700
C  45.67100 45.41300 42.06900
C  48.60400 41.62200 41.35900
C  52.34400 44.27200 43.10300
C  49.26500 47.82100 44.37400
N  47.43200 43.75000 41.75300
C  46.13300 44.27200 41.50900
C  45.31500 43.31000 40.66400
C  46.05300 42.03100 40.78900
C  47.49000 42.45100 41.27500
C  45.33900 41.00400 41.70700
C  45.25000 43.87800 39.20700
C  43.98200 43.67300 38.41400
H  44.03900 42.79000 37.15700
N  50.30500 43.14100 42.41900
C  49.91600 41.96000 41.80000
C  51.12100 41.23600 41.47200
C  52.21500 41.89700 42.10300
C  51.61600 43.17800 42.53800
C  51.04800 39.88700 40.67400
C  53.60300 41.42900 42.15500
O  53.89200 40.35600 41.64000
C  54.64800 42.12400 42.87800
N  50.57900 45.90700 43.58600
C  51.90000 45.45900 43.54300
C  52.89700 46.52300 44.09600
C  51.87400 47.59200 44.69600
C  50.45100 47.10500 44.21400
C  53.99600 46.12000 45.09100
C  52.24800 49.16700 44.48300
C  52.61500 50.02500 45.65300
N  47.67900 46.22900 43.43000
C  47.95000 47.46800 43.95800
C  46.66500 48.23000 44.02100
C  45.82400 47.46000 43.29900
C  46.46000 46.24500 42.90300
C  46.43500 49.57800 44.66300
C  44.50100 47.45100 42.72500
O  43.58700 48.28700 42.62400
C  44.39300 46.08200 41.90200
C  43.15500 45.28600 42.34900
O  42.24100 44.87900 41.63400
O  43.18200 45.08900 43.68300
C  42.04100 44.45100 44.33900
H  48.43600 40.60900 40.98600
H  53.43200 44.31600 43.02100
H  49.35300 48.78600 44.87700
H  44.31300 43.24700 41.09000
H  46.22000 41.56600 39.81700
H  44.51800 41.49900 42.22600
H  45.96400 40.55700 42.47900
H  44.91200 40.16000 41.16400
H  46.01800 43.38500 38.61100
H  45.46600 44.94600 39.17500
H  43.58900 44.62500 38.05500
H  43.23400 43.22900 39.07100
H  51.82000 39.84300 39.90500
H  50.04900 39.66900 40.29600
H  51.14900 39.07700 41.39500
H  54.88300 42.94300 42.20000
H  55.42300 41.43200 43.20900
H  54.30800 42.64800 43.77100
H  53.29100 47.05400 43.22900
H  51.73900 47.41800 45.76300
H  53.97100 46.74300 45.98500
H  54.93800 46.27300 44.56600
H  53.95400 45.05700 45.32900
H  51.33200 49.69200 44.21300
H  52.93000 49.32300 43.64700
H  51.92900 50.84400 45.86700
H  53.61900 50.38100 45.42000
H  52.62000 49.42600 46.56400
H  47.32600 50.17000 44.87500
H  46.11700 49.48400 45.70100
H  45.67500 50.15000 44.13100
H  44.18900 46.23500 40.84200
H  41.73100 44.98400 45.23800
H  42.19000 43.40400 44.60400
H  41.14100 44.56700 43.73500
Mg 16.54500 51.54100 26.92900
C  18.41900 50.00500 29.45200
C  14.41500 52.61800 29.42500
C  14.84400 52.95400 24.54700
C  18.67500 50.02100 24.55600
N  16.33800 51.18700 29.24800
C  17.32600 50.71100 30.10800
C  17.10500 51.09400 31.61800
C  15.59600 51.63000 31.47500
C  15.40500 51.84300 29.92900
C  14.54900 50.79300 32.05600
C  18.04400 52.07900 32.28600
C  18.41800 51.96700 33.77400
H  17.49400 51.05600 34.65100
N  14.83200 52.58400 27.02200
C  14.12900 53.02500 28.13800
C  13.08000 53.93400 27.68600
C  13.27300 54.17000 26.26800
C  14.39900 53.19700 25.87300
C  12.18200 54.52100 28.74500
C  12.48900 55.10300 25.37000
O  12.61700 55.18300 24.16600
C  11.35000 55.87300 26.01400
N  16.59900 51.29800 24.82200
C  15.80500 52.08000 24.06900
C  16.13500 51.89200 22.56500
C  17.28500 50.73900 22.59800
C  17.54800 50.67000 24.06900
C  15.02200 51.72100 21.53800
C  18.44300 50.99200 21.61700
C  19.55100 52.04600 22.12100
N  18.20800 50.31400 26.88200
C  19.03400 49.73300 25.84500
C  20.10300 48.97200 26.44800
C  19.87900 49.20200 27.82900
C  18.69800 49.90400 28.07700
C  21.22700 48.20600 25.80300
C  20.47100 48.82900 29.09100
O  21.48200 48.09600 29.30400
C  19.53700 49.34600 30.24800
C  19.06700 48.31600 31.15200
O  18.06800 47.64800 31.10800
O  19.91900 48.40700 32.25500
C  19.61700 47.66400 33.48500
H  13.83700 53.01900 30.26100
H  14.39200 53.50900 23.72300
H  19.37100 49.59700 23.82800
H  17.13700 50.19500 32.23400
H  15.43700 52.61400 31.91600
H  14.95600 50.41200 32.99200
H  14.41600 49.95800 31.36800
H  13.57000 51.18000 32.34000
H  17.46700 52.98800 32.11000
H  18.95200 52.05300 31.68400
H  18.36600 52.99400 34.13500
H  19.42700 51.57200 33.89100
H  11.28700 55.02200 28.37700
H  12.89300 55.18500 29.23600
H  11.85500 53.72800 29.41800
H  10.91700 56.60100 25.32900
H  11.56000 56.46100 26.90800
H  10.52100 55.16600 26.05600
H  16.53400 52.86900 22.29300
H  16.90500 49.78900 22.22100
H  15.10800 50.78900 20.98000
H  15.01700 52.53800 20.81700
H  14.08300 51.78400 22.09000
H  18.13300 51.31400 20.62300
H  18.98000 50.05700 21.45500
H  19.70600 52.77500 21.32700
H  20.44500 51.58400 22.54100
H  19.21400 52.57100 23.01500
H  20.82400 47.70000 24.92600
H  21.73000 47.58600 26.54500
H  21.96700 48.91000 25.42300
H  20.10000 50.08800 30.81400
H  18.71600 47.05200 33.53400
H  19.58700 48.33600 34.34200
H  20.55400 47.11600 33.58000

