158

Mg 8.27500 2.37600 28.08100
C  9.68300 1.03500 30.90200
C  6.58400 4.61500 30.09700
C  6.46800 3.34600 25.31100
C  9.69100 -0.19700 26.14300
N  8.01000 2.65500 30.22900
C  8.92600 2.13500 31.13100
C  8.78000 2.78900 32.52300
C  7.62900 3.78700 32.26100
C  7.38000 3.67200 30.72600
C  6.31200 3.51000 33.05500
C  10.09600 3.41900 33.01600
C  10.57000 3.00500 34.45800
H  10.76900 4.11700 35.57900
N  6.66700 3.74600 27.76300
C  6.16600 4.59000 28.73600
C  5.14600 5.38900 28.15200
C  5.08200 5.06500 26.72400
C  6.09600 4.00100 26.52000
C  4.23600 6.26800 28.96800
C  4.07400 5.64800 25.63700
O  4.14100 5.24900 24.50600
C  3.01200 6.63000 25.97800
N  8.19200 1.74500 26.03500
C  7.42400 2.27500 25.08900
C  7.65100 1.72500 23.71000
C  8.80500 0.70400 24.01400
C  8.92300 0.76300 25.50000
C  6.51200 1.10400 22.99600
C  10.21200 1.02700 23.20000
C  10.82500 -0.00000 22.23400
N  9.45900 0.76900 28.35200
C  9.99100 -0.18800 27.51100
C  10.81700 -1.13400 28.28000
C  10.66000 -0.71300 29.64700
C  9.88200 0.51200 29.61200
C  11.66000 -2.25000 27.79800
C  11.02800 -1.01000 31.01100
O  11.78700 -1.92200 31.42800
C  10.41100 0.15700 31.87000
C  9.54500 -0.42200 32.99500
O  8.33400 -0.46300 32.97700
O  10.40900 -0.76700 34.06700
C  9.75800 -1.04200 35.28000
H  6.11100 5.22500 30.87000
H  5.81200 3.50300 24.45200
H  9.99000 -0.98900 25.45300
H  8.45000 2.07400 33.27700
H  7.83400 4.82000 32.54200
H  5.38000 3.72900 32.53300
H  6.32900 4.08100 33.98300
H  6.30700 2.44100 33.26600
H  10.02200 4.50200 32.91000
H  10.96400 3.12100 32.42800
H  11.60200 2.68000 34.33100
H  10.12800 2.08500 34.84100
H  3.25400 5.81300 28.83900
H  4.18000 7.25000 28.49700
H  4.46900 6.32000 30.03100
H  3.46600 7.45100 26.53200
H  2.31000 6.12600 26.64300
H  2.65400 7.14200 25.08500
H  8.00600 2.49400 23.02400
H  8.37400 -0.28900 23.89000
H  5.65300 1.25200 23.65100
H  6.64700 0.04800 22.76300
H  6.46700 1.62700 22.04100
H  10.93800 1.30700 23.96300
H  10.11000 1.92800 22.59600
H  11.90300 -0.04600 22.38600
H  10.57000 0.31700 21.22300
H  10.34300 -0.96000 22.42100
H  11.87500 -2.12400 26.73700
H  11.16800 -3.20700 27.97200
H  12.59100 -2.23300 28.36500
H  11.20500 0.78600 32.27400
H  8.99600 -1.79700 35.08500
H  9.36400 -0.08100 35.61200
H  10.44600 -1.43200 36.03000
Mg 25.32700 0.14700 30.24700
C  27.64600 0.39400 32.86300
C  22.86000 0.58600 32.65400
C  23.20300 -0.05400 27.91400
C  27.94600 -0.54500 28.07600
N  25.34100 0.51500 32.48300
C  26.37800 0.61700 33.27300
C  25.99500 0.95300 34.75100
C  24.41400 0.88400 34.67000
C  24.13300 0.61700 33.17200
C  23.76700 -0.06900 35.66000
C  26.46400 2.35400 35.26900
C  27.43500 2.43300 36.42400
H  27.36600 3.51500 37.47000
N  23.29400 0.24800 30.26700
C  22.47300 0.46000 31.29700
C  21.06700 0.64000 30.80800
C  21.12000 0.31600 29.45200
C  22.54200 0.08300 29.17100
C  19.80300 1.09400 31.57000
C  20.01200 0.11700 28.42900
O  20.21300 -0.35000 27.34700
C  18.57500 0.46200 28.72800
N  25.49200 -0.38900 28.23400
C  24.48500 -0.09800 27.44600
C  24.94400 0.10100 25.97500
C  26.49700 -0.24200 26.01700
C  26.68000 -0.41900 27.54400
C  24.12100 -0.65800 24.85600
C  27.48400 0.77100 25.32500
C  26.96000 1.56000 24.14700
N  27.36900 -0.27300 30.40100
C  28.27900 -0.55600 29.43400
C  29.57200 -0.68400 30.04100
C  29.38800 -0.24400 31.35600
C  28.07100 -0.03300 31.57400
C  30.86700 -1.06100 29.41300
C  30.08200 0.06000 32.64100
O  31.32300 0.06300 32.75900
C  28.98600 0.49600 33.60300
C  29.02100 -0.30500 34.86900
O  28.58000 -1.45300 34.93400
O  29.92400 0.31700 35.76500
C  30.47100 -0.51100 36.78500
H  22.13700 0.65500 33.46900
H  22.44600 0.01200 27.13000
H  28.87900 -0.71400 27.53500
H  26.52000 0.18200 35.31400
H  23.91100 1.83200 34.85700
H  22.69200 0.00400 35.81900
H  24.44600 0.01400 36.50800
H  23.79500 -1.05500 35.19600
H  25.59900 3.01000 35.36300
H  26.93100 2.76700 34.37500
H  28.38200 2.53800 35.89500
H  27.63500 1.51800 36.98000
H  20.11700 1.53900 32.51400
H  19.18800 0.19700 31.64100
H  19.28100 1.82600 30.95400
H  18.19900 -0.13200 29.56000
H  17.93100 0.16900 27.89900
H  18.43700 1.51000 28.99300
H  24.74400 1.11700 25.63600
H  26.59500 -1.20800 25.52100
H  23.47200 -1.37300 25.36200
H  24.85900 -1.02700 24.14300
H  23.53700 0.10500 24.34200
H  28.27600 0.10600 24.98000
H  27.74100 1.39800 26.17900
H  26.10800 1.00700 23.75100
H  27.71700 1.67900 23.37200
H  26.70800 2.58800 24.40700
H  31.73500 -0.40300 29.38400
H  30.70200 -1.54200 28.44800
H  31.23000 -1.92600 29.96700
H  29.23200 1.50600 33.93100
H  29.74100 -0.66700 37.57900
H  31.32600 0.01200 37.21200
H  30.87500 -1.46700 36.45100

