158

Mg 1.15700 8.09500 25.52000
C  1.72500 9.96700 28.45100
C  1.81600 5.19800 27.29800
C  0.95200 6.42300 22.70100
C  0.96900 11.08500 23.69900
N  1.57200 7.68600 27.68600
C  1.71800 8.61100 28.69300
C  1.74100 7.84300 30.11300
C  2.03100 6.37400 29.63400
C  1.81100 6.41800 28.10200
C  3.53400 5.87400 30.00100
C  0.47600 8.11500 31.01100
C  0.69600 8.54600 32.48500
H  2.00700 8.19200 33.17500
N  1.23500 6.10100 25.07700
C  1.47200 5.06400 25.95100
C  1.07700 3.83100 25.32900
C  0.89000 4.11700 23.95100
C  1.04000 5.57800 23.81100
C  0.92000 2.53700 26.00200
C  0.55200 3.15100 22.81200
O  0.25100 3.49800 21.71200
C  0.69900 1.64200 22.98600
N  0.99600 8.67800 23.54100
C  0.84700 7.73700 22.58000
C  0.73100 8.42700 21.15500
C  0.46000 9.91700 21.54500
C  0.91700 9.93300 22.98500
C  2.05600 8.09900 20.34700
C  -1.05300 10.34300 21.31900
C  -1.13400 11.53900 20.42800
N  1.29800 10.14300 25.93800
C  1.16900 11.22200 25.14000
C  1.40000 12.44600 25.88100
C  1.59300 12.02200 27.15000
C  1.48800 10.56700 27.22000
C  1.50700 13.90500 25.41800
C  1.99200 12.45700 28.47200
O  2.29500 13.56000 28.87800
C  1.92900 11.15400 29.36900
C  3.07100 11.07000 30.30800
O  4.06300 10.32700 30.26800
O  2.86900 12.08700 31.23900
C  3.92500 12.13400 32.25800
H  2.04200 4.31600 27.90100
H  0.76100 5.88600 21.77000
H  0.74200 11.95900 23.08500
H  2.61200 8.27600 30.60500
H  1.33100 5.65800 30.06500
H  4.22000 5.69800 29.17300
H  3.31800 5.00900 30.62900
H  4.03900 6.60800 30.62900
H  -0.19900 7.26200 31.08200
H  -0.04500 8.96100 30.56200
H  -0.07500 8.06800 33.08900
H  0.57300 9.62600 32.55600
H  0.72000 2.69800 27.06200
H  1.89200 2.04400 25.98200
H  0.16600 1.90000 25.54000
H  1.50700 1.38500 23.67100
H  0.95900 1.15700 22.04500
H  -0.22300 1.14900 23.29500
H  0.03600 8.08300 20.39000
H  1.18200 10.54600 21.02500
H  1.87700 7.38400 19.54400
H  2.87600 7.68700 20.93600
H  2.39600 8.99100 19.82200
H  -1.41500 10.46500 22.34000
H  -1.56300 9.55500 20.76600
H  -0.17800 11.59400 19.90800
H  -1.42800 12.31700 21.13200
H  -1.88900 11.31100 19.67600
H  2.42400 13.95700 24.83100
H  1.73500 14.58800 26.23500
H  0.63400 14.20600 24.83900
H  0.99900 11.23400 29.93200
H  3.98200 11.18900 32.79700
H  3.78700 12.91400 33.00800
H  4.88100 12.31400 31.76800
Mg 24.58300 -6.76500 48.44000
C  26.89100 -4.61900 47.07400
C  22.10600 -5.35200 46.16200
C  22.68200 -9.43900 48.89800
C  27.24300 -8.19800 50.38100
N  24.55900 -5.24500 46.77100
C  25.63400 -4.49500 46.39000
C  25.27100 -3.45200 45.33600
C  23.69700 -3.46300 45.42000
C  23.39400 -4.72500 46.21700
C  23.07500 -2.15800 45.92200
C  25.90100 -3.80700 43.93100
C  26.23200 -2.62100 42.98100
H  25.47900 -2.57000 41.64700
N  22.54900 -7.21300 47.77900
C  21.74000 -6.52900 46.88700
C  20.47000 -7.32800 46.78600
C  20.61100 -8.52500 47.56800
C  22.01300 -8.46700 48.09400
C  19.29100 -6.88200 45.91700
C  19.44300 -9.62400 47.75600
O  18.33100 -9.29100 47.33300
C  19.64300 -10.95400 48.48900
N  25.02300 -8.63700 49.39400
C  23.95300 -9.45500 49.49600
C  24.27400 -10.58300 50.58900
C  25.67500 -10.20100 51.13700
C  26.00300 -8.93700 50.27600
C  23.13400 -10.76400 51.69000
C  26.82600 -11.28800 50.83100
C  27.92800 -11.30700 51.86300
N  26.63300 -6.42700 48.76600
C  27.56400 -7.04600 49.54800
C  28.82500 -6.26100 49.50200
C  28.59600 -5.27100 48.54700
C  27.23800 -5.42000 48.16900
C  30.00600 -6.55600 50.33400
C  29.22800 -4.23000 47.79300
O  30.39000 -3.80300 47.65700
C  28.13200 -3.70300 46.89300
C  27.91900 -2.34700 47.40200
O  27.27600 -2.09200 48.38100
O  28.35900 -1.36800 46.48600
C  27.94700 0.00900 46.67900
H  21.32700 -4.82800 45.60500
H  22.10000 -10.33200 49.13800
H  28.05100 -8.69800 50.91800
H  25.59600 -2.44600 45.60200
H  23.23400 -3.67700 44.45600
H  23.28500 -1.96900 46.97500
H  21.99200 -2.07100 45.83400
H  23.53100 -1.45700 45.22200
H  25.25900 -4.51900 43.41200
H  26.74300 -4.47800 44.09900
H  27.30500 -2.73100 42.81900
H  26.19600 -1.65400 43.48300
H  19.48800 -5.89500 45.49900
H  18.39400 -6.73900 46.52000
H  19.09100 -7.66300 45.18300
H  20.51200 -11.42500 48.02900
H  18.79400 -11.63000 48.39000
H  19.87100 -10.80300 49.54400
H  24.44400 -11.45300 49.95500
H  25.55500 -9.83000 52.15500
H  23.68100 -11.25000 52.49800
H  22.35700 -11.40500 51.27500
H  22.63100 -9.84800 51.99900
H  27.38200 -11.09300 49.91400
H  26.35400 -12.26700 50.73900
H  27.93600 -12.31400 52.27800
H  27.82900 -10.48200 52.56900
H  28.86700 -11.13500 51.33800
H  30.44200 -7.53000 50.11300
H  29.76300 -6.51600 51.39500
H  30.76500 -5.79100 50.16500
H  28.46500 -3.65800 45.85600
H  27.38300 0.25000 47.57900
H  27.19400 0.22600 45.92100
H  28.73000 0.75700 46.55600

