158

Mg 16.97300 -0.89500 27.45400
C  16.11600 1.17200 30.16300
C  18.74300 -2.95700 29.75700
C  18.36400 -2.58900 24.95300
C  15.29800 1.23100 25.28300
N  17.46800 -0.75700 29.68100
C  16.95200 0.16800 30.58100
C  17.38300 -0.25500 32.07200
C  18.34300 -1.42400 31.71700
C  18.05200 -1.80600 30.27200
C  19.80000 -1.03600 31.85700
C  16.25200 -0.59000 33.06300
C  16.32000 -0.21500 34.53200
H  17.72500 0.21500 34.99800
N  18.39400 -2.49300 27.37200
C  18.94600 -3.21600 28.36400
C  19.70800 -4.28100 27.78500
C  19.63400 -4.23700 26.34600
C  18.83300 -3.04100 26.13700
C  20.38500 -5.33700 28.68100
C  20.15700 -5.14600 25.23300
O  20.05600 -4.96000 24.01700
C  20.77700 -6.39600 25.65000
N  16.86500 -0.75200 25.48000
C  17.56900 -1.53800 24.57700
C  17.22200 -1.20700 23.11200
C  16.21900 -0.05900 23.25900
C  16.11000 0.17500 24.75600
C  18.52800 -0.82600 22.42600
C  14.86700 -0.31700 22.54400
C  13.75100 -1.01000 23.35800
N  15.81200 0.78600 27.67300
C  15.24400 1.58600 26.70000
C  14.48200 2.63400 27.34600
C  14.82800 2.53400 28.72400
C  15.69800 1.45600 28.82100
C  13.68500 3.69400 26.58200
C  14.60200 3.13200 30.05600
O  14.01500 4.15000 30.37500
C  15.45900 2.22300 31.07400
C  16.48600 3.10000 31.75500
O  17.53600 3.57100 31.25100
O  16.06200 3.45900 33.02300
C  16.68200 4.59300 33.70400
H  19.24300 -3.57500 30.50600
H  18.62500 -3.12800 24.03900
H  14.66900 1.83300 24.62300
H  17.94400 0.63900 32.34300
H  18.07300 -2.25300 32.37000
H  19.85300 -0.01100 32.22300
H  20.37900 -1.01400 30.93400
H  20.28700 -1.68000 32.58900
H  16.21800 -1.67700 33.13500
H  15.33100 -0.29800 32.55700
H  15.96000 -1.03300 35.15700
H  15.63300 0.62300 34.65100
H  19.58200 -5.91500 29.13900
H  20.87800 -4.79500 29.48800
H  21.13200 -5.93200 28.15500
H  21.77900 -6.30300 26.06800
H  20.76600 -7.16800 24.88000
H  20.03000 -6.72500 26.37300
H  16.75100 -2.03000 22.57600
H  16.55300 0.85900 22.77600
H  18.51400 0.18900 22.02700
H  18.75700 -1.47500 21.58100
H  19.41600 -0.86000 23.05600
H  14.95800 -0.82400 21.58300
H  14.41400 0.60500 22.17900
H  12.91300 -1.38500 22.77000
H  13.32700 -0.19800 23.94900
H  14.17900 -1.79200 23.98400
H  14.25000 4.14100 25.76400
H  13.34800 4.53200 27.19200
H  12.81200 3.33300 26.03900
H  14.84400 1.74400 31.83600
H  17.74700 4.61400 33.47200
H  16.59300 4.55800 34.79000
H  16.19500 5.52700 33.42400
Mg -2.31900 34.29900 25.94900
C  -4.04200 32.76000 28.53000
C  -0.73500 36.23900 28.40300
C  -0.70200 35.95900 23.61100
C  -4.05400 32.37500 23.64200
N  -2.57400 34.57600 28.13000
C  -3.21300 33.80200 29.00600
C  -2.82700 33.97900 30.41700
C  -2.23900 35.43300 30.26100
C  -1.84500 35.44100 28.77700
C  -3.28000 36.51700 30.65600
C  -1.82400 32.88100 30.97200
C  -1.10900 33.15000 32.27000
H  -1.80300 32.56000 33.49800
N  -0.88300 35.92200 26.00200
C  -0.25900 36.52000 27.09000
C  0.82200 37.40000 26.63800
C  0.91700 37.17700 25.25700
C  -0.22600 36.36400 24.86900
C  1.72800 38.13700 27.57800
C  1.87500 37.68700 24.19800
O  1.71500 37.41100 23.02000
C  2.98600 38.53400 24.76100
N  -2.55200 34.28600 23.98500
C  -1.75300 35.10100 23.25900
C  -2.04200 34.98700 21.79400
C  -2.95000 33.69500 21.76300
C  -3.18800 33.38400 23.22100
C  -2.66100 36.26700 21.10800
C  -2.37000 32.45600 21.04600
C  -1.36200 31.56400 21.76400
N  -3.78200 32.85100 25.96600
C  -4.32700 32.09000 24.96600
C  -5.23300 31.08800 25.57800
C  -5.13500 31.29800 26.94100
C  -4.21500 32.37600 27.16000
C  -6.11800 30.12400 24.85500
C  -5.52700 30.78900 28.20500
O  -6.20800 29.80100 28.57700
C  -4.81700 31.73000 29.28900
C  -5.89900 32.31500 30.17700
O  -6.65500 33.23700 29.85300
O  -5.92300 31.71300 31.38100
C  -6.92800 32.23400 32.39500
H  -0.25200 36.73100 29.25000
H  -0.21300 36.34600 22.71500
H  -4.74800 31.95000 22.91300
H  -3.77700 33.97700 30.95100
H  -1.32500 35.66900 30.80600
H  -2.99500 37.10600 31.52800
H  -4.27400 36.13400 30.88700
H  -3.11800 37.16600 29.79600
H  -1.15500 32.45900 30.22200
H  -2.44600 32.00200 31.14100
H  -1.01700 34.22200 32.44400
H  -0.08300 32.78300 32.22800
H  1.31200 38.23100 28.58000
H  1.83400 39.17100 27.25000
H  2.68700 37.62100 27.63800
H  3.53200 38.71300 23.83400
H  3.57400 37.86200 25.38700
H  2.54700 39.37500 25.29700
H  -1.15100 34.67900 21.24700
H  -3.93100 33.82900 21.30700
H  -2.03400 36.74000 20.35300
H  -2.91000 37.04900 21.82500
H  -3.59600 35.90200 20.68100
H  -1.82700 32.68000 20.12700
H  -3.18100 31.87400 20.60900
H  -0.47400 31.48500 21.13700
H  -1.56900 30.52400 22.01500
H  -1.01600 32.09100 22.65300
H  -6.95400 29.64600 25.36500
H  -5.46200 29.29200 24.59500
H  -6.64900 30.57000 24.01400
H  -4.10200 31.10600 29.82700
H  -6.47200 32.93000 33.10000
H  -7.38000 31.36000 32.86400
H  -7.75300 32.78900 31.94700

