158

Mg 17.23100 52.32700 26.27800
C  18.99200 50.95700 29.11000
C  14.97800 53.60700 28.53300
C  15.60800 53.59700 23.70200
C  19.43400 50.62200 24.22300
N  17.03800 52.20000 28.57800
C  17.98500 51.77000 29.48300
C  17.51800 52.26700 30.87500
C  16.04500 52.81100 30.70900
C  15.98100 52.84900 29.18700
C  15.06800 51.82400 31.29900
C  18.38400 53.42000 31.47500
C  18.40700 53.39600 33.03100
H  17.34800 52.59100 33.78900
N  15.47500 53.46300 26.17800
C  14.70800 53.89300 27.15100
C  13.65200 54.74900 26.67400
C  13.80300 54.77700 25.21400
C  15.00800 53.99600 24.96100
C  12.61500 55.53500 27.50100
C  12.96000 55.43700 24.15500
O  13.33700 55.48700 22.95800
C  11.61400 56.08800 24.53800
N  17.48600 52.08100 24.25200
C  16.69100 52.79400 23.39000
C  17.11900 52.53100 21.96300
C  18.38800 51.70000 22.17000
C  18.49800 51.51200 23.63400
C  16.04300 51.80900 21.11800
C  19.58600 52.35500 21.56700
C  20.14200 53.60000 22.32400
N  18.84100 51.02700 26.49200
C  19.64000 50.46500 25.59600
C  20.60300 49.61300 26.18600
C  20.46300 49.86600 27.60200
C  19.35700 50.65700 27.72900
C  21.59400 48.80200 25.48100
C  21.00300 49.58400 28.91700
O  22.00800 48.91600 29.18600
C  20.13300 50.34300 29.94400
C  19.68500 49.38900 30.93900
O  18.93500 48.43100 30.61600
O  20.11100 49.68100 32.23300
C  19.81700 48.67400 33.28800
H  14.23500 53.97700 29.24300
H  15.04700 53.88800 22.81100
H  20.04600 50.08100 23.49800
H  17.60600 51.34900 31.45700
H  15.70700 53.72200 31.20300
H  14.76300 51.08200 30.56100
H  14.23500 52.40500 31.69700
H  15.44600 51.21600 32.12100
H  18.00700 54.33200 31.01100
H  19.41600 53.20600 31.19700
H  18.36200 54.44200 33.33600
H  19.36900 52.95100 33.28300
H  12.60300 56.58800 27.22200
H  13.11600 55.48100 28.46800
H  11.62300 55.09200 27.60100
H  11.17700 55.43700 25.29500
H  10.82800 56.14400 23.78400
H  11.74200 57.12300 24.85700
H  17.45600 53.48800 21.56400
H  18.17000 50.78500 21.61800
H  16.56100 51.33300 20.28600
H  15.33200 52.54000 20.73300
H  15.59800 50.98600 21.67600
H  19.41400 52.50500 20.50100
H  20.42300 51.66500 21.67400
H  20.19500 54.34600 21.53200
H  21.10300 53.52200 22.83400
H  19.31600 53.85000 22.98900
H  22.41900 49.41800 25.12300
H  21.11800 48.10700 24.79000
H  22.20300 48.30900 26.23900
H  20.84400 51.05900 30.35700
H  20.46800 47.80000 33.31400
H  18.78000 48.34200 33.23100
H  19.80800 49.03400 34.31600
Mg 1.15300 42.69100 25.84500
C  2.47200 42.86900 29.12200
C  -1.99300 42.02100 27.21900
C  -0.11200 42.32800 22.72300
C  4.23700 43.36100 24.56300
N  0.39400 42.47000 27.96200
C  1.02200 42.66800 29.11000
C  0.11800 42.50800 30.33300
C  -1.22600 42.12100 29.71500
C  -0.94100 42.18400 28.17700
C  -1.80000 40.79000 30.28400
C  0.11900 43.94600 31.10000
C  0.35100 43.91000 32.66000
H  0.28300 42.63000 33.40800
N  -0.85200 42.24300 25.08700
C  -2.00600 42.15200 25.77600
C  -3.11600 42.18500 24.84500
C  -2.60300 42.11000 23.51800
C  -1.16200 42.21700 23.73100
C  -4.51500 42.17400 25.28700
C  -3.32500 41.89000 22.19800
O  -2.73400 41.85800 21.13200
C  -4.85300 41.62200 22.12700
N  1.89800 42.84400 24.00300
C  1.21900 42.59500 22.80900
C  1.98200 43.00700 21.55100
C  3.29300 43.59700 22.12900
C  3.16000 43.29000 23.66300
C  2.19400 41.91700 20.48900
C  3.43400 45.07300 21.78000
C  4.14400 45.33100 20.52200
N  3.01600 42.81400 26.61800
C  4.21100 43.12400 25.95900
C  5.28500 43.27400 26.92200
C  4.62600 43.18100 28.15400
C  3.24100 42.85500 27.95500
C  6.76700 43.65900 26.62200
C  4.85700 43.32300 29.54100
O  5.91600 43.40500 30.16500
C  3.45500 43.11300 30.24300
C  3.62400 41.96200 31.14200
O  3.56000 40.77900 30.70700
O  4.13400 42.36500 32.37200
C  4.87100 41.23200 33.00700
H  -2.97800 41.80700 27.63900
H  -0.61900 42.29900 21.75700
H  5.12100 43.86000 24.16100
H  0.56300 41.76200 30.99100
H  -1.97600 42.88200 29.93000
H  -2.58500 40.41800 29.62500
H  -2.09000 41.01900 31.30900
H  -1.02300 40.02600 30.24900
H  -0.81800 44.47900 30.93600
H  0.88800 44.63000 30.74000
H  -0.21500 44.71000 33.13800
H  1.36800 44.24900 32.85700
H  -4.96600 41.18400 25.22300
H  -5.08200 42.83400 24.63100
H  -4.64200 42.67600 26.24700
H  -5.13200 40.86400 22.85900
H  -4.98900 41.14700 21.15600
H  -5.55000 42.46000 22.09700
H  1.49100 43.82700 21.02600
H  4.11500 43.02800 21.69400
H  1.63600 42.30500 19.63600
H  1.77200 40.96200 20.80400
H  3.24300 41.77900 20.22800
H  3.86100 45.55500 22.66000
H  2.47400 45.57700 21.66800
H  4.90600 46.09300 20.69000
H  3.44100 45.83600 19.86000
H  4.59000 44.42200 20.11800
H  7.36900 44.19900 27.35300
H  6.80200 44.43000 25.85200
H  7.20800 42.74600 26.22300
H  3.06700 43.95900 30.81000
H  5.68600 41.00000 32.32200
H  4.14300 40.43200 33.14300
H  5.24700 41.63800 33.94600

