158

Mg -1.85600 17.49800 27.32700
C  -2.34500 15.54900 30.09600
C  -2.86100 20.29900 29.14100
C  -1.33600 19.39600 24.44500
C  -1.64900 14.63200 25.38000
N  -2.36600 17.89400 29.49500
C  -2.47300 16.91300 30.47200
C  -2.69400 17.61100 31.85700
C  -3.27000 18.99900 31.42300
C  -2.78200 19.14400 29.90700
C  -4.75200 19.23500 31.43900
C  -1.45300 17.55900 32.77400
C  -1.80600 17.40700 34.31900
H  -0.71000 17.72900 35.32800
N  -1.88300 19.59100 26.95000
C  -2.39100 20.55500 27.83700
C  -2.29800 21.84100 27.18700
C  -1.76200 21.59500 25.85100
C  -1.62000 20.13400 25.68900
C  -2.64100 23.17600 27.83800
C  -1.38800 22.62000 24.82500
O  -1.02000 22.29800 23.71700
C  -1.51300 24.07000 25.12500
N  -1.56300 17.04700 25.17000
C  -1.34800 18.04400 24.16300
C  -1.07300 17.37600 22.76900
C  -0.99800 15.88200 23.20400
C  -1.42400 15.78500 24.65500
C  -2.23300 17.68100 21.79300
C  0.47600 15.23400 23.04200
C  1.49400 16.06200 23.85600
N  -2.05400 15.46100 27.54900
C  -2.01700 14.40600 26.70800
C  -2.21300 13.16200 27.42500
C  -2.31600 13.57100 28.81000
C  -2.22700 14.96200 28.81500
C  -2.27500 11.79100 26.74000
C  -2.49900 13.09500 30.13200
O  -2.58700 11.94900 30.56900
C  -2.42700 14.36900 31.05800
C  -1.19400 14.16600 31.79200
O  -0.02000 14.17400 31.41700
O  -1.52500 14.07600 33.12800
C  -0.42800 13.87000 34.06800
H  -3.21300 21.15500 29.72000
H  -1.13100 20.02100 23.57400
H  -1.51900 13.76400 24.73100
H  -3.40500 16.93000 32.32500
H  -2.85200 19.85400 31.95500
H  -5.22400 18.26600 31.27500
H  -5.18300 19.81000 30.61900
H  -5.06800 19.78700 32.32400
H  -0.81300 18.42900 32.62500
H  -0.79700 16.71000 32.58300
H  -2.12300 16.42400 34.66700
H  -2.67500 18.03700 34.51000
H  -1.73700 23.78400 27.83600
H  -2.80900 23.07000 28.91000
H  -3.57100 23.66700 27.55000
H  -1.66800 24.52400 24.14600
H  -0.62300 24.42700 25.64400
H  -2.35800 24.38900 25.73600
H  -0.16600 17.67900 22.24500
H  -1.67500 15.32600 22.55500
H  -3.15000 17.43200 22.32600
H  -2.11100 17.22100 20.81300
H  -2.28100 18.76500 21.68600
H  0.80600 15.17600 22.00500
H  0.41600 14.20000 23.38100
H  2.17900 15.32100 24.26600
H  1.10300 16.80000 24.55700
H  2.14100 16.61500 23.17500
H  -2.01700 11.82400 25.68200
H  -3.28100 11.37600 26.80300
H  -1.62900 11.08300 27.25900
H  -3.30400 14.51200 31.69000
H  -0.64600 14.35200 35.02100
H  0.54200 14.25400 33.75100
H  -0.35600 12.78800 34.17700
Mg 7.86900 2.62200 28.49000
C  9.50600 1.26500 31.43700
C  6.15800 4.78000 30.75900
C  5.94600 3.57100 25.93100
C  9.37000 0.15200 26.67100
N  7.79900 2.81200 30.88000
C  8.65300 2.28900 31.80400
C  8.64600 2.95900 33.24600
C  7.39300 3.95000 32.92800
C  7.09700 3.91200 31.42000
C  6.11500 3.70400 33.86600
C  9.96200 3.64200 33.65100
C  10.43900 3.26300 35.10200
H  9.56500 3.61100 36.36300
N  6.34000 3.98300 28.39800
C  5.74600 4.74200 29.42000
C  4.69600 5.57200 28.81300
C  4.79900 5.43600 27.43300
C  5.74100 4.37200 27.14600
C  3.73800 6.37200 29.60500
C  3.88200 6.07000 26.34200
O  3.92200 5.73700 25.17400
C  2.78300 7.13700 26.78400
N  7.77500 2.02400 26.56700
C  6.84300 2.48200 25.72200
C  7.01800 1.80900 24.32900
C  8.30700 0.81900 24.55000
C  8.49500 0.99500 26.00800
C  5.69600 1.06100 23.86600
C  9.67200 1.19400 23.77200
C  10.69900 2.05700 24.49200
N  9.22900 0.99400 28.88300
C  9.71100 0.08400 27.99800
C  10.50000 -0.86900 28.71600
C  10.49200 -0.45300 30.08300
C  9.71300 0.71100 30.14600
C  11.18500 -2.03800 28.13500
C  10.92100 -0.74500 31.44900
O  11.53000 -1.69400 31.89200
C  10.41200 0.41600 32.39800
C  9.59900 -0.35100 33.44000
O  8.45800 -0.75200 33.27100
O  10.39200 -0.56100 34.54100
C  9.76600 -1.14400 35.75800
H  5.66600 5.58200 31.31300
H  5.40000 3.94700 25.06300
H  9.77400 -0.69800 26.11700
H  8.33900 2.17000 33.93100
H  7.67200 4.97700 33.16500
H  6.23700 2.73600 34.35200
H  5.25200 3.68400 33.20200
H  6.05200 4.56900 34.52700
H  9.90800 4.73000 33.62500
H  10.66300 3.34600 32.87100
H  11.25400 3.95100 35.32700
H  10.82100 2.24500 35.17400
H  3.74400 5.90600 30.59000
H  2.72800 6.20800 29.23000
H  4.05100 7.41200 29.70000
H  1.80900 6.69100 26.98500
H  2.67200 7.72500 25.87300
H  3.11800 7.91700 27.46700
H  7.25700 2.57200 23.58700
H  8.05600 -0.22000 24.33300
H  4.90300 1.12800 24.61000
H  5.69500 -0.00500 23.63900
H  5.33800 1.70500 23.06300
H  9.33500 1.75800 22.90200
H  10.13400 0.25300 23.47200
H  11.44900 1.54700 25.09700
H  10.40300 2.93900 25.06000
H  11.24300 2.52000 23.66800
H  12.12900 -1.77400 27.66000
H  10.45400 -2.30600 27.37300
H  11.15400 -2.86500 28.84500
H  11.31600 0.85600 32.81700
H  10.51100 -1.80100 36.20700
H  8.83400 -1.64700 35.50200
H  9.54700 -0.41500 36.53800

