158

Mg 46.52600 24.76900 28.55800
C  47.07400 27.13300 31.06000
C  45.66200 22.53600 31.11300
C  46.35600 22.53500 26.25500
C  47.86400 27.10500 26.32700
N  46.00800 24.95400 30.82500
C  46.40800 25.97000 31.59400
C  46.02800 25.74300 33.07400
C  46.02400 24.19400 33.09500
C  45.90700 23.85000 31.61600
C  47.23400 23.52000 33.90100
C  44.87000 26.60100 33.53900
C  44.16000 26.20600 34.85000
H  44.39700 27.22500 35.97000
N  46.01300 22.86100 28.61300
C  45.65500 22.08600 29.70200
C  45.33100 20.74300 29.25200
C  45.54600 20.71400 27.84400
C  45.98900 22.04400 27.48300
C  44.84400 19.63200 30.12900
C  45.44700 19.50500 26.75400
O  45.57500 19.64700 25.52700
C  45.14300 18.11600 27.29000
N  46.96500 24.83000 26.51400
C  46.93400 23.72300 25.77600
C  47.11800 23.99000 24.27000
C  47.64500 25.41000 24.37500
C  47.44700 25.77900 25.81100
C  48.18800 23.03400 23.57400
C  47.02000 26.35800 23.32200
C  45.54500 26.84600 23.60100
N  47.29300 26.73700 28.62300
C  47.90200 27.50200 27.62800
C  48.43900 28.77000 28.16100
C  48.10400 28.59600 29.50500
C  47.46500 27.33500 29.72700
C  48.88200 29.91100 27.31000
C  48.20500 29.34000 30.76800
O  48.67000 30.44000 31.01500
C  47.59900 28.34500 31.83700
C  48.69700 27.87300 32.81900
O  49.62400 27.09900 32.53000
O  48.40200 28.35100 34.10500
C  49.03900 27.67800 35.27300
H  45.48700 21.80000 31.90000
H  46.38300 21.83400 25.41800
H  48.39500 27.73300 25.60800
H  46.89500 26.20900 33.54200
H  45.09100 23.90400 33.57800
H  48.09800 24.13400 34.15700
H  47.69600 22.77200 33.25700
H  46.89900 23.01600 34.80800
H  44.15000 26.68300 32.72400
H  45.29700 27.59900 33.63400
H  44.40500 25.20900 35.21500
H  43.08400 26.06900 34.74400
H  45.68500 18.93900 30.14000
H  43.85300 19.33300 29.78900
H  44.76100 19.93900 31.17100
H  45.13600 17.36100 26.50400
H  44.11500 18.25100 27.62800
H  45.70600 17.79200 28.16500
H  46.15600 24.04600 23.76000
H  48.72100 25.42200 24.20000
H  48.69400 22.42900 24.32700
H  48.75600 23.60600 22.84000
H  47.64500 22.25900 23.03200
H  46.93900 25.81900 22.37800
H  47.77300 27.13800 23.21800
H  45.67500 27.90900 23.80300
H  44.97200 26.40500 24.41600
H  44.85000 26.76400 22.76500
H  49.71800 29.58100 26.69400
H  49.10300 30.80400 27.89400
H  48.08100 30.21100 26.63500
H  46.73700 28.74700 32.36900
H  49.75300 26.89900 35.00800
H  48.20100 27.18500 35.76500
H  49.66100 28.32700 35.88900
Mg 16.21200 52.37600 25.13700
C  17.48300 50.84500 27.87600
C  13.57700 53.45400 27.02500
C  14.61700 53.24600 22.31400
C  18.66800 50.79000 23.16300
N  15.75900 52.43700 27.24000
C  16.42700 51.72200 28.22000
C  15.86500 52.07600 29.63900
C  14.58600 52.95400 29.29100
C  14.59400 52.90400 27.76200
C  13.21100 52.45900 29.93100
C  16.95200 52.72000 30.52400
C  17.11200 52.16900 31.96000
H  15.96300 51.40600 32.59500
N  14.49800 53.43100 24.77300
C  13.46300 53.69400 25.64300
C  12.49200 54.46500 24.96700
C  12.68100 54.32400 23.58200
C  13.94200 53.62100 23.49100
C  11.21700 55.14500 25.69300
C  11.85100 54.67500 22.35900
O  12.17800 54.40900 21.19400
C  10.50900 55.36100 22.55100
N  16.63200 52.12500 23.02600
C  15.80500 52.57800 22.11600
C  16.39300 52.19600 20.76500
C  17.91800 51.86400 20.98800
C  17.75200 51.53200 22.46700
C  15.65100 51.08200 19.88900
C  18.91400 53.09500 20.94700
C  20.14200 52.83000 20.16000
N  17.75600 51.10500 25.44300
C  18.73100 50.62100 24.56000
C  19.65900 49.78400 25.28400
C  19.20100 49.94300 26.61100
C  18.02200 50.68400 26.60900
C  20.81900 48.99300 24.74300
C  19.47600 49.48500 27.92200
O  20.35200 48.74900 28.31600
C  18.42700 50.16200 28.83600
C  17.81600 49.11800 29.80100
O  16.64900 48.77500 29.87600
O  18.75000 48.73600 30.70500
C  18.28300 47.93600 31.84400
H  12.84400 53.86100 27.72500
H  14.27000 53.47800 21.30500
H  19.49200 50.46000 22.52600
H  15.50200 51.17000 30.12400
H  14.77400 54.01300 29.47200
H  12.63100 52.16600 29.05600
H  12.68600 53.26600 30.44300
H  13.31900 51.60500 30.59800
H  16.67700 53.73500 30.81000
H  17.97000 52.79300 30.14400
H  17.36400 53.00900 32.60800
H  17.94600 51.46600 31.96900
H  10.24200 55.06100 25.21300
H  11.51400 56.16900 25.92000
H  11.24600 54.74100 26.70500
H  9.63300 54.78400 22.84800
H  10.34100 55.61300 21.50400
H  10.65600 56.21600 23.21000
H  16.19900 53.11100 20.20500
H  18.28600 50.93800 20.54600
H  14.81900 50.84200 20.55000
H  16.37000 50.26400 19.84100
H  15.33900 51.37600 18.88600
H  19.26700 53.46400 21.90900
H  18.39700 53.96500 20.54300
H  19.98100 52.84600 19.08200
H  20.50600 51.85900 20.49400
H  20.98600 53.48100 20.38900
H  20.63700 48.64300 23.72700
H  21.11000 48.13800 25.35400
H  21.65500 49.67200 24.57400
H  18.94300 50.79900 29.55400
H  17.90900 48.48200 32.71000
H  19.02600 47.22800 32.21200
H  17.51200 47.23400 31.52800

