158

Mg 45.61900 24.62700 29.54300
C  46.37600 27.13700 31.89000
C  44.98500 22.50000 31.91600
C  45.76200 22.20700 27.11700
C  46.88000 26.93700 26.99900
N  45.53300 24.82700 31.62900
C  45.85300 25.94200 32.43800
C  45.54000 25.64200 33.89400
C  45.30500 24.14800 33.91900
C  45.24800 23.79400 32.36800
C  46.38600 23.30800 34.60200
C  44.35900 26.51900 34.41500
C  44.68800 27.14600 35.79400
H  43.54000 27.09100 36.91100
N  45.20800 22.74200 29.48400
C  44.89700 22.01700 30.61200
C  44.44600 20.66400 30.20700
C  44.74700 20.59600 28.79000
C  45.27300 21.91200 28.40500
C  43.90100 19.53200 31.18300
C  44.64400 19.37600 27.88700
O  44.78200 19.49000 26.65400
C  44.35600 17.99200 28.45900
N  46.31400 24.56500 27.44100
C  46.23500 23.45100 26.67100
C  46.43800 23.68700 25.18000
C  46.70400 25.25400 25.12300
C  46.57900 25.57900 26.63400
C  47.74800 23.03600 24.64200
C  45.79500 26.12800 24.22500
C  44.24600 26.06400 24.45500
N  46.35600 26.67700 29.37400
C  46.83200 27.40100 28.28400
C  47.22800 28.74200 28.79100
C  47.05300 28.73300 30.19600
C  46.58500 27.43000 30.51900
C  47.90600 29.86900 28.02800
C  47.34900 29.43600 31.53300
O  47.80800 30.52900 31.78400
C  46.91800 28.35500 32.63700
C  48.08500 28.16800 33.56900
O  49.23900 27.87200 33.20800
O  47.64100 28.36900 34.85300
C  48.64900 27.96700 35.92500
H  44.51700 21.86700 32.67200
H  45.83300 21.43400 26.35000
H  47.25100 27.73500 26.35200
H  46.52200 25.84200 34.32300
H  44.30600 24.04100 34.34300
H  47.39600 23.66100 34.39500
H  46.30900 22.25600 34.33000
H  46.24500 23.47200 35.67100
H  43.44200 25.94000 34.51600
H  44.24800 27.31300 33.67600
H  45.09600 28.15500 35.73700
H  45.49200 26.53200 36.20100
H  43.01300 19.02000 30.81200
H  43.68400 19.96800 32.15700
H  44.64600 18.73800 31.24500
H  43.32100 18.05800 28.79500
H  45.07500 17.73900 29.23700
H  44.34100 17.32700 27.59500
H  45.48900 23.40500 24.72400
H  47.73900 25.54300 24.93900
H  47.41800 22.54200 23.72900
H  48.07800 22.27100 25.34500
H  48.52100 23.78100 24.45100
H  45.92200 26.00000 23.15000
H  45.96200 27.20300 24.29400
H  44.04800 26.89200 25.13600
H  44.09600 25.11800 24.97700
H  43.75900 26.15300 23.48400
H  48.60200 29.48300 27.28300
H  48.40000 30.58100 28.69000
H  47.26300 30.41800 27.34000
H  46.10600 28.83200 33.18600
H  49.34100 27.19400 35.59100
H  48.11000 27.77700 36.85300
H  49.18900 28.83700 36.29900
Mg 47.75400 45.58700 42.52000
C  44.34500 44.85700 42.28300
C  48.40900 42.32600 42.18100
C  50.95900 46.45700 42.15400
C  46.81200 49.04500 42.47800
N  46.51100 43.83300 42.06400
C  45.11100 43.70700 42.11600
C  44.66800 42.27900 42.14200
C  45.99900 41.53100 42.33000
C  47.04700 42.58200 42.13300
C  46.16500 40.59200 43.62300
C  43.75700 41.75900 40.97700
C  43.86100 42.56600 39.67400
H  43.52900 41.89400 38.33000
N  49.45700 44.58800 42.29200
C  49.53200 43.17700 42.20100
C  50.90200 42.86900 42.09100
C  51.72900 43.95600 42.16800
C  50.70800 45.03600 42.17200
C  51.30600 41.42200 42.00000
C  53.30500 44.03100 42.12600
O  53.99400 42.98500 41.97900
C  54.03500 45.22900 42.34300
N  48.76200 47.48500 42.13500
C  50.09500 47.56200 42.28000
C  50.48600 49.06700 42.33000
C  49.28200 49.87200 42.32900
C  48.23000 48.71600 42.34700
C  51.42700 49.50300 43.50000
C  49.14000 50.87200 41.11000
C  48.71600 52.35600 41.39700
N  45.98100 46.73000 42.36600
C  45.72900 48.13600 42.54000
C  44.34900 48.43900 42.57100
C  43.78600 47.13200 42.58200
C  44.77600 46.18600 42.33400
C  43.63300 49.74500 42.69600
C  42.49400 46.43800 42.54100
O  41.37900 46.90000 42.58000
C  42.82100 44.89400 42.44700
C  42.26000 44.15000 43.62500
O  41.39800 43.31000 43.62500
O  42.88100 44.60100 44.75300
C  42.41900 44.03300 45.99400
H  48.69600 41.27300 42.14500
H  52.00900 46.71100 41.99300
H  46.49000 50.08800 42.51100
H  44.12900 42.02200 43.05400
H  46.18400 40.91500 41.45000
H  47.05800 39.97400 43.52300
H  45.29200 39.94000 43.65600
H  46.29100 41.16800 44.53900
H  42.71200 41.85300 41.27300
H  44.02700 40.72700 40.75500
H  44.88100 42.92000 39.52400
H  43.22500 43.44000 39.81300
H  50.92200 40.90200 42.87800
H  52.37600 41.21900 41.96400
H  50.93300 41.05500 41.04400
H  54.00000 45.90000 41.48500
H  55.07100 44.92100 42.48500
H  53.76300 45.73100 43.27100
H  51.02600 49.20800 41.39400
H  49.07700 50.42300 43.24700
H  52.28200 50.06100 43.12000
H  51.65600 48.56500 44.00700
H  50.86800 50.14300 44.18300
H  48.35500 50.43000 40.49600
H  49.99500 50.66800 40.46500
H  49.33900 53.01800 40.79500
H  48.94400 52.62500 42.42800
H  47.66700 52.53900 41.16500
H  44.24700 50.55900 43.08200
H  42.69200 49.64800 43.23700
H  43.41100 49.97700 41.65400
H  42.25400 44.58400 41.56900
H  41.34300 43.87900 45.91900
H  42.74800 44.64100 46.83700
H  42.98800 43.10400 46.02200

