158

Mg 35.72100 2.47500 30.45400
C  33.04300 3.33700 32.61800
C  37.79400 2.64400 33.15000
C  38.21400 1.58300 28.36300
C  33.58300 2.89400 27.68900
N  35.44600 2.92800 32.60900
C  34.28100 3.14200 33.26100
C  34.43900 3.18600 34.81200
C  35.99700 3.26400 34.94800
C  36.45900 2.93000 33.51400
C  36.55100 4.56800 35.55200
C  33.63800 1.96200 35.46700
C  32.83800 2.29400 36.70500
H  33.53400 3.23500 37.72700
N  37.62900 2.12800 30.69600
C  38.32200 2.12600 31.90400
C  39.73100 1.76200 31.65700
C  39.88200 1.71700 30.27100
C  38.55100 1.82300 29.69200
C  40.66900 1.49300 32.77300
C  41.21600 1.53800 29.51400
O  41.23600 1.50900 28.31500
C  42.45300 1.34900 30.30000
N  35.93300 2.37200 28.21600
C  37.09700 1.88100 27.67500
C  36.97400 1.96600 26.12500
C  35.34400 2.16900 25.95300
C  34.93600 2.59000 27.32400
C  37.83200 3.07500 25.50900
C  34.54800 0.84300 25.43600
C  33.14200 0.96900 24.78700
N  33.75000 3.05900 30.16100
C  33.05200 3.13200 28.98000
C  31.69100 3.44700 29.32700
C  31.62600 3.55200 30.72600
C  32.95700 3.31000 31.20000
C  30.49600 3.62100 28.37600
C  30.67100 3.93500 31.83000
O  29.47100 4.15500 31.86100
C  31.63600 3.66300 33.11400
C  31.47900 4.91000 33.86100
O  32.10400 5.93600 33.49000
O  30.70300 4.80700 35.01600
C  30.72700 5.99200 35.88700
H  38.45300 2.69600 34.01900
H  39.06500 1.28900 27.74400
H  32.85600 3.05600 26.89100
H  34.07400 4.12900 35.21800
H  36.18800 2.41000 35.59800
H  36.33200 4.77500 36.60000
H  36.28200 5.38800 34.88600
H  37.62700 4.48500 35.40300
H  34.33800 1.13700 35.60000
H  32.98800 1.54100 34.69900
H  32.61000 1.33200 37.16400
H  31.86600 2.60500 36.32000
H  40.24900 1.33400 33.76600
H  41.28600 2.39200 32.76400
H  41.33200 0.63600 32.66300
H  42.55500 2.20600 30.96600
H  43.27900 1.34800 29.59000
H  42.51000 0.43400 30.88900
H  37.16400 0.98100 25.69900
H  35.10500 3.04900 25.35600
H  37.31500 3.81100 24.89200
H  38.48800 2.52300 24.83600
H  38.42900 3.53900 26.29400
H  34.50500 0.12200 26.25200
H  35.19000 0.41500 24.66600
H  33.17800 0.84800 23.70400
H  32.62400 1.86800 25.11900
H  32.49600 0.21000 25.22900
H  29.55400 3.63800 28.92400
H  30.28100 2.83300 27.65500
H  30.43000 4.61200 27.92600
H  31.08800 2.94500 33.72400
H  29.95600 6.74700 35.73100
H  31.64900 6.57300 35.85900
H  30.59300 5.67600 36.92100
Mg 54.97100 24.13300 45.35300
C  52.20800 26.45000 44.87400
C  52.92900 21.77900 44.08400
C  57.61600 22.43900 45.05000
C  56.76700 26.99500 46.52500
N  52.87900 24.14800 44.64600
C  51.99600 25.18600 44.40400
C  50.66000 24.63500 43.77700
C  50.76700 23.10100 43.99200
C  52.31300 22.97400 44.27400
C  49.97600 22.55800 45.14000
C  50.46300 25.09600 42.27200
C  49.01200 25.34500 41.87400
H  48.49900 24.84100 40.52600
N  55.26000 22.33800 44.58000
C  54.33300 21.48300 44.13700
C  54.98100 20.32500 43.66000
C  56.39300 20.57800 43.70400
C  56.48300 21.81700 44.49100
C  54.32200 19.03300 43.13700
C  57.53600 19.63500 43.17400
O  57.12700 18.62100 42.60500
C  58.97200 19.90900 43.35400
N  56.97000 24.71700 45.77000
C  57.86300 23.68300 45.60200
C  59.29700 24.18200 46.14300
C  58.93700 25.64800 46.63900
C  57.46900 25.80500 46.27300
C  60.14300 23.29200 47.15700
C  59.71200 26.78700 45.87400
C  60.55400 27.70100 46.74400
N  54.51700 26.21400 45.90100
C  55.40700 27.22100 46.33000
C  54.69300 28.47500 46.46400
C  53.44300 28.16600 45.92700
C  53.40100 26.83900 45.55400
C  55.22500 29.80200 46.86300
C  52.20600 28.79900 45.51000
O  51.80400 29.97800 45.60400
C  51.40900 27.68900 44.74500
C  51.39900 28.12400 43.34600
O  52.44600 28.34300 42.66800
O  50.12100 28.41400 42.93500
C  50.04800 28.92300 41.53800
H  52.32500 20.98500 43.63900
H  58.45500 21.75800 44.89700
H  57.31300 27.81700 46.99200
H  49.88300 25.10500 44.37900
H  50.56700 22.60000 43.04500
H  50.60900 22.15400 45.93100
H  49.40100 21.75200 44.68400
H  49.33200 23.29800 45.61400
H  50.92900 24.39300 41.58100
H  50.99400 26.04400 42.18000
H  48.92900 26.42800 41.78800
H  48.36700 24.83100 42.58800
H  54.79600 18.11600 43.48600
H  54.49900 18.92000 42.06800
H  53.24000 19.03700 43.26300
H  59.30500 20.92800 43.15500
H  59.57600 19.28500 42.69600
H  59.28800 19.69700 44.37600
H  59.91500 24.40100 45.27300
H  59.18000 25.68800 47.70000
H  59.96200 22.21700 47.13100
H  60.09400 23.80200 48.11900
H  61.16300 23.54000 46.86500
H  59.09200 27.47300 45.29600
H  60.41200 26.35900 45.15700
H  60.49900 28.73500 46.40400
H  61.62000 27.47600 46.77700
H  60.19000 27.76500 47.76900
H  54.76200 30.21200 47.76000
H  54.87600 30.57400 46.17700
H  56.30900 29.73000 46.76800
H  50.39000 27.57400 45.11600
H  48.99400 29.02200 41.27600
H  50.59200 28.29100 40.83500
H  50.37800 29.96100 41.56500

