158

Mg 8.02600 2.43200 27.93200
C  9.34000 1.24300 31.00500
C  6.21800 4.68700 29.77000
C  6.66100 3.27300 25.10300
C  9.79600 -0.10900 26.29500
N  7.46100 2.72400 30.26400
C  8.35800 2.29800 31.26100
C  8.07300 2.98600 32.62000
C  6.84400 3.93400 32.28300
C  6.80200 3.83000 30.67700
C  5.38700 3.63000 32.92200
C  9.30800 3.77500 33.09100
C  9.13000 4.74500 34.22900
H  10.09800 4.60100 35.42300
N  6.59900 3.79700 27.48400
C  5.95500 4.64900 28.37900
C  4.98100 5.44100 27.60000
C  5.16900 5.08400 26.20900
C  6.15500 3.97200 26.21700
C  4.13400 6.47000 28.28100
C  4.48200 5.57300 24.95800
O  4.70000 5.25100 23.78800
C  3.34800 6.54300 25.13400
N  8.13500 1.66400 25.88700
C  7.48300 2.20100 24.89700
C  7.77400 1.55500 23.53800
C  9.04500 0.68900 23.82000
C  9.04500 0.75800 25.44000
C  6.49200 0.78900 23.20100
C  10.37000 1.27800 23.20400
C  11.24600 2.14100 24.11700
N  9.23400 0.90800 28.45400
C  9.89100 -0.02600 27.67700
C  10.88500 -0.78200 28.46600
C  10.71500 -0.31900 29.78700
C  9.67600 0.65800 29.73500
C  11.86500 -1.84600 27.96300
C  11.14900 -0.46300 31.06200
O  11.95500 -1.28600 31.48500
C  10.28700 0.53600 31.97300
C  9.78000 -0.21800 33.15200
O  9.36700 -1.36100 33.14100
O  9.78100 0.57800 34.26700
C  9.04000 0.02800 35.42300
H  5.87700 5.55700 30.33500
H  6.31100 3.58600 24.11700
H  10.53500 -0.76800 25.83700
H  7.72800 2.22100 33.31600
H  7.12100 4.97600 32.43800
H  4.71400 3.34000 32.11600
H  5.07000 4.42900 33.59200
H  5.43000 2.88900 33.72000
H  9.75300 4.33100 32.26500
H  10.19600 3.20500 33.36500
H  8.11100 4.67300 34.61100
H  9.20700 5.67600 33.66900
H  4.31400 7.42800 27.79400
H  4.29600 6.50900 29.35800
H  3.07700 6.25900 28.12300
H  2.75300 6.59400 24.22200
H  3.66600 7.56200 25.35200
H  2.75000 6.14200 25.95200
H  7.86300 2.27100 22.72200
H  8.84200 -0.27500 23.35400
H  5.77400 0.90200 24.01300
H  6.48100 -0.28100 22.99600
H  6.10100 1.32100 22.33400
H  10.08700 2.00600 22.44400
H  10.93000 0.48900 22.70200
H  11.60000 2.89900 23.41800
H  12.07400 1.50400 24.42900
H  10.78400 2.46900 25.04800
H  11.28100 -2.66600 27.54500
H  12.50000 -2.21500 28.76900
H  12.53900 -1.55600 27.15800
H  11.00900 1.24600 32.37700
H  7.95200 0.08900 35.40100
H  9.55900 0.62900 36.16900
H  9.39400 -1.00100 35.48400
Mg 44.28700 5.37600 46.58800
C  42.29700 8.18700 46.49600
C  41.20700 3.49700 46.06100
C  45.98200 2.48700 46.47300
C  47.18100 7.24100 46.50100
N  42.00000 5.75400 46.42700
C  41.47300 7.03100 46.32300
C  39.95900 7.01700 46.08700
C  39.63000 5.47500 45.97000
C  40.98900 4.85500 46.24000
C  38.37500 5.09300 46.80900
C  39.32100 7.73300 44.77900
C  40.30100 7.81300 43.56900
H  39.92000 7.06500 42.26400
N  43.67100 3.31800 46.16000
C  42.39000 2.78400 46.03900
C  42.58000 1.35000 45.78900
C  43.98600 1.02400 45.85900
C  44.61200 2.28400 46.21800
C  41.53000 0.39800 45.47000
C  44.66200 -0.29700 45.65200
O  43.91600 -1.17200 45.24300
C  46.19100 -0.62300 45.78100
N  46.18500 5.00200 46.22400
C  46.66000 3.73700 46.51100
C  48.15000 3.61500 46.92800
C  48.64800 5.09800 46.63300
C  47.29700 5.84400 46.44600
C  48.28200 3.24800 48.43700
C  49.48300 5.19100 45.34800
C  50.98900 5.21300 45.56100
N  44.67400 7.30900 46.58800
C  45.91600 7.97100 46.44400
C  45.59500 9.37800 46.52900
C  44.24100 9.50800 46.58700
C  43.69600 8.24400 46.56400
C  46.64900 10.51900 46.50800
C  43.11300 10.49000 46.66700
O  43.11400 11.72200 46.80800
C  41.88500 9.62200 46.60700
C  41.04900 9.82900 47.77800
O  41.02800 9.13400 48.76800
O  40.21800 10.84900 47.49500
C  39.14000 10.84000 48.45700
H  40.41600 2.86000 45.66000
H  46.63200 1.61400 46.55900
H  48.11600 7.78500 46.64800
H  39.47400 7.35500 47.00300
H  39.55400 5.11200 44.94500
H  37.62200 5.87500 46.89800
H  38.72700 4.95700 47.83200
H  37.94200 4.17500 46.41100
H  39.10100 8.76800 45.04200
H  38.38700 7.24100 44.50700
H  41.35300 7.64500 43.79800
H  40.38900 8.85100 43.24800
H  41.61200 -0.20100 44.56400
H  40.54100 0.81900 45.29200
H  41.38700 -0.33500 46.26400
H  46.54700 -0.30400 46.76100
H  46.66500 0.03900 45.05700
H  46.49500 -1.66700 45.70500
H  48.59100 2.95900 46.17700
H  49.14100 5.48100 47.52600
H  47.35000 2.75500 48.71500
H  48.45000 4.09900 49.09600
H  49.05100 2.48100 48.53000
H  49.21600 6.13800 44.87900
H  49.22100 4.38500 44.66300
H  51.25400 5.01700 46.60000
H  51.33200 6.18300 45.20000
H  51.41800 4.49100 44.86700
H  46.87500 10.81500 45.48300
H  47.59300 10.13800 46.90000
H  46.16000 11.39000 46.94300
H  41.22900 9.85700 45.76900
H  38.54700 11.67100 48.07600
H  39.27600 11.31300 49.43000
H  38.48800 9.98000 48.60600

