158

Mg -1.83200 17.33400 26.12500
C  -2.44800 15.18400 28.88100
C  -3.12700 19.84700 27.99800
C  -1.61100 19.28700 23.56000
C  -1.31300 14.48200 24.12500
N  -2.71900 17.46600 28.22900
C  -2.80900 16.52300 29.17400
C  -3.33500 17.05200 30.53400
C  -3.99300 18.35300 30.03800
C  -3.26600 18.58800 28.66200
C  -5.54400 18.27600 29.93500
C  -2.18200 17.27600 31.52100
C  -2.49900 16.89400 33.00100
H  -1.22900 16.48400 33.87100
N  -1.99900 19.36200 25.95700
C  -2.56700 20.24500 26.80900
C  -2.40600 21.57200 26.29600
C  -1.88800 21.43300 25.00400
C  -1.86300 20.05400 24.74000
C  -2.74700 22.78100 27.13500
C  -1.41500 22.52600 24.10600
O  -0.80600 22.24800 23.07700
C  -1.47700 23.88300 24.55500
N  -1.71900 16.90300 24.18300
C  -1.55400 17.90600 23.26400
C  -1.53100 17.42900 21.85000
C  -1.11900 15.91800 22.03300
C  -1.39100 15.75700 23.54300
C  -2.93000 17.70400 21.26400
C  0.41500 15.58900 21.79900
C  1.46300 16.01500 22.79900
N  -1.86200 15.21600 26.41800
C  -1.60700 14.19300 25.54600
C  -1.67600 12.88600 26.20300
C  -2.01100 13.22300 27.56300
C  -2.11500 14.62800 27.62800
C  -1.52100 11.51200 25.62100
C  -2.23700 12.64300 28.86000
O  -2.24700 11.48800 29.28700
C  -2.55100 13.91500 29.76600
C  -1.57900 13.91600 30.95900
O  -0.37000 13.97200 30.92200
O  -2.31000 13.57000 32.04400
C  -1.53600 13.14900 33.18300
H  -3.55600 20.54400 28.72200
H  -1.57700 19.97000 22.70900
H  -1.02400 13.72700 23.39100
H  -4.02600 16.29300 30.89900
H  -3.74400 19.16100 30.72600
H  -6.08700 19.09100 30.41500
H  -5.84900 17.28800 30.27900
H  -5.81300 18.27000 28.87900
H  -1.85000 18.31300 31.56700
H  -1.42600 16.56000 31.19700
H  -3.25500 16.12400 33.14800
H  -2.86600 17.82400 33.43700
H  -3.12200 22.59600 28.14200
H  -3.48700 23.41000 26.64000
H  -1.81500 23.34700 27.15500
H  -2.47100 24.15000 24.91400
H  -1.23600 24.53600 23.71700
H  -0.68500 24.06100 25.28200
H  -0.74100 17.93400 21.29200
H  -1.75900 15.34200 21.36400
H  -3.40700 16.72500 21.23000
H  -2.82400 18.00300 20.22100
H  -3.54100 18.26900 21.96700
H  0.82500 16.06600 20.90900
H  0.48900 14.54200 21.50600
H  1.90100 15.12100 23.24300
H  1.02200 16.71200 23.51100
H  2.36700 16.40800 22.33400
H  -1.47700 11.49300 24.53300
H  -2.44900 10.99200 25.86100
H  -0.68000 11.00400 26.09200
H  -3.55900 13.73900 30.14200
H  -2.02700 13.66100 34.01100
H  -0.51100 13.51400 33.23700
H  -1.54400 12.06000 33.21900
Mg 25.82300 -0.72900 29.38800
C  27.89400 -0.88500 32.19900
C  23.14300 -0.49900 31.46000
C  23.94800 -0.70400 26.57100
C  28.58800 -1.50300 27.37600
N  25.59500 -0.55400 31.61200
C  26.59500 -0.63500 32.63700
C  26.05000 -0.34200 33.99600
C  24.52200 -0.25000 33.73100
C  24.40000 -0.56600 32.18300
C  23.73300 -1.33900 34.44400
C  26.68800 0.86900 34.72200
C  27.48800 0.51100 35.96600
H  27.38500 1.33000 37.20700
N  23.77100 -0.58800 29.05900
C  22.84000 -0.38600 30.03000
C  21.58100 -0.18200 29.40900
C  21.82200 -0.40300 28.08500
C  23.21400 -0.60900 27.80400
C  20.35300 -0.07200 30.13900
C  20.74900 -0.38600 26.96100
O  20.92300 -0.82100 25.80400
C  19.31500 0.12400 27.21400
N  26.17600 -1.11300 27.28200
C  25.28200 -0.89100 26.30900
C  25.90300 -0.77500 24.96700
C  27.41800 -0.89000 25.19000
C  27.44200 -1.17700 26.70700
C  25.32100 -1.80100 23.89500
C  28.27600 0.26900 24.72200
C  28.45300 1.52000 25.57100
N  27.85300 -1.08600 29.63200
C  28.82900 -1.39500 28.76300
C  30.07700 -1.52500 29.50200
C  29.77800 -1.32200 30.82800
C  28.38000 -1.09800 30.86900
C  31.40900 -1.93900 28.86200
C  30.37500 -1.34600 32.11500
O  31.53300 -1.52200 32.45900
C  29.18200 -1.04200 33.09000
C  29.04600 -2.16100 34.01800
O  28.49700 -3.26400 33.84600
O  29.57000 -1.76800 35.21800
C  29.48400 -2.69500 36.30500
H  22.30700 -0.28500 32.12800
H  23.36200 -0.43500 25.68900
H  29.49200 -1.53100 26.76400
H  26.19600 -1.30500 34.48600
H  24.17700 0.75500 33.97700
H  24.23000 -1.61200 35.37500
H  23.59200 -2.27000 33.89500
H  22.72300 -0.98900 34.65500
H  25.93100 1.58600 35.03900
H  27.39000 1.50100 34.17800
H  28.51900 0.64800 35.64000
H  27.35800 -0.55300 36.16500
H  19.91700 0.89700 29.89800
H  20.55900 -0.23900 31.19600
H  19.65500 -0.81400 29.75000
H  19.27100 1.00500 27.85400
H  18.69800 -0.68800 27.59800
H  18.86500 0.41100 26.26400
H  25.77600 0.25700 24.64000
H  27.77600 -1.79000 24.69000
H  25.86500 -2.74300 23.96500
H  25.39500 -1.35700 22.90200
H  24.26200 -2.06000 23.90800
H  27.97900 0.56500 23.71600
H  29.26100 -0.16500 24.54800
H  29.51100 1.75100 25.69600
H  27.91100 1.48400 26.51500
H  28.14300 2.44300 25.08100
H  32.10500 -1.10800 28.97500
H  31.38800 -2.35100 27.85300
H  31.81700 -2.65700 29.57400
H  29.33400 -0.09900 33.61500
H  28.43300 -2.61500 36.57900
H  30.07700 -2.17000 37.05400
H  29.85000 -3.71000 36.15300

