158

Mg 41.03100 8.52600 29.87600
C  42.72600 9.92100 32.63500
C  38.60000 7.46800 32.08300
C  39.31800 7.13900 27.25700
C  43.83700 8.75000 28.04800
N  40.69000 8.71800 32.14800
C  41.49500 9.45700 33.02200
C  40.75200 9.53100 34.36100
C  39.53600 8.67200 34.17700
C  39.57300 8.30200 32.69400
C  39.38500 7.33000 34.98900
C  40.62800 11.03100 34.94500
C  39.87400 11.33800 36.24400
H  40.67900 12.14500 37.34600
N  39.17400 7.49000 29.67600
C  38.40300 7.10500 30.71700
C  37.20500 6.48200 30.18500
C  37.33700 6.47000 28.77700
C  38.60000 7.10800 28.47900
C  36.09500 6.08200 31.09200
C  36.53300 5.79000 27.67700
O  36.78200 5.78800 26.45700
C  35.32200 4.98400 28.07000
N  41.51100 7.94300 28.02400
C  40.61600 7.47500 27.11100
C  41.35200 7.04300 25.75500
C  42.72800 7.66900 26.00200
C  42.71000 8.17400 27.43400
C  41.30000 5.54000 25.43600
C  43.06800 8.80100 24.88600
C  42.34900 10.11700 25.20700
N  42.89800 9.34000 30.20000
C  44.01400 9.31400 29.32600
C  45.08500 9.96800 29.99700
C  44.67400 10.28600 31.25500
C  43.33000 9.77300 31.36000
C  46.33700 10.21300 29.33600
C  45.06600 10.83700 32.46500
O  46.02400 11.42600 32.84300
C  43.81500 10.53500 33.53500
C  44.26500 9.69300 34.65200
O  45.02100 8.72600 34.54800
O  43.64700 10.02300 35.79900
C  44.18200 9.34300 36.96800
H  37.88500 7.19000 32.85900
H  38.91200 6.76200 26.31600
H  44.68100 8.67600 27.35900
H  41.30800 9.01800 35.14500
H  38.65700 9.30000 34.32400
H  39.48400 6.54800 34.23600
H  38.39500 7.29200 35.44300
H  40.17700 7.04700 35.68300
H  40.09600 11.65600 34.22800
H  41.61800 11.42100 35.18100
H  39.55400 10.36300 36.61100
H  38.99200 11.96400 36.10500
H  36.25400 6.04400 32.17000
H  35.89100 5.02000 30.95000
H  35.20400 6.68300 30.91200
H  35.62700 4.25500 28.82100
H  35.03300 4.45000 27.16400
H  34.52500 5.62700 28.44300
H  40.82700 7.54500 24.94200
H  43.56100 6.97000 26.08000
H  42.33100 5.19100 25.50400
H  40.96500 5.44500 24.40300
H  40.64400 5.01400 26.12900
H  42.77600 8.57400 23.86100
H  44.15200 8.89500 24.93700
H  41.55300 10.19600 24.46800
H  42.97100 11.01000 25.15600
H  41.80200 10.16300 26.14900
H  46.58700 9.39400 28.66100
H  47.17300 10.28900 30.03000
H  46.18300 11.15000 28.80000
H  43.55000 11.51300 33.93600
H  45.25800 9.23600 37.10200
H  43.72300 8.36100 37.08200
H  43.82000 9.86600 37.85300
Mg 0.27900 43.28900 26.55600
C  2.76100 42.85300 28.89000
C  -1.94000 41.99100 28.73400
C  -1.97700 43.34600 24.08400
C  2.88900 43.62100 24.07700
N  0.38800 42.58300 28.61600
C  1.50100 42.70900 29.37700
C  1.12900 42.45600 30.87900
C  -0.35900 42.01600 30.80100
C  -0.67700 42.11000 29.26300
C  -0.69000 40.53300 31.17500
C  1.28400 43.74300 31.74300
C  0.57400 43.82400 33.15100
H  0.12500 42.49900 33.77000
N  -1.70800 42.73600 26.43900
C  -2.50200 42.28000 27.44600
C  -3.80000 42.16300 26.95700
C  -3.86100 42.58600 25.64800
C  -2.46600 42.93300 25.35300
C  -4.92200 41.66400 27.96000
C  -5.03100 42.60300 24.74100
O  -4.91600 42.86800 23.53000
C  -6.43400 42.38300 25.18500
N  0.39200 43.61500 24.36000
C  -0.66300 43.56000 23.60000
C  -0.33000 43.68700 22.12400
C  1.22100 43.93100 22.15100
C  1.53700 43.73600 23.62900
C  -0.78800 42.48200 21.29800
C  1.78300 45.26900 21.66300
C  1.49300 46.55200 22.57700
N  2.38600 43.30700 26.44300
C  3.23600 43.44800 25.39800
C  4.60100 43.25500 25.93900
C  4.44000 42.96100 27.29500
C  3.09500 43.04200 27.55800
C  5.91500 43.19600 25.17600
C  5.15100 42.76600 28.56700
O  6.36100 42.72200 28.84700
C  4.08400 42.70900 29.64100
C  4.13300 41.41700 30.42900
O  3.84800 40.29500 29.97200
O  4.71000 41.65400 31.66000
C  4.55300 40.43800 32.50600
H  -2.70300 41.58500 29.40200
H  -2.67800 43.45000 23.25300
H  3.65200 43.56300 23.29900
H  1.72100 41.57900 31.14000
H  -1.00500 42.71200 31.33700
H  -1.60900 40.53200 31.76100
H  0.14200 40.17700 31.78300
H  -0.72700 39.84800 30.32800
H  0.99200 44.63100 31.18100
H  2.36300 43.86900 31.83400
H  -0.27900 44.48000 32.98100
H  1.24900 44.30700 33.85700
H  -5.88900 42.09400 27.69700
H  -4.77100 42.11600 28.94000
H  -4.99500 40.58500 28.10100
H  -6.50300 41.33800 25.48400
H  -7.11800 42.67300 24.38700
H  -6.69500 43.04700 26.00900
H  -0.73900 44.61400 21.72200
H  1.75900 43.07700 21.73900
H  -1.49500 41.78800 21.75400
H  -0.01200 41.72000 21.23200
H  -1.17400 42.87300 20.35600
H  1.33200 45.40000 20.67900
H  2.86900 45.25700 21.56500
H  1.04400 47.26200 21.88200
H  2.46700 46.90600 22.91300
H  0.93500 46.31400 23.48300
H  6.72200 42.67200 25.68700
H  6.27000 44.22700 25.16300
H  5.82100 42.90300 24.13000
H  4.26800 43.53600 30.32700
H  3.51000 40.39800 32.82100
H  5.20600 40.45700 33.37900
H  4.87400 39.46600 32.13100

