158

Mg 0.54900 43.88000 25.93200
C  2.10100 43.68600 29.03900
C  -2.49300 42.86400 27.51100
C  -0.85600 43.20500 22.91300
C  3.65700 44.39400 24.49400
N  -0.08900 43.35100 27.96000
C  0.70100 43.43000 29.04600
C  -0.05000 43.23000 30.37000
C  -1.48800 42.75900 29.84900
C  -1.37000 43.02700 28.37100
C  -1.70900 41.22200 30.06800
C  -0.12700 44.53800 31.24600
C  0.54200 44.51100 32.59600
H  0.29800 43.30100 33.48900
N  -1.44500 43.40700 25.32600
C  -2.52900 43.06600 26.11700
C  -3.68500 42.82800 25.22400
C  -3.18200 42.87300 23.91400
C  -1.70600 43.09000 24.00300
C  -5.13800 42.57500 25.72000
C  -3.92600 42.77400 22.50700
O  -3.36700 42.72900 21.44400
C  -5.50800 42.62000 22.52100
N  1.27500 43.82900 23.99500
C  0.50500 43.64500 22.81300
C  1.24000 43.93100 21.49600
C  2.51600 44.65600 22.12000
C  2.50600 44.25800 23.62200
C  1.46100 42.66800 20.63300
C  2.71900 46.17500 21.79500
C  4.16700 46.57200 21.83200
N  2.58400 43.95200 26.58100
C  3.73000 44.14700 25.88700
C  4.80800 44.28100 26.79500
C  4.25100 44.08100 28.03900
C  2.87300 43.87200 27.86400
C  6.33500 44.44700 26.57800
C  4.50300 43.87700 29.47500
O  5.56000 43.81300 30.11000
C  3.14400 43.76600 30.17600
C  3.23600 42.47900 30.80700
O  3.13300 41.43400 30.16900
O  3.58900 42.57800 32.12000
C  4.14900 41.35000 32.71000
H  -3.43100 42.54900 27.97200
H  -1.24100 43.02700 21.90700
H  4.59200 44.85900 24.17600
H  0.49000 42.48900 30.95800
H  -2.36300 43.29800 30.21400
H  -0.70600 40.81000 29.95800
H  -2.33800 40.77200 29.30000
H  -2.03300 41.00000 31.08500
H  -1.17900 44.61400 31.52300
H  0.14200 45.43100 30.68200
H  0.28800 45.41400 33.15100
H  1.62200 44.56100 32.46100
H  -5.74000 43.44600 25.46000
H  -5.22900 42.41500 26.79500
H  -5.42700 41.60500 25.31600
H  -5.89200 42.45500 21.51400
H  -5.96100 43.52800 22.92000
H  -5.70200 41.79600 23.20800
H  0.73900 44.57900 20.77700
H  3.34500 44.23900 21.54800
H  1.59600 41.80000 21.27800
H  2.43500 42.64200 20.14500
H  0.66400 42.52800 19.90200
H  2.25300 46.74800 22.59700
H  2.33200 46.29700 20.78400
H  4.49700 47.47500 22.34500
H  4.48200 46.85200 20.82700
H  4.90400 45.84700 22.17900
H  6.82100 43.89400 27.38100
H  6.65800 45.48800 26.58500
H  6.67600 44.16600 25.58200
H  3.03700 44.52900 30.94700
H  3.38200 40.94400 33.37000
H  5.01300 41.48200 33.36100
H  4.37800 40.55800 31.99700
Mg -4.59000 25.49800 26.49200
C  -3.41100 26.82100 29.54100
C  -6.31500 23.09600 28.42000
C  -5.47400 23.86500 23.67900
C  -2.38500 27.44900 24.82700
N  -4.64500 24.90900 28.69800
C  -4.15200 25.67900 29.68600
C  -4.65800 25.13700 31.02800
C  -5.34500 23.77300 30.69700
C  -5.47800 23.92300 29.21800
C  -4.53700 22.52100 31.18600
C  -5.70200 26.15600 31.59200
C  -5.57200 26.47800 33.09100
H  -5.17200 25.40600 34.06100
N  -5.81300 23.81900 26.06800
C  -6.51800 22.99000 26.99800
C  -7.38200 22.06800 26.36700
C  -7.11100 22.22900 24.92200
C  -6.03400 23.29500 24.84000
C  -8.26900 21.09700 26.99300
C  -7.70800 21.42000 23.76900
O  -7.37300 21.61400 22.59800
C  -8.71600 20.36800 23.94600
N  -4.02200 25.64300 24.43000
C  -4.56200 24.89400 23.41200
C  -3.83200 25.24500 22.04900
C  -3.05600 26.52600 22.48000
C  -3.16700 26.60600 24.03200
C  -2.98300 24.01000 21.52400
C  -3.53800 27.85700 21.76800
C  -3.06200 28.22500 20.30400
N  -3.09100 26.86000 27.03800
C  -2.32900 27.71100 26.24200
C  -1.68000 28.74000 26.99400
C  -2.05500 28.45500 28.33500
C  -2.90100 27.32400 28.29300
C  -0.76100 29.74800 26.46200
C  -2.02700 28.88200 29.69700
O  -1.51400 29.86200 30.21400
C  -2.88700 27.87100 30.54400
C  -1.81100 27.29400 31.40700
O  -1.33600 26.21600 31.22400
O  -1.84100 27.88400 32.64600
C  -1.00600 27.15600 33.68200
H  -6.93900 22.45700 29.04800
H  -5.87600 23.37400 22.79000
H  -1.87300 28.22400 24.25200
H  -3.88300 25.04700 31.79000
H  -6.33000 23.81300 31.16100
H  -3.63300 22.95200 31.61600
H  -4.28300 21.97700 30.27600
H  -5.12000 21.99100 31.93900
H  -6.73400 25.88900 31.36700
H  -5.44400 27.12400 31.16100
H  -6.53900 26.85600 33.42200
H  -4.92500 27.33000 33.30200
H  -8.20400 21.23600 28.07200
H  -7.90200 20.09200 26.78400
H  -9.31900 21.17600 26.71300
H  -9.62500 20.76600 24.39800
H  -8.28900 19.59800 24.58900
H  -9.03400 19.97000 22.98200
H  -4.61300 25.51900 21.34000
H  -1.98400 26.40300 22.32300
H  -1.98300 24.34300 21.24600
H  -3.43200 23.57800 20.63000
H  -2.90700 23.17500 22.22100
H  -3.19000 28.59700 22.48900
H  -4.62700 27.85800 21.78400
H  -3.89600 28.39200 19.62300
H  -2.45200 27.42700 19.88000
H  -2.38400 29.07700 20.24700
H  -0.28000 29.33100 25.57700
H  -0.01000 30.11000 27.16400
H  -1.42100 30.60800 26.34900
H  -3.76600 28.30600 31.01900
H  0.02300 27.08900 33.33000
H  -1.39200 26.18000 33.97500
H  -0.94300 27.85700 34.51400

