158

Mg 36.11300 2.46000 30.07400
C  33.51700 2.92600 32.40900
C  38.28100 2.58800 32.66800
C  38.43500 1.51900 27.83200
C  33.69900 2.34300 27.47600
N  35.88400 2.78900 32.28000
C  34.76000 2.93400 33.03000
C  35.06300 3.02900 34.53700
C  36.66500 3.14600 34.54000
C  36.97700 2.74600 33.05800
C  37.06500 4.53600 34.92100
C  34.62400 1.74700 35.36900
C  34.17300 1.91400 36.87800
H  34.75400 3.05200 37.76900
N  38.08700 2.06400 30.18800
C  38.80100 2.23300 31.34700
C  40.14300 1.82300 31.08900
C  40.18400 1.47700 29.70900
C  38.87200 1.67600 29.13900
C  41.17300 1.72600 32.10400
C  41.30700 0.98600 28.86400
O  41.24200 0.83300 27.64700
C  42.63200 0.69400 29.47700
N  36.07800 2.24500 27.88600
C  37.20200 1.86300 27.23300
C  36.95500 1.60700 25.69000
C  35.38000 1.77600 25.51000
C  35.01000 2.15500 27.02700
C  37.74700 2.58200 24.79000
C  34.60300 0.59900 24.78100
C  33.93600 -0.43700 25.69500
N  34.09900 2.60000 29.91000
C  33.22900 2.60400 28.78200
C  31.83800 2.58500 29.24300
C  31.86400 2.78000 30.63100
C  33.26200 2.78900 30.97400
C  30.63600 2.51200 28.29000
C  31.12700 2.90500 31.88900
O  29.91800 2.88900 32.09600
C  32.16900 2.92300 33.06000
C  31.85900 4.19400 33.78900
O  32.16100 5.31700 33.46200
O  31.23900 3.89400 34.96000
C  31.29800 4.93200 36.02300
H  39.08900 2.76300 33.38200
H  39.11800 1.31900 27.00400
H  33.09500 2.19000 26.57900
H  34.47400 3.87600 34.88800
H  37.21400 2.46900 35.19400
H  38.03600 4.48300 35.41500
H  36.35800 5.06000 35.56400
H  37.37900 5.05800 34.01700
H  35.42100 1.00800 35.44800
H  33.78000 1.26100 34.87900
H  34.26900 0.89700 37.25600
H  33.11500 2.15800 36.78200
H  41.03000 2.51100 32.84600
H  42.18900 1.89200 31.74700
H  41.15700 0.77600 32.63800
H  42.49300 0.15400 30.41400
H  43.23800 1.59100 29.60000
H  43.23300 0.06800 28.81800
H  37.19700 0.55400 25.54500
H  34.97500 2.68500 25.06700
H  37.05400 3.03600 24.08200
H  38.59500 2.08300 24.32000
H  38.11700 3.31000 25.51200
H  35.14100 0.00300 24.04300
H  33.81600 0.94600 24.11100
H  34.52800 -0.44200 26.61000
H  33.92000 -1.44200 25.27300
H  32.89100 -0.26500 25.95400
H  30.86100 1.70300 27.59500
H  30.51300 3.48600 27.81800
H  29.76900 2.32000 28.92300
H  31.99800 1.99400 33.60400
H  32.34100 5.24600 35.98000
H  30.98100 4.74400 37.04800
H  30.78000 5.83500 35.70000
Mg 17.23900 52.51900 25.38400
C  18.88200 51.17800 28.14600
C  14.78800 53.67500 27.44400
C  15.84600 53.78400 22.59800
C  19.70800 50.95100 23.33100
N  16.87600 52.38900 27.65000
C  17.70700 51.82100 28.54300
C  17.15700 52.26100 29.94700
C  15.69400 52.71500 29.61800
C  15.82100 53.03100 28.15600
C  14.56800 51.64900 29.96100
C  18.14900 53.28700 30.67900
C  17.91800 53.48400 32.18600
H  16.72300 52.78900 32.87500
N  15.62000 53.53200 25.04900
C  14.64100 53.88500 26.02500
C  13.46300 54.46000 25.32300
C  13.79700 54.49300 23.86700
C  15.15900 53.92900 23.79800
C  12.36300 55.09600 26.13300
C  13.01100 55.04200 22.72000
O  13.36000 55.17200 21.52900
C  11.63900 55.52600 23.10800
N  17.74300 52.47400 23.28900
C  17.01800 53.11400 22.35000
C  17.66400 52.94500 20.96400
C  18.92600 52.11800 21.25700
C  18.81600 51.81800 22.76000
C  16.73000 52.15500 20.02600
C  20.25400 52.85300 20.84800
C  21.15600 52.23100 19.75100
N  18.82900 51.17500 25.60900
C  19.75800 50.62700 24.71400
C  20.78700 49.79700 25.42600
C  20.46500 50.00400 26.75400
C  19.34500 50.86700 26.86900
C  21.94100 48.97100 24.87600
C  20.89400 49.83400 28.10500
O  21.83400 49.21300 28.57100
C  19.89300 50.57800 29.09700
C  19.44500 49.47100 30.01200
O  18.80600 48.45700 29.67000
O  19.84600 49.87700 31.26200
C  19.45600 49.12200 32.49300
H  13.89700 54.02100 27.97100
H  15.41800 54.08200 21.63900
H  20.42400 50.51400 22.63200
H  16.91300 51.37100 30.52700
H  15.50000 53.71300 30.01200
H  15.06900 50.68400 30.04600
H  13.81000 51.68400 29.17800
H  14.05700 51.91700 30.88600
H  17.91000 54.22600 30.18000
H  19.12900 53.02000 30.28500
H  17.80900 54.56300 32.29500
H  18.89500 53.20200 32.57900
H  11.53000 54.41800 26.31600
H  12.09600 56.02900 25.63500
H  12.70300 55.56800 27.05400
H  11.05600 55.60400 22.18900
H  11.74800 56.55000 23.46500
H  11.02300 54.90700 23.76000
H  18.00200 53.90800 20.58100
H  18.91600 51.19200 20.68200
H  16.52500 52.67600 19.09100
H  15.75900 52.01500 20.50100
H  17.09800 51.15200 19.81300
H  20.84300 52.83800 21.76500
H  20.10100 53.89600 20.57200
H  21.80000 51.43400 20.11900
H  21.73000 52.98200 19.20800
H  20.49000 51.83200 18.98600
H  22.90300 49.47100 24.99100
H  21.83700 48.97100 23.79100
H  21.92200 47.93000 25.19800
H  20.40200 51.37200 29.64300
H  18.85900 48.23700 32.27500
H  18.73400 49.75400 33.01000
H  20.22900 48.88500 33.22300

