158

Mg 44.57400 5.23000 48.46600
C  42.86900 8.14500 47.44100
C  41.69600 3.48800 47.79500
C  46.34300 2.35400 48.75000
C  47.47100 7.10300 48.91100
N  42.55500 5.74700 47.74600
C  42.10800 6.98600 47.37500
C  40.66200 6.98400 46.94300
C  40.23100 5.50100 47.22100
C  41.51600 4.85800 47.64100
C  39.04100 5.37200 48.22700
C  40.48900 7.34600 45.40000
C  39.34300 8.29700 45.18700
H  38.26200 7.99900 44.03800
N  44.11600 3.14700 48.25500
C  42.83900 2.67600 48.05800
C  42.91300 1.27800 48.04800
C  44.24000 0.84600 48.18700
C  44.98000 2.12500 48.34000
C  41.76700 0.43500 47.80800
C  44.70600 -0.57300 48.26400
O  43.91800 -1.48500 48.19200
C  46.10100 -0.82500 48.34900
N  46.62400 4.78200 48.71700
C  47.12500 3.52200 48.90700
C  48.70900 3.44400 49.12200
C  49.02200 4.97500 49.04300
C  47.59400 5.70300 48.93100
C  49.08300 2.80500 50.49400
C  50.05200 5.38200 47.88800
C  51.37500 6.04300 48.26000
N  45.10300 7.24700 48.33900
C  46.28500 7.87500 48.52400
C  46.13500 9.28200 48.34700
C  44.81600 9.36100 47.96800
C  44.21200 8.16000 47.93300
C  47.26100 10.25500 48.55500
C  43.81000 10.25500 47.40500
O  43.97200 11.43400 47.17400
C  42.52100 9.55800 47.09200
C  41.46700 10.15600 47.94700
O  41.16700 9.66900 49.05400
O  40.75900 11.11800 47.23300
C  39.43300 11.42700 47.79900
H  40.77900 3.00300 47.45600
H  47.08100 1.54900 48.78100
H  48.34600 7.75700 48.90200
H  40.02500 7.63500 47.54000
H  39.93200 4.99800 46.30100
H  39.35000 4.82500 49.11800
H  38.36800 4.79600 47.59200
H  38.64100 6.33200 48.55300
H  40.40200 6.41000 44.84800
H  41.40100 7.86400 45.10200
H  39.77400 9.29100 45.06400
H  38.80100 8.19800 46.12800
H  42.15400 -0.42000 47.25300
H  40.95100 0.92100 47.27300
H  41.40900 0.14700 48.79600
H  46.27100 -1.88700 48.52400
H  46.47400 -0.32100 49.24100
H  46.47200 -0.41300 47.41100
H  49.08400 2.87400 48.27200
H  49.52500 5.23900 49.97300
H  49.23600 1.74000 50.32100
H  48.33300 3.00800 51.25900
H  49.99600 3.22600 50.91600
H  49.57000 6.10600 47.23000
H  50.14700 4.43800 47.35200
H  52.23100 5.48600 47.88100
H  51.43600 6.14400 49.34400
H  51.38300 7.02200 47.78100
H  47.85300 9.93200 49.41100
H  46.83200 11.23900 48.74000
H  47.91500 10.27000 47.68300
H  42.34200 9.72700 46.03000
H  38.89400 10.48500 47.89300
H  38.79200 11.97000 47.10500
H  39.53300 11.93400 48.75900
Mg 35.18900 3.52600 30.16200
C  32.79100 4.19300 32.45900
C  37.58400 3.72800 32.60300
C  37.51200 2.52400 27.82900
C  32.78200 3.58100 27.53100
N  35.15200 3.82700 32.22800
C  34.04400 3.98100 33.01500
C  34.25900 4.19100 34.51300
C  35.82400 4.40700 34.42800
C  36.24800 3.93800 33.03700
C  36.24500 5.93400 34.71000
C  33.78400 2.99300 35.39700
C  33.38400 3.43000 36.81200
H  34.25200 4.41000 37.66900
N  37.28600 3.21600 30.17800
C  38.05900 3.36100 31.31200
C  39.36600 2.87100 31.02100
C  39.37700 2.58500 29.62400
C  37.99000 2.77900 29.10500
C  40.47500 2.78200 32.02300
C  40.49700 2.14900 28.72300
O  40.43900 1.94000 27.48100
C  41.87500 1.86800 29.33800
N  35.14400 3.27800 27.91100
C  36.23400 2.74600 27.26100
C  35.85500 2.46000 25.81400
C  34.28900 2.75000 25.75900
C  34.05100 3.29400 27.11300
C  36.71500 3.35000 24.75500
C  33.37300 1.63800 25.21100
C  32.08800 2.06300 24.44800
N  33.21900 3.87400 29.97100
C  32.33300 3.85700 28.91200
C  31.07600 4.16300 29.38900
C  31.24200 4.32000 30.74100
C  32.53200 4.10100 31.07500
C  29.76500 4.23500 28.60000
C  30.43400 4.66200 31.86100
O  29.25200 5.04600 31.97500
C  31.43900 4.43000 33.10300
C  31.37000 5.67900 33.93800
O  31.58900 6.82800 33.51800
O  30.92200 5.31800 35.21200
C  30.58900 6.55400 36.00900
H  38.31800 3.90800 33.39000
H  38.23400 1.92100 27.27500
H  31.91200 3.52300 26.87500
H  33.73500 5.10400 34.79700
H  36.43200 3.90400 35.17900
H  35.34500 6.40100 35.11000
H  36.67700 6.45400 33.85500
H  36.91400 5.98600 35.56900
H  34.52200 2.21200 35.58200
H  32.89600 2.56800 34.92800
H  33.29100 2.50400 37.38000
H  32.36200 3.78600 36.67700
H  40.64700 1.82700 32.52000
H  40.23600 3.54800 32.76000
H  41.43400 3.13300 31.64200
H  41.91700 1.20800 30.20400
H  42.37000 2.80000 29.60700
H  42.54700 1.50400 28.56100
H  36.07300 1.40800 25.63500
H  34.19000 3.58800 25.06900
H  37.15500 2.59700 24.10200
H  37.44700 3.92800 25.31900
H  36.04900 3.97500 24.15900
H  32.90600 1.18000 26.08300
H  33.90900 0.87400 24.64800
H  31.26900 2.25500 25.14000
H  31.81000 1.28800 23.73400
H  32.35000 2.94600 23.86400
H  29.01700 4.47600 29.35600
H  29.40000 3.34500 28.08800
H  29.86500 5.07500 27.91200
H  31.11000 3.60500 33.73600
H  29.82900 7.20600 35.57800
H  31.53900 7.04900 36.20800
H  30.10600 6.14300 36.89600

