158

Mg 2.04500 0.12000 44.03500
C  5.54800 0.26600 43.03400
C  1.59000 2.62000 41.61700
C  -1.20100 -0.64800 43.96200
C  2.84500 -2.94100 45.69100
N  3.41800 1.27000 42.42100
C  4.80100 1.25300 42.32200
C  5.24200 2.35600 41.35800
C  4.05000 3.35500 41.31800
C  2.94500 2.28300 41.68800
C  4.05400 4.49400 42.37800
C  5.70700 1.84700 39.93300
C  7.07400 2.33800 39.38000
H  7.06600 2.89600 37.96600
N  0.43200 0.81000 42.90900
C  0.45400 1.87100 42.05300
C  -0.94500 2.24800 41.75800
C  -1.78100 1.37800 42.47700
C  -0.91200 0.44000 43.16900
C  -1.33800 3.45700 40.97300
C  -3.31800 1.40000 42.40600
O  -3.89000 2.34100 41.91000
C  -4.18500 0.34400 43.01300
N  1.02600 -1.73100 44.47900
C  -0.31800 -1.58700 44.59600
C  -0.87400 -2.70000 45.39600
C  0.40100 -3.48900 45.93700
C  1.51200 -2.69100 45.31800
C  -1.96700 -2.35800 46.46400
C  0.45600 -5.03000 45.48600
C  -0.36500 -6.00300 46.33700
N  3.76600 -0.99200 44.42800
C  3.90200 -2.17500 45.16800
C  5.24700 -2.61500 45.17400
C  5.97100 -1.65200 44.39100
C  4.98600 -0.70300 43.95000
C  5.87200 -3.77200 45.90000
C  7.26700 -1.29700 43.84400
O  8.37200 -1.85500 43.97500
C  7.03800 -0.05300 42.92000
C  7.78200 1.12200 43.38000
O  7.80400 1.67400 44.53200
O  8.54800 1.55100 42.30700
C  9.41900 2.66900 42.67500
H  1.36300 3.42300 40.91300
H  -2.26500 -0.74700 44.18700
H  3.11000 -3.68700 46.44300
H  6.08400 2.92200 41.75600
H  3.87400 3.81600 40.34500
H  3.11500 4.56000 42.92700
H  4.26500 5.42000 41.84400
H  4.88500 4.34000 43.06700
H  4.88400 2.02300 39.24000
H  5.65000 0.76100 40.00700
H  7.74300 1.49700 39.19500
H  7.52700 3.03800 40.08100
H  -2.15200 3.12800 40.32600
H  -0.55900 3.77400 40.28100
H  -1.69800 4.34000 41.50100
H  -5.24600 0.54000 42.86200
H  -4.05200 0.47200 44.08700
H  -3.84000 -0.60900 42.61000
H  -1.47000 -3.34000 44.74600
H  0.59900 -3.59500 47.00400
H  -2.83100 -3.00700 46.32200
H  -2.36600 -1.34600 46.39900
H  -1.64900 -2.50300 47.49600
H  1.45800 -5.40800 45.68900
H  0.18600 -5.08700 44.43100
H  -0.73100 -5.43900 47.19500
H  0.14100 -6.85700 46.78700
H  -1.19200 -6.37800 45.73500
H  6.88200 -3.95200 45.53200
H  5.34800 -4.69000 45.63300
H  6.04800 -3.73100 46.97500
H  7.37200 -0.29100 41.91000
H  8.84900 3.58800 42.81500
H  9.98700 2.86300 41.76500
H  9.97900 2.48000 43.59100
Mg 6.13100 54.98400 41.52000
C  5.76500 51.39000 41.42800
C  9.28400 54.64600 40.43000
C  6.14400 58.40500 41.12200
C  2.71200 55.14100 42.67100
N  7.30000 53.21900 40.92300
C  6.98300 51.89900 40.95900
C  8.19200 51.07100 40.61400
C  9.37900 52.13600 40.52500
C  8.59900 53.45900 40.73400
C  10.56700 51.96000 41.53200
C  8.00600 50.17800 39.31100
C  7.48700 50.87400 37.99600
H  6.44100 50.12100 37.18500
N  7.51300 56.31900 40.94000
C  8.76100 55.97900 40.52100
C  9.50800 57.19800 40.34400
C  8.60400 58.34800 40.43500
C  7.34000 57.70500 40.85900
C  11.02200 57.18900 39.94200
C  8.91700 59.80800 40.12900
O  10.04000 60.19400 39.85100
C  7.87200 60.90500 40.24800
N  4.59400 56.53500 41.66900
C  4.88700 57.88100 41.46200
C  3.72300 58.73500 41.83600
C  2.54500 57.70000 42.25800
C  3.41300 56.39100 42.34100
C  3.95200 59.80100 43.02600
C  1.41800 57.66800 41.19000
C  0.25300 58.70300 41.29600
N  4.53200 53.61600 41.92100
C  3.23000 53.83000 42.42900
C  2.59400 52.56500 42.68400
C  3.60600 51.60300 42.38600
C  4.70500 52.31600 41.85800
C  1.19100 52.19900 43.26200
C  3.90300 50.19400 42.39200
O  3.26300 49.23700 42.77600
C  5.30400 50.00500 41.78500
C  5.08000 49.10000 40.67400
O  4.60500 49.33200 39.55100
O  5.44200 47.85400 41.00000
C  5.19600 46.86000 39.98100
H  10.32500 54.45300 40.16200
H  6.17600 59.49600 41.10700
H  1.71300 55.24200 43.10100
H  8.25300 50.30700 41.38900
H  9.88700 52.17000 39.56100
H  10.72200 52.62800 42.37900
H  11.48800 52.07800 40.96200
H  10.66900 50.95000 41.93000
H  7.42500 49.30100 39.59600
H  9.05300 49.90600 39.18200
H  8.33400 50.90100 37.31100
H  7.13000 51.86700 38.26800
H  11.16500 56.26800 39.37800
H  11.75100 57.07700 40.74500
H  11.38500 57.95300 39.25500
H  7.05100 60.59800 39.60000
H  8.33900 61.78400 39.80400
H  7.58000 61.08900 41.28100
H  3.39200 59.19100 40.90200
H  2.24100 58.01300 43.25700
H  3.77200 59.29300 43.97400
H  3.44300 60.73100 42.77400
H  5.02900 59.95800 43.08500
H  0.78500 56.80300 41.38400
H  1.75400 57.79500 40.16100
H  0.52000 59.28600 42.17800
H  -0.66800 58.20800 41.60300
H  0.11900 59.39500 40.46400
H  0.46100 53.00800 43.26900
H  1.38800 52.05300 44.32400
H  0.75000 51.28700 42.85700
H  6.02900 49.49000 42.41500
H  5.85200 47.11400 39.14900
H  4.22400 46.80800 39.49100
H  5.48500 45.85000 40.27000

