158

Mg 35.71600 1.25500 29.88400
C  33.26000 2.26900 32.06200
C  37.97500 1.18400 32.63200
C  38.34600 0.78200 27.81300
C  33.67000 1.64600 27.25500
N  35.61600 1.68700 32.10200
C  34.47500 2.10300 32.73400
C  34.68900 2.20300 34.24600
C  36.27600 2.03500 34.33300
C  36.65900 1.61200 32.94500
C  37.02900 3.30200 34.88200
C  33.91200 1.08400 35.07900
C  33.16700 1.39000 36.35600
H  33.84300 2.22100 37.38800
N  37.88700 0.95800 30.15700
C  38.55000 0.78800 31.32200
C  39.89100 0.36100 31.10100
C  40.02700 0.20000 29.68600
C  38.73000 0.72700 29.16600
C  40.80200 0.22400 32.27800
C  41.26400 -0.16900 28.88500
O  41.33400 -0.00500 27.66300
C  42.48400 -0.74400 29.58300
N  36.02000 1.36700 27.77900
C  37.17800 1.00100 27.16900
C  36.98100 0.89100 25.65800
C  35.41500 1.00100 25.51900
C  34.99600 1.35200 26.93300
C  37.78500 1.78800 24.67100
C  34.66500 -0.24600 24.88900
C  34.10400 -1.33400 25.78000
N  33.89900 1.92200 29.64700
C  33.07800 1.91600 28.54800
C  31.77800 2.41500 28.81300
C  31.77700 2.52500 30.20000
C  33.07800 2.19300 30.65800
C  30.56200 2.67700 27.93400
C  31.02900 2.87500 31.32700
O  29.88700 3.29400 31.37200
C  31.95500 2.75800 32.66400
C  32.02000 4.07800 33.27900
O  32.54800 5.09200 32.78100
O  31.38700 4.14700 34.48000
C  31.10000 5.46600 35.05500
H  38.54900 1.11500 33.55800
H  39.09900 0.35600 27.14700
H  32.90400 1.43100 26.50800
H  34.28100 3.15500 34.58800
H  36.55500 1.25900 35.04600
H  37.56800 3.00200 35.78000
H  36.24700 4.05100 35.00800
H  37.83800 3.67300 34.25200
H  34.72200 0.38900 35.30100
H  33.30700 0.45900 34.42300
H  32.77000 0.47000 36.78500
H  32.33500 2.02700 36.05800
H  41.31400 -0.72500 32.12300
H  40.23000 0.11700 33.20000
H  41.52900 1.02400 32.42200
H  42.25000 -1.48700 30.34600
H  43.15800 0.06500 29.86800
H  42.99900 -1.30000 28.79900
H  37.38700 -0.09500 25.43100
H  35.10800 1.75000 24.79000
H  37.12800 2.52600 24.21100
H  38.16400 1.12200 23.89600
H  38.57800 2.24100 25.26500
H  35.37100 -0.71500 24.20500
H  33.81300 0.09600 24.30100
H  34.44300 -2.32400 25.47400
H  33.01400 -1.34700 25.82000
H  34.48200 -1.09900 26.77500
H  30.79100 2.37600 26.91100
H  30.30400 3.73500 27.98700
H  29.72700 2.09100 28.31700
H  31.32600 2.10900 33.27400
H  30.27200 5.47100 35.76400
H  31.01600 6.28300 34.33900
H  31.93600 5.66400 35.72600
Mg 9.20100 48.63300 24.80700
C  7.00600 48.65300 27.54500
C  11.64200 49.94100 26.66500
C  11.05000 48.61100 22.15100
C  6.24200 48.21900 22.76700
N  9.22500 49.31100 26.85200
C  8.33600 49.09200 27.82900
C  8.78900 49.67200 29.14400
C  10.10600 50.44700 28.73700
C  10.36100 49.87000 27.35800
C  10.08400 52.01000 28.74700
C  9.14700 48.49500 30.18800
C  8.51500 48.70500 31.60300
H  8.63500 47.36700 32.51500
N  11.09800 48.95000 24.52400
C  12.00800 49.46400 25.43200
C  13.32900 49.31600 24.88600
C  13.24200 48.87600 23.50200
C  11.75200 48.67100 23.33700
C  14.54800 49.78900 25.72900
C  14.23500 48.59100 22.38100
O  13.96800 48.12400 21.25900
C  15.64500 48.82300 22.79500
N  8.62300 48.59400 22.78300
C  9.67100 48.60700 21.89600
C  9.16600 48.63700 20.45300
C  7.69000 48.19700 20.63800
C  7.46000 48.39900 22.13700
C  9.46200 50.04800 19.80600
C  7.33800 46.72100 20.17100
C  5.87200 46.44300 19.80200
N  7.05000 48.42700 25.05400
C  6.04600 48.27100 24.14700
C  4.77900 48.04000 24.80400
C  5.15700 48.11700 26.15700
C  6.52300 48.41500 26.26400
C  3.35900 47.77300 24.25400
C  4.63600 47.99600 27.49000
O  3.59000 47.60400 27.93700
C  5.82500 48.51800 28.45200
C  5.77300 47.51400 29.51800
O  6.28400 46.36600 29.55000
O  5.03000 48.07600 30.48700
C  4.75700 47.29300 31.69300
H  12.47200 50.28300 27.28700
H  11.67900 48.52800 21.26200
H  5.39900 48.00100 22.10800
H  8.05900 50.30600 29.64800
H  11.00500 50.19100 29.29800
H  10.13500 52.34800 27.71200
H  10.98900 52.30100 29.28000
H  9.22300 52.51800 29.18000
H  10.20800 48.27500 30.31200
H  8.82700 47.56600 29.71600
H  7.46000 48.96400 31.51600
H  9.00400 49.45600 32.22300
H  14.89000 48.94400 26.32500
H  14.28100 50.45800 26.54800
H  15.30300 50.38600 25.21800
H  15.98500 48.19800 23.62000
H  15.64000 49.89000 23.02100
H  16.36500 48.70300 21.98500
H  9.75900 47.88800 19.92800
H  7.04700 48.83900 20.03600
H  8.53800 50.61700 19.70400
H  9.90700 50.08500 18.81200
H  10.06100 50.74200 20.39600
H  7.49400 46.14100 21.08100
H  7.92900 46.29300 19.36100
H  5.39900 45.74600 20.49500
H  5.63800 46.05100 18.81200
H  5.34900 47.38100 19.98300
H  3.34300 48.21100 23.25600
H  2.59900 48.22600 24.89200
H  3.25800 46.69000 24.18400
H  5.55100 49.48200 28.88100
H  5.30400 47.73800 32.52400
H  4.92100 46.22700 31.53900
H  3.71000 47.43600 31.96000

