158

Mg 24.59800 -5.31600 45.48400
C  26.90600 -3.13200 43.84200
C  22.21700 -4.30900 43.43200
C  22.83900 -7.94100 46.50300
C  27.52300 -6.62200 47.27800
N  24.66000 -3.92400 43.79500
C  25.59000 -3.06300 43.34900
C  25.06300 -2.09600 42.25500
C  23.51200 -2.27000 42.52600
C  23.42300 -3.57800 43.32100
C  22.90400 -1.10000 43.26400
C  25.72600 -2.73000 40.91400
C  26.44200 -1.73000 40.01800
H  26.17000 -1.99400 38.50600
N  22.72900 -6.08200 44.90600
C  21.88200 -5.52200 44.08300
C  20.63000 -6.25300 44.10200
C  20.76700 -7.28600 45.12100
C  22.10200 -7.06700 45.62400
C  19.44900 -5.97400 43.10100
C  19.73700 -8.40300 45.47000
O  18.64400 -8.44300 44.89300
C  19.89200 -9.29400 46.72600
N  25.12200 -7.08500 46.69600
C  24.10400 -7.89800 47.06100
C  24.76200 -9.07300 47.87400
C  26.16300 -8.53700 48.35400
C  26.30400 -7.39500 47.41600
C  23.85800 -9.69200 48.92500
C  27.27300 -9.59500 48.20100
C  28.37600 -9.70000 49.28900
N  26.76100 -4.86100 45.74000
C  27.76900 -5.50400 46.40200
C  29.04700 -4.86100 46.18700
C  28.75500 -3.84000 45.28000
C  27.36300 -3.96900 44.92800
C  30.33800 -5.17100 46.88900
C  29.34200 -2.77600 44.48600
O  30.49700 -2.34400 44.39800
C  28.16500 -2.33000 43.43300
C  27.92900 -0.85800 43.55700
O  27.08400 -0.32500 44.25300
O  28.64000 -0.25600 42.53100
C  28.24800 1.15900 42.34100
H  21.36800 -3.84400 42.92700
H  22.40200 -8.92700 46.67600
H  28.30200 -7.11900 47.86000
H  25.37300 -1.08200 42.51000
H  22.98600 -2.45600 41.59000
H  21.90500 -0.93300 42.86300
H  23.42800 -0.15300 43.13500
H  22.87100 -1.13000 44.35300
H  24.92600 -3.14900 40.30200
H  26.40600 -3.55800 41.11100
H  27.50900 -1.91200 40.14800
H  26.18700 -0.72600 40.35700
H  18.47700 -6.25000 43.51000
H  19.69300 -6.44400 42.14800
H  19.28700 -4.92500 42.85000
H  20.46300 -8.68400 47.42500
H  20.28100 -10.27500 46.45400
H  18.89800 -9.32200 47.17400
H  24.97600 -9.75800 47.05400
H  26.09500 -8.17700 49.38100
H  22.90800 -9.17200 48.80300
H  24.23800 -9.71500 49.94600
H  23.74900 -10.69500 48.51200
H  27.77900 -9.42800 47.25000
H  26.85400 -10.60200 48.19600
H  28.46200 -10.72100 49.66000
H  28.13900 -9.04800 50.13000
H  29.32400 -9.21900 49.04700
H  30.14400 -5.13400 47.96100
H  31.07200 -4.40500 46.64100
H  30.58300 -6.19600 46.60800
H  28.60400 -2.57000 42.46500
H  27.29300 1.45400 42.77500
H  28.09500 1.41600 41.29200
H  28.98800 1.89000 42.66800
Mg 48.23500 16.36700 28.64800
C  46.16600 15.91500 31.37100
C  50.40600 18.00000 30.76400
C  49.97400 17.17700 25.97000
C  45.65700 15.07900 26.53500
N  48.23800 16.94700 30.82300
C  47.35000 16.55600 31.76600
C  47.76900 16.98800 33.16700
C  48.99100 17.91500 32.90500
C  49.25500 17.68900 31.39200
C  48.78100 19.49200 33.15300
C  48.12300 15.61800 33.80600
C  48.59300 15.64700 35.27900
H  48.59500 16.93800 36.21900
N  50.05700 17.39200 28.44100
C  50.82400 17.85700 29.43700
C  52.03100 18.40600 28.79200
C  51.97100 18.15200 27.36100
C  50.58400 17.59500 27.15000
C  53.07000 19.13100 29.55500
C  52.95800 18.35800 26.24500
O  52.70100 18.25100 25.06800
C  54.41600 18.69800 26.47300
N  47.82000 16.13000 26.48500
C  48.78500 16.45700 25.62800
C  48.34500 16.18200 24.17200
C  47.12300 15.26300 24.38200
C  46.82200 15.47600 25.90000
C  48.09700 17.43600 23.20800
C  47.32400 13.72100 24.10500
C  47.68300 12.75300 25.29100
N  46.33700 15.58900 28.85800
C  45.37000 15.07400 27.95100
C  44.24900 14.67600 28.61900
C  44.49100 15.03100 29.96100
C  45.76300 15.54500 30.05600
C  43.09100 14.09600 27.99600
C  43.89800 14.89800 31.27000
O  42.86100 14.35800 31.69300
C  44.96300 15.57800 32.19300
C  44.34200 16.71100 32.87900
O  43.93200 17.76000 32.45300
O  44.21200 16.39600 34.21500
C  43.60400 17.38100 35.09700
H  51.17100 18.39700 31.43500
H  50.54700 17.31000 25.05000
H  44.81600 14.61800 26.01300
H  46.98300 17.45000 33.76400
H  49.82700 17.47100 33.44600
H  47.79100 19.73800 33.53800
H  48.84300 20.00300 32.19300
H  49.57300 19.83900 33.81600
H  48.98800 15.20400 33.28800
H  47.41600 14.82300 33.56700
H  49.62700 15.33100 35.14200
H  48.07600 14.85800 35.82400
H  52.51400 19.84100 30.16600
H  53.73000 19.77000 28.96700
H  53.58300 18.39400 30.17200
H  55.02300 17.88800 26.87800
H  54.48100 19.52800 27.17600
H  54.84900 19.10000 25.55700
H  49.07100 15.51100 23.71300
H  46.25200 15.64100 23.84700
H  48.59000 18.28200 23.68700
H  47.06100 17.72800 23.03100
H  48.60300 17.08500 22.30800
H  48.15600 13.67500 23.40300
H  46.50000 13.29300 23.53500
H  47.81900 13.20900 26.27200
H  48.47500 12.03200 25.08500
H  46.85800 12.07400 25.50500
H  42.77600 14.85100 27.27600
H  42.33100 14.05200 28.77700
H  43.23100 13.09600 27.58600
H  45.22000 14.80200 32.91500
H  43.50000 18.40100 34.72600
H  44.08700 17.32900 36.07300
H  42.61200 16.95100 35.23500

