158

Mg 47.04100 44.78500 43.31700
C  43.60800 44.03700 42.98700
C  47.82200 41.51700 42.54600
C  50.32200 45.61600 43.22800
C  46.26800 48.15700 43.62700
N  45.73000 43.01900 42.49600
C  44.37500 42.85000 42.70500
C  43.87700 41.40700 42.68500
C  45.25400 40.61700 42.46600
C  46.41500 41.78000 42.53000
C  45.57100 39.58000 43.58000
C  42.92700 41.29100 41.43900
C  43.26900 41.93100 40.03100
H  43.15500 41.22200 38.70200
N  48.82900 43.73900 43.00700
C  48.91400 42.38200 42.73400
C  50.29300 41.97800 42.61400
C  51.09400 43.16500 42.78900
C  50.09900 44.25200 43.02500
C  50.82300 40.56000 42.35000
C  52.60700 43.18000 42.87100
O  53.28900 42.18900 42.73200
C  53.32800 44.44100 43.10400
N  48.15300 46.67100 43.27800
C  49.45100 46.70300 43.30100
C  49.94400 48.20000 43.46900
C  48.62900 49.05700 43.49400
C  47.58100 47.91800 43.41800
C  50.79900 48.42900 44.76300
C  48.44800 50.14800 42.39200
C  47.60800 51.28300 42.79800
N  45.33300 45.91300 43.31500
C  45.16900 47.28700 43.47400
C  43.79000 47.62900 43.52700
C  43.18900 46.34200 43.40600
C  44.12300 45.35200 43.19300
C  43.12200 48.99900 43.78800
C  41.92500 45.69400 43.37600
O  40.82800 46.12100 43.73700
C  42.19800 44.22300 43.11700
C  41.50400 43.41600 44.19500
O  40.53000 42.69200 44.07000
O  42.19200 43.51500 45.36400
C  41.89500 42.68400 46.52700
H  47.96600 40.45300 42.34800
H  51.33800 45.95300 43.44600
H  46.00600 49.19900 43.82100
H  43.38700 41.13000 43.61900
H  45.34100 40.21800 41.45500
H  46.35000 39.83200 44.29900
H  45.83200 38.62300 43.12700
H  44.75200 39.27900 44.23400
H  41.89400 41.44100 41.75300
H  42.96000 40.22400 41.21600
H  44.30600 42.25200 39.93000
H  42.66200 42.83300 39.94800
H  50.83800 40.42200 41.26900
H  49.94500 39.97900 42.63000
H  51.75500 40.13300 42.72100
H  53.02600 45.17400 42.35600
H  54.35500 44.33300 42.75500
H  53.30900 44.70500 44.16200
H  50.60400 48.44900 42.63800
H  48.59400 49.65700 44.40300
H  51.07900 49.47900 44.68200
H  51.68300 47.80100 44.65500
H  50.24200 48.17700 45.66500
H  47.96900 49.68700 41.52800
H  49.38800 50.49400 41.96200
H  48.11500 52.17900 42.44100
H  47.56000 51.51400 43.86200
H  46.61800 51.27600 42.34100
H  42.25600 48.89400 44.44100
H  42.88300 49.55100 42.87900
H  43.83100 49.60500 44.35200
H  41.78500 43.94400 42.14700
H  40.88500 42.29100 46.41100
H  42.01600 43.23000 47.46300
H  42.66900 41.91600 46.51800
Mg 40.98700 41.04300 27.02700
C  40.67000 43.50400 29.61400
C  41.67200 38.71600 29.37300
C  41.71900 38.98400 24.57400
C  40.57000 43.69100 24.80000
N  41.22900 41.13000 29.26700
C  41.00900 42.23900 30.14200
C  41.12500 41.74700 31.64400
C  41.41000 40.18000 31.46800
C  41.46400 39.98600 29.95900
C  42.69500 39.67000 32.29100
C  39.86500 42.27100 32.53300
C  39.56100 41.52400 33.89300
H  39.08500 42.36100 35.09100
N  41.44900 39.00700 26.93000
C  41.67800 38.22300 28.02400
C  42.01100 36.83500 27.54400
C  42.11200 36.98500 26.10900
C  41.73700 38.34700 25.82200
C  42.05300 35.57500 28.38500
C  42.45600 35.96800 25.02800
O  42.52700 36.11200 23.85600
C  42.88500 34.56900 25.44400
N  41.04200 41.29200 24.96900
C  41.32600 40.26800 24.14200
C  41.23600 40.69900 22.67300
C  40.70500 42.10900 22.76200
C  40.73600 42.42100 24.27200
C  42.58100 40.53500 21.84600
C  39.28900 42.16900 22.19000
C  38.12300 41.33100 22.76400
N  40.80800 43.17400 27.09900
C  40.61800 44.08800 26.10700
C  40.26500 45.34300 26.69000
C  40.32800 45.16400 28.02900
C  40.61000 43.82500 28.25000
C  39.96000 46.66800 26.06600
C  40.09400 45.82400 29.28700
O  39.80900 47.02700 29.57800
C  40.32900 44.75100 30.37400
C  41.46400 45.14700 31.25800
O  42.63100 44.83900 31.09900
O  41.02300 45.83400 32.34000
C  41.96500 46.44000 33.32100
H  41.79000 37.99500 30.18400
H  41.98000 38.28100 23.78100
H  40.22300 44.43600 24.08200
H  42.03500 42.15300 32.08500
H  40.51400 39.72500 31.89200
H  43.26900 40.43300 32.81700
H  43.45000 39.12900 31.72100
H  42.39400 38.95000 33.05200
H  39.03600 42.19000 31.83000
H  40.16900 43.28500 32.79000
H  40.44800 40.94900 34.15900
H  38.81200 40.75500 33.70500
H  41.42900 35.78300 29.25400
H  43.11200 35.35400 28.51600
H  41.62400 34.66800 27.95900
H  42.07000 33.98200 25.86600
H  43.75200 34.65400 26.10000
H  43.24800 33.88000 24.68200
H  40.52800 40.01400 22.20500
H  41.39400 42.84300 22.34200
H  43.32700 39.95600 22.39100
H  43.06800 41.50600 21.76800
H  42.34500 40.15300 20.85300
H  39.33200 41.79800 21.16600
H  38.95900 43.19800 22.04800
H  37.41200 40.96000 22.02600
H  37.55500 42.04000 23.36600
H  38.43800 40.59500 23.50400
H  39.31600 47.24600 26.72800
H  39.52400 46.52400 25.07700
H  40.86500 47.27400 26.08600
H  39.41900 44.51800 30.92600
H  42.24300 45.64300 34.01100
H  41.48400 47.32500 33.73700
H  42.82500 46.89300 32.82800

