158

Mg 47.83500 16.73400 29.37700
C  45.73800 16.14900 32.16400
C  49.96500 18.32100 31.30900
C  49.42200 17.65300 26.48200
C  45.47000 15.10600 27.34100
N  47.73200 17.23500 31.53000
C  46.89700 16.79400 32.51200
C  47.51600 17.07000 33.89700
C  48.77300 17.92600 33.58200
C  48.87400 17.79900 32.03700
C  48.60000 19.37900 34.06300
C  47.86500 15.78300 34.72300
C  47.57900 15.87600 36.19900
H  47.58100 17.30700 36.79900
N  49.40700 17.82200 28.98200
C  50.22700 18.26200 29.94000
C  51.46100 18.70000 29.24500
C  51.37300 18.57200 27.83700
C  50.02900 17.96500 27.70800
C  52.59900 19.30300 30.06600
C  52.25100 19.04600 26.66500
O  51.90100 19.08600 25.47500
C  53.59100 19.71800 26.99600
N  47.46200 16.50500 27.19600
C  48.25900 16.95700 26.18600
C  47.80100 16.57700 24.81900
C  46.66200 15.57500 25.09400
C  46.50600 15.67800 26.65800
C  47.44700 17.78300 23.91000
C  46.83600 14.10700 24.67700
C  45.63100 13.45300 24.01800
N  45.94400 15.92700 29.62000
C  45.11200 15.21300 28.73900
C  43.98100 14.59200 29.42700
C  44.23100 14.95900 30.74500
C  45.36200 15.77300 30.80900
C  43.01100 13.57200 28.91200
C  43.62900 14.79900 32.10200
O  42.68300 14.28300 32.51900
C  44.69000 15.53200 33.03500
C  44.06200 16.57900 33.83700
O  43.53400 17.63400 33.39500
O  44.14200 16.22700 35.13300
C  43.53800 17.09200 36.10200
H  50.65300 18.90300 31.92600
H  49.97700 17.82900 25.55800
H  44.76000 14.51400 26.75900
H  46.76900 17.66600 34.42100
H  49.72700 17.48200 33.86700
H  47.64200 19.81700 34.34300
H  48.95700 19.98300 33.22800
H  49.38500 19.52000 34.80600
H  48.93000 15.55600 34.67600
H  47.34400 14.96000 34.23400
H  48.25600 15.21900 36.74500
H  46.67800 15.29800 36.40500
H  52.68300 20.35700 29.80100
H  53.52000 18.78000 29.80800
H  52.40000 19.31600 31.13800
H  53.24700 20.53300 27.63200
H  54.08400 20.20800 26.15600
H  54.16800 18.95500 27.51900
H  48.65900 16.02100 24.44100
H  45.67900 15.94800 24.80800
H  47.94500 17.78000 22.94000
H  47.81900 18.67200 24.41900
H  46.37900 17.91400 23.73700
H  47.05100 13.58000 25.60700
H  47.77200 14.02400 24.12400
H  45.32700 12.52800 24.50800
H  45.96300 13.22400 23.00500
H  44.74000 14.07200 23.91300
H  42.06800 14.05600 28.65900
H  42.88200 12.97600 29.81500
H  43.42300 12.88100 28.17600
H  45.13700 14.80100 33.70900
H  42.46200 17.14600 35.93400
H  44.03900 18.05200 36.22100
H  43.59200 16.59600 37.07100
Mg 41.96700 41.23600 27.51500
C  41.14500 43.60600 30.04300
C  43.41800 39.35500 30.05800
C  42.58500 39.13100 25.34300
C  41.20800 43.76400 25.11100
N  42.32300 41.52700 29.80000
C  41.74300 42.47000 30.66200
C  41.93400 42.14300 32.13700
C  42.65100 40.76700 32.04200
C  42.79300 40.51900 30.48800
C  44.00100 40.64800 32.77800
C  40.66400 42.18400 32.99100
C  40.82500 41.49800 34.34400
H  39.87300 41.92500 35.46600
N  42.94900 39.51400 27.67900
C  43.46000 38.85400 28.77500
C  43.93700 37.55700 28.32800
C  43.60000 37.46700 26.97000
C  43.03500 38.73600 26.60400
C  44.48900 36.46800 29.19400
C  43.75800 36.27800 25.92500
O  43.73400 36.31600 24.71300
C  44.13900 34.95100 26.48100
N  42.06300 41.40300 25.56200
C  42.28400 40.35200 24.80900
C  42.25100 40.62600 23.29500
C  41.77000 42.07800 23.27000
C  41.57500 42.46800 24.77700
C  43.57000 40.23100 22.65600
C  40.73900 42.51800 22.22500
C  39.41600 41.74100 22.43600
N  41.41200 43.32500 27.45700
C  41.03600 44.19000 26.41900
C  40.68900 45.48100 26.89000
C  40.66700 45.28100 28.30500
C  41.08200 43.93600 28.59400
C  40.51200 46.77600 26.17100
C  40.52400 46.01900 29.53800
O  40.23900 47.22800 29.64800
C  40.81300 44.94400 30.74600
C  41.97800 45.53600 31.49800
O  43.07800 45.70100 31.02700
O  41.58000 45.87000 32.74300
C  42.60600 46.51800 33.58000
H  43.71800 38.62200 30.81000
H  42.80700 38.34700 24.61500
H  40.87000 44.50500 24.38500
H  42.60200 42.92100 32.50600
H  41.98200 40.00900 32.45100
H  43.90200 39.79900 33.45400
H  44.06000 41.45600 33.50800
H  44.88000 40.59300 32.13600
H  39.86700 41.80100 32.35400
H  40.39400 43.21100 33.23900
H  41.87400 41.54300 34.63900
H  40.66200 40.42400 34.25700
H  45.24300 35.87900 28.67200
H  43.65700 35.89000 29.59800
H  45.02800 36.96000 30.00400
H  43.50500 34.61900 27.30400
H  45.21000 34.95100 26.68500
H  43.87400 34.33800 25.61900
H  41.50900 40.00600 22.79200
H  42.66000 42.61100 22.93500
H  44.40500 40.65800 23.21200
H  43.64800 40.60600 21.63500
H  43.74200 39.15700 22.71600
H  41.07600 42.30100 21.21200
H  40.68600 43.59500 22.38300
H  39.59700 41.31900 23.42500
H  39.26600 40.98900 21.66100
H  38.65300 42.51900 22.42700
H  39.44700 46.96800 26.04100
H  40.95700 46.89500 25.18200
H  40.82000 47.60000 26.81400
H  40.00200 44.78400 31.45700
H  43.52000 46.79500 33.05500
H  43.00700 45.89000 34.37500
H  42.15900 47.38200 34.07200

