158

Mg 48.16000 34.69400 27.04000
C  46.46000 33.22500 29.71100
C  48.25500 37.72800 28.93400
C  48.95000 36.38500 24.29000
C  47.44400 31.82300 25.15200
N  47.64100 35.32000 29.16800
C  47.16600 34.39700 30.09100
C  47.29500 35.03300 31.41400
C  47.38800 36.60500 31.18900
C  47.81800 36.61000 29.70900
C  46.15100 37.37200 31.35600
C  48.56700 34.38400 32.05500
C  48.77800 34.63600 33.61300
H  47.79400 35.51400 34.38300
N  48.56100 36.73400 26.65400
C  48.53300 37.79900 27.51000
C  48.95000 38.98400 26.83800
C  49.15600 38.68900 25.48700
C  48.89200 37.23500 25.43100
C  49.16500 40.26100 27.54400
C  49.68200 39.58300 24.33500
O  49.62000 39.15700 23.14500
C  50.11000 41.05300 24.60800
N  48.16200 34.16500 24.96400
C  48.61900 35.02300 24.10700
C  48.91100 34.31800 22.73000
C  48.62400 32.76100 23.04100
C  48.01700 32.88500 24.45900
C  48.05500 35.01500 21.62000
C  49.79100 31.77800 22.73600
C  49.44900 30.34100 22.54000
N  47.21900 32.83000 27.28700
C  47.05500 31.72700 26.48700
C  46.40700 30.65600 27.20600
C  46.01500 31.26200 28.41000
C  46.58400 32.61800 28.44200
C  46.18700 29.29000 26.65000
C  45.31700 31.03700 29.67600
O  44.69800 30.01700 30.00600
C  45.46300 32.31100 30.47500
C  45.76200 31.97300 31.89800
O  46.75600 31.36600 32.33600
O  44.72500 32.43700 32.61300
C  44.60300 32.28800 34.03000
H  48.18200 38.68000 29.46500
H  49.28200 36.92400 23.40100
H  47.40400 30.90000 24.56900
H  46.48700 34.71500 32.07200
H  48.18500 37.04100 31.79100
H  45.28900 36.71000 31.27400
H  45.95700 38.21300 30.69000
H  46.19800 37.60700 32.41900
H  49.48200 34.76600 31.60400
H  48.59500 33.31200 31.85800
H  49.75800 35.09400 33.74400
H  48.80200 33.61200 33.98600
H  49.28200 41.08100 26.83600
H  49.94300 40.28700 28.30800
H  48.20300 40.44600 28.02200
H  50.64500 41.27500 23.68500
H  50.84500 40.99800 25.41100
H  49.19900 41.61700 24.81200
H  49.99300 34.36300 22.60900
H  47.88200 32.51700 22.28000
H  48.36900 36.04600 21.45700
H  46.97800 35.01500 21.78500
H  48.23800 34.50500 20.67400
H  50.44200 31.86700 23.60600
H  50.46700 32.23600 22.01500
H  50.17700 30.00500 21.80300
H  48.46200 30.17500 22.10800
H  49.45900 29.81300 23.49300
H  46.01100 28.70000 27.54900
H  47.03100 28.81200 26.15100
H  45.33300 29.18000 25.98200
H  44.55500 32.91000 30.40400
H  43.56700 32.03500 34.25500
H  44.82700 33.25000 34.49100
H  45.24900 31.55100 34.50600
Mg -2.53500 34.91200 27.01900
C  -3.95600 32.60300 29.27000
C  -1.17700 36.53700 29.81400
C  -1.65900 37.47000 25.12300
C  -4.84400 33.76200 24.65400
N  -2.48800 34.56600 29.24400
C  -3.12400 33.49900 29.93800
C  -2.82700 33.52200 31.42500
C  -2.12500 34.89700 31.53700
C  -1.92900 35.40000 30.12500
C  -2.82200 35.88800 32.44300
C  -1.89400 32.34600 31.86600
C  -2.30400 31.41800 32.98600
H  -1.73400 31.68100 34.46300
N  -1.41300 36.62800 27.35100
C  -0.83500 37.06900 28.56900
C  -0.04700 38.24400 28.23900
C  -0.09500 38.38100 26.84400
C  -1.05400 37.50800 26.38900
C  0.78700 39.02000 29.21500
C  0.67400 39.34000 25.89200
O  0.55800 39.33200 24.67800
C  1.69400 40.27900 26.41400
N  -3.15200 35.52700 25.16000
C  -2.62300 36.59500 24.58700
C  -3.26700 36.84700 23.18800
C  -4.23000 35.58300 23.01400
C  -4.06600 34.85500 24.34500
C  -4.08400 38.17500 23.12800
C  -4.03800 34.73700 21.70600
C  -2.57100 34.16500 21.65700
N  -3.96800 33.41800 26.91300
C  -4.83200 33.06600 25.88700
C  -5.52700 31.83400 26.27400
C  -5.29500 31.72400 27.62100
C  -4.34800 32.68000 27.94100
C  -6.44200 31.12000 25.45600
C  -5.62100 30.97300 28.76400
O  -6.27500 29.90700 28.89900
C  -4.91000 31.67900 29.98600
C  -5.82900 32.34500 30.84000
O  -6.67900 33.20900 30.47700
O  -5.68200 31.98200 32.17800
C  -6.42400 32.84400 33.10500
H  -0.82400 37.10300 30.67800
H  -1.55700 38.46300 24.68000
H  -5.47600 33.26100 23.91700
H  -3.75900 33.62700 31.98100
H  -1.12700 34.84000 31.97300
H  -3.86500 35.57100 32.44000
H  -2.89100 36.87300 31.97900
H  -2.45400 35.94600 33.46700
H  -0.90300 32.72600 32.11200
H  -1.70100 31.72600 30.98900
H  -1.98200 30.40300 32.75500
H  -3.37800 31.52800 33.13500
H  0.52400 40.06200 29.39600
H  1.82400 38.90100 28.89900
H  0.77800 38.56500 30.20500
H  2.19700 40.82600 25.61600
H  2.51000 39.68600 26.82800
H  1.33800 41.00200 27.14700
H  -2.47900 36.99300 22.44900
H  -5.31100 35.71900 23.04100
H  -5.14900 37.94700 23.12300
H  -3.91300 38.67200 22.17300
H  -3.91200 38.88400 23.93900
H  -4.19200 35.35100 20.81800
H  -4.78600 33.94700 21.77100
H  -2.55400 33.15500 22.06700
H  -1.87400 34.85200 22.13600
H  -2.22100 34.14900 20.62500
H  -6.08600 31.29700 24.44100
H  -7.42000 31.58000 25.59700
H  -6.48900 30.07900 25.77500
H  -4.41600 30.91000 30.57900
H  -7.26600 33.41100 32.70800
H  -5.76200 33.53400 33.62900
H  -6.82900 32.24500 33.92000

