158

Mg 27.17800 50.63600 26.26800
C  25.16000 51.53600 29.05100
C  29.42000 49.29600 28.45300
C  29.13000 49.66800 23.56400
C  24.82300 51.99000 24.21800
N  27.34500 50.57700 28.58000
C  26.36700 50.82000 29.51700
C  26.88800 50.63600 30.94600
C  28.25400 49.98300 30.69700
C  28.35600 49.89300 29.14800
C  29.54300 50.69300 31.30900
C  25.89800 49.81400 31.79800
C  25.40900 50.52600 33.00800
H  24.89100 49.75400 34.24400
N  28.99800 49.55100 26.00100
C  29.80300 49.18300 27.06000
C  31.08900 48.71700 26.47800
C  30.85600 48.65600 25.08000
C  29.59600 49.31100 24.79700
C  32.18600 48.09500 27.38200
C  31.89600 48.12800 24.05500
O  31.67500 47.99100 22.86100
C  33.31600 47.80300 24.53000
N  27.11000 50.98900 24.16800
C  27.94800 50.41900 23.28300
C  27.55700 50.89200 21.87600
C  26.14100 51.45500 22.07500
C  25.99100 51.48500 23.55900
C  28.60700 51.75700 21.14100
C  24.93000 50.67300 21.37000
C  24.05400 49.66600 22.12500
N  25.38400 51.70100 26.51600
C  24.54700 52.20000 25.60600
C  23.29300 52.64000 26.22900
C  23.49800 52.51500 27.63500
C  24.82900 51.95400 27.69700
C  22.03800 53.13000 25.53000
C  23.02900 52.73300 28.95400
O  21.94300 53.16200 29.33400
C  24.03000 52.17800 29.91100
C  24.59100 53.23500 30.80800
O  25.64700 53.79600 30.67400
O  23.64400 53.55300 31.76700
C  23.98400 54.68300 32.60100
H  30.16400 48.91100 29.15400
H  29.62000 49.40500 22.62500
H  24.12800 52.51200 23.55800
H  26.99100 51.61400 31.41600
H  28.18700 48.94800 31.03300
H  29.14000 51.33600 32.09100
H  29.91100 51.35800 30.52600
H  30.26300 49.96900 31.69000
H  26.25800 48.84500 32.14400
H  25.10800 49.51200 31.11000
H  24.58000 51.14800 32.67200
H  26.12300 51.16000 33.53300
H  32.21800 47.00500 27.36300
H  32.02100 48.33900 28.43200
H  33.18600 48.48100 27.18500
H  33.79700 48.76100 24.73000
H  33.71100 47.31200 23.64100
H  33.29600 47.03800 25.30500
H  27.43500 49.97800 21.29600
H  26.15900 52.48800 21.72700
H  29.55900 51.72600 21.67100
H  28.18600 52.73900 20.92600
H  28.88000 51.34000 20.17200
H  25.34000 50.19100 20.48300
H  24.31400 51.46000 20.93500
H  23.99600 48.78700 21.48300
H  23.06000 50.04500 22.36300
H  24.46600 49.41000 23.10100
H  21.14400 52.73700 26.01500
H  21.98000 52.72200 24.52100
H  22.05700 54.21700 25.46400
H  23.53400 51.41500 30.51100
H  23.16600 55.04700 33.22300
H  24.39600 55.50800 32.01900
H  24.76400 54.35400 33.28800
Mg -11.70100 16.68300 41.30500
C  -8.86600 14.86800 40.83900
C  -10.28300 19.38200 39.73700
C  -14.79200 18.17000 41.27600
C  -13.40200 13.73300 42.26100
N  -9.88200 16.92300 40.09700
C  -8.76300 16.13800 40.27800
C  -7.47600 16.76600 39.70000
C  -8.02200 18.18300 39.26500
C  -9.50500 18.23400 39.82400
C  -7.09500 19.41300 39.76600
C  -6.87000 15.98400 38.45600
C  -5.44800 16.36200 38.20400
H  -5.18400 16.81300 36.79400
N  -12.37900 18.63100 40.75900
C  -11.66000 19.53600 40.08800
C  -12.46600 20.69900 39.78800
C  -13.74500 20.49500 40.43200
C  -13.72500 19.05000 40.87300
C  -11.98500 21.90900 38.91200
C  -14.84300 21.49900 40.41400
O  -14.72100 22.59400 39.86200
C  -16.26500 21.22600 41.02100
N  -13.78400 16.04700 41.51200
C  -14.89600 16.86600 41.47200
C  -16.16600 16.12300 41.76600
C  -15.75400 14.69000 42.13200
C  -14.21600 14.79500 41.99700
C  -17.17200 16.82800 42.70700
C  -16.47600 13.57000 41.40800
C  -17.44100 12.54900 42.21900
N  -11.23300 14.63400 41.55200
C  -12.00000 13.61700 42.08500
C  -11.09800 12.49400 42.24500
C  -9.87800 12.94900 41.80800
C  -9.99800 14.26000 41.35900
C  -11.54100 11.10900 42.65900
C  -8.47100 12.49900 41.54600
O  -7.94200 11.40600 41.61100
C  -7.75700 13.77400 40.97000
C  -6.79200 14.20100 42.05700
O  -7.06300 14.80400 43.04600
O  -5.46600 13.92000 41.76300
C  -4.56900 14.05200 42.86400
H  -9.79400 20.15600 39.14200
H  -15.76800 18.64400 41.40100
H  -13.80800 12.77900 42.60500
H  -6.73200 16.93400 40.47900
H  -7.99500 18.39500 38.19600
H  -7.18300 20.18200 38.99800
H  -6.11100 18.98300 39.95200
H  -7.54800 19.98000 40.58000
H  -7.55600 16.24200 37.64900
H  -7.01300 14.91300 38.59600
H  -4.87600 15.45200 38.38800
H  -5.11300 17.09900 38.93300
H  -12.19400 22.85400 39.41300
H  -12.62300 21.85900 38.03000
H  -10.90700 21.98000 38.76700
H  -16.78200 22.18400 40.97200
H  -16.13000 20.93100 42.06200
H  -16.81000 20.47500 40.44800
H  -16.59400 16.10500 40.76400
H  -16.00600 14.52000 43.17900
H  -16.78500 17.79600 43.02700
H  -17.59800 16.18000 43.47300
H  -18.12700 17.02000 42.21900
H  -15.75600 13.20000 40.67800
H  -17.20200 14.08400 40.77800
H  -18.48300 12.70500 41.93800
H  -17.18500 12.59500 43.27700
H  -17.13700 11.57500 41.83500
H  -11.89100 10.64400 41.73700
H  -12.28000 11.01200 43.45400
H  -10.66700 10.65400 43.12500
H  -7.18800 13.42800 40.10600
H  -4.44900 15.12800 42.98800
H  -3.57200 13.73200 42.56100
H  -4.85900 13.55300 43.78800

