158

Mg 41.61200 40.64700 26.49300
C  40.97800 43.12100 28.93000
C  42.94800 38.55800 28.77200
C  42.52200 38.57300 23.89100
C  40.71300 43.04500 24.02600
N  42.15900 40.95900 28.63600
C  41.59900 41.96100 29.44700
C  41.73400 41.44600 30.93900
C  42.68200 40.18600 30.79200
C  42.55500 39.83200 29.34600
C  44.14300 40.36200 31.21600
C  40.34300 41.14600 31.52800
C  39.76600 42.06700 32.62800
H  39.32900 41.33000 33.88700
N  42.53500 38.76900 26.35600
C  42.92600 38.09900 27.41000
C  43.33200 36.74900 26.98900
C  43.35000 36.79800 25.52200
C  42.73800 38.07800 25.17300
C  43.77300 35.73600 27.91700
C  43.96000 35.80200 24.53800
O  43.95600 35.94500 23.30500
C  44.69200 34.59700 25.03900
N  41.57600 40.78000 24.28400
C  42.01600 39.77000 23.45200
C  41.74600 40.15200 21.98100
C  40.89200 41.41200 22.06400
C  41.06100 41.78700 23.55600
C  43.09500 40.30300 21.13200
C  39.40500 41.25500 21.63500
C  38.45700 40.29400 22.41800
N  41.08400 42.63800 26.39600
C  40.76300 43.43500 25.32100
C  40.25000 44.77000 25.75300
C  40.34600 44.66100 27.19500
C  40.83700 43.36900 27.50400
C  39.81100 45.88200 25.01400
C  40.04700 45.38400 28.43400
O  39.55700 46.48800 28.53400
C  40.27800 44.31900 29.61000
C  41.09500 45.00800 30.68600
O  42.21800 44.68900 31.06800
O  40.26200 45.64100 31.51400
C  40.80000 45.90400 32.81200
H  43.37400 37.84500 29.48100
H  42.68900 37.86200 23.07900
H  40.37200 43.77600 23.29100
H  42.23900 42.12600 31.62400
H  42.37500 39.39400 31.47500
H  44.12800 40.68100 32.25900
H  44.70000 41.01800 30.54700
H  44.44500 39.31500 31.18300
H  40.33400 40.10800 31.86300
H  39.59900 41.29800 30.74500
H  38.84900 42.51900 32.25000
H  40.62200 42.66100 32.94700
H  44.79500 35.83500 28.28300
H  43.54100 34.74100 27.53700
H  43.06200 35.82500 28.73800
H  45.49700 34.84200 25.73100
H  45.14200 34.15300 24.15200
H  43.90400 33.95700 25.43700
H  41.15100 39.33000 21.58100
H  41.31700 42.15000 21.38400
H  43.40600 41.33700 20.97900
H  43.01200 39.86500 20.13700
H  43.95000 39.87900 21.65700
H  39.42700 40.65900 20.72300
H  38.94500 42.20400 21.35900
H  39.08300 40.03500 23.27200
H  38.24100 39.37000 21.88100
H  37.53500 40.78400 22.73000
H  40.63800 46.40200 24.53000
H  39.36500 46.66400 25.62900
H  39.07000 45.53200 24.29600
H  39.32500 44.05800 30.07000
H  41.74700 46.44300 32.77600
H  40.83100 44.92800 33.29700
H  40.06600 46.48600 33.36900
Mg 4.96700 54.84500 40.38900
C  4.47700 51.47200 41.05100
C  7.69200 54.21000 38.55500
C  4.76100 57.99600 39.24100
C  1.67600 55.34800 41.75200
N  5.85400 53.00800 39.70700
C  5.60800 51.73900 40.25100
C  6.58600 50.73100 39.70500
C  7.84100 51.69700 39.36600
C  7.09600 53.03700 39.19000
C  8.93100 51.70000 40.46900
C  6.13700 49.86400 38.49000
C  4.83000 50.20300 37.74100
H  4.94500 49.76500 36.25800
N  6.11700 56.04400 39.08000
C  7.21200 55.56100 38.45600
C  7.82100 56.68800 37.81300
C  7.03700 57.78000 38.00100
C  5.92100 57.34200 38.80100
C  9.16800 56.52700 37.07700
C  7.35400 59.15200 37.40700
O  8.21000 59.35500 36.50000
C  6.69700 60.35900 37.94800
N  3.32500 56.35100 40.36500
C  3.61300 57.56100 39.87500
C  2.49100 58.57500 40.21100
C  1.37600 57.73600 40.74800
C  2.14700 56.40700 40.94600
C  2.90400 59.75600 41.09900
C  0.12600 57.62200 39.74900
C  -1.27600 58.04300 40.40600
N  3.46600 53.73900 41.44400
C  2.26900 54.06500 41.99300
C  1.78000 52.95900 42.81000
C  2.73600 51.94600 42.52100
C  3.64100 52.42700 41.64200
C  0.47000 52.93900 43.74600
C  3.02100 50.52900 42.81900
O  2.59100 49.75400 43.56600
C  4.14900 50.19500 41.76800
C  3.58100 49.13100 40.89200
O  2.62100 49.34100 40.13200
O  4.32200 47.95400 41.03700
C  3.87400 46.72700 40.34400
H  8.70900 54.01800 38.20600
H  4.61000 59.01600 38.88300
H  0.71100 55.51700 42.23300
H  6.72900 50.10200 40.58400
H  8.25600 51.26400 38.45500
H  8.76700 50.86500 41.15000
H  8.93400 52.64800 41.00500
H  9.90300 51.64100 39.97900
H  5.92000 48.91400 38.97800
H  6.94000 49.63600 37.79000
H  4.68000 51.28000 37.80600
H  3.99900 49.61200 38.12800
H  9.80300 57.38700 36.86300
H  9.17300 55.94700 36.15500
H  9.74100 55.94100 37.79600
H  7.29700 61.24100 37.72100
H  6.46100 60.27500 39.00900
H  5.80600 60.40100 37.32200
H  2.20200 59.04200 39.27000
H  0.99500 58.13000 41.69000
H  2.30500 59.92300 41.99400
H  2.61000 60.69100 40.62100
H  3.98000 59.67200 41.25400
H  0.03700 56.61400 39.34200
H  0.20800 58.31100 38.90900
H  -1.15500 58.66700 41.29200
H  -1.74700 57.16500 40.84800
H  -1.90600 58.57500 39.69400
H  0.68800 52.69400 44.78500
H  -0.32100 52.30400 43.34800
H  -0.01800 53.91400 43.75900
H  5.00600 49.69600 42.22200
H  3.87500 45.86800 41.01500
H  4.55500 46.41200 39.55300
H  2.89500 46.77100 39.86600

