158

Mg 17.68800 -2.35000 28.90500
C  16.05500 -0.64000 31.44000
C  19.64100 -3.84500 31.21600
C  19.37700 -3.61600 26.21100
C  16.04000 -0.12700 26.49800
N  17.75400 -2.32000 31.09100
C  16.98600 -1.54100 31.98600
C  17.34200 -1.85700 33.44000
C  18.50900 -2.86400 33.38300
C  18.75400 -2.98400 31.80200
C  19.72900 -2.46900 34.16200
C  16.04100 -2.36600 34.21500
C  15.68200 -1.52900 35.44900
H  16.82500 -0.77800 36.23900
N  19.02100 -3.75300 28.71200
C  19.78400 -4.24200 29.80500
C  20.71400 -5.23500 29.23900
C  20.54600 -5.22500 27.84100
C  19.63500 -4.10200 27.58400
C  21.77000 -5.88100 30.11000
C  21.17200 -6.20200 26.84300
O  20.91800 -6.10200 25.65500
C  22.00300 -7.38500 27.33400
N  17.81500 -1.90400 26.66600
C  18.57800 -2.62600 25.83300
C  18.30000 -2.19200 24.43200
C  17.14300 -1.11300 24.50700
C  16.97600 -1.03300 26.01700
C  19.54300 -1.84900 23.67600
C  15.83600 -1.33100 23.69800
C  15.47800 -0.10300 22.74500
N  16.34200 -0.72500 28.94600
C  15.74500 0.04800 27.89600
C  14.85700 0.93600 28.48500
C  14.91100 0.72600 29.91900
C  15.87200 -0.28600 30.09400
C  13.97700 1.83000 27.73400
C  14.42700 1.24700 31.14900
O  13.63900 2.13700 31.39500
C  15.30500 0.43800 32.19500
C  16.21300 1.41300 32.81100
O  17.20100 1.80600 32.27300
O  15.68100 1.86400 34.03400
C  16.27300 3.01100 34.70200
H  20.31900 -4.33000 31.92100
H  19.86100 -4.02800 25.32300
H  15.41500 0.48200 25.84200
H  17.63200 -0.86500 33.78600
H  18.22600 -3.84600 33.76200
H  19.42200 -1.63100 34.78800
H  20.67900 -2.34900 33.64200
H  19.97600 -3.26800 34.86200
H  16.25900 -3.35800 34.61000
H  15.14200 -2.35100 33.59900
H  15.36900 -2.27200 36.18300
H  14.84100 -0.89000 35.18100
H  22.36100 -5.18300 30.70300
H  22.62400 -6.31600 29.59000
H  21.36900 -6.68000 30.73400
H  21.33400 -7.77900 28.09900
H  22.99700 -7.11700 27.69100
H  22.12700 -8.08300 26.50600
H  17.90300 -3.09200 23.96200
H  17.53500 -0.10900 24.33900
H  19.41300 -0.94700 23.07800
H  19.84000 -2.61500 22.95900
H  20.46000 -1.66100 24.23500
H  15.04600 -1.45300 24.44000
H  15.94100 -2.20400 23.05500
H  16.25100 0.64800 22.58400
H  14.58200 0.36300 23.15300
H  15.36200 -0.46100 21.72100
H  13.07800 2.04300 28.31200
H  13.60600 1.32400 26.84300
H  14.32200 2.83800 27.50100
H  14.63700 -0.03000 32.91800
H  15.45900 3.71400 34.52300
H  17.16900 3.34700 34.17900
H  16.46000 2.95700 35.77500
Mg -0.05000 43.76700 26.26000
C  2.07200 43.19200 29.08600
C  -2.66300 42.22200 28.12700
C  -2.01900 43.65500 23.42700
C  2.72500 44.41800 24.53600
N  -0.37200 42.88900 28.42900
C  0.68400 42.85900 29.38900
C  0.09500 42.48900 30.87700
C  -1.36500 41.92600 30.38500
C  -1.49300 42.45200 28.90400
C  -1.68100 40.43100 30.55400
C  0.16600 43.80900 31.72400
C  0.21400 43.59600 33.20100
H  -0.21500 42.23900 33.78200
N  -2.13300 43.19500 25.89800
C  -2.97400 42.49600 26.75800
C  -4.29700 42.41100 26.13300
C  -4.19300 42.88200 24.79100
C  -2.72200 43.25300 24.59500
C  -5.55800 41.87400 26.89200
C  -5.20100 42.97600 23.67400
O  -5.01000 43.49000 22.60600
C  -6.61500 42.52500 23.97600
N  0.28900 43.90500 24.29300
C  -0.65600 43.98100 23.29700
C  -0.15400 44.73000 22.03700
C  1.38700 44.87900 22.42400
C  1.49800 44.41100 23.83900
C  -0.40500 43.89400 20.70800
C  2.06800 46.27300 22.32400
C  1.62900 47.23100 21.18300
N  1.94900 43.88600 26.69400
C  3.01700 44.13400 25.85400
C  4.31900 43.87400 26.46800
C  3.98000 43.61900 27.76800
C  2.54300 43.61100 27.88400
C  5.68800 44.03500 25.78200
C  4.56200 43.28300 29.05600
O  5.71100 43.10600 29.45000
C  3.32700 43.20900 29.98100
C  3.48000 41.86700 30.63100
O  3.20500 40.78900 30.20400
O  3.87600 42.12000 31.96700
C  4.15400 40.89600 32.77000
H  -3.46300 41.71900 28.67400
H  -2.70200 43.73000 22.57800
H  3.56700 44.63100 23.87500
H  0.68500 41.67600 31.29800
H  -2.02000 42.41300 31.10700
H  -0.90300 39.84200 31.03900
H  -1.75400 39.97800 29.56500
H  -2.54300 40.25800 31.19800
H  -0.67500 44.39800 31.35800
H  1.08100 44.27200 31.35600
H  -0.45700 44.32500 33.65600
H  1.22600 43.89300 33.47700
H  -5.49500 40.78700 26.84700
H  -6.56900 42.16900 26.61300
H  -5.42400 42.14300 27.94000
H  -7.01900 42.37200 22.97600
H  -7.12200 43.36500 24.45100
H  -6.61800 41.57300 24.50700
H  -0.59500 45.71000 21.85600
H  1.88100 44.18600 21.74300
H  -0.97700 44.57600 20.07900
H  -0.97300 42.96800 20.79500
H  0.47500 43.58200 20.14600
H  3.13000 46.13700 22.12100
H  2.13600 46.78500 23.28400
H  1.22800 48.17800 21.54400
H  1.03600 46.81000 20.37200
H  2.51000 47.48000 20.59100
H  6.36600 44.59300 26.42800
H  5.70200 44.57500 24.83500
H  6.09800 43.03900 25.61500
H  3.43500 44.04600 30.67100
H  5.11000 40.93600 33.29400
H  4.21400 39.96800 32.20200
H  3.38600 40.81400 33.53900

