158

Mg 49.03700 45.26100 43.11800
C  45.66000 45.63600 41.88900
C  48.87600 41.92200 42.32500
C  52.35000 45.09400 43.31500
C  49.20700 48.82500 43.07200
N  47.46300 44.02400 42.02500
C  46.13400 44.32100 41.83400
C  45.45800 42.97600 41.36700
C  46.41100 41.83300 41.80000
C  47.64600 42.64800 42.12300
C  45.86900 40.78600 42.79500
C  45.08900 42.82900 39.81900
C  46.09500 43.48200 38.89000
H  45.46900 43.93200 37.61200
N  50.45100 43.69800 43.05200
C  50.17800 42.39700 42.65600
C  51.46700 41.67800 42.63500
C  52.48400 42.56400 43.07100
C  51.80000 43.83800 43.16500
C  51.56900 40.19100 42.32800
C  53.84800 42.17500 43.29700
O  54.28900 41.06300 43.07200
C  54.88900 43.20900 43.78300
N  50.56600 46.73900 43.17000
C  51.86400 46.38800 43.31900
C  52.81600 47.63200 43.11300
C  51.72700 48.84100 43.10600
C  50.39900 48.08900 43.09600
C  53.92200 47.78100 44.24000
C  51.90600 49.72400 41.79000
C  52.10200 51.20800 42.02400
N  47.75000 46.87800 42.87200
C  47.89500 48.27600 42.87200
C  46.62800 48.94500 42.68200
C  45.74000 47.92000 42.26900
C  46.47700 46.73400 42.41400
C  46.39200 50.46600 42.54800
C  44.43200 47.68300 41.83800
O  43.44400 48.40500 41.71900
C  44.34700 46.14600 41.53000
C  43.23800 45.55800 42.32000
O  42.34900 44.91500 41.83900
O  43.22100 45.92000 43.71600
C  41.95300 45.56900 44.48800
H  48.74600 40.90700 41.94500
H  53.43800 45.18000 43.35700
H  49.34700 49.90700 43.10400
H  44.52400 42.92500 41.92800
H  46.69800 41.26100 40.91700
H  45.79200 39.82100 42.29400
H  44.89400 41.18400 43.07700
H  46.45700 40.74900 43.71200
H  44.12000 43.26800 39.58100
H  45.07400 41.77400 39.54700
H  47.00100 42.88200 38.80800
H  46.44100 44.41800 39.32900
H  51.66500 39.62200 43.25300
H  52.46200 39.88100 41.78600
H  50.74000 39.76100 41.76600
H  55.10200 43.86600 42.94000
H  55.75400 42.83200 44.32900
H  54.46700 43.76500 44.62000
H  53.38700 47.45200 42.20200
H  51.62900 49.43300 44.01600
H  54.72700 48.42500 43.88500
H  54.18500 46.79100 44.61100
H  53.55800 48.35900 45.09000
H  51.06500 49.60000 41.10800
H  52.79300 49.37400 41.26300
H  51.31200 51.79200 41.55300
H  53.02900 51.63100 41.63700
H  52.02100 51.39000 43.09600
H  47.21400 51.06100 42.15000
H  46.17200 50.76800 43.57200
H  45.49000 50.64300 41.96400
H  44.10700 45.92700 40.49000
H  41.06200 45.35200 43.89900
H  41.63100 46.44500 45.05100
H  42.05500 44.73200 45.17900
Mg -11.88500 16.30900 40.76500
C  -8.72000 14.83400 40.34700
C  -10.52900 19.22100 39.31900
C  -15.04300 17.64600 40.45900
C  -13.25300 13.02400 40.89100
N  -9.78200 16.92000 39.93200
C  -8.66300 16.21000 40.05100
C  -7.55600 17.04900 39.44000
C  -8.11900 18.46600 39.29500
C  -9.55500 18.20800 39.54200
C  -7.44400 19.55200 40.14300
C  -7.06500 16.45800 38.11500
C  -5.48500 16.49500 37.86800
H  -5.01700 17.07600 36.56500
N  -12.65500 18.19500 40.10400
C  -11.90100 19.20500 39.60100
C  -12.76400 20.37000 39.27700
C  -14.10500 19.96500 39.67900
C  -13.99600 18.60300 40.20600
C  -12.21100 21.69100 38.83500
C  -15.34100 20.88000 39.56700
O  -15.23600 22.04300 39.21200
C  -16.70500 20.36800 39.93400
N  -13.84200 15.41700 40.53200
C  -14.96400 16.15200 40.55600
C  -16.21700 15.26100 40.50800
C  -15.65700 13.84300 40.82800
C  -14.14200 14.12500 40.80700
C  -17.37200 15.73800 41.39600
C  -16.17900 12.73700 39.81100
C  -17.01000 11.64900 40.45900
N  -11.20500 14.31500 40.76900
C  -11.87600 13.15100 40.86200
C  -10.89000 12.04000 40.87000
C  -9.67100 12.69200 40.72200
C  -9.90000 14.05000 40.62200
C  -11.13900 10.55600 41.04900
C  -8.22400 12.40600 40.58800
O  -7.62000 11.30800 40.62000
C  -7.58500 13.77300 40.26900
C  -6.60100 13.92900 41.36900
O  -6.78900 14.10600 42.57500
O  -5.39500 14.10200 40.79400
C  -4.26600 14.44100 41.63000
H  -10.05700 20.12800 38.93500
H  -16.05100 18.06600 40.48300
H  -13.72600 12.04200 40.95800
H  -6.69400 17.17600 40.09600
H  -8.01000 18.86700 38.28700
H  -6.39200 19.30200 40.27700
H  -8.00900 19.72700 41.05900
H  -7.48900 20.49000 39.58900
H  -7.47400 17.12200 37.35300
H  -7.41700 15.44800 37.90000
H  -5.15700 15.46500 38.01000
H  -5.00400 17.10000 38.63700
H  -11.45000 21.54400 38.06800
H  -11.66100 22.21800 39.61500
H  -12.86900 22.48900 38.49300
H  -17.37600 21.22300 39.85500
H  -16.69000 20.02300 40.96800
H  -17.04600 19.66100 39.17900
H  -16.54300 15.36200 39.47300
H  -15.87100 13.61400 41.87200
H  -17.06200 16.15000 42.35600
H  -17.91000 14.83200 41.67600
H  -18.09800 16.34600 40.85600
H  -15.37700 12.24000 39.26500
H  -16.84400 13.18300 39.07200
H  -16.64300 10.68900 40.09500
H  -18.06100 11.75700 40.19000
H  -16.86400 11.58600 41.53700
H  -11.35600 10.36400 42.09900
H  -10.29700 9.92900 40.75300
H  -12.08800 10.38400 40.54200
H  -7.12200 13.83800 39.28400
H  -4.59300 14.65400 42.64800
H  -3.93100 15.41900 41.28700
H  -3.51700 13.64800 41.63500

