158

Mg 53.27900 23.57400 44.51900
C  50.55600 25.65600 43.72500
C  51.86600 21.04300 42.86500
C  56.30100 22.17900 44.46200
C  54.80300 26.70900 45.55600
N  51.54800 23.47500 43.23300
C  50.52800 24.36900 43.12500
C  49.44300 23.86600 42.17000
C  49.68200 22.23400 42.29900
C  51.14600 22.24200 42.77100
C  48.69900 21.41100 43.17500
C  49.63700 24.42300 40.72500
C  48.37400 24.79600 39.95300
H  47.88300 23.72600 38.88600
N  53.95900 21.77600 43.88900
C  53.18900 20.88400 43.26000
C  54.02200 19.70300 43.07500
C  55.31400 19.97000 43.44000
C  55.28400 21.38200 43.90700
C  53.46600 18.39300 42.53000
C  56.56800 19.03900 43.42700
O  56.56200 17.89500 43.00500
C  57.85600 19.42100 43.96800
N  55.25000 24.34400 44.84700
C  56.29500 23.45400 44.95700
C  57.59600 24.11100 45.70300
C  57.11100 25.57700 45.85500
C  55.63600 25.56400 45.41500
C  57.96200 23.46600 47.08000
C  57.88000 26.70500 45.06100
C  58.54700 27.80200 45.82400
N  52.81300 25.74300 44.71900
C  53.49100 26.83000 45.28100
C  52.56800 27.89800 45.50400
C  51.42800 27.50600 44.87900
C  51.63400 26.20900 44.38500
C  53.01000 29.12600 46.31400
C  50.07100 27.84200 44.64800
O  49.47900 28.85400 44.99500
C  49.44600 26.71800 43.80400
C  49.04100 27.31000 42.47700
O  49.70200 27.59800 41.53000
O  47.66000 27.46200 42.53500
C  47.12200 27.89800 41.31700
H  51.37000 20.12800 42.53600
H  57.26400 21.74400 44.73700
H  55.24200 27.61100 45.98900
H  48.46100 24.08100 42.59300
H  49.70600 21.71500 41.34100
H  48.69900 21.55400 44.25500
H  48.77200 20.34500 42.96000
H  47.66300 21.54800 42.86400
H  50.26100 23.77200 40.11200
H  50.29800 25.27700 40.87200
H  48.60900 25.73400 39.44900
H  47.59500 25.00700 40.68600
H  53.92000 17.55200 43.05600
H  53.60300 18.42700 41.45000
H  52.39100 18.32000 42.69500
H  58.34700 20.10000 43.27100
H  58.55800 18.58900 44.00800
H  57.76500 19.81000 44.98200
H  58.41300 24.09200 44.98000
H  57.13400 25.75400 46.93000
H  58.09800 24.12000 47.94200
H  58.97700 23.08400 46.97300
H  57.37900 22.57100 47.29300
H  57.19400 27.20100 44.37400
H  58.67800 26.24000 44.48200
H  58.18000 28.68700 45.30300
H  59.62500 27.63900 45.84300
H  58.18200 27.80100 46.85100
H  52.14100 29.76400 46.47100
H  53.65300 29.71100 45.65700
H  53.61200 28.93800 47.20300
H  48.53600 26.32400 44.25500
H  47.49500 28.88500 41.04200
H  46.06000 27.78300 41.52900
H  47.37400 27.24300 40.48200
Mg -5.51800 25.58600 27.05000
C  -3.91400 27.05700 29.84900
C  -7.13000 23.47200 29.16000
C  -6.51300 24.01700 24.32100
C  -3.40200 27.49800 25.03500
N  -5.41900 25.26100 29.26500
C  -4.80900 26.09500 30.23600
C  -5.32300 25.79400 31.69000
C  -6.23700 24.52000 31.41200
C  -6.30200 24.39600 29.84000
C  -5.75400 23.19700 32.01200
C  -6.08600 26.96300 32.34200
C  -6.20800 26.99000 33.89600
H  -5.82800 25.81100 34.75100
N  -6.67100 23.97700 26.73900
C  -7.24600 23.28800 27.75200
C  -8.02100 22.19700 27.14400
C  -7.82000 22.27700 25.76500
C  -6.93300 23.42600 25.54300
C  -8.83400 21.24600 28.03000
C  -8.27800 21.30000 24.71900
O  -8.10200 21.41500 23.51000
C  -9.07400 20.12500 25.14000
N  -5.07700 25.75100 24.99300
C  -5.73800 25.11100 24.07200
C  -5.39400 25.54000 22.72300
C  -4.52900 26.78900 22.93800
C  -4.28200 26.63100 24.37500
C  -4.57200 24.39600 21.93500
C  -5.28200 28.12200 22.60100
C  -4.93400 28.66000 21.27600
N  -4.04000 27.05700 27.33000
C  -3.24000 27.71600 26.40100
C  -2.28100 28.50700 27.09700
C  -2.54900 28.29100 28.46300
C  -3.59900 27.43700 28.55900
C  -1.28900 29.46600 26.39600
C  -2.16500 28.68700 29.86200
O  -1.25600 29.42700 30.20000
C  -3.05300 27.96400 30.75700
C  -2.32800 27.14500 31.72700
O  -1.58900 26.20300 31.43100
O  -2.64900 27.44200 33.02800
C  -1.89800 26.74800 34.07200
H  -7.72200 22.96500 29.92500
H  -7.12900 23.60000 23.52100
H  -2.74200 28.08700 24.39500
H  -4.45600 25.62600 32.32800
H  -7.22500 24.63400 31.85800
H  -4.72900 23.33000 32.35700
H  -5.81300 22.27800 31.42900
H  -6.52400 22.97700 32.75100
H  -7.06900 26.99500 31.87200
H  -5.57500 27.88700 32.06800
H  -7.23000 27.14900 34.23900
H  -5.55800 27.83000 34.14100
H  -8.40900 20.27300 28.27800
H  -9.80300 21.09500 27.55600
H  -9.04700 21.74500 28.97500
H  -9.20800 19.48700 24.26700
H  -9.98300 20.47500 25.62900
H  -8.57800 19.49800 25.88200
H  -6.28600 25.83600 22.17100
H  -3.63600 26.80200 22.31400
H  -4.49300 23.55000 22.61700
H  -3.53200 24.67100 21.76100
H  -5.03900 23.98500 21.03900
H  -4.94300 28.86600 23.32100
H  -6.36000 28.01000 22.71800
H  -4.04200 28.23400 20.81600
H  -4.91400 29.74800 21.22100
H  -5.73100 28.43000 20.56900
H  -1.69700 29.99500 25.53500
H  -0.45000 28.85000 26.07400
H  -0.91500 30.20400 27.10600
H  -3.62400 28.79100 31.17900
H  -2.41300 25.78800 34.06100
H  -1.97300 27.31000 35.00300
H  -0.84000 26.58000 33.86900

