158

Mg -0.48500 7.69500 27.21100
C  -0.21500 10.15900 29.70200
C  0.07700 5.33800 29.68700
C  -0.55200 5.52400 24.77000
C  -0.55700 10.35800 24.78500
N  -0.13900 7.70400 29.47000
C  -0.31100 8.89000 30.21300
C  -0.48700 8.51900 31.66300
C  -0.02000 6.98800 31.74800
C  -0.07500 6.59600 30.24800
C  1.36700 6.71900 32.39100
C  -1.91200 8.81300 32.27200
C  -2.19200 8.53500 33.75700
H  -0.93000 8.31200 34.66800
N  -0.31100 5.73100 27.20000
C  -0.08700 4.90700 28.30800
C  0.02100 3.54000 27.80000
C  -0.25300 3.53300 26.40600
C  -0.43000 5.00600 26.05700
C  0.32000 2.33400 28.67200
C  -0.31500 2.36400 25.40900
O  -0.67300 2.64500 24.28300
C  -0.17500 0.97800 25.79300
N  -0.62600 7.94200 25.07100
C  -0.70000 6.88300 24.26200
C  -0.89500 7.32200 22.75200
C  -1.08500 8.87700 22.86200
C  -0.70000 9.06900 24.32700
C  0.15900 6.80300 21.74600
C  -2.47300 9.36500 22.57000
C  -2.62900 10.68500 21.85600
N  -0.26100 9.79100 27.16700
C  -0.39500 10.75500 26.14200
C  -0.20600 12.07600 26.73200
C  -0.03700 11.88700 28.08100
C  -0.09300 10.45700 28.34600
C  -0.26200 13.32200 25.94200
C  0.14300 12.57400 29.29300
O  0.30700 13.79800 29.58300
C  -0.03800 11.50000 30.42800
C  1.04800 11.49300 31.46300
O  2.13100 10.98800 31.25300
O  0.64100 12.04400 32.62600
C  1.62400 12.09400 33.70200
H  0.20100 4.47500 30.34500
H  -0.51200 4.95600 23.83800
H  -0.73900 11.19600 24.10900
H  0.12600 9.17700 32.27900
H  -0.84700 6.49900 32.26200
H  1.13000 6.14800 33.28900
H  1.75700 7.70900 32.62800
H  1.99100 6.19100 31.67000
H  -2.53200 8.13000 31.69100
H  -2.17900 9.87000 32.24100
H  -2.71700 7.58000 33.76900
H  -2.76800 9.33400 34.22500
H  -0.60700 1.76200 28.68600
H  0.69900 2.58100 29.66400
H  1.07100 1.74100 28.14800
H  0.73100 0.75200 26.35500
H  -0.04000 0.35900 24.90600
H  -1.05900 0.73500 26.38300
H  -1.82900 6.83400 22.47100
H  -0.33100 9.47300 22.34800
H  0.50900 7.36500 20.88000
H  -0.18100 5.81600 21.43400
H  1.04300 6.49600 22.30500
H  -2.95400 9.35500 23.54800
H  -2.95900 8.69100 21.86400
H  -1.67300 11.20400 21.78700
H  -3.35600 11.26500 22.42400
H  -3.01500 10.63200 20.83800
H  -1.27900 13.30700 25.55000
H  0.54200 13.50800 25.23100
H  -0.10100 13.99300 26.78600
H  -0.93000 11.76100 30.99800
H  1.03200 11.67900 34.51700
H  2.03400 13.07300 33.95000
H  2.42600 11.37400 33.54000
Mg 47.92400 25.70800 28.58800
C  48.86800 27.80600 31.13500
C  46.65300 23.55900 31.02400
C  47.41900 23.46400 26.23000
C  49.58300 27.84300 26.33600
N  47.74300 25.71000 30.76500
C  48.11600 26.77600 31.57200
C  47.85300 26.46700 33.02700
C  47.22600 25.00800 32.92100
C  47.25900 24.69300 31.49100
C  47.81100 23.86600 33.81200
C  46.81100 27.47600 33.66700
C  47.16600 27.92100 35.02100
H  46.06700 27.77600 36.11300
N  47.01000 23.82000 28.61700
C  46.58700 23.13100 29.69800
C  45.86200 21.96400 29.21500
C  45.94000 22.01400 27.80100
C  46.83900 23.13900 27.49200
C  45.21500 21.00700 30.06700
C  45.32300 21.11300 26.62900
O  45.36100 21.41700 25.40800
C  44.53200 19.95400 27.09000
N  48.76500 25.55100 26.64900
C  48.23000 24.52600 25.86300
C  48.50000 24.75900 24.32200
C  49.05500 26.17700 24.34700
C  49.11000 26.63000 25.86600
C  49.38100 23.57200 23.83100
C  48.26600 27.08100 23.37700
C  48.75200 27.20500 21.94900
N  49.08200 27.48300 28.63500
C  49.61600 28.28100 27.67000
C  50.09700 29.47000 28.26200
C  49.94800 29.30400 29.66400
C  49.26400 28.09300 29.78700
C  50.62300 30.66700 27.52600
C  50.16000 29.90500 30.95300
O  50.75900 30.93300 31.15000
C  49.43400 28.97500 32.00600
C  50.36900 28.54000 32.96500
O  51.25000 27.74200 32.76900
O  50.33300 29.30500 34.13400
C  51.35100 29.31500 35.15900
H  46.28800 22.90400 31.81800
H  47.19600 22.84000 25.36200
H  49.89300 28.53200 25.54700
H  48.78500 26.56000 33.58500
H  46.19500 25.02500 33.27700
H  48.47700 24.31500 34.54900
H  48.28200 23.05400 33.25700
H  46.96100 23.35900 34.27000
H  45.79000 27.11100 33.78200
H  46.72500 28.39800 33.09300
H  47.32300 29.00000 34.99700
H  48.02400 27.41000 35.45900
H  45.72300 20.04600 29.99000
H  44.19600 20.94200 29.68600
H  45.17200 21.28100 31.12100
H  44.16300 19.33000 26.27700
H  43.79200 20.51700 27.65900
H  45.12800 19.30800 27.73500
H  47.49500 24.74700 23.90100
H  50.04700 26.21000 23.89500
H  49.61800 22.94100 24.68800
H  50.31000 23.80000 23.30700
H  48.83400 22.87000 23.20200
H  48.19000 28.06700 23.83500
H  47.21600 26.79000 23.40100
H  49.43800 26.39400 21.70400
H  49.22000 28.16700 21.74100
H  47.88800 27.08000 21.29700
H  51.68900 30.69700 27.75300
H  50.19200 31.51400 28.06000
H  50.46100 30.62300 26.44900
H  48.71600 29.56900 32.57100
H  51.89200 30.21300 34.86000
H  51.98200 28.43000 35.24500
H  50.88700 29.58600 36.10700

