158

Mg 7.32700 3.05600 27.59200
C  8.87900 1.98600 30.52100
C  5.38500 5.24400 29.50700
C  5.58000 3.86900 24.68500
C  9.14400 0.74900 25.75300
N  7.18500 3.55500 29.79200
C  8.01700 3.06200 30.76600
C  7.67800 3.73700 32.08000
C  6.48000 4.70400 31.75100
C  6.29000 4.49500 30.23800
C  5.15700 4.62000 32.53100
C  8.94900 4.45500 32.70700
C  8.69000 5.36200 33.97900
H  9.60300 5.11200 35.21600
N  5.79700 4.46400 27.13700
C  5.09500 5.20900 28.11600
C  4.10100 5.98500 27.42700
C  4.26900 5.73600 26.03000
C  5.18900 4.61600 25.87100
C  3.16400 7.01000 28.16800
C  3.67900 6.41300 24.79500
O  4.06300 6.20000 23.65300
C  2.89500 7.69100 25.05900
N  7.33900 2.38600 25.51800
C  6.54900 2.81900 24.53300
C  6.70700 2.04300 23.24500
C  7.85900 1.01000 23.52200
C  8.18900 1.41400 25.03500
C  5.43400 1.36000 22.71700
C  9.07700 1.20800 22.63800
C  9.64600 -0.10800 22.05600
N  8.80800 1.72100 27.97900
C  9.42900 0.87800 27.11900
C  10.31200 0.08900 27.98200
C  10.15600 0.45800 29.29500
C  9.23300 1.47800 29.21600
C  11.21900 -1.05400 27.57700
C  10.49200 0.14700 30.70100
O  11.17500 -0.73600 31.19000
C  9.67300 1.18800 31.57200
C  8.93400 0.54500 32.70800
O  7.77100 0.04100 32.60700
O  9.56700 0.80900 33.85800
C  8.91300 0.73500 35.12300
H  4.71500 5.86400 30.10600
H  4.91600 4.01900 23.83100
H  9.73900 -0.06000 25.32200
H  7.42400 3.05300 32.89100
H  6.84800 5.72700 31.81400
H  4.44700 4.15300 31.84900
H  4.76600 5.60900 32.77000
H  5.27700 4.02800 33.43900
H  9.41800 5.04200 31.91700
H  9.66600 3.68100 32.98300
H  7.63200 5.53100 34.17700
H  8.99000 6.40000 33.84000
H  3.50200 8.01800 27.92700
H  3.16500 6.92400 29.25500
H  2.16100 7.01600 27.74100
H  3.50800 8.28000 25.74100
H  1.89100 7.50200 25.43700
H  2.79800 8.27700 24.14500
H  7.02200 2.74000 22.46800
H  7.56900 -0.03800 23.44800
H  4.57000 1.87500 23.13700
H  5.43900 0.30700 22.99800
H  5.25300 1.58300 21.66500
H  9.85100 1.82600 23.09200
H  8.90200 1.78900 21.73200
H  10.36200 0.10700 21.26200
H  8.76200 -0.65400 21.72900
H  10.21000 -0.61900 22.83600
H  12.29200 -0.86000 27.54400
H  10.93500 -1.55100 26.64900
H  10.99100 -1.84300 28.29300
H  10.44300 1.78300 32.06400
H  9.35400 -0.01100 35.78500
H  7.86100 0.46000 35.04700
H  9.01500 1.67000 35.67500
Mg 48.39600 25.58200 29.49700
C  49.89100 27.27600 32.20500
C  47.39600 23.14900 31.76200
C  47.52500 23.60800 26.94500
C  49.73500 27.81500 27.29800
N  48.63800 25.27300 31.68300
C  49.15800 26.17000 32.59700
C  48.85000 25.80800 33.99000
C  48.32600 24.30900 33.87100
C  48.04000 24.31100 32.35400
C  49.29300 23.12900 34.30500
C  47.86700 26.82000 34.68700
C  48.47300 27.60100 35.89600
H  47.46100 28.07400 36.98600
N  47.49900 23.74300 29.40200
C  47.05800 22.90800 30.39900
C  46.41400 21.81200 29.87400
C  46.35900 21.98500 28.46000
C  47.14400 23.21000 28.22300
C  45.90000 20.70300 30.72800
C  45.68900 21.10000 27.39500
O  45.73300 21.45600 26.24000
C  44.99700 19.76300 27.73500
N  48.41100 25.79700 27.39500
C  48.17700 24.78100 26.59800
C  48.54600 25.05400 25.08800
C  49.01700 26.51000 25.18600
C  48.99900 26.79600 26.70000
C  49.60200 24.09100 24.44600
C  48.22500 27.54600 24.30100
C  46.74300 27.56500 24.67000
N  49.51000 27.34400 29.65400
C  49.94400 28.11000 28.68300
C  50.70800 29.25000 29.26600
C  50.71500 28.95600 30.66100
C  49.97600 27.79000 30.82800
C  51.38000 30.36600 28.47900
C  51.19100 29.37900 31.97800
O  51.79300 30.38100 32.24300
C  50.60200 28.33100 33.02600
C  51.72900 27.85000 33.97200
O  52.73200 27.24200 33.55300
O  51.55300 28.40100 35.21200
C  52.62900 28.03200 36.19700
H  46.97900 22.37200 32.40600
H  47.51800 22.85400 26.15500
H  50.15100 28.55400 26.61000
H  49.73400 25.75400 34.62600
H  47.43700 24.07100 34.45500
H  49.81900 22.54600 33.54900
H  48.64600 22.36200 34.73000
H  50.02200 23.46400 35.04300
H  47.07400 26.16500 35.04800
H  47.35800 27.50300 34.00600
H  48.80700 28.55300 35.48100
H  49.31700 27.09800 36.36800
H  45.48900 21.01900 31.68700
H  46.61800 19.90300 30.90900
H  45.04600 20.27400 30.20200
H  45.70700 19.04800 28.15100
H  44.67100 19.36500 26.77400
H  44.13300 19.92300 28.37900
H  47.63700 25.02200 24.48800
H  50.03500 26.60100 24.80700
H  50.12200 24.65800 23.67400
H  49.07800 23.27000 23.95600
H  50.29100 23.65600 25.17000
H  48.32700 27.28700 23.24700
H  48.57100 28.56100 24.49400
H  46.52000 28.61000 24.45600
H  46.61800 27.48600 25.75000
H  46.10000 26.98600 24.00700
H  50.69900 31.11600 28.07700
H  52.11200 30.05600 27.73300
H  51.94000 30.76800 29.32300
H  49.90400 28.96700 33.57100
H  53.17900 28.95700 36.37100
H  53.38900 27.29300 35.94200
H  52.25500 27.89500 37.21200

