158

Mg 36.01100 49.90900 24.72400
C  36.18100 48.11200 27.74500
C  34.63000 52.52500 26.40700
C  35.39700 51.44200 21.67500
C  36.71900 46.89400 23.06800
N  35.68800 50.37400 26.87800
C  35.70900 49.47400 27.88400
C  35.40700 50.19500 29.23700
C  34.73800 51.57700 28.77400
C  35.01500 51.49500 27.24200
C  33.25100 51.77000 29.22700
C  36.60200 50.33800 30.13500
C  36.50900 49.90700 31.62200
H  35.07600 49.63100 32.17200
N  35.20200 51.76500 24.15500
C  34.75400 52.69500 24.98500
C  34.43400 53.96600 24.31300
C  34.73800 53.69900 22.96000
C  35.07500 52.25900 22.85300
C  33.82500 55.21300 24.96700
C  34.68300 54.70300 21.84100
O  34.94700 54.42800 20.65600
C  34.40800 56.16200 21.95100
N  36.03900 49.26100 22.74000
C  35.85600 50.11900 21.68500
C  36.19400 49.36900 20.36400
C  36.66700 48.01100 20.84100
C  36.45000 48.00000 22.33500
C  34.96200 49.24400 19.43700
C  38.11000 47.78500 20.46200
C  39.19000 48.76800 20.96200
N  36.43000 47.96100 25.23600
C  36.68800 46.84500 24.50000
C  37.11400 45.70200 25.32900
C  36.94300 46.20700 26.56400
C  36.41600 47.48500 26.45700
C  37.61400 44.29200 25.01000
C  37.04600 45.86800 27.97400
O  37.42200 44.85300 28.52600
C  36.46500 47.09200 28.83200
C  35.36600 46.63400 29.66300
O  34.18800 46.87600 29.42700
O  35.84800 45.84500 30.72800
C  34.92800 45.16100 31.63200
H  34.32900 53.43100 26.93600
H  35.39000 51.99800 20.73600
H  37.00500 45.97800 22.54700
H  34.64200 49.57300 29.70000
H  35.35200 52.39500 29.15100
H  32.74800 51.00900 29.82400
H  32.73700 51.95300 28.28300
H  33.20400 52.70900 29.77800
H  37.00600 51.35100 30.14300
H  37.31800 49.65500 29.67700
H  36.94800 50.62900 32.31000
H  37.11300 49.00100 31.67700
H  34.61700 55.71700 25.52100
H  33.09000 54.88900 25.70400
H  33.28200 55.83700 24.25700
H  34.83400 56.77600 21.15800
H  34.92000 56.56900 22.82300
H  33.35100 56.42500 21.99800
H  36.87900 50.07200 19.88900
H  36.13900 47.14900 20.43100
H  34.32900 50.13100 19.40400
H  34.32000 48.39900 19.68800
H  35.35100 49.13900 18.42400
H  38.04800 47.93700 19.38500
H  38.53200 46.80300 20.67600
H  39.89300 48.25500 21.61900
H  38.78600 49.64400 21.46900
H  39.69900 49.19600 20.09900
H  36.97400 43.61100 25.57100
H  38.65700 44.00700 25.15300
H  37.53100 44.11900 23.93700
H  37.32000 47.43600 29.41400
H  33.99200 44.88100 31.15000
H  34.74900 45.79600 32.49900
H  35.41500 44.24000 31.95400
Mg -12.07500 37.34000 42.90400
C  -9.65900 34.92200 41.78000
C  -10.30000 39.77000 41.37400
C  -14.85700 39.27400 43.05300
C  -14.08300 34.55600 44.03800
N  -10.16500 37.30300 41.77200
C  -9.29000 36.25400 41.41800
C  -8.12700 36.72400 40.58500
C  -8.24700 38.25600 40.84300
C  -9.65000 38.51800 41.43200
C  -7.20100 38.71600 41.94500
C  -8.24000 36.34100 39.01400
C  -7.19600 35.36100 38.47600
H  -6.07500 35.74100 37.53600
N  -12.44700 39.22600 42.48500
C  -11.53200 40.10100 41.88500
C  -12.12000 41.40600 41.81900
C  -13.43300 41.37100 42.38300
C  -13.65900 39.84300 42.68500
C  -11.41400 42.66400 41.25900
C  -14.28100 42.56200 42.54500
O  -13.98500 43.69300 42.11600
C  -15.62500 42.49100 43.20800
N  -14.18900 36.92700 43.39200
C  -15.10700 37.95400 43.46400
C  -16.46100 37.56000 44.06700
C  -16.21800 36.03100 44.38000
C  -14.77300 35.84300 43.92500
C  -17.01600 38.37700 45.25900
C  -17.30000 35.16500 43.61400
C  -17.63600 33.75500 44.20600
N  -11.90200 35.18800 42.92600
C  -12.75800 34.25300 43.56600
C  -12.01800 32.96400 43.65700
C  -10.80800 33.18200 42.92000
C  -10.80000 34.54600 42.47400
C  -12.38800 31.71300 44.40000
C  -9.61900 32.57900 42.40700
O  -9.11900 31.44100 42.56000
C  -8.83300 33.69500 41.69100
C  -7.54800 33.84600 42.36800
O  -6.55500 33.31900 41.96000
O  -7.60500 34.55500 43.57600
C  -6.37300 34.69300 44.35400
H  -9.64300 40.50700 40.90800
H  -15.75900 39.85400 43.25900
H  -14.75400 33.80300 44.45700
H  -7.25500 36.33200 41.10800
H  -8.32200 38.87200 39.94600
H  -6.75800 39.69800 41.77700
H  -6.44000 37.93500 41.96800
H  -7.77500 38.82000 42.86500
H  -8.24200 37.21100 38.35700
H  -9.26700 35.99500 38.89700
H  -7.87800 34.72400 37.91200
H  -6.83700 34.72600 39.28500
H  -10.33500 42.61300 41.40700
H  -11.66900 43.55500 41.83300
H  -11.79400 42.86500 40.25700
H  -16.06500 43.48200 43.09700
H  -15.61000 42.42200 44.29600
H  -16.28800 41.77900 42.71500
H  -17.18000 37.71600 43.26200
H  -16.34700 35.79200 45.43600
H  -16.19300 38.99700 45.61500
H  -17.27800 37.64000 46.01700
H  -17.86200 39.05900 45.17300
H  -17.05400 35.16000 42.55200
H  -18.16900 35.76700 43.87800
H  -17.42800 33.09600 43.36200
H  -18.72400 33.69600 44.23900
H  -17.11100 33.55600 45.14000
H  -11.88200 31.57100 45.35500
H  -12.23200 30.88200 43.71200
H  -13.44700 31.90900 44.57100
H  -8.76300 33.28500 40.68300
H  -6.66000 34.82100 45.39700
H  -5.80200 35.56600 44.04000
H  -5.79300 33.77600 44.25100

