158

Mg 34.71300 1.49100 28.92900
C  32.40300 2.83700 31.33600
C  37.17600 1.85900 31.23100
C  36.70600 0.62100 26.47200
C  31.95700 1.78000 26.54800
N  34.68400 2.19600 31.08500
C  33.67900 2.63800 31.86200
C  34.18600 2.79400 33.27700
C  35.71200 2.75400 33.16900
C  35.90800 2.30300 31.73800
C  36.45900 4.09800 33.43600
C  33.54000 1.82400 34.30600
C  32.99800 2.55200 35.53400
H  33.98000 3.09900 36.64300
N  36.69000 1.19200 28.88500
C  37.52500 1.39700 29.94000
C  38.89000 1.01000 29.51200
C  38.77000 0.70300 28.11600
C  37.35200 0.87300 27.74000
C  40.05600 0.89500 30.43800
C  39.88800 0.19800 27.19200
O  39.72200 0.07400 25.97200
C  41.29800 -0.16800 27.74600
N  34.31000 1.12500 26.89500
C  35.36100 0.84000 26.06200
C  34.96200 0.92800 24.51200
C  33.36300 1.05400 24.64700
C  33.20100 1.32300 26.13900
C  35.67400 2.10000 23.78200
C  32.57900 -0.21600 24.25300
C  32.09100 -0.16600 22.82600
N  32.58600 2.04500 28.91100
C  31.64000 2.09700 27.86500
C  30.36800 2.65000 28.41300
C  30.61700 2.85200 29.74500
C  31.93500 2.52000 30.01900
C  29.06300 2.78700 27.66500
C  30.01300 3.32400 31.01300
O  28.89500 3.58500 31.24300
C  31.15400 3.31100 32.09400
C  31.31300 4.75100 32.59700
O  31.82300 5.65600 31.97900
O  30.69100 4.82000 33.76400
C  30.60700 5.97400 34.66900
H  37.96700 2.08200 31.95100
H  37.34900 0.51400 25.59600
H  31.13100 1.97500 25.86100
H  33.79500 3.80100 33.42300
H  36.24000 2.01500 33.77100
H  35.69900 4.68700 33.95000
H  36.66900 4.61400 32.49900
H  37.36000 3.92200 34.02300
H  34.31300 1.13100 34.63700
H  32.72200 1.28200 33.83200
H  32.30500 1.80700 35.92600
H  32.38100 3.36400 35.15000
H  40.72900 1.72900 30.23500
H  40.78200 0.08200 30.46800
H  39.64300 1.16300 31.41100
H  41.88600 0.69400 28.06000
H  41.85600 -0.73100 26.99700
H  41.11700 -0.76600 28.63900
H  35.19000 0.04800 23.91100
H  33.00800 1.90200 24.06200
H  35.03800 2.92600 23.46400
H  36.15400 1.69600 22.89100
H  36.43700 2.62700 24.35600
H  31.64700 -0.32000 24.80800
H  33.15200 -1.11300 24.48700
H  32.25200 -1.11300 22.31100
H  32.69900 0.56900 22.29800
H  31.06200 0.18000 22.73100
H  28.61700 1.79300 27.62400
H  29.02500 3.38700 26.75600
H  28.60100 3.39200 28.44500
H  30.97400 2.62500 32.92200
H  30.26300 6.84400 34.11000
H  31.55400 6.08300 35.19800
H  29.97200 5.78100 35.53300
Mg 6.61300 55.42600 42.25900
C  6.36800 52.00200 41.71200
C  9.95200 55.25900 41.03200
C  6.68700 58.79900 41.94000
C  3.16500 55.49900 43.09400
N  7.89100 53.83700 41.33200
C  7.60000 52.51500 41.22600
C  8.77600 51.65900 40.78000
C  9.95000 52.64300 41.07400
C  9.25200 54.02700 41.19700
C  10.77300 52.20200 42.33400
C  8.76000 51.26300 39.21900
C  9.87300 50.28200 38.72600
H  10.40400 50.36700 37.28400
N  8.03500 56.89500 41.43800
C  9.36300 56.58200 41.12400
C  9.96100 57.73700 40.60200
C  9.13600 58.86600 40.83700
C  7.87700 58.21700 41.51300
C  11.35100 57.90600 39.78700
C  9.39900 60.35200 40.60300
O  10.52500 60.79300 40.27600
C  8.25900 61.36200 40.68000
N  5.12600 56.89900 42.39500
C  5.43700 58.23700 42.39600
C  4.27200 59.10300 42.79800
C  3.26200 58.03100 43.20700
C  3.84200 56.70800 42.81700
C  4.58000 60.16100 43.86600
C  1.89100 58.09600 42.45800
C  0.64800 58.14600 43.33800
N  5.14600 54.00900 42.70700
C  3.80800 54.18500 43.00000
C  3.28900 52.87200 43.35700
C  4.21500 51.96300 42.77500
C  5.27800 52.74100 42.31500
C  2.02100 52.61700 44.17400
C  4.49500 50.52800 42.45100
O  3.79100 49.50800 42.51300
C  6.00500 50.49700 41.80200
C  5.81200 49.85700 40.43500
O  5.24200 50.36100 39.46200
O  6.50900 48.68900 40.37100
C  6.41800 48.05600 39.04000
H  10.97700 55.30900 40.66000
H  6.54800 59.87300 41.79500
H  2.18200 55.51200 43.57000
H  8.86700 50.72100 41.32700
H  10.69000 52.71600 40.27800
H  11.01500 53.09600 42.90900
H  11.63400 51.56700 42.12400
H  10.18000 51.53100 42.95600
H  8.74100 52.18300 38.63500
H  7.82600 50.74300 39.00300
H  9.35000 49.32700 38.67500
H  10.60500 50.18600 39.52700
H  11.23300 58.61600 38.96900
H  11.82900 56.99800 39.42000
H  12.17700 58.38300 40.31600
H  7.96600 61.54500 41.71400
H  7.54900 60.86500 40.01900
H  8.48900 62.29100 40.15700
H  3.90400 59.67400 41.94600
H  3.08200 58.00400 44.28200
H  3.97100 60.01300 44.75800
H  4.60500 61.19100 43.51000
H  5.63900 60.08800 44.11300
H  1.77900 57.23700 41.79600
H  1.83200 58.99900 41.85000
H  0.04900 59.05600 43.31400
H  0.87000 57.97300 44.39100
H  0.03300 57.31200 43.00000
H  1.44100 51.84100 43.67500
H  1.45300 53.52900 44.36000
H  2.25000 52.19100 45.15100
H  6.45000 49.80000 42.51300
H  6.13600 47.04300 39.32700
H  7.39400 48.13900 38.56300
H  5.59600 48.41500 38.42000

