158

Mg 44.28900 4.10700 48.20800
C  42.06700 6.84700 47.69000
C  41.43900 2.04100 47.93600
C  46.31100 1.39800 48.00400
C  47.01100 6.24200 48.02300
N  42.01800 4.42300 48.03200
C  41.34000 5.65500 47.74400
C  39.85000 5.47100 47.54400
C  39.74500 3.94500 47.69800
C  41.17400 3.38500 47.91300
C  38.71500 3.49300 48.77800
C  39.45200 5.92800 46.12100
C  37.99200 6.44100 46.07500
H  37.28700 6.37500 44.71500
N  43.96500 2.02400 48.05200
C  42.73900 1.43400 47.91600
C  42.97500 -0.03600 47.71600
C  44.40200 -0.17700 47.62500
C  44.92800 1.09400 47.92500
C  41.96400 -1.15000 47.51700
C  45.11400 -1.49400 47.33200
O  44.58600 -2.61800 47.31600
C  46.57900 -1.55700 46.96800
N  46.32200 3.85200 47.77100
C  46.94200 2.64100 47.98900
C  48.41600 2.82900 48.21200
C  48.67400 4.32800 47.72200
C  47.25800 4.81200 47.92300
C  48.80100 2.46000 49.71800
C  49.26900 4.58400 46.33500
C  50.73700 5.09800 46.34000
N  44.56400 6.17500 48.03100
C  45.71700 6.91800 47.98500
C  45.42300 8.32400 48.03300
C  43.99600 8.34600 47.87100
C  43.48700 7.01500 47.85100
C  46.37800 9.42400 48.32900
C  42.80200 9.19500 47.76600
O  42.73900 10.42000 47.74000
C  41.52000 8.27900 47.66600
C  40.63900 8.60000 48.81200
O  40.84100 8.30700 49.96900
O  39.55600 9.35100 48.37000
C  38.55100 9.72200 49.40600
H  40.51400 1.46500 47.86200
H  47.03700 0.58400 48.06600
H  47.91800 6.84500 47.94100
H  39.23600 5.94800 48.30800
H  39.33900 3.35900 46.87300
H  37.89700 4.21400 48.79600
H  39.20500 3.62700 49.74300
H  38.40000 2.45100 48.72300
H  39.44800 5.00000 45.54900
H  40.06300 6.69400 45.64200
H  37.98500 7.49100 46.36900
H  37.31400 5.98500 46.79700
H  41.86700 -1.45200 46.47400
H  40.99100 -0.71300 47.74100
H  42.13000 -1.98300 48.20000
H  47.09400 -1.54700 47.92800
H  46.91100 -0.70400 46.37600
H  46.73100 -2.42900 46.33100
H  48.86500 2.08700 47.55200
H  49.36700 4.66300 48.49400
H  47.89000 2.46400 50.31800
H  49.45500 3.23800 50.11100
H  49.26100 1.47200 49.72600
H  48.66700 5.38200 45.90100
H  49.25800 3.71700 45.67400
H  50.80300 6.18400 46.39900
H  51.06500 4.82400 45.33700
H  51.39300 4.61800 47.06600
H  46.57900 9.42600 49.40000
H  46.08200 10.43700 48.05900
H  47.28700 9.19400 47.77400
H  41.03300 8.62900 46.75600
H  37.69200 10.01100 48.80000
H  39.01300 10.52700 49.97800
H  38.31300 8.87300 50.04700
Mg 46.10200 24.83200 28.87500
C  46.83500 26.99100 31.48600
C  44.91000 22.62100 31.35900
C  45.71200 22.49000 26.52100
C  47.88200 26.90500 26.70800
N  45.80900 24.87000 31.11000
C  46.14800 25.85800 31.89900
C  45.72100 25.59300 33.41900
C  45.32100 24.11600 33.42900
C  45.38700 23.86300 31.86600
C  46.02400 23.06500 34.35900
C  44.68800 26.55400 33.98200
C  45.03300 27.20700 35.25000
H  45.51200 26.34800 36.45900
N  45.35100 22.80200 28.93300
C  44.88400 22.11000 30.07900
C  44.47100 20.71400 29.62800
C  44.69600 20.67400 28.23700
C  45.27500 22.02900 27.82300
C  43.99100 19.64300 30.62800
C  44.57600 19.44700 27.33700
O  44.81400 19.58800 26.15000
C  43.94500 18.21300 27.83800
N  46.80900 24.63100 26.84400
C  46.49500 23.60400 26.07300
C  46.95800 23.83800 24.69800
C  47.59500 25.28700 24.71600
C  47.41600 25.62000 26.17600
C  47.85400 22.69500 24.15300
C  46.90700 26.28900 23.72700
C  45.74900 27.17900 24.15800
N  47.15200 26.60100 28.95900
C  47.81200 27.31400 28.00700
C  48.31500 28.48600 28.62700
C  48.02100 28.42000 29.96700
C  47.24100 27.26700 30.14100
C  49.11800 29.54200 28.10400
C  48.08800 29.09100 31.17500
O  48.58700 30.20100 31.49500
C  47.25200 28.22800 32.27500
C  48.21300 27.96100 33.42800
O  48.87000 26.98600 33.58500
O  48.19600 28.96800 34.35600
C  48.64600 28.65100 35.72000
H  44.51900 22.06300 32.21300
H  45.51300 21.80200 25.69700
H  48.51900 27.49800 26.04800
H  46.64200 25.85000 33.94100
H  44.27200 24.06900 33.72300
H  45.29600 22.42300 34.85400
H  46.69100 23.52600 35.08800
H  46.69800 22.34200 33.90000
H  43.71700 26.09600 34.16700
H  44.59200 27.28900 33.18200
H  44.07700 27.60600 35.58800
H  45.69600 28.06700 35.15600
H  44.41000 18.64300 30.52000
H  42.91300 19.78100 30.71700
H  44.29700 20.01500 31.60600
H  42.96200 18.45200 28.24500
H  44.54100 17.78700 28.64500
H  43.78300 17.63000 26.93100
H  46.09000 23.87000 24.04000
H  48.66600 25.27500 24.51400
H  47.38800 22.15000 23.33200
H  47.97600 21.88100 24.86800
H  48.87100 23.02600 23.94300
H  46.47700 25.76700 22.87200
H  47.57100 27.01100 23.25200
H  45.50900 26.98100 25.20300
H  44.81000 26.84700 23.71600
H  45.86700 28.26100 24.09000
H  49.94500 29.10800 27.54200
H  49.48600 30.16900 28.91600
H  48.55500 30.13200 27.38100
H  46.41300 28.79600 32.67600
H  47.80300 28.45500 36.38300
H  49.16300 29.55800 36.03600
H  49.36900 27.83500 35.72900

