158

Mg 7.86600 2.06400 28.25300
C  9.34400 0.66800 31.06000
C  5.64100 3.80100 30.29600
C  6.45000 3.37600 25.54700
C  9.56500 -0.23600 26.30800
N  7.67200 2.27200 30.40900
C  8.34200 1.58800 31.37800
C  8.14700 2.27500 32.75800
C  6.81400 3.05100 32.53900
C  6.69900 3.09700 30.99600
C  5.54100 2.35200 33.16500
C  9.38900 3.10700 33.26100
C  9.91000 2.90500 34.69300
H  9.09400 2.20400 35.75400
N  6.33900 3.46200 27.95600
C  5.53900 4.02800 28.95100
C  4.50100 4.86100 28.30000
C  4.75100 4.80700 26.88900
C  5.87300 3.87500 26.76600
C  3.40800 5.59600 29.04700
C  4.00200 5.50000 25.80700
O  4.13300 5.24600 24.59100
C  2.91100 6.54000 26.16900
N  7.84400 1.54600 26.19800
C  7.36400 2.36700 25.31100
C  7.88800 2.03600 23.87800
C  8.87100 0.87000 24.16800
C  8.72600 0.66600 25.66100
C  6.65800 1.75400 22.95000
C  10.31300 0.99100 23.62500
C  11.42000 1.70500 24.48900
N  9.16900 0.43400 28.55500
C  9.81900 -0.34000 27.65300
C  10.77700 -1.14600 28.41300
C  10.65100 -0.77000 29.76600
C  9.63900 0.22000 29.80000
C  11.66300 -2.17400 27.83100
C  11.22700 -0.93100 31.09100
O  12.10200 -1.63300 31.50900
C  10.41900 -0.01900 31.98200
C  9.89600 -0.93500 33.05800
O  9.17400 -1.87500 32.82400
O  10.50500 -0.62300 34.23000
C  10.36400 -1.70600 35.17600
H  4.92800 4.27000 30.97800
H  5.98600 3.89100 24.70300
H  10.16100 -0.91700 25.69800
H  7.89900 1.39200 33.34800
H  6.96400 4.02000 33.01500
H  5.23700 2.95300 34.02200
H  5.75000 1.33700 33.50300
H  4.65200 2.28900 32.53700
H  9.23600 4.18400 33.19700
H  10.22200 3.03800 32.56100
H  10.02600 3.88700 35.15300
H  10.91200 2.48000 34.74300
H  3.48500 6.66600 29.23900
H  3.34400 5.10700 30.01800
H  2.43200 5.35100 28.62700
H  2.09300 6.17900 26.79200
H  2.46000 6.74000 25.19700
H  3.19800 7.54300 26.48600
H  8.45400 2.94400 23.67100
H  8.35200 -0.05900 23.93300
H  6.65000 2.57500 22.23400
H  5.67600 1.77500 23.42200
H  6.73300 0.80200 22.42400
H  10.22600 1.54500 22.69100
H  10.79400 0.05000 23.35700
H  11.12000 2.06400 25.47300
H  11.80100 2.50700 23.85600
H  12.25400 1.00800 24.57400
H  11.84200 -2.95300 28.57200
H  12.58300 -1.62400 27.63000
H  11.21700 -2.56900 26.91800
H  11.14400 0.75000 32.24600
H  9.73600 -2.52600 34.82800
H  9.94100 -1.38000 36.12600
H  11.31000 -2.06000 35.58700
Mg 17.02300 -1.84300 28.18000
C  15.90500 -0.20700 30.96100
C  19.47000 -3.43600 30.09800
C  18.11300 -3.39600 25.40200
C  14.93600 0.16200 26.23100
N  17.63100 -1.80800 30.36200
C  16.91300 -1.09100 31.25400
C  17.40000 -1.41700 32.64900
C  18.72700 -2.32100 32.32700
C  18.67100 -2.53000 30.81400
C  20.00500 -1.84600 32.97000
C  16.29800 -2.11500 33.49100
C  15.91200 -1.44800 34.80100
H  17.07800 -0.72200 35.55200
N  18.50000 -3.33600 27.81100
C  19.34100 -3.84300 28.73100
C  20.12800 -4.84300 28.11600
C  19.85000 -4.84900 26.73600
C  18.74700 -3.84700 26.59700
C  21.05700 -5.67900 28.95100
C  20.48000 -5.55300 25.59500
O  20.00100 -5.42400 24.48600
C  21.53100 -6.63400 25.76900
N  16.62900 -1.65800 26.10200
C  17.26000 -2.37200 25.12100
C  16.85400 -1.88300 23.73800
C  15.61700 -0.95000 24.08000
C  15.78700 -0.73200 25.56500
C  18.03200 -1.19800 23.04400
C  14.27500 -1.61600 23.68900
C  13.98600 -1.37400 22.20000
N  15.57500 -0.34500 28.48600
C  14.80700 0.41400 27.62700
C  13.97700 1.36000 28.39300
C  14.39200 1.16500 29.68000
C  15.37300 0.14200 29.66000
C  13.10100 2.37600 27.85400
C  14.23500 1.59200 31.04500
O  13.56700 2.47700 31.51300
C  15.25500 0.73300 31.90700
C  16.21500 1.73700 32.46900
O  17.19300 2.14200 31.88000
O  15.71600 2.21300 33.63800
C  16.52500 3.28300 34.21800
H  20.21200 -3.88800 30.76000
H  18.38900 -3.83600 24.44100
H  14.23900 0.82400 25.71200
H  17.64000 -0.45600 33.10500
H  18.59500 -3.33400 32.70800
H  19.81900 -0.97600 33.60000
H  20.66600 -1.56000 32.15200
H  20.40000 -2.67500 33.55700
H  16.75800 -3.07300 33.73300
H  15.38200 -2.31200 32.93200
H  15.66600 -2.39600 35.27800
H  14.97400 -0.90400 34.90800
H  20.68000 -6.03600 29.91000
H  21.82500 -4.97600 29.27400
H  21.52500 -6.46700 28.36200
H  22.43100 -6.27700 26.27000
H  21.81800 -7.05300 24.80400
H  21.02700 -7.44000 26.30200
H  16.53000 -2.78200 23.21400
H  15.68100 0.02700 23.60200
H  18.92400 -1.45200 23.61700
H  17.78000 -0.15200 22.87100
H  18.10700 -1.64400 22.05300
H  13.46400 -1.21700 24.29800
H  14.26300 -2.69400 23.85000
H  13.77400 -2.38000 21.83900
H  14.69500 -0.85000 21.55900
H  13.05900 -0.80000 22.20700
H  13.55400 2.71700 26.92300
H  13.23200 3.18200 28.57500
H  12.09400 2.02700 27.62300
H  14.61800 0.29900 32.67800
H  17.57800 3.02300 34.11200
H  16.40100 3.29200 35.30100
H  16.24900 4.25600 33.81100

