158

Mg 2.63700 -2.85100 45.28800
C  5.64700 -1.29400 44.20900
C  0.84800 -0.35600 43.73900
C  -0.10200 -4.68600 45.63000
C  4.68700 -5.57000 46.55600
N  3.14800 -1.15600 43.96500
C  4.42800 -0.59900 43.81100
C  4.35600 0.71100 42.98000
C  2.86600 1.12100 43.18900
C  2.21200 -0.23200 43.60000
C  2.59100 2.13500 44.39200
C  4.71700 0.43200 41.44100
C  5.99700 1.15300 41.01800
H  7.04800 0.55500 40.12800
N  0.57200 -2.51800 44.86200
C  0.06200 -1.45800 44.23300
C  -1.31800 -1.60000 44.13000
C  -1.68400 -2.91000 44.61800
C  -0.44300 -3.43400 45.11200
C  -2.30300 -0.59200 43.42700
C  -3.04100 -3.48200 44.52000
O  -4.03600 -2.78800 44.09800
C  -3.26200 -4.81100 44.87000
N  2.38500 -4.69900 46.12800
C  1.12000 -5.25100 46.03700
C  1.16500 -6.74900 46.49000
C  2.64400 -6.94300 46.88600
C  3.32200 -5.70600 46.42600
C  0.25700 -7.04400 47.69000
C  3.18800 -8.27400 46.39400
C  4.04500 -8.97800 47.48700
N  4.76100 -3.36500 45.43100
C  5.39800 -4.40000 46.03800
C  6.82800 -4.19000 45.92200
C  6.94000 -3.02700 45.25200
C  5.62800 -2.56700 44.84900
C  7.92500 -5.05500 46.53400
C  7.93800 -2.07000 44.85300
O  9.16200 -2.01100 45.09100
C  7.05900 -0.86700 44.14000
C  7.25100 0.40400 44.93300
O  6.88500 0.60300 46.06100
O  7.76400 1.36600 44.08800
C  7.85500 2.71200 44.71000
H  0.34800 0.52700 43.33500
H  -0.97700 -5.33900 45.65000
H  5.24700 -6.42700 46.93600
H  5.01100 1.49900 43.35200
H  2.57800 1.62500 42.26700
H  2.10400 3.04200 44.03200
H  3.48200 2.26800 45.00700
H  1.90100 1.65100 45.08200
H  3.96300 0.88000 40.79400
H  4.89900 -0.62500 41.24400
H  6.45900 1.62900 41.88300
H  5.57900 2.06000 40.58000
H  -2.47000 -1.06500 42.45900
H  -1.93400 0.39100 43.13300
H  -3.22200 -0.32100 43.94600
H  -2.65000 -5.31600 44.12300
H  -4.30500 -5.08300 44.70500
H  -2.94000 -4.81900 45.91100
H  0.85100 -7.40500 45.67800
H  2.75000 -6.73600 47.95000
H  0.31900 -6.21300 48.39200
H  0.51100 -7.99500 48.15800
H  -0.75700 -7.06800 47.29200
H  3.82500 -8.10500 45.52600
H  2.39900 -8.98300 46.14100
H  3.60100 -9.91000 47.83500
H  4.17100 -8.29400 48.32700
H  5.10300 -9.05700 47.24000
H  8.41000 -5.60100 45.72500
H  7.60900 -5.62500 47.40800
H  8.70900 -4.36200 46.84000
H  7.47300 -0.73200 43.14100
H  7.03400 2.92100 45.39500
H  8.00700 3.41900 43.89400
H  8.79100 2.86400 45.24600
Mg 35.11900 2.25300 29.04400
C  33.16000 3.53000 31.63200
C  37.74400 2.45500 31.27200
C  37.22600 1.38000 26.46900
C  32.51300 2.63400 26.85100
N  35.38300 3.02800 31.20200
C  34.48300 3.33700 32.08200
C  34.95100 3.53100 33.54500
C  36.49400 3.30600 33.33400
C  36.54200 2.92600 31.84700
C  37.40600 4.49100 33.69800
C  34.29100 2.63400 34.59600
C  34.20100 3.29000 36.04400
H  35.40800 4.00000 36.56400
N  37.18300 1.82800 28.86800
C  38.07100 2.03700 29.92600
C  39.36300 1.58100 29.51300
C  39.29300 1.33000 28.13500
C  37.89200 1.49900 27.72200
C  40.44800 1.58900 30.42300
C  40.41100 0.98100 27.15000
O  40.13400 0.88900 25.96600
C  41.78900 0.81200 27.72700
N  34.96700 2.21000 26.95500
C  35.91900 1.72900 26.05100
C  35.48900 1.80600 24.62600
C  33.91500 1.76600 24.86200
C  33.79000 2.34600 26.31800
C  36.10100 2.99700 23.96400
C  33.22000 0.37500 24.76800
C  31.94600 0.26800 24.00600
N  33.25900 2.90600 29.17500
C  32.22800 2.90300 28.23200
C  30.93200 3.25000 28.82800
C  31.26200 3.47700 30.16500
C  32.70000 3.35000 30.29600
C  29.68000 3.30300 28.16500
C  30.72700 3.77100 31.40900
O  29.52800 3.98600 31.62800
C  31.88800 3.81400 32.42200
C  31.92000 5.19900 33.08500
O  32.33400 6.15300 32.55300
O  31.50400 5.14000 34.37300
C  31.62900 6.43100 35.03100
H  38.48800 2.39900 32.06900
H  37.87500 1.36400 25.59100
H  31.60500 2.63300 26.24500
H  34.65700 4.55800 33.76000
H  36.84900 2.41100 33.84500
H  38.13700 4.68700 32.91400
H  38.09700 4.21100 34.49300
H  36.75500 5.32800 33.95400
H  34.94000 1.76700 34.72000
H  33.28900 2.28000 34.35600
H  34.05100 2.49900 36.77900
H  33.42300 4.05300 36.03100
H  40.81400 2.61500 30.40300
H  41.35900 1.03600 30.19100
H  40.21500 1.24500 31.43100
H  41.77600 -0.00800 28.44300
H  42.20700 1.70300 28.19700
H  42.56200 0.46100 27.04300
H  35.75700 0.84700 24.18300
H  33.46200 2.47000 24.16400
H  35.30300 3.46000 23.38300
H  36.87800 2.63400 23.29200
H  36.58700 3.70200 24.63800
H  33.01200 0.07200 25.79400
H  33.90400 -0.45600 24.59600
H  31.64300 1.19100 23.51100
H  31.32600 0.09300 24.88600
H  32.00800 -0.63500 23.39900
H  29.28300 4.31500 28.23300
H  28.99100 2.69700 28.75500
H  29.79900 2.81000 27.20000
H  31.82500 3.10800 33.25000
H  30.76300 6.32700 35.68500
H  31.47300 7.33300 34.44000
H  32.51800 6.55000 35.65000

