158

Mg 36.16000 48.46800 24.52500
C  36.30400 46.68400 27.53000
C  34.80100 51.08900 26.33600
C  35.57800 50.02600 21.71300
C  37.32400 45.68400 22.83600
N  35.65500 48.83800 26.74300
C  35.90100 47.99100 27.71800
C  35.65800 48.69500 29.08400
C  34.98300 50.06800 28.72000
C  35.07800 50.00700 27.17400
C  33.47600 50.29000 29.20100
C  36.96000 48.84700 29.93000
C  36.91800 48.37900 31.35500
H  35.58300 48.51800 32.08700
N  35.24100 50.23600 24.07000
C  34.78700 51.22300 24.91600
C  34.27700 52.34700 24.14900
C  34.46900 52.07000 22.77800
C  35.10700 50.70200 22.82800
C  33.81400 53.57700 24.80300
C  34.32100 53.05800 21.50600
O  34.71800 52.81200 20.37300
C  33.84000 54.51600 21.72700
N  36.35100 47.94800 22.56600
C  36.09800 48.76300 21.56400
C  36.37400 48.14300 20.20000
C  37.15800 46.84400 20.59200
C  36.98700 46.80700 22.13100
C  35.08600 47.89500 19.31100
C  38.63500 46.65300 20.09000
C  39.81000 46.98500 21.08600
N  36.87700 46.63900 25.03600
C  37.25900 45.60500 24.21800
C  37.64000 44.47800 25.05000
C  37.28300 44.86800 26.36900
C  36.76700 46.13700 26.28500
C  38.18900 43.16300 24.54600
C  37.15100 44.47200 27.75000
O  37.42900 43.39500 28.32900
C  36.54700 45.69700 28.55100
C  35.40300 45.18500 29.32300
O  34.20800 45.08700 29.02500
O  35.87600 44.97500 30.54700
C  34.98000 44.46600 31.57300
H  34.45900 51.97800 26.87000
H  35.50600 50.50000 20.73200
H  37.69400 44.75900 22.39000
H  34.98100 48.11700 29.71200
H  35.64400 50.88800 29.00100
H  33.22700 49.43700 29.83300
H  32.77900 50.29700 28.36300
H  33.32200 51.12700 29.88300
H  37.24800 49.89900 29.91800
H  37.76900 48.36000 29.38500
H  37.65000 48.89400 31.97800
H  37.17000 47.32000 31.41100
H  34.67300 54.24200 24.71100
H  33.45100 53.41100 25.81700
H  32.92500 53.90600 24.26600
H  32.84000 54.50000 22.16100
H  33.82500 54.84500 20.68800
H  34.53700 55.08400 22.34300
H  37.15100 48.79500 19.80000
H  36.56500 45.99900 20.24300
H  34.25700 48.50000 19.67800
H  34.64600 46.90400 19.42700
H  35.27600 48.11000 18.25900
H  38.78000 47.32700 19.24600
H  38.75000 45.68700 19.60000
H  40.28400 47.87900 20.68300
H  40.54900 46.18700 21.16200
H  39.55700 47.20100 22.12400
H  38.91800 43.30500 23.74800
H  37.33600 42.62100 24.13900
H  38.62500 42.65100 25.40400
H  37.28900 45.97600 29.29900
H  34.23800 45.24300 31.75900
H  35.45200 44.25100 32.53200
H  34.30300 43.69300 31.20900
Mg 26.65600 49.43300 26.02900
C  24.89000 50.87600 28.77000
C  29.21400 48.87200 28.38700
C  28.65000 48.65700 23.49500
C  24.34100 50.83500 23.88800
N  26.99700 49.90000 28.23600
C  26.07200 50.33400 29.23500
C  26.62200 50.19400 30.67400
C  28.10000 49.95100 30.42200
C  28.12700 49.50700 28.89800
C  28.92900 51.25600 30.68200
C  25.97700 49.04200 31.42900
C  25.30800 49.34100 32.76500
H  26.20800 49.79800 33.94000
N  28.55400 48.69500 25.96100
C  29.43100 48.45800 27.03600
C  30.65000 47.87100 26.47800
C  30.60300 47.97900 25.05000
C  29.22700 48.45700 24.81800
C  31.84000 47.43200 27.29300
C  31.61500 47.81300 23.98500
O  31.47200 48.18800 22.83900
C  32.99600 47.46600 24.46200
N  26.56900 49.84000 24.00600
C  27.45600 49.28800 23.13400
C  26.98900 49.35300 21.63800
C  25.55200 50.00200 21.81800
C  25.44300 50.23600 23.31600
C  27.80900 50.26900 20.76700
C  24.37900 48.93300 21.44100
C  23.03800 49.57800 20.93900
N  24.94700 50.62100 26.28000
C  24.07000 51.03300 25.29300
C  23.00300 51.79900 25.88000
C  23.24200 51.71500 27.25300
C  24.42100 50.97100 27.42600
C  21.90600 52.57000 25.22900
C  22.71300 52.04700 28.57200
O  21.67800 52.56900 28.91900
C  23.79200 51.56600 29.58700
C  24.34400 52.66200 30.34200
O  25.01000 53.53500 29.82900
O  23.96700 52.56400 31.65100
C  24.64300 53.29600 32.66900
H  30.02000 48.68800 29.09900
H  29.15400 48.21000 22.63600
H  23.67500 51.29400 23.15400
H  26.41500 51.12500 31.20100
H  28.57900 49.26100 31.11600
H  29.51100 51.44600 29.78000
H  29.64000 50.97400 31.45900
H  28.37700 52.10800 31.07900
H  26.67600 48.22400 31.60500
H  25.20300 48.63200 30.77900
H  24.74200 48.46900 33.09300
H  24.68000 50.18200 32.47000
H  32.65800 48.14600 27.19300
H  32.04800 46.39800 27.01900
H  31.59200 47.63100 28.33600
H  32.93600 46.55800 25.06100
H  33.45900 48.29100 25.00400
H  33.57900 47.24600 23.56800
H  26.81800 48.36500 21.21100
H  25.34800 50.91700 21.26200
H  28.83000 50.30000 21.14700
H  27.37400 51.26400 20.67500
H  27.77800 49.65900 19.86400
H  24.36200 48.38000 22.37900
H  24.77500 48.27800 20.66500
H  22.30500 49.59800 21.74500
H  22.53800 49.03300 20.13900
H  23.15500 50.53000 20.42100
H  22.23100 53.59900 25.38400
H  20.98600 52.53300 25.81300
H  21.77600 52.29400 24.18300
H  23.36700 50.79700 30.23200
H  23.88900 53.99300 33.03300
H  25.55400 53.77400 32.30900
H  24.85400 52.59400 33.47700

