158

Mg 43.19900 41.55100 26.74500
C  42.36300 43.66800 29.46400
C  44.40000 39.29900 28.84700
C  44.21700 39.77800 24.05700
C  42.76800 44.30400 24.64500
N  43.32400 41.58800 28.90500
C  42.86900 42.43400 29.81000
C  42.98500 41.87000 31.19500
C  43.71100 40.49000 31.04100
C  43.81500 40.40200 29.47700
C  45.13900 40.28400 31.68200
C  41.52600 41.84500 31.95200
C  41.43400 42.64000 33.24000
H  40.90200 42.03900 34.61400
N  44.10000 39.76300 26.46400
C  44.40700 38.91300 27.49900
C  44.87400 37.63600 26.96000
C  44.79700 37.75600 25.58800
C  44.37300 39.11400 25.27900
C  45.45300 36.53700 27.83100
C  45.18300 36.74600 24.53900
O  45.32800 37.02500 23.34200
C  45.66200 35.28300 24.87700
N  43.80600 42.06800 24.60900
C  43.94900 41.09400 23.72000
C  43.89100 41.66300 22.23400
C  43.28200 43.06300 22.47600
C  43.30600 43.17300 23.99300
C  45.28800 41.83700 21.36200
C  41.92200 43.40200 21.81400
C  41.67300 44.89400 21.55800
N  42.55500 43.53100 26.90000
C  42.38200 44.52700 25.95200
C  41.71800 45.74400 26.53800
C  41.71500 45.41400 27.93100
C  42.28900 44.10300 28.10300
C  41.45400 47.07000 25.89200
C  41.51400 45.88200 29.26900
O  41.14800 46.98900 29.60100
C  41.91000 44.81500 30.26700
C  43.00000 45.42900 31.11100
O  44.16300 45.57600 30.74300
O  42.43400 45.77700 32.31300
C  43.43300 46.07200 33.32300
H  44.70600 38.58300 29.61300
H  44.24000 39.14300 23.17000
H  42.52900 45.15400 24.00300
H  43.67300 42.47000 31.79100
H  43.08500 39.68400 31.42200
H  45.89300 40.13300 30.90900
H  44.94800 39.33700 32.18600
H  45.46400 41.02000 32.41700
H  41.25400 40.79400 32.05200
H  40.78100 42.19200 31.23600
H  40.85800 43.52700 32.97600
H  42.43100 42.99400 33.50100
H  45.35400 36.66900 28.90800
H  46.52700 36.41500 27.68600
H  44.93300 35.61500 27.57100
H  46.13800 35.32700 25.85600
H  46.37400 34.93200 24.12900
H  44.82000 34.59400 24.93100
H  43.18900 41.05500 21.66300
H  43.94300 43.84500 22.10200
H  46.05900 41.42200 22.01200
H  45.52200 42.90100 21.32800
H  45.47300 41.30400 20.42900
H  41.18100 43.04500 22.53000
H  41.74400 42.81000 20.91600
H  41.31300 44.98500 20.53300
H  42.55800 45.49200 21.77600
H  40.84600 45.25400 22.17000
H  42.07100 47.13800 24.99700
H  41.59600 47.87900 26.60900
H  40.42500 47.01700 25.53600
H  41.02800 44.52800 30.83900
H  44.12900 45.24800 33.16600
H  43.00000 46.10900 34.32300
H  43.84800 47.07900 33.38400
Mg 4.76900 53.84000 41.30800
C  4.46600 50.40900 40.90600
C  7.57600 53.92900 39.55500
C  4.57000 57.24500 41.41900
C  1.43000 53.76400 42.86600
N  5.86900 52.39100 40.41800
C  5.56300 51.01600 40.29200
C  6.64300 50.28200 39.43100
C  7.78300 51.35200 39.31500
C  7.02900 52.66000 39.77400
C  9.00800 51.04200 40.29100
C  6.09200 49.96400 38.01100
C  6.83100 48.90100 37.29500
H  6.28900 48.26600 35.98900
N  5.93900 55.39800 40.62400
C  7.10900 55.21600 40.02800
C  7.80400 56.50500 39.95200
C  6.95900 57.39400 40.55400
C  5.73300 56.71600 40.92900
C  9.10500 56.81100 39.34900
C  7.23400 58.91100 40.48400
O  8.17200 59.41200 39.92300
C  6.30200 59.87300 41.11400
N  3.14300 55.25700 41.82400
C  3.37700 56.60200 41.79300
C  2.12900 57.36100 42.27700
C  1.15600 56.29100 42.80200
C  1.98500 55.00100 42.52500
C  2.46700 58.55700 43.28500
C  -0.19600 56.20700 42.24000
C  -1.19300 55.94300 43.38200
N  3.13600 52.38600 41.81700
C  2.01200 52.48500 42.58300
C  1.51400 51.17000 42.93500
C  2.43100 50.27600 42.29400
C  3.41100 51.08600 41.64400
C  0.35500 50.82600 43.79600
C  2.83000 48.91500 42.00700
O  2.31600 47.87300 42.36900
C  4.10600 48.96400 41.08400
C  3.78000 48.15600 39.90200
O  2.94200 48.48000 39.06000
O  4.57200 46.97900 39.84600
C  4.46000 46.18300 38.61000
H  8.58900 53.87600 39.15200
H  4.50800 58.32500 41.56500
H  0.44000 53.74700 43.32500
H  7.00500 49.39400 39.95000
H  8.15000 51.41000 38.29100
H  8.92600 50.01100 40.63500
H  8.95500 51.75600 41.11400
H  9.95900 51.05100 39.75900
H  6.12100 50.79700 37.30800
H  5.07200 49.58000 38.02900
H  7.19100 48.11300 37.95700
H  7.74600 49.39800 36.97600
H  9.42600 55.91100 38.82500
H  9.78300 56.97500 40.18700
H  9.14300 57.66400 38.67200
H  6.74500 60.83900 41.35700
H  6.04900 59.37500 42.05000
H  5.50100 60.00600 40.38700
H  1.72800 57.95200 41.45300
H  1.19000 56.44500 43.88100
H  2.55000 59.46900 42.69400
H  3.36600 58.40100 43.88100
H  1.56400 58.67300 43.88400
H  -0.46100 55.40200 41.55500
H  -0.37200 57.20000 41.82600
H  -1.48300 56.93500 43.72800
H  -0.89000 55.30100 44.20900
H  -2.11000 55.51200 42.98100
H  -0.17500 50.14100 43.13500
H  -0.27800 51.66500 44.08700
H  0.70400 50.21900 44.63200
H  5.00500 48.48900 41.47500
H  4.12200 46.81800 37.79100
H  3.81400 45.31800 38.76300
H  5.45100 45.82100 38.33700

