158

Mg 35.41400 2.72400 30.04300
C  32.90600 3.89300 32.19700
C  37.55700 2.76700 32.71800
C  37.95500 1.95300 27.99500
C  33.26500 2.99000 27.29000
N  35.27500 3.50600 32.12200
C  34.10100 3.71500 32.83300
C  34.37100 3.64300 34.33900
C  35.90100 3.72000 34.39300
C  36.27900 3.25600 33.00400
C  36.46600 5.16500 34.75800
C  33.71900 2.46700 34.97000
C  33.07600 2.69700 36.37200
H  33.66700 3.79900 37.29800
N  37.47100 2.50600 30.27400
C  38.09000 2.49400 31.46500
C  39.48300 2.13800 31.27100
C  39.68400 1.97800 29.88700
C  38.35700 2.14000 29.28500
C  40.49400 1.92300 32.41800
C  40.99200 1.56700 29.19300
O  41.11200 1.44700 27.97700
C  42.20500 1.23300 29.98800
N  35.62900 2.43600 27.99000
C  36.74500 1.95500 27.38100
C  36.46900 1.72000 25.89500
C  34.99600 2.10600 25.68600
C  34.59900 2.61200 27.10300
C  37.48000 2.41100 24.92500
C  34.14200 1.01900 24.93000
C  33.84600 -0.28600 25.72900
N  33.49100 3.31900 29.73400
C  32.74900 3.36200 28.54100
C  31.37400 3.82700 28.94200
C  31.35600 3.94600 30.35900
C  32.66700 3.77000 30.78800
C  30.13300 4.03100 28.02000
C  30.57400 4.24000 31.49800
O  29.41700 4.59900 31.51900
C  31.51700 4.21100 32.75000
C  31.56400 5.54400 33.47500
O  31.90700 6.61300 32.96300
O  31.16700 5.33200 34.75700
C  31.08400 6.49600 35.64300
H  38.24200 2.73100 33.56800
H  38.77900 1.72400 27.31600
H  32.62000 3.10700 26.41700
H  33.90800 4.57900 34.65100
H  36.36100 2.96900 35.03600
H  35.63300 5.85600 34.88200
H  36.94500 5.46200 33.82600
H  37.03800 5.15000 35.68600
H  34.48300 1.69700 35.07300
H  32.95200 2.16100 34.25900
H  33.01900 1.80500 36.99600
H  32.03300 3.00800 36.30600
H  41.53400 2.06600 32.12300
H  40.41500 0.87300 32.70000
H  40.34000 2.58800 33.26700
H  42.56300 2.22600 30.26000
H  42.95000 0.71900 29.38100
H  41.90500 0.55600 30.78800
H  36.58000 0.66400 25.64700
H  34.94900 2.96700 25.02000
H  37.03400 3.05200 24.16400
H  38.04800 1.59900 24.47200
H  38.21400 3.03200 25.43900
H  34.76900 0.71300 24.09200
H  33.20700 1.40900 24.52800
H  34.49500 -0.46500 26.58600
H  34.21200 -1.09300 25.09500
H  32.78100 -0.33600 25.95700
H  30.26200 4.89900 27.37400
H  29.29800 4.16300 28.70800
H  29.86900 3.13900 27.45200
H  31.27100 3.38700 33.42000
H  31.83500 7.21700 35.32100
H  31.29200 6.07500 36.62700
H  30.08800 6.92400 35.53800
Mg 49.83500 45.59000 41.30400
C  46.64400 46.16400 40.07500
C  49.55600 42.28100 40.23700
C  53.18800 45.21200 41.73000
C  50.21400 49.03700 41.76100
N  48.31200 44.39700 40.13800
C  47.02100 44.84500 39.88400
C  46.23500 43.75300 39.11900
C  47.16900 42.42100 39.29100
C  48.40200 43.02500 40.03800
C  46.60400 41.19500 40.02700
C  46.09200 44.28500 37.67500
C  44.74800 44.25800 37.08000
H  44.52300 44.27400 35.56000
N  51.15400 43.95900 41.16600
C  50.80500 42.66000 40.78900
C  51.90200 41.74600 41.03700
C  53.02300 42.57500 41.49200
C  52.52400 44.01200 41.46000
C  51.79800 40.29400 40.83700
C  54.46100 42.14000 41.80200
O  54.78700 40.92500 41.73200
C  55.46400 43.11400 42.27000
N  51.53400 46.95900 41.63000
C  52.77400 46.52000 41.84400
C  53.76300 47.67200 42.05000
C  52.77200 48.82500 42.25500
C  51.38700 48.24900 41.83400
C  54.92900 47.56300 43.07900
C  53.15500 50.08400 41.38500
C  53.08900 51.34700 42.18700
N  48.68800 47.28800 41.04600
C  48.92200 48.58100 41.32200
C  47.73000 49.41800 41.00100
C  46.90800 48.51200 40.47800
C  47.47800 47.17500 40.61300
C  47.61600 50.85300 41.07400
C  45.61800 48.41700 39.82900
O  44.78300 49.24900 39.46800
C  45.32700 46.86800 39.61700
C  44.03100 46.57500 40.35900
O  43.05500 46.20600 39.75500
O  44.19100 46.59600 41.70200
C  43.19600 45.87400 42.42800
H  49.42300 41.22700 39.98500
H  54.27400 45.22800 41.83800
H  50.44700 50.06800 42.03200
H  45.27500 43.63600 39.62200
H  47.53600 42.03100 38.34200
H  45.51600 41.25600 40.03600
H  47.00200 41.11200 41.03900
H  46.86600 40.24800 39.55500
H  46.77300 43.62100 37.14200
H  46.33800 45.34600 37.63900
H  44.06700 45.02800 37.44100
H  44.21300 43.36000 37.39100
H  52.20400 39.95500 39.88400
H  50.78400 39.95100 41.04000
H  52.31900 39.83800 41.67900
H  54.99600 43.72300 43.04300
H  55.87900 43.64800 41.41500
H  56.32600 42.63800 42.73800
H  54.26300 47.85500 41.10000
H  52.72300 49.08400 43.31300
H  54.80300 46.62300 43.61600
H  54.98900 48.34700 43.83500
H  55.86100 47.65700 42.52100
H  52.40800 50.24700 40.60800
H  54.14000 49.97600 40.93200
H  54.06100 51.83700 42.12000
H  52.89800 51.18000 43.24600
H  52.37800 52.03500 41.73000
H  46.61200 51.11500 41.40800
H  47.73200 51.31900 40.09500
H  48.33400 51.27200 41.77900
H  45.12300 46.69900 38.56000
H  42.93000 45.00200 41.83000
H  42.27300 46.44100 42.55000
H  43.60100 45.68400 43.42200

