158

Mg 54.64900 24.58600 45.02100
C  51.83000 26.47900 44.03300
C  52.91800 21.80900 43.77400
C  57.47100 22.73200 45.16900
C  56.36600 27.41900 45.76700
N  52.68600 24.26200 43.91600
C  51.64100 25.13900 43.69400
C  50.36900 24.45200 43.18900
C  50.72500 22.92600 43.45600
C  52.26700 23.04000 43.67600
C  49.86100 22.28600 44.54600
C  50.00900 24.76400 41.73100
C  48.53000 24.67400 41.52700
H  48.17800 24.38400 40.09200
N  55.18400 22.52300 44.63800
C  54.23900 21.54800 44.17200
C  54.86600 20.29500 44.18000
C  56.27700 20.45200 44.43000
C  56.36300 21.93900 44.81800
C  54.06800 19.04000 44.03400
C  57.27500 19.43300 44.40300
O  57.04500 18.35000 43.92500
C  58.65600 19.71200 44.93400
N  56.62300 25.05400 45.19900
C  57.63500 24.13100 45.33400
C  59.00800 24.76100 45.72600
C  58.56800 26.20900 46.03800
C  57.07200 26.26600 45.61600
C  59.69400 23.95900 46.93300
C  59.38600 27.25700 45.20600
C  59.94500 28.40200 46.05600
N  54.17200 26.53700 45.16600
C  54.96400 27.59600 45.50100
C  54.15800 28.81200 45.58000
C  52.90500 28.36700 45.06100
C  52.96600 27.01100 44.74900
C  54.65000 30.11900 45.96900
C  51.60700 28.90200 44.61300
O  51.23400 30.06800 44.61300
C  50.94100 27.68000 43.90800
C  50.70800 28.13600 42.53700
O  51.57400 28.32200 41.66100
O  49.38000 28.44400 42.36200
C  48.98900 28.93200 41.06000
H  52.27900 20.93900 43.61300
H  58.44600 22.24800 45.25300
H  56.99500 28.30800 45.84400
H  49.47200 24.85200 43.66200
H  50.70500 22.36600 42.52000
H  49.37100 21.45000 44.04700
H  49.03000 22.84900 44.97200
H  50.54100 21.98000 45.34100
H  50.48800 23.96200 41.16900
H  50.25100 25.78700 41.44400
H  48.28100 25.71700 41.72600
H  48.01700 24.03300 42.24300
H  53.44100 19.02000 43.14300
H  53.29400 18.98800 44.79900
H  54.55800 18.07500 44.16600
H  59.05500 20.46000 44.24900
H  59.13300 18.73200 44.90600
H  58.63100 20.07200 45.96300
H  59.55100 24.70100 44.78300
H  58.63900 26.28000 47.12400
H  60.58200 23.46300 46.54200
H  58.96800 23.26700 47.36000
H  60.07500 24.60100 47.72700
H  58.73400 27.83100 44.54700
H  60.11600 26.76400 44.56400
H  59.66900 28.26200 47.10100
H  59.63900 29.38800 45.70800
H  61.02500 28.29300 45.96300
H  55.65200 30.30200 45.57900
H  54.67800 30.24800 47.05100
H  54.01700 30.90800 45.56200
H  49.96600 27.43700 44.33000
H  48.09900 29.55300 40.95700
H  48.71200 28.02600 40.52000
H  49.81500 29.32800 40.46900
Mg 47.50200 25.33900 28.20100
C  48.38200 27.58300 30.82400
C  46.77200 23.01300 30.65300
C  46.89200 23.11800 25.83300
C  48.62400 27.60300 25.91700
N  47.61800 25.31300 30.54500
C  47.87700 26.37100 31.36800
C  47.65000 26.04900 32.90100
C  47.36900 24.47100 32.80700
C  47.25200 24.20100 31.25100
C  48.53000 23.63200 33.37200
C  46.53900 26.92800 33.55800
C  45.81600 26.35900 34.76200
H  45.45600 27.35900 35.92000
N  46.79200 23.38400 28.26400
C  46.50700 22.59200 29.33400
C  46.09000 21.29300 28.92500
C  46.01300 21.35600 27.42400
C  46.50400 22.69300 27.10600
C  45.67900 20.22900 29.91100
C  45.47400 20.41200 26.40100
O  45.30300 20.74900 25.23900
C  45.16100 19.00400 26.86100
N  47.70200 25.39500 26.13700
C  47.49300 24.27400 25.34800
C  47.99200 24.45000 23.90500
C  48.40500 25.95500 23.86100
C  48.20000 26.36500 25.37000
C  49.04800 23.43400 23.55300
C  47.50300 26.84000 22.92700
C  48.13800 27.74800 21.92800
N  48.21300 27.29100 28.27500
C  48.63900 28.11700 27.24400
C  49.18200 29.37900 27.77300
C  49.04900 29.22100 29.18300
C  48.55000 27.91800 29.40000
C  49.73200 30.54900 26.94700
C  49.27500 29.87000 30.46900
O  49.68400 30.99800 30.68800
C  48.86300 28.80600 31.53500
C  50.04800 28.49900 32.46300
O  51.05800 27.93100 32.16500
O  49.69400 28.86700 33.75400
C  50.54900 28.26100 34.76400
H  46.52800 22.26900 31.41400
H  46.81800 22.41700 24.99900
H  48.98900 28.23400 25.10400
H  48.60200 26.21900 33.40300
H  46.35000 24.27000 33.13800
H  49.02300 23.04600 32.59600
H  48.05700 22.91500 34.04200
H  49.18200 24.35300 33.86500
H  45.84700 27.09100 32.73200
H  47.01900 27.85600 33.86700
H  46.24700 25.45000 35.18200
H  44.92400 25.85400 34.39200
H  46.42200 19.44000 30.02000
H  44.76800 19.78200 29.51300
H  45.48600 20.56700 30.92900
H  44.83100 18.46000 25.97700
H  44.43100 18.91900 27.66500
H  46.06400 18.57900 27.30100
H  47.08700 24.27800 23.32300
H  49.43400 26.19600 23.59700
H  49.97800 23.96000 23.76900
H  49.07300 23.32600 22.46800
H  49.00800 22.43400 23.98400
H  46.94200 27.53300 23.55400
H  46.64100 26.36400 22.45900
H  47.67800 27.66400 20.94300
H  49.21000 27.57800 21.82000
H  47.98300 28.76300 22.29300
H  49.51500 30.45200 25.88300
H  50.79700 30.65300 27.15700
H  49.27400 31.43400 27.38900
H  47.94200 29.02500 32.07500
H  51.39300 28.88500 35.06100
H  50.90800 27.25100 34.56800
H  49.88500 28.13200 35.61900

