158

Mg 46.28300 24.27300 28.58400
C  46.68200 26.89200 30.93200
C  45.46600 22.11800 31.10300
C  46.19000 21.91600 26.39300
C  47.95700 26.42100 26.19000
N  46.23100 24.53400 30.68300
C  46.32700 25.69200 31.45600
C  46.03600 25.41700 32.91500
C  46.00400 23.82900 33.01200
C  45.84000 23.44000 31.52100
C  47.09700 23.15200 33.87300
C  44.74000 26.10800 33.41400
C  44.92400 26.86200 34.85700
H  44.09300 26.60000 36.07700
N  45.75100 22.29600 28.69500
C  45.43500 21.57500 29.82600
C  45.09000 20.23200 29.43800
C  45.26400 20.20300 28.07700
C  45.74900 21.48800 27.62100
C  44.68200 19.11000 30.39900
C  44.95100 19.09400 27.15100
O  45.23400 19.10000 25.92400
C  44.12200 17.88900 27.62900
N  47.10700 24.19900 26.61300
C  46.83900 23.05800 25.90300
C  47.39800 23.10700 24.50300
C  47.80600 24.54500 24.33700
C  47.67700 25.11600 25.80900
C  48.45800 22.01700 24.14000
C  47.00200 25.34300 23.28100
C  45.60700 25.94600 23.54500
N  47.00400 26.34300 28.43400
C  47.69800 27.03300 27.42900
C  47.80200 28.41700 27.90600
C  47.59200 28.40300 29.30500
C  47.12000 27.11000 29.59500
C  48.27300 29.61300 27.07100
C  47.68700 29.10700 30.59700
O  47.94900 30.25800 30.69200
C  47.22400 28.08700 31.72100
C  48.43900 27.81600 32.49000
O  49.52400 27.40400 32.00200
O  48.25400 28.02700 33.84600
C  49.39800 27.79300 34.71000
H  45.32600 21.48100 31.97900
H  46.29200 21.10300 25.67100
H  48.48200 27.11800 25.53300
H  46.97500 25.72200 33.37800
H  45.09800 23.51700 33.53200
H  47.37700 22.21200 33.39700
H  46.57800 22.90900 34.80100
H  47.90700 23.85200 34.07600
H  43.92800 25.41900 33.64700
H  44.32600 26.83900 32.71900
H  44.80300 27.90700 34.57200
H  45.89900 26.60300 35.26800
H  43.66900 18.80400 30.13700
H  44.82500 19.34800 31.45400
H  45.24900 18.22800 30.10100
H  44.57300 17.41900 28.50300
H  44.04900 17.19100 26.79500
H  43.06300 18.12600 27.73400
H  46.52200 22.91800 23.88200
H  48.86300 24.58800 24.07400
H  48.69900 21.39700 25.00300
H  49.45500 22.39800 23.92300
H  48.06000 21.41700 23.32200
H  46.82400 24.61000 22.49400
H  47.62400 26.14200 22.87800
H  45.02600 25.33100 24.23200
H  44.98200 25.90200 22.65300
H  45.55000 26.99600 23.83400
H  48.03000 30.59500 27.47700
H  48.00600 29.54600 26.01600
H  49.35200 29.53400 27.20500
H  46.47300 28.59200 32.32800
H  50.25400 27.32000 34.23000
H  49.04100 27.25100 35.58600
H  49.70200 28.76800 35.09300
Mg -1.30900 34.53600 26.71100
C  -3.02000 32.75700 29.31600
C  -0.29400 36.73200 28.95800
C  -0.26800 36.39200 24.24700
C  -2.94900 32.32400 24.45900
N  -1.75300 34.71100 28.91200
C  -2.31100 33.82400 29.80600
C  -2.09400 34.19900 31.31600
C  -1.27300 35.58700 31.05100
C  -1.00400 35.68700 29.56200
C  -1.93600 36.91300 31.54200
C  -1.33300 33.11900 32.12000
C  -2.17200 32.49300 33.28700
H  -1.43700 32.24200 34.63600
N  -0.30500 36.28500 26.58800
C  0.05700 37.05200 27.64400
C  0.88800 38.12800 27.21400
C  0.99000 38.03600 25.78700
C  0.12200 36.88200 25.46100
C  1.53800 39.20800 28.10600
C  1.70300 38.86500 24.81500
O  1.72200 38.73000 23.59600
C  2.62400 39.95700 25.21500
N  -1.61800 34.33400 24.65000
C  -0.98400 35.21000 23.85700
C  -1.12600 34.80200 22.34300
C  -1.80900 33.38100 22.42300
C  -2.15900 33.33100 23.90900
C  -1.89300 35.85400 21.39800
C  -1.01100 32.14900 21.87100
C  0.36600 32.02300 22.50100
N  -2.68100 32.79500 26.84200
C  -3.25600 32.08600 25.85000
C  -4.20600 31.08100 26.42100
C  -4.06100 31.27700 27.82400
C  -3.11900 32.28700 28.02200
C  -5.04600 29.98500 25.77200
C  -4.48600 30.80900 29.09200
O  -5.28100 29.91700 29.46900
C  -3.93200 31.76000 30.14600
C  -4.98000 32.36700 30.95400
O  -5.62400 33.40400 30.62600
O  -5.12900 31.70600 32.17800
C  -5.69100 32.47900 33.24400
H  0.14900 37.45400 29.64600
H  0.12100 36.94300 23.38900
H  -3.19200 31.43700 23.87100
H  -3.05900 34.41700 31.77400
H  -0.29600 35.51400 31.53000
H  -1.35400 37.41500 32.31500
H  -2.87900 36.53700 31.93700
H  -2.15800 37.59200 30.71900
H  -0.47700 33.61700 32.57600
H  -0.83500 32.41800 31.45000
H  -2.55800 31.51600 32.99500
H  -2.99700 33.14600 33.57300
H  1.07000 40.13900 27.78700
H  2.61100 39.24400 27.91900
H  1.37800 39.00200 29.16500
H  3.09700 40.23800 24.27400
H  3.36500 39.52500 25.88800
H  2.14200 40.70200 25.84800
H  -0.11800 34.64700 21.95900
H  -2.74500 33.16300 21.90900
H  -1.18000 36.26500 20.68300
H  -2.26900 36.73600 21.91600
H  -2.79800 35.46700 20.92800
H  -0.99000 32.19200 20.78200
H  -1.50300 31.18300 21.98300
H  1.17000 32.56000 21.99700
H  0.71200 30.99400 22.59000
H  0.21900 32.36000 23.52700
H  -5.98200 30.08400 26.32200
H  -4.67000 28.97600 25.94200
H  -5.15300 30.16200 24.70200
H  -3.29000 31.23600 30.85400
H  -6.21000 31.79300 33.91300
H  -6.46100 33.19100 32.94700
H  -5.01100 33.06800 33.86100

