158

Mg 1.87300 -1.96500 44.66900
C  5.33500 -1.23400 44.22300
C  1.31100 0.97300 42.87500
C  -1.26800 -2.81300 44.53400
C  2.83900 -5.22700 45.52200
N  3.17800 -0.35100 43.75600
C  4.50800 -0.29800 43.62100
C  4.97900 0.89600 42.76000
C  3.73100 1.79700 42.80600
C  2.64300 0.78600 43.20700
C  3.83800 3.05100 43.70500
C  5.51500 0.49200 41.35700
C  6.59600 1.26600 40.72800
H  6.36900 1.89200 39.33700
N  0.23400 -0.94100 43.92100
C  0.20000 0.20400 43.13100
C  -1.13900 0.45500 42.69500
C  -1.90000 -0.62400 43.17900
C  -0.99200 -1.54400 43.95800
C  -1.51900 1.64900 41.89800
C  -3.40400 -0.60100 43.23800
O  -3.97300 0.19000 42.54700
C  -4.25500 -1.47900 44.05900
N  0.96700 -3.84300 44.80500
C  -0.39800 -3.84400 44.88200
C  -0.85900 -5.21500 45.52500
C  0.46500 -6.01700 45.81500
C  1.50300 -5.02100 45.35200
C  -1.78400 -5.10000 46.76200
C  0.55900 -7.43100 45.02100
C  0.37000 -8.65900 45.90000
N  3.63100 -3.05400 44.93500
C  3.90000 -4.31300 45.31700
C  5.28500 -4.47500 45.61200
C  5.88400 -3.23800 45.24400
C  4.83700 -2.42700 44.81100
C  5.96400 -5.76100 46.12400
C  7.15100 -2.48900 45.22300
O  8.27000 -2.80600 45.65300
C  6.78900 -1.18000 44.47100
C  7.33800 0.07300 45.17000
O  7.19900 0.41000 46.35000
O  7.91400 0.76100 44.18500
C  8.47200 2.07700 44.43300
H  1.27500 1.85500 42.23300
H  -2.31700 -3.08400 44.67100
H  3.16500 -6.13100 46.04000
H  5.80500 1.44400 43.21200
H  3.64900 2.26000 41.82300
H  2.82100 3.24100 44.04900
H  4.11500 3.96700 43.18300
H  4.59200 2.95600 44.48700
H  4.68300 0.60200 40.66200
H  5.93900 -0.51000 41.43100
H  7.35200 0.50500 40.53500
H  6.90700 2.04400 41.42600
H  -0.71900 2.37300 41.74000
H  -2.28200 2.09300 42.53900
H  -1.76400 1.36300 40.87600
H  -4.27900 -2.50400 43.69000
H  -5.26300 -1.10000 44.22500
H  -3.95600 -1.50700 45.10600
H  -1.37500 -5.68800 44.69000
H  0.53700 -6.11400 46.89900
H  -2.76300 -5.39500 46.38500
H  -1.83400 -4.07900 47.14200
H  -1.46700 -5.75500 47.57400
H  1.54300 -7.58500 44.57800
H  -0.14600 -7.45600 44.19000
H  1.26700 -9.27300 45.98300
H  -0.59600 -9.13200 45.72600
H  0.16800 -8.31000 46.91200
H  6.49200 -5.48800 47.03800
H  6.54800 -6.19900 45.31500
H  5.15500 -6.44600 46.37800
H  7.32100 -1.29800 43.52700
H  7.59300 2.70700 44.56600
H  8.98600 2.39800 43.52700
H  9.19200 2.16100 45.24700
Mg -0.00200 7.91900 26.83800
C  1.07200 9.91800 29.47500
C  -0.16100 5.24100 29.03700
C  -0.55700 6.00400 24.14700
C  0.31400 10.72100 24.74800
N  0.50600 7.64500 28.91100
C  0.84300 8.57900 29.89200
C  0.78700 8.05200 31.38600
C  0.34500 6.61400 31.13500
C  0.26000 6.46900 29.60900
C  1.32000 5.52600 31.78800
C  -0.08000 8.80900 32.37300
C  0.38500 8.73900 33.86200
H  -0.44100 8.02400 34.88900
N  -0.23300 5.90400 26.64100
C  -0.31700 5.00800 27.64400
C  -0.71700 3.73200 26.98600
C  -0.67000 3.86700 25.57600
C  -0.45500 5.33800 25.41200
C  -1.00300 2.56100 27.83900
C  -0.96700 2.84400 24.43900
O  -0.99300 3.02200 23.23600
C  -1.15500 1.36900 24.84400
N  -0.02900 8.28700 24.77100
C  -0.33600 7.33400 23.84400
C  -0.56900 7.93200 22.46900
C  -0.61000 9.47700 22.76700
C  -0.10300 9.51900 24.15700
C  0.45500 7.42600 21.45800
C  -2.05000 10.09900 22.76600
C  -2.72600 10.34700 21.36900
N  0.43700 9.96000 27.01200
C  0.62900 10.95500 26.08200
C  1.09800 12.21700 26.71200
C  1.30700 11.76500 28.05100
C  0.96400 10.43700 28.15800
C  1.29900 13.45800 26.02200
C  1.77800 12.24700 29.30600
O  2.22500 13.31100 29.63600
C  1.52700 11.12000 30.27900
C  2.73900 10.82800 31.10100
O  3.76500 10.24400 30.76800
O  2.48300 11.39900 32.31300
C  3.67600 11.34900 33.27300
H  -0.31600 4.44700 29.77000
H  -0.77600 5.42700 23.24700
H  0.35000 11.59600 24.09600
H  1.80300 8.01400 31.78000
H  -0.68200 6.40500 31.43800
H  0.80800 4.62100 32.11500
H  1.69800 5.86400 32.75300
H  2.12000 5.08700 31.19100
H  -1.05800 8.35100 32.22400
H  -0.16600 9.86800 32.13000
H  0.67400 9.73500 34.20000
H  1.39100 8.34300 34.00100
H  -0.28700 1.75000 27.70900
H  -1.94200 2.13200 27.48900
H  -1.29800 2.71100 28.87700
H  -0.27600 1.11200 25.43500
H  -1.50100 0.52000 24.25400
H  -2.07400 1.52800 25.40900
H  -1.55300 7.63900 22.10300
H  0.03800 10.18600 22.25200
H  0.63400 8.05800 20.58900
H  0.12900 6.54600 20.90500
H  1.41200 7.15600 21.90400
H  -2.01800 11.10300 23.18900
H  -2.71000 9.60000 23.47600
H  -2.17000 9.89400 20.54800
H  -2.81100 11.43100 21.30300
H  -3.68900 9.83600 21.34900
H  0.48400 14.17700 26.10600
H  1.47600 13.46600 24.94600
H  2.14500 13.92700 26.52400
H  0.71200 11.51300 30.88700
H  4.62100 11.52000 32.75700
H  3.69400 10.37200 33.75500
H  3.60400 12.19300 33.95900

