158

Mg 35.01900 3.44100 29.28700
C  33.05700 4.11200 31.99500
C  37.82700 3.48600 31.48200
C  36.94500 2.71200 26.74000
C  32.21900 3.75100 27.10000
N  35.38900 3.68700 31.43200
C  34.40500 3.94900 32.36500
C  34.91400 3.85800 33.78800
C  36.48300 3.90500 33.54400
C  36.62700 3.73000 32.11600
C  37.22700 5.26600 34.03000
C  34.50900 2.55500 34.52000
C  34.35600 2.71100 36.06600
H  35.06200 3.83100 36.85700
N  37.01100 3.03800 29.15400
C  37.97900 3.03500 30.16000
C  39.26300 2.51200 29.65000
C  38.99600 2.27300 28.28000
C  37.59500 2.67900 27.96200
C  40.40900 2.29500 30.57000
C  39.90600 1.61800 27.23600
O  39.64900 1.47100 26.04400
C  41.21600 1.12800 27.68800
N  34.63500 3.15700 27.20800
C  35.66800 2.98100 26.34900
C  35.11900 2.76000 24.89600
C  33.59400 2.99000 25.13200
C  33.42900 3.34700 26.56200
C  35.84000 3.53000 23.72800
C  32.57300 1.87400 24.62000
C  32.56300 0.57600 25.42900
N  32.98500 3.80100 29.44100
C  32.03100 3.98000 28.47400
C  30.76800 4.23000 29.16100
C  31.17600 4.34100 30.58200
C  32.49900 4.03100 30.69200
C  29.40100 4.34100 28.53500
C  30.61400 4.58400 31.89500
O  29.48800 4.89800 32.23300
C  31.86600 4.36200 32.93700
C  31.92300 5.52900 33.78600
O  32.32000 6.60200 33.46700
O  31.35500 5.22600 35.02000
C  31.09900 6.32400 36.00400
H  38.69600 3.42400 32.14000
H  37.65800 2.53800 25.93000
H  31.28900 3.86400 26.53900
H  34.57700 4.77300 34.27600
H  36.97600 3.13700 34.14100
H  37.88000 5.10200 34.88800
H  36.54100 6.08500 34.24600
H  37.66500 5.72600 33.14400
H  35.26000 1.78200 34.35200
H  33.56800 2.13600 34.16400
H  34.58500 1.76800 36.56200
H  33.33100 2.83500 36.41300
H  40.06900 1.60400 31.34100
H  40.57400 3.27800 31.01300
H  41.37500 2.03100 30.13900
H  42.05800 1.81600 27.76800
H  41.57200 0.34100 27.02400
H  41.08100 0.60700 28.63600
H  35.29800 1.71100 24.66000
H  33.28200 3.87900 24.58600
H  35.92000 2.78100 22.94000
H  36.77900 3.91600 24.12400
H  35.15000 4.34300 23.50100
H  32.90400 1.72800 23.59200
H  31.62700 2.40700 24.52800
H  32.66800 -0.11900 24.59500
H  31.57000 0.37800 25.83200
H  33.28500 0.43200 26.23300
H  29.32700 3.75600 27.61900
H  28.96200 5.31500 28.32100
H  28.69500 3.98500 29.28600
H  31.58100 3.47200 33.50000
H  30.70500 5.86200 36.90900
H  30.42300 7.08500 35.61400
H  31.93400 6.91800 36.37700
Mg 10.65700 47.09100 25.95100
C  8.42400 47.49200 28.57500
C  13.03400 48.55200 27.92700
C  12.79600 46.71800 23.43800
C  7.95200 46.18700 23.85700
N  10.66400 47.95100 28.02400
C  9.73500 47.84200 29.01800
C  10.32600 48.28900 30.34200
C  11.60600 49.06000 29.87200
C  11.79100 48.47100 28.50800
C  11.32900 50.54400 29.76000
C  10.54400 47.18100 31.32700
C  9.98300 47.58500 32.68600
H  9.95500 46.55700 33.81200
N  12.59700 47.51100 25.75500
C  13.44400 48.04500 26.67300
C  14.82100 47.92800 26.24300
C  14.77800 47.53700 24.93300
C  13.33000 47.23200 24.66100
C  15.94500 48.35600 27.16800
C  15.90900 47.42400 23.83700
O  15.70200 46.89000 22.76900
C  17.19400 48.00500 24.15400
N  10.32500 46.67500 23.88800
C  11.42100 46.49400 23.06200
C  10.95100 46.08200 21.68700
C  9.40900 45.75400 21.82500
C  9.22100 46.27400 23.26900
C  11.41900 46.99800 20.50800
C  9.05300 44.32700 21.40800
C  9.43100 43.12800 22.31400
N  8.58800 46.99200 26.06900
C  7.63600 46.56500 25.13400
C  6.34500 46.53400 25.75600
C  6.57500 46.82000 27.15900
C  7.98900 47.18100 27.25900
C  5.01200 46.06500 25.09400
C  5.99600 46.89600 28.46400
O  4.87900 46.72600 28.85100
C  7.16300 47.22500 29.47700
C  7.29100 46.08400 30.41300
O  8.04400 45.15600 30.21500
O  6.50400 46.20000 31.53900
C  6.53300 45.09100 32.49900
H  13.80800 49.04900 28.51700
H  13.43500 46.57500 22.56400
H  7.14300 45.91100 23.17800
H  9.66100 49.01900 30.80400
H  12.40400 48.96200 30.60800
H  10.26800 50.79000 29.74400
H  11.76500 50.91200 28.83100
H  11.74200 51.06800 30.62200
H  11.62900 47.10800 31.39500
H  9.98900 46.26300 31.13700
H  8.96300 47.94500 32.55200
H  10.57600 48.44700 32.99300
H  16.76200 47.65200 27.32800
H  15.56300 48.66300 28.14200
H  16.32200 49.24900 26.67000
H  17.77200 47.24800 24.68400
H  17.09900 48.89500 24.77600
H  17.65500 48.30100 23.21100
H  11.43900 45.13400 21.46100
H  8.88100 46.38400 21.10800
H  11.59100 47.99800 20.90700
H  10.57800 47.11300 19.82500
H  12.28000 46.68500 19.91800
H  9.44200 44.10500 20.41500
H  7.96500 44.37300 21.35800
H  9.51900 43.39500 23.36700
H  10.39900 42.78300 21.94900
H  8.68300 42.33900 22.23700
H  5.17000 45.44300 24.21300
H  4.50200 46.98700 24.81700
H  4.37500 45.48700 25.76300
H  7.06600 48.22100 29.90900
H  5.65200 44.48300 32.29400
H  6.51700 45.43600 33.53300
H  7.36300 44.39600 32.37800

