158

Mg 2.31900 -1.07800 44.78700
C  5.57700 -0.46700 43.94500
C  1.36800 1.57800 42.96800
C  -0.80200 -2.38300 44.91400
C  3.53600 -4.20100 46.23400
N  3.40700 0.32000 43.50000
C  4.73200 0.48600 43.40700
C  5.14500 1.65600 42.46700
C  3.80900 2.51900 42.50400
C  2.74900 1.44700 43.00900
C  3.86000 3.81500 43.40300
C  5.56700 1.30500 41.00300
C  6.63700 2.16700 40.51900
H  6.33200 3.05900 39.35300
N  0.45600 -0.39500 44.18000
C  0.29800 0.71700 43.41300
C  -1.10200 0.83000 43.23100
C  -1.79800 -0.25300 43.82400
C  -0.71900 -1.10600 44.35100
C  -1.75500 2.03500 42.50700
C  -3.27600 -0.39000 43.93900
O  -4.06300 0.36300 43.43000
C  -3.85000 -1.50700 44.71800
N  1.49600 -3.03000 45.49700
C  0.15500 -3.23700 45.48200
C  -0.09800 -4.70800 45.82800
C  1.21300 -5.21500 46.46300
C  2.15800 -4.09500 46.08600
C  -1.39900 -5.02200 46.72000
C  1.63500 -6.62200 45.95700
C  1.98200 -7.65700 47.02600
N  4.14000 -2.11800 45.10700
C  4.43300 -3.36900 45.73500
C  5.82800 -3.60800 45.71700
C  6.28300 -2.49800 45.01200
C  5.24600 -1.58300 44.69100
C  6.72400 -4.81100 46.19300
C  7.47800 -1.84700 44.53200
O  8.64500 -2.20900 44.63400
C  7.07300 -0.57200 43.80800
C  7.79000 0.63300 44.45400
O  7.88400 0.87900 45.65800
O  8.49500 1.32500 43.47400
C  9.23500 2.53700 43.91500
H  1.06900 2.45700 42.39400
H  -1.74900 -2.91100 44.78500
H  3.96400 -5.14100 46.58800
H  5.87000 2.29400 42.97200
H  3.38900 2.77800 41.53200
H  2.82500 4.00300 43.68900
H  4.24800 4.66900 42.84800
H  4.26900 3.59600 44.38900
H  4.80600 1.41600 40.23100
H  5.64600 0.22600 40.86800
H  7.35200 1.41600 40.18400
H  7.14600 2.71300 41.31200
H  -2.84100 1.96600 42.45700
H  -1.19500 2.09700 41.57400
H  -1.50400 2.87000 43.16200
H  -4.91900 -1.33000 44.83200
H  -3.41900 -1.54800 45.71900
H  -3.77400 -2.47600 44.22500
H  -0.14100 -5.23300 44.87400
H  1.08900 -5.15900 47.54500
H  -1.92000 -5.93500 46.43100
H  -2.02900 -4.13500 46.78300
H  -1.06600 -5.22800 47.73700
H  2.53200 -6.40600 45.37700
H  0.87800 -7.01800 45.28000
H  3.03500 -7.88000 47.19800
H  1.44100 -8.55100 46.71200
H  1.75200 -7.30500 48.03100
H  6.24300 -5.20000 47.09000
H  7.69100 -4.45700 46.55300
H  6.83200 -5.61100 45.46200
H  7.40300 -0.63600 42.77200
H  9.70200 3.03600 43.06600
H  10.03600 2.27600 44.60600
H  8.57100 3.31800 44.28800
Mg 17.33200 -0.67000 28.12600
C  15.96400 1.34300 30.69400
C  19.25400 -2.19100 30.34200
C  18.65400 -2.27700 25.53500
C  15.41300 1.33600 25.82400
N  17.54800 -0.41700 30.21000
C  16.80600 0.35200 31.09500
C  17.13500 -0.04900 32.50300
C  18.23500 -1.10800 32.43600
C  18.36500 -1.24100 30.92200
C  19.58500 -0.75100 33.06600
C  15.85300 -0.56600 33.25800
C  15.85900 -0.44000 34.78000
H  16.94800 0.25000 35.51400
N  18.68200 -2.00200 27.94400
C  19.43400 -2.51900 29.00000
C  20.32300 -3.50300 28.49000
C  20.24600 -3.50500 27.11800
C  19.12400 -2.58100 26.77800
C  21.39400 -4.19400 29.38900
C  21.03700 -4.25700 26.13300
O  20.75300 -4.28700 24.99100
C  22.15300 -5.07700 26.56800
N  17.10200 -0.44300 26.06000
C  17.77600 -1.31400 25.18800
C  17.31500 -1.11200 23.70500
C  16.08000 -0.11600 23.86500
C  16.27600 0.34700 25.31800
C  18.48600 -0.60400 22.85800
C  14.69400 -0.71100 23.45200
C  14.09400 -1.72100 24.41900
N  15.94100 0.96500 28.19300
C  15.31800 1.71900 27.21500
C  14.42500 2.68000 27.85400
C  14.67700 2.56300 29.16800
C  15.69900 1.59600 29.35300
C  13.38600 3.59500 27.09800
C  14.38900 3.19400 30.42100
O  13.67200 4.16000 30.72200
C  15.17100 2.32200 31.44700
C  15.96800 3.21500 32.33100
O  17.10900 3.63300 32.10100
O  15.20300 3.39300 33.48200
C  15.85300 4.07900 34.61800
H  19.91700 -2.76800 30.99000
H  19.18100 -2.74000 24.69900
H  14.76700 1.84200 25.10400
H  17.65200 0.82900 32.89000
H  17.98500 -2.01900 32.98000
H  20.41200 -0.82400 32.35900
H  19.76400 -1.59400 33.73400
H  19.61900 0.17500 33.63800
H  15.62900 -1.60800 33.03100
H  14.91400 -0.10500 32.95300
H  15.59800 -1.42800 35.15900
H  14.92200 0.11100 34.86200
H  22.36400 -3.79200 29.09700
H  21.53600 -5.27300 29.32100
H  21.35200 -4.00400 30.46100
H  21.84800 -5.88600 27.23200
H  22.86100 -4.47700 27.14000
H  22.74700 -5.44000 25.72900
H  16.99700 -2.02100 23.19500
H  16.25100 0.73700 23.20900
H  18.36100 0.47700 22.79700
H  18.31600 -1.04800 21.87700
H  19.51500 -0.84100 23.12900
H  14.83400 -1.26100 22.52200
H  14.10500 0.15200 23.14000
H  14.58400 -1.80900 25.38900
H  13.87800 -2.71100 24.01700
H  13.08500 -1.38900 24.66400
H  13.82900 4.57200 26.90500
H  12.47300 3.70300 27.68400
H  13.11600 3.12800 26.15100
H  14.41200 1.78100 32.01100
H  15.01300 4.24600 35.29200
H  16.27100 5.00700 34.22700
H  16.66200 3.53400 35.10400

