158

Mg 35.05400 49.81600 26.27600
C  35.43900 47.75500 28.98800
C  33.94800 52.26400 28.30200
C  34.05900 51.45400 23.53500
C  36.12800 47.13300 24.16100
N  34.68900 49.97200 28.41800
C  34.90600 48.97200 29.30700
C  34.76800 49.52600 30.74000
C  33.93300 50.83700 30.44500
C  34.14100 51.05000 28.97600
C  32.40500 50.92000 30.98800
C  36.20500 49.87200 31.29500
C  36.42400 49.44400 32.80500
H  36.33800 50.55600 33.88300
N  34.37000 51.73900 25.97200
C  34.00300 52.58900 26.91700
C  33.75500 53.94200 26.30800
C  33.65000 53.61100 24.90100
C  34.06800 52.19900 24.74400
C  33.59800 55.19400 27.08900
C  33.38600 54.58600 23.63300
O  33.42100 54.16900 22.47200
C  32.98800 56.08600 23.89500
N  35.01500 49.24200 24.14700
C  34.55100 50.13100 23.27700
C  34.62000 49.61300 21.82500
C  35.50100 48.26800 21.90100
C  35.61200 48.19700 23.47700
C  33.26700 49.35600 21.01400
C  36.98100 48.32700 21.36700
C  37.46600 47.00100 20.75000
N  35.61600 47.73500 26.44700
C  36.10000 46.84700 25.55100
C  36.47400 45.63500 26.26000
C  36.30300 45.97600 27.62000
C  35.71300 47.26000 27.68200
C  36.98200 44.38100 25.66700
C  36.35800 45.42600 28.94900
O  36.79900 44.38600 29.41400
C  35.86700 46.57500 29.86600
C  34.87900 46.12900 30.87600
O  33.81900 45.53900 30.60300
O  35.39700 46.26700 32.16100
C  34.70700 45.41500 33.17400
H  33.44100 53.08500 28.81300
H  33.57100 51.91800 22.67500
H  36.56300 46.44200 23.43600
H  34.11300 48.83700 31.27300
H  34.35900 51.71700 30.92600
H  31.65000 50.72500 30.22700
H  32.27100 51.99100 31.14400
H  32.19700 50.38100 31.91200
H  36.30700 50.94900 31.16200
H  36.93100 49.37600 30.65100
H  37.42700 49.02400 32.88400
H  35.72000 48.65200 33.05900
H  34.56200 55.69300 27.19200
H  33.38500 54.98400 28.13700
H  32.96600 55.93600 26.60200
H  32.00900 56.21600 24.35600
H  32.92200 56.62900 22.95200
H  33.78800 56.61200 24.41500
H  35.27700 50.17400 21.16100
H  34.86900 47.44600 21.56600
H  33.23700 48.37800 20.53500
H  33.33600 50.08900 20.21000
H  32.35700 49.48900 21.60000
H  37.72100 48.50000 22.14900
H  37.20700 49.12700 20.66200
H  37.67000 47.15000 19.69000
H  36.61900 46.31600 20.80700
H  38.36100 46.64800 21.26200
H  37.96700 44.62000 25.26500
H  36.38100 44.11900 24.79600
H  36.95000 43.53100 26.34900
H  36.77200 46.98800 30.31200
H  34.08800 44.65400 32.69900
H  34.03800 45.97400 33.82800
H  35.32200 44.85000 33.87400
Mg -5.26200 25.92300 26.36800
C  -3.87900 27.45500 29.23700
C  -7.22300 24.02500 28.37100
C  -5.95000 24.00000 23.72500
C  -2.89000 27.64200 24.41200
N  -5.42900 25.65000 28.58700
C  -4.78800 26.43100 29.51700
C  -5.30100 26.04900 30.93600
C  -6.30300 24.89700 30.69200
C  -6.36200 24.83500 29.13600
C  -5.95000 23.53700 31.29500
C  -5.98900 27.29200 31.60500
C  -6.26500 27.31000 33.14500
H  -5.87900 26.04800 33.98700
N  -6.71400 24.56500 25.96900
C  -7.48600 23.90000 26.95700
C  -8.36100 22.96200 26.33900
C  -8.01200 22.91100 24.96000
C  -6.83100 23.82700 24.78100
C  -9.42800 22.10100 27.04400
C  -8.58500 22.04900 23.86000
O  -8.11500 22.01900 22.69600
C  -9.68700 21.09400 24.26800
N  -4.30900 25.67500 24.33200
C  -4.88600 24.83300 23.48400
C  -4.22200 25.03400 22.06100
C  -3.30300 26.27400 22.26100
C  -3.49300 26.57300 23.74800
C  -3.52200 23.78700 21.58200
C  -3.69400 27.49000 21.42500
C  -2.51100 28.22500 20.68100
N  -3.72200 27.30800 26.69300
C  -2.89000 27.89500 25.79200
C  -1.98900 28.78600 26.54900
C  -2.38400 28.64700 27.84600
C  -3.48900 27.81500 27.93100
C  -0.81100 29.52100 26.03200
C  -2.00800 29.11100 29.14500
O  -1.13800 29.89300 29.44300
C  -2.97200 28.33800 30.11800
C  -2.15400 27.53500 31.06900
O  -1.40400 26.64800 30.75700
O  -2.27400 27.98700 32.33300
C  -1.72500 27.21400 33.47300
H  -7.88700 23.38500 28.95600
H  -6.20700 23.36900 22.87100
H  -2.20000 28.34000 23.93300
H  -4.45600 25.75600 31.56000
H  -7.29900 25.04200 31.11000
H  -5.35000 23.72800 32.18600
H  -5.39900 22.97000 30.54500
H  -6.86200 23.03000 31.60800
H  -6.98100 27.41900 31.17200
H  -5.49400 28.25000 31.44100
H  -7.30100 27.53700 33.39700
H  -5.70400 28.17100 33.50900
H  -9.12300 21.05500 27.07500
H  -10.41900 22.32600 26.65000
H  -9.50500 22.29400 28.11500
H  -10.62600 21.58700 24.52100
H  -9.26200 20.38700 24.98000
H  -9.87900 20.46600 23.39800
H  -5.01800 25.23100 21.34300
H  -2.26300 26.04700 22.02300
H  -2.43900 23.78600 21.70400
H  -3.61100 23.65700 20.50400
H  -3.97700 22.92300 22.06800
H  -4.38900 28.23000 21.82100
H  -4.29800 27.04800 20.63300
H  -2.36700 28.06500 19.61200
H  -1.59100 27.88500 21.15800
H  -2.66700 29.27700 20.91900
H  -0.41300 29.15700 25.08400
H  -0.03600 29.57900 26.79600
H  -1.02800 30.55800 25.77600
H  -3.52500 29.03400 30.74900
H  -1.27100 26.24900 33.24700
H  -2.47500 27.14400 34.26100
H  -0.92200 27.84100 33.86000

