158

Mg -2.30800 16.71200 27.13200
C  -2.60600 14.64900 29.93700
C  -2.58900 19.46500 28.95100
C  -2.32100 18.55600 24.28600
C  -2.81900 13.81400 25.16800
N  -2.62900 16.99700 29.23900
C  -2.56400 16.04100 30.21700
C  -2.38000 16.78700 31.56200
C  -2.38300 18.26500 31.21900
C  -2.67100 18.26100 29.69800
C  -3.35400 19.16500 32.09700
C  -1.11100 16.24700 32.36000
C  -0.54100 17.18000 33.42100
H  -0.19500 16.60500 34.82400
N  -2.43300 18.71500 26.74500
C  -2.57900 19.73900 27.61000
C  -2.64600 21.00300 26.92300
C  -2.31300 20.71200 25.57300
C  -2.43900 19.26700 25.49800
C  -2.90000 22.22900 27.62700
C  -2.03200 21.66900 24.43000
O  -1.82100 21.37500 23.25500
C  -1.74500 23.12800 24.83300
N  -2.32900 16.17800 25.03200
C  -2.32600 17.15600 24.06600
C  -2.45200 16.57300 22.65100
C  -2.55500 14.97900 22.92800
C  -2.55700 14.97200 24.44900
C  -3.54300 17.04800 21.69400
C  -1.34800 14.13700 22.31100
C  -1.50300 13.55000 20.93400
N  -2.58900 14.60800 27.40800
C  -2.76600 13.57700 26.54600
C  -2.88100 12.34300 27.23600
C  -2.75800 12.67300 28.60100
C  -2.62500 14.06200 28.65300
C  -3.04000 11.05100 26.50000
C  -2.72100 12.14900 29.91400
O  -2.70800 10.97800 30.34200
C  -2.52500 13.40300 30.89000
C  -1.27700 13.08000 31.59300
O  -0.12800 13.18100 31.13600
O  -1.50700 12.68200 32.87000
C  -0.39300 12.60400 33.78600
H  -2.61400 20.37800 29.54900
H  -2.29400 19.08300 23.32900
H  -3.09000 12.96300 24.54000
H  -3.31100 16.64500 32.10900
H  -1.35100 18.61000 31.27800
H  -2.75200 19.72200 32.81400
H  -4.12700 18.58600 32.60300
H  -3.77000 19.83200 31.34200
H  -0.38700 16.02000 31.57700
H  -1.34800 15.32900 32.89600
H  -1.10500 18.11100 33.48100
H  0.42300 17.45100 32.98900
H  -3.64600 22.85300 27.13500
H  -1.91800 22.69800 27.69300
H  -3.30900 22.05100 28.62200
H  -1.33600 23.57200 23.92600
H  -0.94900 23.13400 25.57900
H  -2.69000 23.63700 25.02400
H  -1.57800 16.85600 22.06400
H  -3.46900 14.49600 22.58300
H  -3.41700 18.11400 21.50600
H  -4.46500 16.95100 22.26800
H  -3.71100 16.53400 20.74800
H  -1.22400 13.25900 22.94500
H  -0.42800 14.72000 22.26000
H  -2.52700 13.73500 20.60900
H  -1.30900 12.47900 20.98200
H  -0.71900 13.96100 20.29900
H  -2.76500 10.22700 27.15900
H  -2.50200 10.96200 25.55700
H  -4.11600 11.08700 26.33200
H  -3.34400 13.45100 31.60900
H  -0.04000 11.58400 33.63000
H  -0.77200 12.89600 34.76500
H  0.41700 13.24700 33.44100
Mg 25.29000 1.34100 29.21900
C  27.25400 1.04500 32.19400
C  22.57600 1.43500 31.38200
C  23.46200 1.07200 26.54900
C  28.09800 0.54800 27.41400
N  25.05000 1.26700 31.59400
C  25.95000 1.24600 32.56900
C  25.26800 1.36300 33.92900
C  23.73900 1.22100 33.66000
C  23.79500 1.29300 32.09800
C  23.19200 -0.11100 34.26100
C  25.71400 2.74100 34.66200
C  26.32800 2.58000 36.06500
H  26.16200 3.74400 37.12000
N  23.30600 1.37700 28.98500
C  22.32200 1.44400 29.97200
C  21.08100 1.40500 29.35900
C  21.22700 1.29500 27.90800
C  22.73400 1.20800 27.73800
C  19.76400 1.63900 30.12700
C  20.16700 1.14000 26.76400
O  20.39300 1.26400 25.55800
C  18.68300 1.03600 27.12600
N  25.71700 1.04600 27.21200
C  24.77700 1.02800 26.24600
C  25.35700 0.94600 24.87400
C  26.88100 0.66900 25.14800
C  26.92100 0.80100 26.68200
C  24.73300 -0.06700 23.89900
C  27.83700 1.60900 24.41500
C  29.15700 1.01600 23.86500
N  27.28700 0.84000 29.68800
C  28.30500 0.54700 28.83600
C  29.52000 0.31000 29.58100
C  29.17700 0.51100 30.90300
C  27.79100 0.81100 30.92100
C  30.88800 -0.09500 29.08300
C  29.64900 0.51200 32.26200
O  30.76500 0.32000 32.73800
C  28.46700 1.02100 33.16700
C  28.28900 0.02400 34.29300
O  27.49800 -0.92400 34.31500
O  29.05700 0.41400 35.34500
C  28.99000 -0.53100 36.49800
H  21.75900 1.35700 32.10100
H  22.94600 1.21100 25.59600
H  28.95400 0.29900 26.78300
H  25.60900 0.56400 34.58700
H  23.13800 2.04900 34.03700
H  23.61600 -0.30700 35.24500
H  23.48500 -0.88300 33.54900
H  22.11300 -0.10100 34.41500
H  24.76400 3.21100 34.91600
H  26.30700 3.25500 33.90600
H  27.41100 2.52400 35.95500
H  25.86500 1.68900 36.48800
H  19.34300 0.63700 30.04800
H  19.18400 2.41800 29.63300
H  19.79600 1.94400 31.17300
H  18.29100 1.91100 27.64500
H  18.65400 0.24800 27.87900
H  18.09400 0.75400 26.25400
H  25.20000 1.94600 24.47000
H  27.19800 -0.37200 25.08200
H  25.41400 -0.87900 23.64300
H  24.30700 0.35300 22.98800
H  23.89200 -0.62600 24.30900
H  28.07400 2.44700 25.07000
H  27.35000 2.03000 23.53600
H  28.96000 -0.03700 23.66500
H  29.94400 1.08300 24.61600
H  29.40700 1.55200 22.94900
H  31.35100 0.86500 28.85600
H  30.81600 -0.73900 28.20700
H  31.46300 -0.62700 29.84100
H  28.68700 2.05700 33.42400
H  28.17100 -0.19800 37.13500
H  29.94700 -0.58800 37.01700
H  28.74700 -1.57500 36.30000

