158

Mg 1.14000 7.45000 25.11900
C  1.62700 9.27200 28.28000
C  1.03000 4.62100 26.94800
C  1.05600 5.89900 22.19000
C  1.89200 10.57100 23.44800
N  1.50200 6.99600 27.37600
C  1.53800 7.89500 28.46600
C  1.42500 7.11400 29.73600
C  1.48400 5.58100 29.29100
C  1.31400 5.71000 27.77800
C  2.79500 4.79300 29.60600
C  0.14900 7.52300 30.66700
C  0.17800 7.57700 32.20000
H  1.42000 7.00400 33.00700
N  0.99800 5.49700 24.57300
C  0.86600 4.49600 25.49000
C  0.66400 3.25200 24.72600
C  0.66700 3.57300 23.34000
C  0.89900 5.03600 23.29800
C  0.55900 1.79500 25.33900
C  0.57400 2.69100 22.13700
O  0.64400 3.11200 21.01200
C  0.31200 1.26100 22.29600
N  1.32400 8.15800 23.12700
C  1.25600 7.31400 22.10800
C  1.41100 8.04700 20.81600
C  1.60000 9.50400 21.30200
C  1.57800 9.41300 22.74000
C  2.60800 7.51000 19.93200
C  0.47200 10.52300 20.85700
C  -0.89700 10.68800 21.60500
N  1.58800 9.46800 25.69600
C  1.78800 10.66100 24.86000
C  1.92900 11.86900 25.76200
C  1.81800 11.33000 27.07000
C  1.61900 9.91500 27.01200
C  2.10900 13.34700 25.43600
C  1.92100 11.70400 28.58700
O  2.01900 12.81900 29.08400
C  1.72100 10.30900 29.31200
C  2.84800 10.15400 30.28900
O  4.00600 9.87200 30.06200
O  2.29200 10.46800 31.50100
C  3.15800 10.37700 32.67300
H  0.88200 3.70700 27.52700
H  0.87100 5.42100 21.22600
H  2.16500 11.46200 22.87900
H  2.31000 7.37900 30.31400
H  0.63600 5.02400 29.69000
H  3.32300 5.43300 30.31300
H  3.31600 4.43900 28.71700
H  2.60300 3.96000 30.28300
H  -0.57500 6.77000 30.35300
H  -0.20000 8.52800 30.43100
H  -0.76700 7.16600 32.55600
H  0.16400 8.60100 32.57300
H  1.41200 1.15900 25.10000
H  -0.29100 1.23900 24.94400
H  0.45600 1.92300 26.41700
H  -0.56500 1.10500 22.92300
H  1.12500 0.74600 22.80800
H  0.19700 0.72800 21.35200
H  0.50400 8.01400 20.21100
H  2.56900 9.93700 21.05200
H  3.00600 8.30000 19.29600
H  2.32300 6.66700 19.30100
H  3.43800 7.22700 20.58000
H  0.30800 10.17100 19.83900
H  0.89700 11.52600 20.88900
H  -1.72800 10.85000 20.91900
H  -0.70700 11.48900 22.31800
H  -1.06700 9.79100 22.20100
H  2.90700 13.62600 24.74800
H  2.24500 13.88000 26.37700
H  1.17000 13.63200 24.96200
H  0.77100 10.43000 29.83200
H  3.57200 11.38400 32.72900
H  4.04400 9.78500 32.44500
H  2.65400 10.10600 33.60100
Mg 48.02500 35.29100 27.06700
C  46.23900 33.41800 29.57700
C  48.14700 37.80100 29.33000
C  49.11700 37.07100 24.49600
C  47.00600 32.69500 24.83000
N  47.33300 35.50800 29.24800
C  46.74000 34.60600 30.04800
C  46.72100 35.08500 31.52700
C  46.98900 36.64200 31.33300
C  47.54000 36.67500 29.90400
C  45.73500 37.55900 31.60000
C  47.97100 34.43900 32.26400
C  47.95000 34.37000 33.81900
H  47.02300 35.34800 34.51500
N  48.68800 37.14500 26.96600
C  48.79000 38.04400 28.03500
C  49.51100 39.22800 27.55200
C  49.73300 39.01200 26.11100
C  49.16400 37.68400 25.74700
C  49.78600 40.46100 28.40400
C  50.51400 39.90700 25.11200
O  50.66600 39.58700 23.97100
C  51.01400 41.23300 25.63600
N  48.05900 34.89000 25.01100
C  48.61600 35.81900 24.14600
C  48.66000 35.37100 22.75200
C  47.97600 33.93900 22.86500
C  47.66500 33.80000 24.34600
C  47.85900 36.31800 21.81300
C  48.98400 32.82500 22.42900
C  50.13600 32.44500 23.30700
N  47.08500 33.32900 27.18900
C  46.75600 32.40400 26.15300
C  46.11200 31.23700 26.78200
C  45.81900 31.55900 28.02800
C  46.41000 32.85000 28.27300
C  45.74700 29.95600 26.03300
C  45.11700 31.14100 29.23700
O  44.52400 30.16800 29.54100
C  45.39100 32.32100 30.26400
C  45.74500 31.94100 31.62600
O  46.82700 31.36000 31.83300
O  44.96900 32.30800 32.66500
C  45.17500 31.63800 33.94700
H  48.13500 38.62400 30.04800
H  49.57200 37.59800 23.65400
H  46.58000 31.95400 24.15200
H  45.75000 34.90600 31.99000
H  47.83800 37.00500 31.91100
H  44.95700 37.06900 32.18500
H  45.34100 38.00100 30.68400
H  46.00100 38.36200 32.28700
H  48.88700 34.96100 31.98600
H  48.13800 33.44300 31.85500
H  48.92400 34.42100 34.30600
H  47.59700 33.39100 34.14100
H  49.37400 40.17900 29.37300
H  49.22200 41.30900 28.01600
H  50.83600 40.60100 28.66100
H  50.24400 41.87600 26.06500
H  51.33800 41.77100 24.74500
H  51.79800 41.08500 26.37900
H  49.68200 35.43100 22.37900
H  47.07800 33.89900 22.24900
H  47.53700 37.12000 22.47800
H  47.00900 35.80900 21.36000
H  48.52800 36.65100 21.01900
H  49.38300 33.25500 21.51100
H  48.38300 31.94100 22.21400
H  51.11300 32.61900 22.85600
H  50.00200 31.36700 23.40300
H  50.14200 32.94400 24.27600
H  46.53900 29.29600 26.38700
H  45.71100 30.12200 24.95600
H  44.84100 29.46700 26.39100
H  44.37600 32.70000 30.38400
H  44.77600 30.62300 33.94200
H  44.70900 32.27300 34.70100
H  46.22700 31.51100 34.20200

