158

Mg 36.36700 1.67000 29.53500
C  34.19200 2.58800 31.91400
C  38.91600 1.65100 31.90700
C  38.60200 1.11300 27.07600
C  33.86600 2.00500 27.13500
N  36.52000 2.12100 31.67100
C  35.48400 2.45300 32.48200
C  35.83300 2.35400 33.93700
C  37.42400 2.33000 33.86900
C  37.65300 1.94100 32.41600
C  38.06500 3.68900 34.28000
C  35.20800 1.07500 34.56400
C  34.75900 1.20700 35.98200
H  35.10900 2.50300 36.74500
N  38.45800 1.40400 29.52900
C  39.32700 1.48900 30.61700
C  40.68300 1.17400 30.14200
C  40.66000 1.01000 28.74100
C  39.20400 1.17900 28.37300
C  41.86300 0.95900 31.16600
C  41.80800 0.72800 27.78800
O  41.64400 0.74000 26.57800
C  43.23900 0.53300 28.26500
N  36.33400 1.81900 27.39300
C  37.34100 1.31100 26.65900
C  36.98900 1.22200 25.18200
C  35.45700 1.46700 25.18100
C  35.17800 1.80700 26.60600
C  37.77400 2.13100 24.23500
C  34.67400 0.30100 24.48300
C  33.80000 -0.68600 25.34700
N  34.41600 2.14800 29.47800
C  33.51900 2.25900 28.45300
C  32.22600 2.65700 28.96000
C  32.43000 2.74300 30.32800
C  33.78900 2.48800 30.50500
C  31.01900 2.81400 28.23900
C  31.75400 2.92500 31.60100
O  30.58600 3.23100 31.89700
C  32.88200 2.88700 32.63700
C  32.95700 4.22100 33.41500
O  33.33700 5.24700 32.87600
O  32.33500 4.10700 34.65700
C  32.12200 5.30700 35.38600
H  39.67800 1.60600 32.68800
H  39.32700 0.92300 26.28100
H  33.06000 2.11100 26.40700
H  35.49100 3.31200 34.32900
H  37.80500 1.48200 34.43700
H  37.33300 4.35100 34.74200
H  38.51500 4.12600 33.38800
H  38.89600 3.65800 34.98500
H  35.93400 0.28000 34.39400
H  34.31100 0.77800 34.02100
H  35.12700 0.36900 36.57500
H  33.66900 1.24400 35.99300
H  42.38400 0.07800 30.79300
H  41.58900 0.72800 32.19600
H  42.48200 1.85600 31.17700
H  43.83200 0.51900 27.35100
H  43.22100 -0.51400 28.56900
H  43.55700 1.30200 28.96800
H  37.30900 0.20300 24.96600
H  35.20700 2.42500 24.72700
H  38.22800 2.86700 24.89900
H  37.08200 2.56600 23.51500
H  38.50100 1.55100 23.66700
H  35.52300 -0.26400 24.09900
H  34.08100 0.73200 23.67700
H  32.75600 -0.49000 25.10100
H  33.89800 -0.76500 26.42900
H  34.06900 -1.73200 25.19900
H  30.97900 3.68400 27.58400
H  30.20900 2.84700 28.96800
H  30.88300 1.99700 27.53000
H  32.56600 2.11500 33.33900
H  31.64200 5.08900 36.34000
H  31.43400 5.94700 34.83300
H  33.05100 5.86600 35.49600
Mg -2.30500 34.14300 26.15300
C  -3.47700 32.74600 29.13700
C  -0.30300 36.22100 27.98000
C  -1.31800 35.60700 23.30900
C  -4.38500 31.97100 24.34700
N  -1.98600 34.46400 28.37200
C  -2.56100 33.78200 29.40500
C  -1.97800 34.28600 30.74400
C  -0.91300 35.34500 30.26400
C  -1.06200 35.32800 28.78800
C  -1.01100 36.75800 31.03400
C  -1.39600 33.19800 31.78200
C  -1.85100 33.39400 33.25100
H  -1.33900 32.39500 34.28400
N  -0.91100 35.66900 25.69500
C  -0.21000 36.41200 26.60200
C  0.55900 37.38300 25.82100
C  0.35700 37.15100 24.48300
C  -0.68300 36.13300 24.39600
C  1.32900 38.50700 26.48600
C  1.14700 37.73500 23.31900
O  0.86100 37.52400 22.13400
C  2.38800 38.57500 23.58700
N  -2.89700 33.95200 24.13900
C  -2.27700 34.62300 23.11200
C  -2.73700 34.10500 21.75900
C  -3.31200 32.69300 22.06100
C  -3.52600 32.82200 23.62100
C  -3.71200 35.00900 21.01100
C  -2.34500 31.53700 21.71500
C  -0.76900 31.75600 21.93300
N  -3.73100 32.80000 26.62500
C  -4.44500 31.91200 25.78500
C  -5.30700 31.04600 26.55200
C  -4.82800 31.29000 27.90700
C  -3.94700 32.39100 27.88000
C  -6.29200 30.10100 26.00000
C  -4.96500 30.76600 29.19300
O  -5.61200 29.85000 29.68500
C  -4.11700 31.65900 30.06300
C  -5.05200 32.42900 30.95800
O  -5.82200 33.30800 30.58600
O  -4.91200 32.00500 32.27500
C  -5.76800 32.53000 33.28100
H  0.28200 36.90700 28.59600
H  -0.92800 35.97500 22.35700
H  -4.89000 31.26100 23.68800
H  -2.80600 34.83300 31.19600
H  0.08300 34.92000 30.39300
H  0.00900 37.11100 31.18600
H  -1.54700 36.72300 31.98300
H  -1.55400 37.33900 30.28900
H  -0.33700 33.45400 31.80000
H  -1.48900 32.22500 31.30100
H  -2.92000 33.54600 33.40100
H  -1.51700 34.38700 33.55300
H  2.40800 38.37400 26.40900
H  1.12400 38.60300 27.55200
H  0.98400 39.44000 26.04000
H  2.08300 39.53700 23.99900
H  2.88700 38.73900 22.63200
H  3.09500 38.03500 24.21700
H  -1.89000 33.92700 21.09600
H  -4.32100 32.49800 21.69500
H  -3.47000 34.92200 19.95200
H  -3.49700 36.04200 21.28600
H  -4.74600 34.68900 21.14500
H  -2.58700 31.34300 20.67000
H  -2.68900 30.59800 22.14900
H  -0.29500 32.10300 21.01500
H  -0.35000 30.78100 22.18400
H  -0.59200 32.52300 22.68700
H  -5.84400 29.11300 26.10500
H  -6.42800 30.38400 24.95600
H  -7.23000 30.07700 26.55500
H  -3.46200 31.07500 30.70900
H  -5.17400 33.08200 34.00800
H  -6.26900 31.65000 33.68500
H  -6.51200 33.29400 33.05700

