158

Mg 6.59200 54.03900 41.64700
C  5.53300 50.59700 41.05400
C  9.76200 53.04600 40.54500
C  7.35500 57.27700 41.65600
C  3.26700 54.67500 42.55200
N  7.44600 52.17600 40.63000
C  6.84600 50.93400 40.61800
C  7.73200 49.85900 40.08200
C  9.08500 50.51800 40.26600
C  8.76300 52.02700 40.44600
C  10.05300 49.97300 41.35900
C  7.53100 49.37400 38.55600
C  6.82400 50.35400 37.65100
H  7.66000 51.03100 36.52900
N  8.33800 55.04000 41.08400
C  9.57100 54.41300 40.72200
C  10.52100 55.47900 40.57700
C  9.84200 56.76200 40.76800
C  8.45800 56.41800 41.15600
C  11.93800 55.22400 40.13600
C  10.55300 58.08500 40.59400
O  11.72600 58.18600 40.30400
C  9.78200 59.39200 40.65800
N  5.38400 55.75800 41.85400
C  6.00900 56.95900 42.08300
C  4.91800 58.00100 42.40400
C  3.65400 57.19000 42.71600
C  4.07300 55.77900 42.38900
C  5.44700 59.08300 43.51000
C  2.36100 57.58300 41.94000
C  1.08400 57.75900 42.73300
N  4.76900 52.87000 41.78100
C  3.54100 53.29100 42.25300
C  2.57000 52.22800 42.34600
C  3.33600 51.13600 41.90400
C  4.66100 51.57500 41.53200
C  1.21900 52.33000 42.94200
C  3.40200 49.67400 41.69500
O  2.56100 48.78700 41.97700
C  4.81300 49.29600 41.16700
C  4.64900 48.43900 39.93800
O  4.24000 48.71100 38.86400
O  5.20600 47.21500 40.31200
C  5.23900 46.16600 39.36800
H  10.75100 52.89200 40.11000
H  7.61900 58.33700 41.66000
H  2.20500 54.79600 42.77900
H  7.72700 48.98500 40.73300
H  9.66300 50.46700 39.34200
H  9.69000 49.14500 41.96900
H  10.31800 50.69900 42.12700
H  10.93300 49.59800 40.83800
H  6.99500 48.42500 38.56100
H  8.49500 49.05700 38.15900
H  6.29900 51.18800 38.11600
H  6.06700 49.73400 37.17000
H  12.00100 55.80400 39.21500
H  12.16100 54.18500 39.89700
H  12.61300 55.68400 40.85800
H  10.48000 60.20400 40.45800
H  9.27600 59.48100 41.62000
H  9.02900 59.31400 39.87400
H  4.85800 58.64400 41.52600
H  3.40500 57.13100 43.77600
H  5.59900 60.05400 43.03800
H  6.38100 58.67900 43.90000
H  4.70900 59.13900 44.31000
H  2.08100 56.75400 41.28900
H  2.49900 58.48400 41.34300
H  1.34500 57.74500 43.79100
H  0.35100 56.96500 42.58600
H  0.63100 58.73300 42.54900
H  0.65700 53.04500 42.34000
H  1.25500 52.63500 43.98800
H  0.77400 51.35200 43.12100
H  5.36300 48.76600 41.94500
H  5.87600 45.44700 39.88500
H  5.56900 46.43700 38.36600
H  4.20400 45.82300 39.34300
Mg -2.08400 34.24400 26.53600
C  -3.77300 32.95100 29.29600
C  -0.60100 36.54000 28.65000
C  -0.53300 35.77300 23.84200
C  -3.84900 32.23500 24.44000
N  -2.27400 34.76700 28.68200
C  -2.89800 33.99500 29.64700
C  -2.44400 34.31100 31.05100
C  -1.60700 35.62300 30.79100
C  -1.51200 35.62700 29.25200
C  -2.09600 36.92500 31.38300
C  -1.64800 33.14600 31.76000
C  -1.01300 33.55000 33.09400
H  -1.46600 32.85700 34.34200
N  -0.79000 36.01400 26.25100
C  -0.21900 36.73600 27.25100
C  0.73000 37.70200 26.65300
C  0.74000 37.49500 25.20800
C  -0.20200 36.37200 25.00300
C  1.60000 38.64000 27.46800
C  1.43100 38.16400 24.09700
O  1.16600 37.90200 22.91000
C  2.49700 39.07200 24.40400
N  -2.28200 34.16900 24.41800
C  -1.52400 34.78900 23.53800
C  -1.52500 34.17400 22.16100
C  -2.48200 32.95900 22.33400
C  -2.92900 33.10700 23.85600
C  -2.17700 35.13200 20.97300
C  -1.77600 31.56100 22.10100
C  -2.83200 30.51800 21.69100
N  -3.59800 32.91200 26.72900
C  -4.13600 32.10700 25.79400
C  -4.93600 31.11500 26.42300
C  -4.89600 31.44300 27.83600
C  -4.07300 32.53100 27.93500
C  -5.67700 30.03900 25.73100
C  -5.39200 31.08600 29.15700
O  -6.17200 30.17400 29.52200
C  -4.59800 32.03800 30.16600
C  -5.57500 32.65700 31.00200
O  -6.70900 33.00500 30.60400
O  -5.22000 32.59200 32.31900
C  -6.36800 32.71100 33.28700
H  -0.04500 37.10400 29.40300
H  -0.06000 35.93700 22.87200
H  -4.48700 31.72000 23.71800
H  -3.40100 34.48800 31.54200
H  -0.63100 35.52900 31.26700
H  -2.57800 37.66700 30.74700
H  -1.30000 37.46900 31.89200
H  -2.85600 36.58400 32.08700
H  -0.94700 32.70900 31.04900
H  -2.40400 32.37500 31.90900
H  -1.03500 34.63200 33.22300
H  0.05700 33.34900 33.04100
H  2.62800 38.63800 27.10400
H  1.62400 38.30300 28.50500
H  1.14300 39.62900 27.46300
H  2.15000 39.94700 24.95300
H  2.86300 39.46700 23.45700
H  3.34800 38.60500 24.90000
H  -0.52500 33.90800 21.81800
H  -3.35200 33.04300 21.68200
H  -3.26400 35.09700 20.90000
H  -1.78400 34.89000 19.98600
H  -1.91500 36.18600 21.06200
H  -1.52700 31.28800 23.12600
H  -0.80600 31.52300 21.60500
H  -2.39400 29.92500 20.88800
H  -3.83800 30.92500 21.58900
H  -3.02000 29.75500 22.44700
H  -5.43600 29.09900 26.22700
H  -5.52000 29.87600 24.66400
H  -6.75700 30.12900 25.84400
H  -3.98900 31.37800 30.78400
H  -6.80000 31.73300 33.49800
H  -7.07400 33.43400 32.87800
H  -6.05800 33.26800 34.17100

