158

Mg 54.32500 25.33700 44.10200
C  51.57200 27.63800 43.61700
C  52.45600 22.85300 42.96400
C  57.17700 23.57900 43.81200
C  56.28400 28.30600 44.74200
N  52.29400 25.33300 43.05000
C  51.28500 26.29300 43.16100
C  49.89900 25.69100 42.78100
C  50.26600 24.12600 42.93400
C  51.73600 24.06900 42.98300
C  49.65600 23.43200 44.09200
C  49.44600 26.07900 41.37300
C  50.59100 26.38200 40.28400
H  50.14500 26.58400 38.87700
N  54.81100 23.43800 43.64700
C  53.87800 22.58500 43.16100
C  54.57300 21.32500 42.87200
C  55.91000 21.47200 43.33400
C  56.01300 22.85900 43.54400
C  53.85100 20.08700 42.33000
C  56.95200 20.38100 43.40200
O  56.55200 19.20600 43.24700
C  58.39800 20.60400 43.77800
N  56.42700 25.89400 44.20300
C  57.41700 24.90800 44.14700
C  58.82900 25.55800 44.39500
C  58.52600 27.03100 44.75100
C  56.99800 27.12900 44.66500
C  59.67900 24.77300 45.46200
C  59.19100 27.92100 43.68000
C  59.95800 29.13300 44.22500
N  54.06200 27.52200 44.28500
C  54.90300 28.52700 44.67200
C  54.22100 29.77600 44.87600
C  52.98200 29.43000 44.43200
C  52.87100 28.06100 44.09100
C  54.69800 31.11000 45.21800
C  51.68800 30.05500 44.24700
O  51.33700 31.22600 44.36700
C  50.81700 28.94200 43.54200
C  50.58400 29.43600 42.19000
O  51.45100 29.95800 41.51500
O  49.24500 29.51300 42.00400
C  48.79700 29.97800 40.69400
H  51.86500 21.98300 42.67000
H  58.15500 23.09500 43.76100
H  56.93400 29.09300 45.13000
H  49.16300 26.10400 43.47100
H  50.03800 23.46800 42.09500
H  49.79300 22.35300 44.15900
H  48.58200 23.57500 44.21000
H  50.05600 23.79300 45.04000
H  49.07200 27.08700 41.55000
H  48.73300 25.33600 41.01400
H  51.27600 25.53800 40.36500
H  51.08600 27.29500 40.61500
H  53.60100 19.39300 43.13200
H  54.55800 19.57900 41.67400
H  53.00800 20.29200 41.67000
H  58.90400 19.63900 43.73500
H  58.44900 20.94900 44.81100
H  58.80500 21.17200 42.94200
H  59.27100 25.42400 43.40800
H  58.75700 27.22800 45.79700
H  60.47900 24.17900 45.02000
H  59.18000 23.90100 45.88700
H  60.12500 25.53800 46.09600
H  58.60200 28.41700 42.90900
H  59.86400 27.30200 43.08700
H  59.76700 30.02700 43.63200
H  61.03600 28.96800 44.20900
H  59.74900 29.15800 45.29400
H  55.77000 31.29200 45.14800
H  54.32200 31.47000 46.17500
H  54.24800 31.79300 44.49800
H  49.90400 28.85900 44.13000
H  49.65300 30.14100 40.03900
H  48.13600 30.84400 40.67500
H  48.27000 29.13900 40.24000
Mg 42.18800 42.17000 27.23900
C  41.11500 44.37200 29.83100
C  43.21100 39.99000 29.61800
C  43.15300 40.16500 24.77700
C  41.18900 44.54700 24.95500
N  42.39900 42.29700 29.47300
C  41.80800 43.22200 30.30200
C  42.20400 42.87600 31.78100
C  43.02700 41.55200 31.64300
C  42.85100 41.21000 30.14700
C  44.52000 41.57800 32.07000
C  40.97900 42.74400 32.75300
C  41.09300 43.32200 34.19200
H  40.31100 42.59300 35.32900
N  43.06400 40.29800 27.19800
C  43.33800 39.54700 28.27800
C  43.70300 38.21000 27.91600
C  43.62700 38.22700 26.48500
C  43.24800 39.60200 26.05700
C  44.22800 37.11700 28.87600
C  43.89100 37.07300 25.47000
O  43.81500 37.30200 24.27500
C  44.08700 35.64700 25.95100
N  42.33800 42.40100 25.17600
C  42.73500 41.39600 24.33500
C  42.59000 41.80400 22.89700
C  41.79900 43.12100 22.97500
C  41.77400 43.42700 24.45400
C  43.88700 41.97800 22.17600
C  40.40700 43.21200 22.23200
C  39.13500 42.93200 23.00200
N  41.41200 44.14600 27.33300
C  41.07100 44.98000 26.29500
C  40.36400 46.16900 26.85900
C  40.32000 45.91800 28.25200
C  40.98300 44.72900 28.47800
C  39.87600 47.35800 26.05300
C  39.89700 46.44300 29.55900
O  39.20000 47.45700 29.78600
C  40.34700 45.47400 30.65400
C  41.20600 46.19300 31.60700
O  42.38000 46.41900 31.57300
O  40.53600 46.51700 32.77600
C  41.31800 47.08500 33.88000
H  43.40300 39.17500 30.32000
H  43.47400 39.54000 23.94100
H  40.67100 45.26200 24.31300
H  42.92100 43.52000 32.29000
H  42.66400 40.76100 32.29900
H  45.12100 41.07800 31.31000
H  44.42500 41.09500 33.04300
H  44.82100 42.62500 32.08100
H  40.90700 41.67600 32.96100
H  40.04600 43.11100 32.32700
H  40.62600 44.30700 34.20100
H  42.15700 43.43800 34.39600
H  44.62400 37.57700 29.78200
H  45.09800 36.58100 28.49500
H  43.45100 36.36700 29.02000
H  45.16100 35.55300 26.10800
H  43.74700 34.94800 25.18700
H  43.52900 35.40800 26.85700
H  41.92700 41.04300 22.48600
H  42.40600 43.87800 22.47800
H  43.95700 42.97200 21.73300
H  44.13200 41.24000 21.41200
H  44.67400 41.87700 22.92300
H  40.60400 42.55700 21.38300
H  40.27400 44.18000 21.74900
H  39.27200 42.48900 23.98900
H  38.52600 42.21400 22.45200
H  38.49500 43.80500 23.12800
H  40.29500 47.40100 25.04800
H  40.33900 48.14200 26.65200
H  38.79300 47.47800 26.01400
H  39.43200 45.04500 31.06200
H  41.64400 46.26300 34.51600
H  40.71000 47.66600 34.57300
H  42.15900 47.71800 33.59600

