158

Mg 56.36600 24.77200 44.79100
C  53.56200 26.36200 43.56300
C  55.24200 21.75100 43.69000
C  59.36200 23.54200 45.14000
C  57.64900 28.01100 45.51700
N  54.70800 24.14500 43.73900
C  53.69200 24.96600 43.35700
C  52.64200 24.14600 42.49600
C  52.95300 22.75300 43.00700
C  54.40400 22.85800 43.44300
C  52.03200 22.22000 44.07100
C  52.99000 24.18300 40.95500
C  51.76500 24.16000 39.99800
H  51.82100 24.64400 38.55300
N  57.15600 22.81100 44.58100
C  56.52200 21.70400 44.19200
C  57.47300 20.65600 44.35000
C  58.69500 21.11100 44.73900
C  58.44600 22.56200 44.79000
C  57.05000 19.26300 44.01200
C  59.98900 20.26600 44.99500
O  59.93700 19.04700 44.89000
C  61.32600 20.80300 45.40500
N  58.21800 25.63700 45.19600
C  59.35700 24.90400 45.26900
C  60.62600 25.75000 45.55700
C  59.99900 27.15400 45.73800
C  58.48100 26.92700 45.50800
C  61.61600 25.29400 46.52100
C  60.59700 28.35500 44.87100
C  60.38900 28.19900 43.36200
N  55.64400 26.80500 44.88300
C  56.25600 27.99500 45.25300
C  55.24500 29.06800 45.13200
C  54.12700 28.39600 44.45600
C  54.49300 27.07400 44.28700
C  55.44500 30.51900 45.54000
C  52.93500 28.68500 43.80800
O  52.37800 29.73100 43.51300
C  52.36300 27.32300 43.40300
C  51.98500 27.55500 41.95800
O  52.72200 27.57800 41.01800
O  50.61700 27.79100 41.92100
C  49.85200 28.05300 40.67500
H  54.74800 20.79800 43.49200
H  60.38500 23.17400 45.24700
H  58.12300 28.97100 45.73200
H  51.66000 24.55500 42.73200
H  52.99800 21.96900 42.25100
H  51.22600 22.92200 44.28400
H  52.44300 21.90600 45.03100
H  51.44400 21.32200 43.87900
H  53.61400 23.33700 40.66500
H  53.55700 25.07200 40.67700
H  51.03000 24.68200 40.61000
H  51.32500 23.16900 40.11200
H  57.86200 18.95400 43.35400
H  56.12100 19.17500 43.44900
H  56.96100 18.64300 44.90400
H  61.15200 21.19200 46.40800
H  61.50700 21.50200 44.58800
H  62.16300 20.10800 45.45700
H  61.11600 25.73500 44.58400
H  59.98500 27.45900 46.78400
H  61.19900 24.57400 47.22500
H  61.98500 26.20100 46.99900
H  62.39500 24.75300 45.98300
H  61.66100 28.36100 45.10800
H  60.15600 29.30100 45.18200
H  59.76900 27.31400 43.21500
H  61.35500 28.16300 42.85900
H  59.78800 29.05300 43.05200
H  54.84600 31.00100 44.76700
H  56.47300 30.87700 45.59600
H  55.04800 30.77100 46.52300
H  51.43000 26.98400 43.85300
H  49.01000 27.36000 40.66000
H  50.49900 27.65400 39.89500
H  49.42100 29.03700 40.49100
Mg 0.53800 42.92900 26.77000
C  3.00500 42.93700 29.37900
C  -1.81500 42.32200 29.08800
C  -1.48100 41.79900 24.35500
C  3.27500 42.87900 24.46600
N  0.69700 42.45900 29.02300
C  1.68100 42.72500 29.91900
C  1.12500 42.84100 31.30500
C  -0.33200 42.34400 31.13200
C  -0.52400 42.38700 29.61800
C  -0.58100 40.92200 31.83100
C  1.25200 44.34700 31.91800
C  0.85700 44.42000 33.46000
H  0.70800 43.08600 34.21900
N  -1.43100 42.27500 26.75800
C  -2.28700 42.14000 27.77100
C  -3.60000 41.86800 27.31900
C  -3.51600 41.59300 25.90300
C  -2.03900 41.81500 25.60900
C  -4.82600 41.95200 28.33000
C  -4.63700 41.34400 24.95300
O  -4.44100 41.04900 23.75900
C  -6.03300 41.30300 25.37100
N  0.84600 42.53600 24.70700
C  -0.20100 42.03500 23.92700
C  0.23400 41.99600 22.40700
C  1.70700 42.48000 22.48700
C  2.00600 42.65900 23.97000
C  0.08900 40.68800 21.58800
C  2.01200 43.82300 21.68200
C  1.79700 45.15100 22.37200
N  2.64900 43.03800 26.84800
C  3.60300 43.08500 25.81200
C  4.90100 43.37900 26.38900
C  4.75500 43.24600 27.80300
C  3.31400 43.02700 27.99300
C  6.18300 43.67900 25.66400
C  5.47400 43.27700 29.08300
O  6.66100 43.31000 29.29500
C  4.27400 43.27200 30.09500
C  4.60800 42.24000 31.03000
O  5.04400 41.17200 30.67100
O  4.61800 42.67800 32.29200
C  5.30700 41.84500 33.24200
H  -2.60500 42.22800 29.83600
H  -2.09400 41.52500 23.49400
H  4.05000 43.06300 23.71900
H  1.78000 42.17600 31.86700
H  -0.94100 43.14800 31.54500
H  -1.40300 41.20900 32.48700
H  0.22200 40.53400 32.45700
H  -0.86300 40.18600 31.07800
H  0.58300 44.97000 31.32400
H  2.26900 44.72200 31.80000
H  0.00300 45.07500 33.63600
H  1.76100 44.75500 33.96900
H  -5.82300 41.86800 27.89700
H  -4.77600 42.83200 28.97200
H  -4.76600 41.07200 28.97100
H  -6.62600 41.32800 24.45600
H  -6.30300 42.20300 25.92400
H  -6.18900 40.30700 25.78500
H  -0.38100 42.74600 21.90900
H  2.36900 41.73100 22.05100
H  -0.34500 40.93800 20.62000
H  -0.53400 39.92900 22.06200
H  1.06700 40.24600 21.40200
H  1.38400 43.86500 20.79200
H  2.99600 43.84900 21.21300
H  2.69300 45.73000 22.59700
H  1.14800 45.06800 23.24300
H  1.09900 45.68800 21.73000
H  6.90100 44.14700 26.33800
H  6.00000 44.37100 24.84200
H  6.43400 42.74100 25.17000
H  4.22800 44.22200 30.62700
H  5.18300 42.28900 34.23000
H  6.37200 41.93000 33.02900
H  4.88100 40.84500 33.15800

