158

Mg -1.67200 17.61200 26.69600
C  -2.06600 15.31900 29.21600
C  -2.16400 20.25600 28.98200
C  -1.94500 19.83700 24.04400
C  -2.19700 15.01200 24.32000
N  -2.03300 17.71600 28.86600
C  -2.09300 16.66600 29.67600
C  -2.13500 17.10300 31.16600
C  -2.28600 18.70600 31.03400
C  -2.23200 18.87300 29.55200
C  -3.32300 19.37300 31.86700
C  -0.85400 16.70900 32.00200
C  -0.40700 17.66400 33.22900
H  -0.00600 16.98400 34.44000
N  -1.87600 19.68900 26.55100
C  -2.06600 20.60100 27.59300
C  -2.09300 21.97300 27.06000
C  -2.11900 21.81500 25.66800
C  -2.01800 20.39200 25.37400
C  -2.29200 23.21600 27.92000
C  -2.32400 22.89500 24.59200
O  -2.44500 22.65500 23.37600
C  -2.27600 24.33200 25.05800
N  -1.88100 17.47500 24.45100
C  -1.96100 18.56200 23.61700
C  -1.88700 18.03700 22.14900
C  -2.01200 16.50000 22.27700
C  -2.08500 16.28700 23.76300
C  -2.82700 18.65300 21.09400
C  -0.96900 15.59000 21.44700
C  -1.43900 14.90300 20.15400
N  -1.96900 15.62400 26.73100
C  -2.17000 14.69600 25.72600
C  -2.25100 13.36000 26.24600
C  -2.15300 13.53100 27.66600
C  -2.09000 14.91400 27.85600
C  -2.55500 12.09800 25.50300
C  -2.20100 12.87000 28.97000
O  -2.24700 11.66600 29.21900
C  -2.19900 14.05700 30.05600
C  -1.16400 13.81300 31.09900
O  0.04700 13.91700 31.02300
O  -1.82200 13.35700 32.25900
C  -0.92900 12.65200 33.24700
H  -2.35700 21.11700 29.62500
H  -1.88000 20.52500 23.19800
H  -2.35800 14.20700 23.59900
H  -2.98500 16.62200 31.65000
H  -1.31600 19.15200 31.25600
H  -4.04800 19.89900 31.24500
H  -2.82600 20.00900 32.60000
H  -3.82500 18.62900 32.48400
H  0.07800 16.55200 31.45900
H  -1.22700 15.86600 32.58200
H  -1.23500 18.32600 33.48300
H  0.47700 18.21800 32.91400
H  -1.49200 23.93300 27.73400
H  -2.30200 23.15300 29.00800
H  -3.21800 23.73900 27.68200
H  -3.24600 24.73100 25.35400
H  -2.09500 24.82600 24.10400
H  -1.47000 24.36800 25.79200
H  -0.83900 18.14600 21.86900
H  -3.03000 16.24600 21.97900
H  -2.71300 19.73200 20.98500
H  -3.86700 18.38200 21.27500
H  -2.54100 18.20600 20.14200
H  -0.47700 14.87000 22.10200
H  -0.08000 16.13000 21.12300
H  -1.40100 13.83200 20.35400
H  -0.72900 15.20300 19.38300
H  -2.43600 15.17600 19.80800
H  -3.36900 12.37600 24.83300
H  -2.79800 11.33400 26.24100
H  -1.64800 11.92000 24.92500
H  -3.11800 14.03900 30.64300
H  0.15000 12.58700 33.11000
H  -1.26500 11.61900 33.33200
H  -1.06500 13.15100 34.20700
Mg 41.73900 41.11300 26.74600
C  40.91200 43.61200 29.09200
C  42.67800 39.05400 29.27700
C  42.78700 38.83400 24.33900
C  41.22500 43.43500 24.21700
N  41.89000 41.41700 28.90700
C  41.28100 42.44100 29.69100
C  41.34200 42.09900 31.18100
C  41.95100 40.66600 31.15200
C  42.25000 40.38700 29.71500
C  43.13700 40.45200 32.11300
C  39.84000 42.16000 31.79900
C  39.91200 41.65300 33.27200
H  39.21300 42.49800 34.34900
N  42.60100 39.20100 26.77500
C  42.87200 38.55400 27.94000
C  43.37200 37.25800 27.62100
C  43.53800 37.20800 26.15300
C  42.93600 38.44300 25.66700
C  43.78400 36.18600 28.63400
C  44.15200 36.14000 25.23800
O  44.27800 36.29800 24.03000
C  44.75800 34.95100 25.83100
N  41.93200 41.17100 24.68600
C  42.37000 40.08900 23.86600
C  42.44900 40.46700 22.31800
C  41.53700 41.79300 22.33400
C  41.56100 42.17700 23.85900
C  43.91100 40.55100 21.70100
C  40.24300 41.65300 21.57400
C  39.25000 40.63600 22.19500
N  41.12400 43.14200 26.59400
C  41.08700 43.97400 25.55500
C  40.73600 45.33600 25.96500
C  40.57100 45.20400 27.31800
C  40.89000 43.85900 27.72700
C  40.60400 46.60500 25.13700
C  40.22900 45.86300 28.60900
O  40.00200 47.09500 28.68000
C  40.22400 44.81000 29.69800
C  40.83400 45.46800 30.86600
O  41.92700 46.06100 30.87600
O  39.97000 45.58800 31.93900
C  40.23300 46.41800 33.11200
H  42.91700 38.35500 30.08200
H  43.17800 38.21100 23.53200
H  40.93400 44.19000 23.48300
H  41.97300 42.76200 31.77300
H  41.19900 39.97200 31.52800
H  43.30800 41.40300 32.61700
H  43.96300 40.05200 31.52500
H  42.71000 39.69500 32.77100
H  39.14200 41.53000 31.24900
H  39.48600 43.18900 31.74300
H  40.92800 41.35000 33.52400
H  39.32000 40.73800 33.24500
H  44.83900 36.12000 28.90000
H  43.41700 35.22300 28.28100
H  43.23700 36.46000 29.53700
H  45.35600 34.32400 25.17000
H  43.99900 34.30000 26.26300
H  45.44100 35.27900 26.61400
H  41.84200 39.69100 21.85200
H  42.04400 42.61100 21.82200
H  44.20200 41.57300 21.45900
H  43.93200 39.87000 20.85000
H  44.59200 40.25700 22.50000
H  40.46500 41.40900 20.53500
H  39.71300 42.60500 21.53100
H  38.97400 39.90000 21.43900
H  38.32500 41.10100 22.53700
H  39.73800 40.10400 23.01100
H  40.58300 46.27000 24.10000
H  41.46800 47.23200 25.35800
H  39.70000 47.16800 25.36700
H  39.15900 44.64900 29.86300
H  40.56800 45.90000 34.01100
H  39.23800 46.83500 33.26400
H  40.98800 47.18400 32.93500

