158

Mg 9.03400 2.55900 27.10300
C  10.33600 1.17100 30.04500
C  7.03500 4.62200 28.96000
C  7.81500 3.74600 24.24900
C  10.88900 0.05000 25.28200
N  8.66500 2.77500 29.29900
C  9.34100 2.13900 30.30500
C  9.16500 2.87700 31.66400
C  7.86700 3.79800 31.28400
C  7.83500 3.75500 29.74600
C  6.53200 3.30500 31.99700
C  10.43400 3.57200 32.23000
C  10.15600 4.40100 33.45000
H  10.85400 4.05100 34.75200
N  7.61000 4.05800 26.70200
C  6.89800 4.74800 27.56900
C  5.99400 5.65800 26.84700
C  6.29000 5.46700 25.44800
C  7.29400 4.38200 25.39600
C  5.08000 6.67800 27.40900
C  5.77100 6.18100 24.10500
O  6.21200 5.93700 22.95500
C  4.73900 7.34400 24.22700
N  9.37700 2.00600 25.06400
C  8.67100 2.67800 24.11300
C  9.17400 2.19300 22.71800
C  9.94800 0.94500 22.99800
C  10.20500 0.99400 24.51400
C  8.02500 1.96700 21.67700
C  11.16200 0.70900 21.98600
C  11.09900 -0.50300 21.04200
N  10.24600 0.93100 27.50700
C  10.98700 0.07700 26.69600
C  11.80200 -0.80500 27.53700
C  11.58800 -0.35500 28.85300
C  10.62400 0.69100 28.80400
C  12.56100 -2.01300 27.19700
C  12.03800 -0.61500 30.17700
O  12.84000 -1.39100 30.71400
C  11.24600 0.49900 30.98600
C  10.51000 -0.05500 32.09400
O  9.46100 -0.71200 31.96500
O  11.07200 0.17400 33.26900
C  10.28800 -0.01300 34.39500
H  6.43900 5.40600 29.43100
H  7.47100 4.03000 23.25200
H  11.36400 -0.68600 24.62900
H  8.82200 2.14500 32.39500
H  8.05400 4.82300 31.60400
H  5.77500 3.35900 31.21400
H  6.27700 4.09700 32.70200
H  6.35600 2.32700 32.44500
H  10.72200 4.21400 31.39900
H  11.34700 3.02100 32.45400
H  9.07700 4.38100 33.60600
H  10.54300 5.38600 33.18900
H  5.57400 7.61300 27.14400
H  5.03100 6.50700 28.48500
H  4.17300 6.66500 26.80600
H  5.01300 8.08500 24.97800
H  3.73500 6.93700 24.34200
H  4.76000 7.86000 23.26700
H  9.85500 2.90800 22.25600
H  9.25600 0.10700 22.91700
H  7.08200 2.33000 22.08600
H  7.88700 0.91600 21.42300
H  8.33400 2.52600 20.79300
H  12.04300 0.67400 22.62500
H  11.25300 1.58900 21.35000
H  11.59200 -1.24900 21.66500
H  11.62600 -0.29900 20.11000
H  10.06300 -0.82300 20.93400
H  13.40400 -2.27100 27.83700
H  12.80900 -1.79300 26.15900
H  11.83200 -2.82200 27.15600
H  11.99900 1.20200 31.34400
H  9.36800 -0.58300 34.27000
H  10.06100 0.97600 34.79200
H  10.67400 -0.54100 35.26700
Mg 54.55600 23.58400 44.75000
C  52.03200 25.66400 43.57200
C  52.96000 20.97800 42.84500
C  57.31500 21.61300 44.85800
C  56.32500 26.32100 45.58700
N  52.85100 23.43400 43.14100
C  51.93900 24.40500 42.88400
C  50.84500 23.98400 41.87400
C  51.05500 22.42700 41.84500
C  52.34200 22.20900 42.70600
C  49.82700 21.58500 42.36100
C  51.06600 24.85500 40.59100
C  51.22000 24.12000 39.26300
H  51.30200 24.84900 37.90600
N  55.03000 21.55500 44.16300
C  54.20400 20.69600 43.42200
C  54.87300 19.36200 43.39400
C  56.06400 19.48100 44.12400
C  56.18300 20.88000 44.50700
C  54.30400 18.34300 42.51200
C  57.04000 18.40800 44.28800
O  56.92700 17.32700 43.67600
C  58.22800 18.46000 45.23400
N  56.53300 23.94900 45.01500
C  57.51400 22.91700 45.11700
C  58.81200 23.56600 45.51200
C  58.58400 25.11000 45.66000
C  57.06600 25.11800 45.43300
C  59.48000 22.95800 46.75500
C  59.44500 26.04600 44.80400
C  60.06400 27.15500 45.63800
N  54.22400 25.62700 44.85500
C  54.97400 26.57000 45.41900
C  54.28400 27.82300 45.46100
C  53.05600 27.50600 44.79000
C  53.12400 26.19400 44.33600
C  54.72700 29.08500 46.10000
C  51.79300 28.01800 44.39300
O  51.37300 29.15400 44.55200
C  51.06600 26.84000 43.60200
C  50.62900 27.42300 42.35400
O  51.38700 27.90300 41.52300
O  49.25800 27.44200 42.27900
C  48.67500 28.09300 41.06100
H  52.46600 20.11500 42.39400
H  58.18800 20.98600 44.66700
H  56.95100 27.15500 45.91100
H  49.89200 24.31500 42.28800
H  51.24100 22.07000 40.83200
H  49.07700 21.63300 41.57100
H  49.45700 21.88300 43.34200
H  50.24800 20.58200 42.29400
H  52.00500 25.40600 40.63500
H  50.31100 25.63800 40.51900
H  50.52300 23.28700 39.17800
H  52.21500 23.67500 39.24000
H  54.11500 18.77400 41.52900
H  53.38300 17.96500 42.95600
H  54.81800 17.40000 42.32300
H  58.17100 19.20000 46.03200
H  58.89300 18.94800 44.52200
H  58.51300 17.47500 45.60500
H  59.57400 23.44600 44.74200
H  58.56700 25.41600 46.70600
H  59.31600 23.60300 47.61700
H  60.56600 23.04600 46.71400
H  59.04400 21.97700 46.94300
H  58.82600 26.46300 44.01000
H  60.24100 25.48500 44.31400
H  59.74400 28.13200 45.27600
H  61.14000 26.98200 45.62300
H  59.80000 27.07800 46.69200
H  55.81000 29.12000 45.98600
H  54.59900 29.15800 47.18000
H  54.35400 29.87300 45.44500
H  50.17200 26.51600 44.13500
H  49.08600 27.64700 40.15600
H  48.91100 29.15600 41.00500
H  47.58700 28.11000 41.12200

