158

Mg -3.20400 16.99900 26.45400
C  -3.72400 14.80300 29.18800
C  -4.06400 19.54100 28.54600
C  -3.19800 18.99300 23.83300
C  -3.61200 14.19100 24.40700
N  -3.72100 17.12900 28.66500
C  -3.63100 16.09700 29.57800
C  -3.82600 16.65300 31.04400
C  -4.14400 18.16500 30.82900
C  -3.97400 18.31400 29.20600
C  -5.62700 18.53500 31.22800
C  -2.52700 16.21700 31.87700
C  -1.79600 17.26300 32.81500
H  -1.30100 16.85200 34.25200
N  -3.28400 18.96900 26.29400
C  -3.54000 19.89900 27.29700
C  -3.33400 21.23200 26.77000
C  -2.99200 21.01400 25.36300
C  -3.15500 19.59200 25.12600
C  -3.52200 22.50700 27.57900
C  -2.62100 22.14400 24.37200
O  -2.56300 21.90900 23.16500
C  -2.41700 23.51500 24.73400
N  -3.37400 16.57300 24.45400
C  -3.17800 17.61700 23.48800
C  -3.28200 16.97300 22.03900
C  -3.42500 15.48500 22.33500
C  -3.35500 15.38700 23.81700
C  -4.37700 17.60600 21.07200
C  -2.35400 14.57000 21.65000
C  -2.84600 14.11200 20.23500
N  -3.52200 14.94100 26.69400
C  -3.60000 13.97800 25.81400
C  -3.83100 12.71500 26.44500
C  -3.94400 13.01400 27.79800
C  -3.72300 14.36000 27.89900
C  -4.02400 11.42900 25.73900
C  -4.27900 12.40500 29.05000
O  -4.62700 11.24300 29.27300
C  -4.08200 13.54900 30.00500
C  -3.14300 13.14500 31.07800
O  -1.91300 13.05100 30.93100
O  -3.82500 12.98000 32.29400
C  -3.01900 12.54800 33.43500
H  -4.17000 20.45100 29.14100
H  -3.30300 19.64100 22.96000
H  -3.76900 13.31800 23.76900
H  -4.73900 16.23800 31.47100
H  -3.57200 18.87500 31.42700
H  -5.58300 19.00000 32.21300
H  -6.16400 17.61000 31.43900
H  -6.30500 19.14900 30.63600
H  -1.72200 15.82500 31.25600
H  -2.88300 15.44400 32.55800
H  -2.51400 18.06900 32.96700
H  -0.93500 17.78900 32.40400
H  -2.50400 22.77900 27.85700
H  -4.03600 22.26900 28.51100
H  -4.13300 23.23800 27.04900
H  -1.88100 24.07800 23.97000
H  -1.71000 23.45700 25.56200
H  -3.33200 24.04700 24.99200
H  -2.32100 17.29400 21.63700
H  -4.42800 15.14700 22.07200
H  -4.81200 18.58200 21.28500
H  -5.31000 17.06400 21.22500
H  -4.14500 17.46300 20.01700
H  -2.11100 13.75900 22.33600
H  -1.50300 15.24900 21.57900
H  -3.86800 14.39700 19.98500
H  -2.82600 13.02800 20.35300
H  -2.19400 14.37200 19.40100
H  -4.77200 10.85400 26.28500
H  -3.13900 10.80000 25.64800
H  -4.47700 11.70100 24.78600
H  -5.01500 13.82400 30.49700
H  -3.24500 11.48300 33.49800
H  -3.32900 13.14600 34.29200
H  -1.93400 12.64400 33.38300
Mg 47.08400 17.28800 28.30400
C  45.11100 17.27100 31.17800
C  49.45700 19.11600 30.09800
C  48.49600 18.25100 25.49200
C  44.41200 16.04100 26.40100
N  47.12400 18.31300 30.50700
C  46.33900 17.90000 31.47100
C  46.93600 18.36500 32.84100
C  48.15600 19.25200 32.37900
C  48.29900 18.92700 30.89700
C  48.15900 20.73000 32.58000
C  47.22600 17.20000 33.82800
C  46.89100 17.28900 35.38000
H  46.50200 18.74800 35.83600
N  48.75500 18.33600 27.84100
C  49.61500 19.00800 28.69200
C  50.73500 19.57200 28.00100
C  50.41700 19.39200 26.61300
C  49.18000 18.58100 26.58200
C  52.00000 20.11300 28.68900
C  51.20200 19.99100 25.40500
O  50.85700 19.82300 24.23600
C  52.33400 20.86500 25.69200
N  46.50200 17.26500 26.23300
C  47.22300 17.71400 25.27000
C  46.67700 17.45500 23.87400
C  45.49400 16.48800 24.14500
C  45.44400 16.59900 25.64000
C  46.13600 18.73500 23.23600
C  45.51200 15.03900 23.59700
C  44.55300 14.73200 22.40900
N  45.20900 16.60200 28.68600
C  44.20200 16.07500 27.81200
C  43.07100 15.63200 28.59000
C  43.45500 16.07400 29.95000
C  44.68800 16.69700 29.90400
C  41.82000 14.99500 28.03600
C  42.92100 16.18000 31.31800
O  41.81300 15.99900 31.74700
C  44.02700 16.83100 32.20900
C  43.39500 17.93700 32.93200
O  43.02000 18.95900 32.38000
O  42.97200 17.51900 34.10700
C  42.33100 18.44600 35.07300
H  50.28200 19.64900 30.57500
H  49.01300 18.42100 24.54500
H  43.45700 15.74400 25.96200
H  46.12500 18.89100 33.34600
H  49.02000 18.84600 32.90400
H  48.06900 21.24900 31.62600
H  49.16100 20.88300 32.98100
H  47.26700 21.08900 33.09300
H  48.30900 17.07400 33.82200
H  46.84700 16.29000 33.36300
H  47.81300 17.07500 35.92100
H  46.11600 16.56300 35.62500
H  52.83600 19.55300 28.27100
H  52.00400 19.97700 29.77100
H  52.00000 21.19800 28.58600
H  52.05400 21.85300 26.05800
H  52.81800 20.91000 24.71600
H  53.18500 20.48300 26.25500
H  47.54100 17.10400 23.30900
H  44.54400 16.96900 23.91100
H  46.83300 19.50300 23.56900
H  45.10800 18.98800 23.49400
H  46.15500 18.67700 22.14700
H  45.18900 14.40800 24.42500
H  46.53400 14.87600 23.25500
H  43.77700 15.46900 22.20200
H  44.00600 13.89100 22.83500
H  45.15300 14.39000 21.56600
H  41.00200 14.76000 28.71600
H  42.08900 13.97200 27.77100
H  41.39400 15.66400 27.28900
H  44.41300 16.09100 32.90900
H  41.26800 18.34200 34.85600
H  42.41600 19.52400 34.93500
H  42.65800 18.26500 36.09700

