158

Mg 46.77000 25.05900 27.23500
C  48.00800 27.31400 29.69500
C  46.15600 22.80800 29.74600
C  46.01300 22.91000 24.85400
C  48.28400 27.20000 24.70500
N  47.22600 25.06300 29.54500
C  47.58000 26.15300 30.29300
C  47.24500 25.90500 31.75400
C  46.93400 24.30700 31.76700
C  46.80300 24.00000 30.24100
C  48.02800 23.35600 32.35900
C  46.18100 26.87400 32.35500
C  45.90700 26.53300 33.84900
H  46.32700 27.59200 34.87200
N  46.15000 23.16200 27.31100
C  45.89600 22.42800 28.47800
C  45.42200 21.11600 28.02900
C  45.38700 21.08600 26.61800
C  45.90400 22.42900 26.17100
C  45.00600 19.99600 28.99500
C  44.89400 20.00300 25.67800
O  45.09700 20.05200 24.46000
C  44.20100 18.74600 26.20300
N  47.18100 25.02500 24.98200
C  46.53500 24.10800 24.31300
C  46.75700 24.25300 22.82900
C  47.35600 25.75700 22.79600
C  47.68300 26.00700 24.23100
C  47.60200 23.10500 22.24400
C  46.47400 26.87200 22.07800
C  46.99200 27.45700 20.84100
N  47.94000 26.76700 27.18400
C  48.44200 27.54100 26.07200
C  49.09500 28.78300 26.56500
C  48.90500 28.70100 28.00300
C  48.16800 27.51600 28.24900
C  49.78100 29.85100 25.76300
C  49.23000 29.39600 29.19500
O  49.84400 30.46000 29.35600
C  48.54200 28.60400 30.27700
C  49.42700 28.49700 31.52900
O  50.48200 28.00900 31.59800
O  48.71600 29.12100 32.55600
C  49.37500 29.06500 33.83400
H  46.00000 22.07000 30.53700
H  45.67700 22.18600 24.10800
H  48.53100 27.87800 23.88500
H  48.12600 26.05300 32.37900
H  45.95100 24.16600 32.21500
H  48.47000 23.95900 33.15200
H  48.78300 23.08500 31.62000
H  47.53900 22.47200 32.76800
H  45.18400 26.65600 31.97100
H  46.38800 27.93200 32.19300
H  46.32500 25.55500 34.08800
H  44.84400 26.38300 34.03600
H  45.54900 20.12900 29.93100
H  45.31600 19.10500 28.44900
H  43.93300 20.09100 29.16100
H  43.48100 19.08800 26.94700
H  45.01600 18.15700 26.62200
H  43.83900 18.12300 25.38400
H  45.83500 24.21800 22.24900
H  48.32900 25.83500 22.31000
H  48.43700 22.91800 22.91900
H  48.14700 23.23800 21.30900
H  47.05000 22.17800 22.09400
H  46.32000 27.75000 22.70600
H  45.44700 26.53100 21.95000
H  46.96500 26.83400 19.94700
H  48.03000 27.69100 21.08000
H  46.54600 28.39800 20.52000
H  49.05800 30.33800 25.10800
H  50.62900 29.41200 25.23700
H  50.05400 30.72700 26.35100
H  47.59200 29.09400 30.48800
H  50.43800 29.29900 33.77200
H  49.29800 28.10400 34.34300
H  49.07000 29.87600 34.49700
Mg 9.50500 48.61400 25.74700
C  7.37100 48.86000 28.55800
C  11.95300 49.98700 27.60400
C  11.38800 48.43900 23.01400
C  6.69200 47.76700 23.92600
N  9.63400 49.25800 27.80000
C  8.68800 49.16800 28.80900
C  9.34400 49.53700 30.12900
C  10.63100 50.32900 29.67300
C  10.77100 49.81300 28.29500
C  10.49600 51.90600 29.68100
C  9.58600 48.34100 31.13200
C  9.02400 48.74900 32.53300
H  9.40800 47.74000 33.69200
N  11.53100 49.06600 25.39700
C  12.33000 49.69200 26.26500
C  13.62700 49.82500 25.64400
C  13.51600 49.16900 24.34300
C  12.09500 48.89100 24.17400
C  14.81800 50.40400 26.33100
C  14.55100 48.84500 23.41700
O  14.16100 48.31700 22.37800
C  16.00500 49.03800 23.67800
N  9.07600 48.30700 23.63800
C  10.04300 48.26400 22.72500
C  9.56700 47.59800 21.44500
C  8.19300 47.05800 21.85500
C  7.90700 47.80200 23.21900
C  9.64300 48.38800 20.08400
C  8.11900 45.47600 21.90800
C  8.25600 44.83000 23.32200
N  7.50700 48.31600 26.14700
C  6.45800 47.98000 25.28600
C  5.12100 47.91100 25.98000
C  5.49500 48.18200 27.28400
C  6.93500 48.42900 27.33000
C  3.73400 47.62700 25.38900
C  4.96900 48.27200 28.63400
O  3.83500 48.16600 29.10100
C  6.21700 48.56000 29.54800
C  6.28900 47.25800 30.21700
O  6.75800 46.19900 29.76500
O  5.87400 47.24100 31.54800
C  6.07900 45.99800 32.34700
H  12.82700 50.24000 28.20800
H  11.89900 48.13100 22.09900
H  5.90200 47.18300 23.44900
H  8.57500 50.21100 30.50700
H  11.46900 50.10600 30.33300
H  9.61000 52.22100 30.23300
H  10.60000 52.36000 28.69600
H  11.35100 52.28100 30.24300
H  10.64600 48.09000 31.17100
H  9.03800 47.45900 30.80200
H  7.95000 48.56600 32.50200
H  9.10100 49.82600 32.67700
H  15.56900 50.88600 25.70500
H  15.35100 49.73700 27.00900
H  14.46700 51.15900 27.03400
H  16.27100 50.06900 23.44100
H  16.49300 48.43900 22.91000
H  16.35800 48.66800 24.64100
H  10.28700 46.78400 21.35300
H  7.48200 47.35000 21.08200
H  9.26800 49.40500 20.19700
H  9.19600 47.80300 19.28000
H  10.70500 48.43400 19.84300
H  8.80900 45.06800 21.17000
H  7.15400 45.19200 21.48800
H  8.91200 45.37200 24.00200
H  8.70800 43.84100 23.24900
H  7.23600 44.82100 23.70700
H  3.42100 46.72400 25.91400
H  3.56500 47.63200 24.31200
H  3.09900 48.38300 25.85100
H  6.05700 49.40900 30.21200
H  5.83200 46.17500 33.39400
H  7.13000 45.74000 32.21600
H  5.42400 45.14900 32.15400

