158

Mg 8.30100 3.01600 27.87600
C  9.84100 1.40100 30.66600
C  6.40100 4.73800 29.83500
C  6.89200 4.27700 25.07800
C  9.62300 0.40400 25.80700
N  8.29300 3.09300 29.95800
C  8.97200 2.45800 30.98800
C  8.61900 3.05100 32.33500
C  7.33500 3.96300 32.08100
C  7.29200 3.93500 30.48800
C  6.04300 3.45300 32.71100
C  9.82800 3.93700 32.93700
C  10.31500 3.51900 34.36400
H  10.51800 4.68400 35.44400
N  6.88300 4.42700 27.49200
C  6.19500 4.99900 28.47700
C  5.28000 6.00300 27.81500
C  5.51400 5.98000 26.42400
C  6.44300 4.88900 26.28100
C  4.23300 6.77100 28.57600
C  4.81600 6.73800 25.30700
O  4.87800 6.43300 24.09200
C  4.00900 8.02500 25.69700
N  8.30900 2.40000 25.79900
C  7.60900 3.13400 24.84000
C  7.81600 2.64300 23.45000
C  8.67400 1.37300 23.70100
C  8.87300 1.35800 25.15600
C  6.41400 2.31800 22.79200
C  9.97200 1.41400 22.86100
C  10.12800 0.25300 21.84600
N  9.68700 1.32700 28.11200
C  10.02700 0.35400 27.16700
C  10.84300 -0.70100 27.86800
C  10.86600 -0.28500 29.21900
C  10.07200 0.90200 29.32800
C  11.44100 -1.90100 27.19900
C  11.38700 -0.57300 30.63400
O  12.16800 -1.43700 31.04200
C  10.75800 0.60600 31.59700
C  10.08200 -0.23000 32.69000
O  9.32400 -1.10800 32.43800
O  10.50300 0.18500 33.86900
C  9.99200 -0.45200 35.02100
H  5.96900 5.51200 30.47100
H  6.58600 4.83600 24.19000
H  9.94200 -0.43200 25.18100
H  8.48000 2.25900 33.07100
H  7.53500 4.99800 32.35900
H  6.21900 2.69700 33.47600
H  5.38600 3.01000 31.96300
H  5.45900 4.22400 33.21400
H  9.51600 4.96600 33.11700
H  10.64400 4.12200 32.23800
H  11.34300 3.18700 34.22500
H  9.64500 2.73100 34.71100
H  4.19500 7.83500 28.34200
H  4.44200 6.81400 29.64500
H  3.26000 6.30200 28.43200
H  2.97200 7.88000 26.00300
H  3.89800 8.62000 24.79100
H  4.49500 8.65700 26.44000
H  8.21900 3.32900 22.70500
H  8.19900 0.41400 23.49800
H  5.73500 2.12000 23.62000
H  6.55700 1.51100 22.07300
H  6.00200 3.17000 22.25000
H  10.83500 1.47600 23.52400
H  10.01300 2.37200 22.34300
H  11.00600 -0.36000 22.04900
H  10.35800 0.72900 20.89300
H  9.17700 -0.27900 21.86200
H  11.75500 -1.75200 26.16600
H  10.74200 -2.73500 27.26700
H  12.28600 -2.22500 27.80600
H  11.54500 1.20500 32.05500
H  8.90600 -0.53300 34.98500
H  10.33900 0.06600 35.91500
H  10.27000 -1.50200 35.10700
Mg -12.19000 38.52100 42.18400
C  -9.94600 36.13300 41.23300
C  -10.27600 40.85300 40.46200
C  -14.62900 40.68500 42.80000
C  -14.30000 35.96800 43.44800
N  -10.35600 38.45200 40.98700
C  -9.53000 37.37700 40.80700
C  -8.19600 37.77900 40.04400
C  -8.27600 39.33500 39.90300
C  -9.73300 39.54900 40.45800
C  -7.20600 40.24800 40.62000
C  -7.81200 36.98900 38.71800
C  -6.60900 35.91900 38.63700
H  -5.69800 36.28300 37.50500
N  -12.41400 40.56800 41.71500
C  -11.54300 41.33600 41.07200
C  -12.09200 42.68700 41.10700
C  -13.33200 42.67300 41.73200
C  -13.50100 41.25100 42.14300
C  -11.40200 43.84400 40.40000
C  -14.18700 43.88700 41.98300
O  -13.93100 44.97800 41.54300
C  -15.29800 43.71700 42.86300
N  -14.23800 38.26200 42.85000
C  -15.01700 39.35800 43.06400
C  -16.36300 38.99200 43.61500
C  -16.28500 37.42500 43.74700
C  -14.85100 37.19300 43.40300
C  -16.75900 39.73600 44.97800
C  -17.27800 36.75000 42.77000
C  -18.70500 36.89200 43.32000
N  -12.17100 36.47800 42.26900
C  -13.03000 35.57800 42.94600
C  -12.41700 34.27400 42.97700
C  -11.22700 34.40700 42.28000
C  -11.15700 35.76700 41.86800
C  -12.91800 32.98600 43.70000
C  -10.02200 33.69500 41.82500
O  -9.65700 32.55000 42.03200
C  -9.18500 34.84900 41.08100
C  -7.82200 34.79600 41.72000
O  -7.04900 33.91500 41.44200
O  -7.64200 35.83000 42.65700
C  -6.28600 35.98300 43.24700
H  -9.61400 41.59300 40.00700
H  -15.43500 41.29900 43.20800
H  -14.92900 35.16900 43.84500
H  -7.34400 37.47000 40.64900
H  -8.21600 39.57800 38.84200
H  -7.50800 40.55700 41.62100
H  -7.30800 41.11100 39.96200
H  -6.17500 39.91900 40.49400
H  -7.59300 37.78400 38.00500
H  -8.57700 36.45100 38.15800
H  -7.18100 35.02400 38.39500
H  -6.01400 35.77400 39.53900
H  -11.84600 44.21900 39.47800
H  -10.42200 43.46900 40.10600
H  -11.31800 44.71500 41.05100
H  -15.62200 44.67300 43.27500
H  -15.02900 43.18300 43.77400
H  -16.12600 43.22700 42.35000
H  -17.04700 39.43000 42.88800
H  -16.43800 37.15200 44.79100
H  -15.87500 40.11700 45.49000
H  -17.48100 39.08400 45.47000
H  -17.27300 40.63800 44.64500
H  -17.06700 35.69600 42.58600
H  -17.26500 37.10300 41.73900
H  -19.41000 37.14500 42.52800
H  -18.63300 37.54900 44.18600
H  -18.86800 35.85600 43.61800
H  -13.12300 32.24700 42.92500
H  -13.83800 33.30400 44.19200
H  -12.12100 32.65900 44.36700
H  -9.07800 34.54200 40.04100
H  -5.63500 36.58900 42.61700
H  -5.83300 35.00600 43.41600
H  -6.42400 36.63300 44.11100

