158

Mg -1.44400 17.14300 26.19500
C  -1.55300 14.91700 28.95500
C  -1.91100 19.64200 28.50200
C  -1.61200 19.15900 23.64900
C  -1.48600 14.27900 24.11000
N  -1.63700 17.19700 28.40400
C  -1.50900 16.22200 29.38400
C  -1.79500 16.83300 30.79100
C  -2.41600 18.27000 30.46200
C  -2.00800 18.38400 29.02700
C  -3.93200 18.28300 30.62100
C  -0.63100 16.87700 31.83300
C  -1.12400 16.37900 33.29900
H  -0.05600 16.06800 34.47200
N  -1.62100 19.21300 26.03600
C  -1.73000 20.06900 27.09800
C  -1.68700 21.40200 26.61600
C  -1.61300 21.31200 25.22400
C  -1.64700 19.88300 24.90200
C  -1.69700 22.58600 27.56900
C  -1.43500 22.41900 24.13000
O  -1.30700 22.24200 22.89100
C  -1.26900 23.79400 24.69500
N  -1.40000 16.77000 24.21700
C  -1.60200 17.75800 23.29700
C  -1.69100 17.25600 21.93000
C  -1.38400 15.72000 22.05200
C  -1.34900 15.53100 23.55100
C  -3.09600 17.60200 21.18100
C  0.00900 15.20400 21.41700
C  -0.14800 14.83100 19.95900
N  -1.52100 15.07200 26.43500
C  -1.65900 14.01000 25.48500
C  -1.74600 12.71300 26.13100
C  -1.72900 12.98700 27.52900
C  -1.52100 14.43900 27.67700
C  -1.94800 11.39200 25.52200
C  -1.81600 12.37900 28.88300
O  -1.90700 11.18400 29.22600
C  -1.82900 13.63800 29.87900
C  -0.90000 13.47000 30.95900
O  0.34100 13.57700 30.98000
O  -1.56100 13.04200 32.00500
C  -0.76600 12.38900 33.06700
H  -2.00200 20.31200 29.35900
H  -1.77700 19.74300 22.74100
H  -1.62000 13.41300 23.45800
H  -2.62600 16.22700 31.15400
H  -2.05300 19.03300 31.15100
H  -4.32000 17.31600 30.94100
H  -4.44400 18.59000 29.70900
H  -4.25300 18.94000 31.43000
H  -0.35800 17.92500 31.95600
H  0.29600 16.41300 31.49600
H  -1.53100 15.39400 33.07000
H  -1.89300 17.05900 33.66300
H  -2.02100 22.40900 28.59400
H  -2.30500 23.41800 27.21300
H  -0.64000 22.85100 27.61400
H  -0.54700 23.87600 25.50700
H  -2.24300 24.07400 25.09700
H  -0.97300 24.51200 23.93000
H  -0.96800 17.71900 21.25900
H  -2.25400 15.14800 21.72900
H  -2.84600 18.00500 20.19900
H  -3.68400 18.35300 21.70900
H  -3.68500 16.69700 21.03100
H  0.39600 14.39300 22.03500
H  0.77900 15.97500 21.43900
H  0.49400 15.47100 19.35300
H  -1.14500 14.80700 19.51700
H  0.44800 13.92700 19.83800
H  -0.98700 10.98200 25.21000
H  -2.48600 11.54000 24.58600
H  -2.57300 10.85800 26.23800
H  -2.79200 13.79400 30.36600
H  -1.54200 11.97800 33.71300
H  -0.24300 13.14400 33.65300
H  -0.02200 11.70200 32.66400
Mg 25.78600 0.86900 29.07600
C  27.60300 0.30500 32.06900
C  22.86200 1.12100 31.09000
C  24.09100 0.70100 26.37600
C  28.75600 0.02100 27.28000
N  25.29100 0.61600 31.37700
C  26.22900 0.48900 32.35900
C  25.55000 0.63400 33.74300
C  24.02600 0.73900 33.40900
C  24.02700 0.87100 31.90100
C  23.04700 -0.27500 34.03100
C  26.24600 1.69900 34.63300
C  25.39200 2.31800 35.77700
H  26.20600 2.73000 36.99000
N  23.78400 1.00600 28.71100
C  22.76400 1.09400 29.65500
C  21.52800 1.16200 28.88600
C  21.85200 0.99900 27.44500
C  23.30900 0.89000 27.46000
C  20.24200 1.09000 29.65400
C  20.95200 0.99300 26.19700
O  21.30500 0.93800 24.99900
C  19.45100 1.00700 26.39100
N  26.43100 0.53800 27.11500
C  25.44600 0.64800 26.18700
C  25.95600 0.50800 24.77600
C  27.50600 0.38800 25.02000
C  27.57800 0.28200 26.51600
C  25.32000 -0.63200 23.88400
C  28.37600 1.62500 24.54900
C  29.80200 1.27700 24.10900
N  27.82700 0.37600 29.52600
C  28.89400 0.06100 28.69100
C  30.12100 -0.18600 29.47700
C  29.59800 -0.14300 30.81900
C  28.21800 0.16000 30.77100
C  31.49200 -0.36800 28.95800
C  29.98800 -0.23900 32.22100
O  31.09100 -0.55100 32.68200
C  28.73000 0.07200 33.08000
C  28.40800 -0.96500 34.08300
O  27.86100 -2.05900 33.93800
O  28.98900 -0.65000 35.32100
C  28.86800 -1.63200 36.40600
H  21.99800 1.48600 31.64900
H  23.58000 0.63400 25.41300
H  29.62800 -0.06300 26.62900
H  25.75700 -0.29300 34.27700
H  23.75000 1.73300 33.76000
H  22.27100 -0.53900 33.31300
H  22.58000 0.19200 34.89800
H  23.53900 -1.18600 34.37300
H  26.55100 2.49700 33.95500
H  27.12300 1.31500 35.15400
H  24.68200 1.57600 36.14400
H  24.86700 3.16100 35.32700
H  19.62700 1.94300 29.36700
H  20.45100 0.91300 30.70900
H  19.85200 0.15300 29.25600
H  19.27400 0.75500 27.43700
H  19.07100 0.16800 25.80800
H  19.01300 1.98100 26.17500
H  25.75100 1.48500 24.33800
H  27.77200 -0.59600 24.63500
H  24.65100 -1.31700 24.40500
H  25.99600 -1.28200 23.32900
H  24.75600 -0.08400 23.12900
H  28.49600 2.34500 25.35900
H  27.78400 2.23400 23.86700
H  30.60700 1.66300 24.73500
H  29.93300 1.79000 23.15600
H  29.81900 0.19700 23.95900
H  31.61800 0.01000 27.94300
H  31.77800 -1.41800 29.02500
H  32.11500 0.14900 29.68800
H  28.81100 1.09900 33.43600
H  29.43700 -2.55500 36.29600
H  27.85100 -2.01600 36.48000
H  29.14300 -1.20800 37.37200

