158

Mg 44.93800 4.51200 48.30700
C  43.04900 7.15500 47.27600
C  42.43900 2.43800 47.62700
C  47.05600 1.83800 48.85600
C  47.75600 6.56800 48.31100
N  43.04200 4.81200 47.43700
C  42.35600 5.94900 47.14800
C  40.90300 5.71000 46.59500
C  40.67300 4.24100 47.12200
C  42.14700 3.80200 47.49600
C  39.49700 4.08600 48.16000
C  40.82200 5.84000 45.03500
C  40.01400 7.01300 44.39100
H  39.05500 6.71900 43.27800
N  44.75200 2.44400 48.06000
C  43.64900 1.76100 47.82900
C  43.89500 0.39900 47.78500
C  45.24200 0.16900 48.18000
C  45.79000 1.48400 48.35900
C  42.73800 -0.60800 47.66900
C  45.87300 -1.15000 48.48600
O  45.31500 -2.18900 48.12400
C  47.23300 -1.38400 49.01500
N  47.16700 4.19000 48.42700
C  47.75400 3.06000 48.93200
C  49.15800 3.15000 49.24000
C  49.32900 4.69300 49.07200
C  48.02700 5.21600 48.44800
C  49.59600 2.59800 50.59500
C  50.56600 5.16300 48.24000
C  51.43900 6.20300 48.87600
N  45.34100 6.50100 47.99300
C  46.54500 7.19300 47.99900
C  46.23100 8.62300 47.77700
C  44.86100 8.63500 47.55900
C  44.42400 7.36800 47.59700
C  47.08200 9.79900 47.79300
C  43.74500 9.61700 47.27100
O  43.63900 10.81800 47.15000
C  42.49600 8.54300 47.08600
C  41.44700 8.84700 48.19300
O  41.15800 8.09300 49.11400
O  40.89100 10.05400 47.89700
C  39.82700 10.44800 48.83200
H  41.49600 1.88900 47.59800
H  47.77800 1.03100 49.00200
H  48.61100 7.23400 48.45000
H  40.26700 6.47600 47.03900
H  40.30000 3.67900 46.26600
H  39.20100 5.06900 48.52600
H  39.91000 3.57700 49.03100
H  38.57400 3.71100 47.71800
H  40.42800 4.87100 44.72900
H  41.84400 5.91900 44.66300
H  40.71000 7.76900 44.02800
H  39.55500 7.50100 45.25200
H  42.92500 -1.29400 46.84300
H  41.79600 -0.11800 47.42500
H  42.58500 -1.25500 48.53400
H  47.41100 -2.44600 49.18200
H  47.38700 -0.74500 49.88400
H  47.78800 -1.08300 48.12700
H  49.69300 2.59900 48.46700
H  49.38200 5.08700 50.08700
H  48.68800 2.47900 51.18700
H  50.33300 3.21300 51.11200
H  50.09100 1.64300 50.41800
H  50.36800 5.60900 47.26500
H  51.28900 4.35100 48.15400
H  51.56200 6.02200 49.94300
H  50.84000 7.10700 48.76700
H  52.41200 6.32800 48.40100
H  46.70100 10.49300 48.54200
H  47.03600 10.22700 46.79200
H  48.07300 9.38800 47.98200
H  41.93600 8.62200 46.15500
H  38.95500 10.96300 48.43000
H  40.15800 10.91800 49.75800
H  39.27700 9.61100 49.26100
Mg -0.18600 43.73600 26.76900
C  1.87800 43.56300 29.62300
C  -2.93700 43.00400 28.83500
C  -2.10300 43.44400 24.05600
C  2.62000 44.31200 24.81300
N  -0.41700 43.35600 28.90000
C  0.50400 43.49000 29.86700
C  -0.10200 43.60800 31.24600
C  -1.56600 43.27700 31.00100
C  -1.70000 43.22200 29.48000
C  -2.15000 41.93600 31.69000
C  0.12600 44.92100 32.03100
C  0.38200 44.72000 33.54100
H  -0.18400 43.42700 34.27700
N  -2.24200 43.19700 26.49500
C  -3.21800 43.01500 27.45300
C  -4.54300 42.86400 26.78300
C  -4.29700 42.92000 25.38400
C  -2.85500 43.22200 25.28600
C  -5.88300 42.77500 27.52200
C  -5.26700 42.66900 24.12500
O  -4.85900 42.72700 22.93600
C  -6.69600 42.16900 24.39200
N  0.19900 43.79500 24.75200
C  -0.77400 43.62100 23.82000
C  -0.17100 43.63400 22.42600
C  1.27500 44.08000 22.62300
C  1.39200 44.06300 24.12500
C  -0.40100 42.25900 21.63900
C  1.61500 45.49400 22.08400
C  2.46300 45.54000 20.83000
N  1.79400 43.99500 27.12000
C  2.81700 44.22400 26.19000
C  4.06200 44.25900 26.95100
C  3.76800 44.05500 28.34600
C  2.36000 43.85400 28.29200
C  5.42500 44.29500 26.30100
C  4.21000 43.92000 29.64000
O  5.31600 44.00600 30.09000
C  3.01500 43.69800 30.56100
C  3.26100 42.54500 31.31500
O  3.54300 41.44500 30.84400
O  3.28100 42.78600 32.67300
C  3.70500 41.67500 33.49000
H  -3.85900 42.80000 29.38400
H  -2.68800 43.37800 23.13600
H  3.55700 44.48300 24.27900
H  0.34700 42.80000 31.82300
H  -2.28100 44.06200 31.24500
H  -2.77900 41.29700 31.07000
H  -2.74300 42.19200 32.56800
H  -1.29400 41.32900 31.98600
H  -0.75500 45.56000 32.09300
H  0.83400 45.51400 31.45200
H  0.10000 45.61500 34.09400
H  1.43500 44.80900 33.80700
H  -6.42000 41.90400 27.14400
H  -6.49700 43.65000 27.31000
H  -5.78000 42.74500 28.60700
H  -6.68900 41.28100 25.02300
H  -7.26200 41.96600 23.48200
H  -7.37800 42.86100 24.88600
H  -0.66600 44.33800 21.75700
H  2.03800 43.39300 22.25600
H  -0.99700 41.56600 22.23400
H  0.57500 41.77300 21.61900
H  -0.77000 42.35200 20.61800
H  2.04400 46.19200 22.80400
H  0.67200 46.01100 21.90800
H  1.74500 45.60800 20.01300
H  3.08000 44.64100 20.81600
H  3.18100 46.36000 20.82200
H  5.57800 43.39500 25.70500
H  6.13600 44.30000 27.12700
H  5.39000 45.16700 25.64800
H  2.83500 44.57100 31.18800
H  4.72400 41.35100 33.28200
H  3.01400 40.85800 33.28400
H  3.46800 41.82600 34.54400

