158

Mg 40.30800 8.35900 29.65900
C  42.28400 9.71500 32.23200
C  37.95900 7.53700 31.98000
C  38.55700 6.78800 27.19100
C  42.90700 9.03100 27.45000
N  40.27500 8.51100 31.82900
C  41.10300 9.24500 32.70600
C  40.50200 9.36200 34.03800
C  39.31100 8.40400 34.09500
C  39.12800 8.14500 32.50300
C  39.54200 7.07300 34.84900
C  40.04300 10.82800 34.47900
C  39.60000 10.93500 35.97000
H  40.52300 11.68500 36.86200
N  38.45500 7.35200 29.64600
C  37.61500 7.19200 30.67100
C  36.44800 6.37900 30.20700
C  36.57000 6.38600 28.80700
C  37.90600 6.86900 28.48900
C  35.32500 6.00200 31.12500
C  35.54900 6.00300 27.67000
O  35.71700 6.17500 26.48400
C  34.23100 5.39200 28.10000
N  40.74400 7.84100 27.63700
C  39.88200 7.16600 26.85400
C  40.36300 7.14300 25.38100
C  41.70900 7.95600 25.40700
C  41.83100 8.36000 26.94700
C  40.59300 5.65200 24.90200
C  41.74800 9.14400 24.39000
C  40.90300 10.28200 24.58900
N  42.26800 9.13000 29.72800
C  43.19900 9.42700 28.75600
C  44.39100 9.95400 29.31600
C  44.03700 10.24100 30.69300
C  42.72300 9.64900 30.88900
C  45.61300 10.20700 28.57100
C  44.46800 10.76200 31.96400
O  45.53100 11.27300 32.34300
C  43.30600 10.52100 32.90900
C  43.83700 9.81100 34.08500
O  44.28600 8.68100 33.94400
O  43.59400 10.51600 35.22400
C  44.01900 9.87700 36.45400
H  37.22400 7.43800 32.78200
H  38.11000 6.20800 26.38200
H  43.68800 9.17900 26.70100
H  41.27300 9.00700 34.72300
H  38.43400 8.89900 34.51100
H  40.49100 7.05400 35.38500
H  39.51500 6.16600 34.24500
H  38.86800 7.07000 35.70600
H  39.28100 11.20400 33.79600
H  40.89100 11.46200 34.22300
H  39.48900 9.94300 36.40900
H  38.62300 11.41700 35.94500
H  35.57400 6.23900 32.15900
H  35.22900 4.91600 31.10200
H  34.40500 6.53100 30.87700
H  33.77200 6.09000 28.80000
H  34.54400 4.47800 28.60400
H  33.59100 5.25600 27.22800
H  39.56300 7.39800 24.68600
H  42.57200 7.37800 25.07800
H  40.58700 5.69800 23.81300
H  39.74500 5.03500 25.20000
H  41.48700 5.21100 25.34200
H  41.69200 8.56000 23.47100
H  42.75500 9.53100 24.54700
H  40.16200 10.13500 23.80300
H  41.40700 11.21000 24.31800
H  40.46800 10.34400 25.58600
H  45.56800 11.17400 28.07000
H  45.74100 9.46600 27.78200
H  46.45300 10.25700 29.26400
H  42.83200 11.41100 33.32400
H  45.06700 10.08300 36.67300
H  43.80600 8.81200 36.54400
H  43.41300 10.29300 37.25900
Mg 35.88200 49.83900 25.36300
C  35.40300 48.04500 28.36800
C  34.27600 52.55100 26.87700
C  35.85300 51.21900 22.41800
C  36.61500 46.75900 23.84900
N  34.85300 50.23500 27.36900
C  35.02400 49.36700 28.42500
C  34.49700 50.08100 29.72700
C  34.15200 51.56200 29.22200
C  34.46100 51.46500 27.71300
C  32.63900 52.04000 29.57200
C  35.56900 50.06900 30.93900
C  35.11600 49.36700 32.26400
H  33.62700 49.60200 32.58700
N  35.26100 51.58600 24.73700
C  34.56500 52.60300 25.51800
C  34.46700 53.83500 24.63300
C  34.85900 53.43600 23.33800
C  35.37200 52.03700 23.42200
C  33.96100 55.21500 25.13100
C  34.79500 54.18300 21.96200
O  35.12900 53.80600 20.85100
C  34.10900 55.56900 22.01100
N  36.27500 49.09500 23.45300
C  36.31900 49.92900 22.35400
C  36.80000 49.19900 21.04600
C  37.03200 47.77900 21.51600
C  36.60200 47.83500 23.01500
C  35.76600 49.25300 19.90000
C  38.47400 47.38700 21.36700
C  39.48200 48.20800 22.34400
N  36.05600 47.79300 25.89700
C  36.30700 46.69600 25.20100
C  36.34800 45.51500 26.05200
C  36.03000 46.02400 27.31800
C  35.81200 47.41900 27.15800
C  36.65000 44.15500 25.73600
C  35.84300 45.64300 28.68500
O  35.94200 44.53600 29.21300
C  35.30800 46.95500 29.43500
C  33.93400 46.60800 29.76200
O  33.05400 46.77200 28.89200
O  33.80800 46.06900 31.01500
C  32.44900 45.52600 31.32800
H  33.78100 53.38700 27.37400
H  35.76100 51.63800 21.41400
H  36.82300 45.81200 23.34600
H  33.57600 49.58300 30.03000
H  34.82700 52.34900 29.55800
H  32.02300 51.30600 30.09100
H  32.23100 52.25000 28.58400
H  32.64400 52.97200 30.13800
H  35.86400 51.08400 31.20600
H  36.50300 49.59600 30.63700
H  35.62700 49.83400 33.10600
H  35.31100 48.29500 32.23500
H  34.23200 56.07700 24.52100
H  34.38300 55.33800 26.12800
H  32.88300 55.06700 25.07600
H  34.80900 56.28400 22.44200
H  33.13200 55.59400 22.49300
H  33.84800 55.85000 20.99000
H  37.70300 49.66300 20.64900
H  36.47200 46.99800 21.00200
H  34.94800 49.95200 20.08000
H  35.34700 48.29200 19.60300
H  36.34100 49.65000 19.06400
H  38.76400 47.65500 20.35100
H  38.46700 46.31200 21.54900
H  40.11400 47.51500 22.90000
H  38.95100 48.87400 23.02500
H  40.17500 48.84400 21.79400
H  37.36000 43.70200 26.42700
H  37.12000 44.19200 24.75300
H  35.69400 43.63200 25.76500
H  35.87900 47.15800 30.34000
H  32.39600 44.50600 30.94800
H  31.62400 46.02300 30.81800
H  32.17200 45.64400 32.37500

