158

Mg 35.80900 49.31800 24.75400
C  36.06100 47.38100 27.65100
C  34.74000 51.86200 26.81500
C  34.88700 51.02200 21.94300
C  36.76900 46.55800 22.90500
N  35.31200 49.52000 26.91600
C  35.50900 48.63400 27.92700
C  35.23300 49.23600 29.24300
C  34.66100 50.64400 28.96300
C  34.90000 50.68400 27.46000
C  33.11900 50.82100 29.34700
C  36.63000 49.41000 30.03200
C  36.54300 49.46100 31.58700
H  35.13800 49.45400 32.27200
N  34.98400 51.16300 24.38700
C  34.69500 52.10900 25.41100
C  34.24700 53.37000 24.78100
C  34.24900 53.09800 23.31900
C  34.69600 51.71400 23.16900
C  33.78600 54.53900 25.48300
C  33.90900 54.08100 22.20500
O  33.73200 53.79300 21.02800
C  33.68600 55.55200 22.62900
N  36.02400 48.91400 22.70300
C  35.61800 49.78800 21.75800
C  35.89900 49.29800 20.33000
C  36.36000 47.80700 20.59900
C  36.47200 47.74200 22.13900
C  34.62900 49.30900 19.42400
C  37.75200 47.37700 19.92900
C  39.06000 47.85500 20.52700
N  36.37400 47.41400 25.14200
C  36.90000 46.42900 24.31000
C  37.35100 45.27400 25.06000
C  37.01900 45.58800 26.37200
C  36.43000 46.89800 26.38400
C  37.93600 44.09400 24.48300
C  37.08700 45.07900 27.67500
O  37.51800 43.96700 28.08900
C  36.47500 46.22500 28.56500
C  35.32700 45.64800 29.29600
O  34.15500 45.59200 28.93800
O  35.80600 45.30300 30.56900
C  34.81500 45.09900 31.62500
H  34.76000 52.67400 27.54500
H  34.68000 51.61100 21.04700
H  37.15100 45.72300 22.31400
H  34.55700 48.61700 29.83200
H  35.18100 51.43300 29.50600
H  32.61300 49.95100 29.76600
H  32.52400 50.95900 28.44500
H  33.04300 51.71500 29.96500
H  37.12400 50.27200 29.58400
H  37.13700 48.47300 29.80000
H  37.02100 50.40500 31.85100
H  37.15700 48.65300 31.98500
H  33.73700 54.46600 26.57000
H  32.79500 54.82700 25.13500
H  34.42900 55.39500 25.27800
H  33.66200 56.03000 21.64900
H  34.51100 55.98900 23.19200
H  32.68700 55.51300 23.06100
H  36.64700 50.01700 19.99700
H  35.61100 47.10700 20.22900
H  33.73000 48.95200 19.92600
H  34.83500 48.70000 18.54400
H  34.42100 50.32800 19.09600
H  37.66200 47.64000 18.87500
H  37.70200 46.28900 19.97800
H  39.55000 48.37400 19.70400
H  39.60300 46.97200 20.86600
H  38.96300 48.57600 21.33800
H  37.10700 43.38800 24.51200
H  38.67900 43.73500 25.19500
H  38.22800 44.07600 23.43300
H  37.34300 46.43200 29.19200
H  34.77400 44.03100 31.83800
H  33.80900 45.39100 31.32200
H  35.07400 45.64800 32.53000
Mg 9.56400 47.64000 25.92400
C  7.80700 47.65800 28.89000
C  12.27100 49.01100 27.63500
C  11.28900 47.61000 22.99600
C  6.63500 46.68900 24.20400
N  9.92700 48.38400 27.96100
C  9.07200 48.22000 29.00400
C  9.87200 48.52100 30.30900
C  11.07600 49.37800 29.81400
C  11.13200 48.90700 28.38100
C  10.78400 50.93800 29.77000
C  10.33800 47.30600 31.12900
C  10.62400 47.56000 32.65700
H  10.39900 46.40300 33.52400
N  11.54300 48.19900 25.37900
C  12.50200 48.71900 26.26500
C  13.73300 48.67200 25.54300
C  13.50800 48.30800 24.19200
C  12.01600 48.07100 24.16000
C  15.04500 49.00800 26.22700
C  14.37100 48.17300 23.01000
O  13.99900 47.75100 21.89100
C  15.89200 48.44600 23.12500
N  8.94100 47.36300 23.89800
C  9.88900 47.33200 22.90400
C  9.20500 46.90000 21.55800
C  7.89300 46.27100 21.93700
C  7.77800 46.82500 23.36200
C  9.10100 48.10800 20.59200
C  7.94500 44.69000 21.71500
C  8.57100 43.83800 22.83200
N  7.57600 47.32900 26.40400
C  6.48300 46.96100 25.60600
C  5.33100 46.78400 26.40100
C  5.81500 46.99600 27.72200
C  7.18800 47.34300 27.63000
C  3.94100 46.60200 25.87700
C  5.42000 46.93000 29.13700
O  4.36300 46.66600 29.71600
C  6.76100 47.33500 29.96700
C  6.95400 46.13900 30.82000
O  7.30500 45.04600 30.35400
O  6.54000 46.42200 32.06700
C  6.86200 45.42000 33.05300
H  13.14300 49.41200 28.15400
H  11.69500 47.59200 21.98300
H  5.79800 46.14600 23.76000
H  9.23800 49.19100 30.89000
H  11.97900 49.07500 30.34500
H  11.17300 51.34500 30.70300
H  9.71300 51.10500 29.65500
H  11.34100 51.29700 28.90400
H  11.27300 47.09400 30.61000
H  9.70500 46.42200 31.05600
H  10.05000 48.43000 32.97700
H  11.62800 47.98400 32.64300
H  15.04300 48.78600 27.29400
H  15.21300 50.08500 26.23200
H  15.90600 48.52000 25.77000
H  16.24400 47.66400 23.79800
H  16.21800 49.33900 23.65800
H  16.42000 48.30300 22.18200
H  9.95100 46.19900 21.18100
H  7.09500 46.61600 21.28000
H  8.07100 48.23900 20.26000
H  9.67800 48.09400 19.66800
H  9.41900 48.97100 21.17900
H  8.45000 44.47600 20.77300
H  6.90100 44.41600 21.55900
H  9.03900 44.47700 23.58100
H  9.31200 43.19200 22.36000
H  7.80500 43.20200 23.27500
H  3.44300 47.53500 26.14200
H  3.43500 45.73600 26.30400
H  3.83500 46.51900 24.79600
H  6.53400 48.21900 30.56300
H  6.84400 45.87300 34.04500
H  7.81100 44.89900 32.92400
H  6.04700 44.69900 33.11100

