158

Mg 16.87600 52.08900 26.54900
C  19.22600 50.67900 28.84400
C  14.87500 52.69300 29.17400
C  14.84300 53.11400 24.40800
C  19.06300 50.79700 23.95700
N  17.15500 51.84400 28.69800
C  18.14500 51.22500 29.43700
C  17.77900 51.26500 30.92200
C  16.23800 51.51600 30.97500
C  16.03300 51.98700 29.50600
C  15.44900 50.26600 31.07600
C  18.58700 52.23200 31.76500
C  18.58600 52.02800 33.32000
H  17.70100 50.87600 33.93800
N  15.16800 52.94800 26.76000
C  14.47900 53.10800 27.89000
C  13.27200 53.83200 27.58800
C  13.19700 53.97400 26.15100
C  14.38500 53.28300 25.67800
C  12.35300 54.30500 28.60500
C  12.09600 54.55500 25.20600
O  12.23600 54.66000 24.01400
C  10.86700 55.07700 25.80700
N  16.91500 51.84600 24.43900
C  15.88600 52.43500 23.81200
C  16.14000 52.49000 22.27200
C  17.65200 52.05600 22.14500
C  17.95100 51.58900 23.57700
C  15.08600 51.59400 21.47800
C  18.67000 53.22500 21.81500
C  19.16400 53.22000 20.38600
N  18.74800 50.94800 26.38000
C  19.47700 50.55300 25.28000
C  20.76600 49.97000 25.77400
C  20.66600 49.93400 27.12000
C  19.47000 50.61700 27.45000
C  21.86400 49.42300 24.91500
C  21.32900 49.53300 28.36500
O  22.30800 48.91500 28.56100
C  20.47000 50.06200 29.53400
C  20.19600 48.89400 30.41700
O  20.03100 47.74900 30.01700
O  20.25200 49.21400 31.78700
C  20.44900 48.05900 32.70800
H  14.26500 52.87700 30.06100
H  14.19800 53.59000 23.66700
H  19.81600 50.54400 23.20800
H  17.88800 50.23800 31.27100
H  15.84600 52.27300 31.65500
H  15.63100 49.57700 30.25100
H  14.39900 50.53600 31.19500
H  15.63500 49.80100 32.04400
H  18.27000 53.26200 31.60500
H  19.58200 52.16200 31.32700
H  18.22500 52.96800 33.73800
H  19.62800 51.83200 33.57200
H  11.59600 53.53000 28.72400
H  11.98700 55.29200 28.32200
H  12.81400 54.44500 29.58300
H  10.13000 55.48600 25.11600
H  11.13700 55.95900 26.38700
H  10.34800 54.28200 26.34200
H  15.88800 53.50200 21.95700
H  17.59600 51.25700 21.40500
H  15.59000 50.99000 20.72400
H  14.29200 52.20500 21.04800
H  14.50600 50.92900 22.11800
H  19.53800 53.14600 22.47000
H  18.09600 54.14300 21.93600
H  18.55500 53.94000 19.83900
H  18.92700 52.22400 20.01100
H  20.22000 53.48600 20.34500
H  21.92700 49.82300 23.90300
H  21.73000 48.34400 24.84000
H  22.77900 49.65900 25.45900
H  21.01800 50.81500 30.10100
H  21.12600 48.26600 33.53700
H  20.82100 47.17600 32.18700
H  19.56600 47.67100 33.21500
Mg -1.73000 33.76300 27.53800
C  -3.32800 32.17700 30.03800
C  -0.15700 35.77100 29.87100
C  -0.33500 35.62700 25.01200
C  -3.50100 31.83700 25.23000
N  -1.98300 34.16600 29.73900
C  -2.52200 33.23600 30.55200
C  -2.09400 33.50200 31.97700
C  -1.20600 34.82000 31.94000
C  -1.10100 34.97500 30.44300
C  -1.77000 36.11300 32.72200
C  -1.35200 32.24000 32.56500
C  -1.81500 31.64600 33.86600
H  -1.02900 31.86200 35.16700
N  -0.42000 35.51500 27.51600
C  0.21200 36.09900 28.56100
C  1.18800 37.01400 28.08900
C  1.06200 37.11100 26.69100
C  0.11600 36.00200 26.33400
C  1.98100 37.89500 29.05000
C  1.74700 38.10400 25.73800
O  1.47000 38.11100 24.57000
C  2.88400 38.95700 26.30400
N  -1.82100 33.75900 25.47700
C  -1.17300 34.61600 24.67900
C  -1.41700 34.19400 23.21200
C  -2.42500 33.02400 23.23400
C  -2.59200 32.81800 24.75700
C  -1.88300 35.39100 22.20000
C  -1.86400 31.72700 22.51700
C  -0.67000 31.07800 23.16600
N  -3.14900 32.27000 27.57500
C  -3.72000 31.51400 26.61000
C  -4.58500 30.42400 27.24300
C  -4.47100 30.68900 28.57900
C  -3.63200 31.84900 28.74900
C  -5.41500 29.33600 26.45500
C  -4.99700 30.32800 29.81600
O  -5.82200 29.44300 30.08400
C  -4.28400 31.18500 30.79700
C  -5.28800 31.87700 31.65800
O  -5.80700 32.93200 31.34500
O  -5.50800 31.20800 32.80200
C  -6.60200 31.64700 33.61100
H  0.31100 36.31200 30.69500
H  0.15200 36.14200 24.18100
H  -4.00000 31.27600 24.43700
H  -2.87500 33.75800 32.69400
H  -0.20400 34.51400 32.24100
H  -2.38900 36.82000 32.17000
H  -0.95300 36.76500 33.03300
H  -2.27200 35.73300 33.61200
H  -0.32300 32.49400 32.82000
H  -1.34600 31.42600 31.84000
H  -1.96000 30.56900 33.78300
H  -2.82100 31.97000 34.13200
H  2.14600 37.46200 30.03700
H  1.56800 38.88600 29.24000
H  2.99400 38.02400 28.66700
H  2.64500 39.66600 27.09600
H  3.20300 39.48100 25.40300
H  3.59100 38.17500 26.58400
H  -0.44700 33.84700 22.85700
H  -3.37100 33.21400 22.72600
H  -2.97200 35.37100 22.24700
H  -1.42700 35.36000 21.21100
H  -1.65100 36.39700 22.55000
H  -1.50800 32.00700 21.52600
H  -2.64300 30.97500 22.39700
H  -0.35300 31.57500 24.08300
H  0.15900 31.13300 22.46000
H  -0.83400 30.02400 23.39100
H  -5.32500 28.46100 27.09900
H  -5.06100 29.19600 25.43400
H  -6.47000 29.60600 26.42400
H  -3.60900 30.48200 31.28600
H  -6.97100 32.61300 33.26500
H  -6.24800 31.85100 34.62100
H  -7.45900 30.98100 33.51300

