158

Mg 47.83400 24.49300 28.21000
C  48.76500 26.91000 30.55400
C  47.46900 22.18900 30.78700
C  47.03800 22.18500 25.89100
C  48.80500 26.70600 25.66800
N  48.10400 24.52800 30.36700
C  48.35000 25.65700 31.11400
C  48.01900 25.45200 32.58700
C  47.88500 23.89600 32.72700
C  47.78300 23.44300 31.23300
C  48.91700 23.19900 33.56000
C  46.75900 26.29900 32.91400
C  46.84300 27.26300 34.12500
H  45.80800 27.14500 35.25500
N  47.27600 22.47500 28.29900
C  47.18200 21.72600 29.46200
C  46.75200 20.38500 29.11200
C  46.60400 20.36700 27.66200
C  46.98600 21.70800 27.22600
C  46.56000 19.23100 30.04200
C  46.07000 19.23100 26.73300
O  45.80000 19.46100 25.58300
C  45.65800 17.97000 27.32600
N  47.87300 24.44700 26.04200
C  47.42000 23.40100 25.34900
C  47.39300 23.75700 23.78900
C  47.77400 25.29300 23.81600
C  48.21000 25.52600 25.28000
C  48.29700 22.93100 22.92100
C  46.66600 26.20000 23.23100
C  45.47000 26.45500 24.20900
N  48.67000 26.40900 28.08800
C  48.95900 27.16100 27.00900
C  49.41000 28.48200 27.46400
C  49.28600 28.48700 28.85600
C  48.87600 27.16500 29.16800
C  50.06800 29.57400 26.68000
C  49.50000 29.20800 30.08000
O  49.82800 30.33900 30.25000
C  49.12100 28.21600 31.26200
C  50.24700 28.10600 32.14100
O  51.13100 27.18600 32.13300
O  50.16300 29.05500 33.11000
C  51.05500 28.79200 34.30400
H  47.47300 21.51800 31.64800
H  46.69500 21.59300 25.04000
H  49.03000 27.55400 25.01800
H  48.82800 25.92500 33.14400
H  46.94300 23.66500 33.22500
H  49.58200 23.90900 34.05200
H  49.47700 22.61600 32.82800
H  48.54600 22.51900 34.32700
H  45.93500 25.58700 32.88000
H  46.57500 27.00100 32.10100
H  46.77800 28.28000 33.73900
H  47.78100 27.09300 34.65400
H  47.03400 19.47300 30.99400
H  47.11200 18.37900 29.64600
H  45.52700 18.92200 30.19900
H  44.96800 18.23000 28.12900
H  46.49100 17.32200 27.60100
H  45.09700 17.42100 26.57000
H  46.38500 23.52500 23.44600
H  48.67300 25.52500 23.24500
H  47.89600 21.94400 22.68700
H  49.36800 22.99900 23.11000
H  48.15500 23.44300 21.97000
H  46.33800 25.93700 22.22600
H  47.16800 27.16800 23.20900
H  44.63500 25.94500 23.72900
H  45.28400 27.52100 24.34300
H  45.70000 26.12000 25.22000
H  49.82600 30.55600 27.08600
H  49.67000 29.50700 25.66700
H  51.15800 29.54900 26.69500
H  48.31900 28.65300 31.85600
H  50.42400 28.20100 34.96800
H  51.39000 29.75400 34.69100
H  51.93700 28.18100 34.10900
Mg 49.81900 46.51200 40.25100
C  46.70200 47.88600 39.32000
C  48.85600 43.61900 38.83200
C  53.05600 45.41100 40.44200
C  50.90200 49.78400 40.91600
N  47.92000 45.83000 39.20300
C  46.78900 46.52000 38.95700
C  45.70100 45.62300 38.36600
C  46.29000 44.14400 38.48900
C  47.75800 44.50900 38.86300
C  45.47800 43.21500 39.46200
C  45.34700 45.95200 36.86500
C  43.78500 45.93000 36.59600
H  43.36500 44.89200 35.60800
N  50.81900 44.76300 39.72300
C  50.20800 43.68800 39.15000
C  51.13900 42.54700 39.10900
C  52.41300 43.07300 39.47800
C  52.13700 44.44900 39.95200
C  50.75200 41.12300 38.60500
C  53.71000 42.27900 39.54500
O  53.75700 41.07600 39.35100
C  54.96100 42.84700 39.99600
N  51.73200 47.49300 40.53800
C  52.90600 46.76800 40.71300
C  54.03000 47.67700 41.05700
C  53.34100 49.08100 41.00200
C  51.90200 48.77600 40.88100
C  54.68000 47.26300 42.39600
C  53.90700 50.02900 39.93500
C  54.67300 51.31700 40.39400
N  48.93100 48.45600 40.37300
C  49.54100 49.66900 40.54900
C  48.49500 50.72000 40.36600
C  47.29700 50.06500 40.02800
C  47.68700 48.71200 39.89700
C  48.78500 52.14100 40.49700
C  45.94300 50.20700 39.70300
O  45.24100 51.21300 39.77000
C  45.47400 48.86400 39.12000
C  44.22300 48.38800 39.77600
O  43.98900 48.48700 40.94900
O  43.36200 47.87700 38.85700
C  42.02000 47.62000 39.33700
H  48.63000 42.67900 38.32400
H  54.09700 45.10900 40.57100
H  51.15700 50.75100 41.35500
H  44.90600 45.79300 39.09200
H  46.29800 43.52700 37.59100
H  46.01200 42.92200 40.36600
H  45.12200 42.31300 38.96400
H  44.62200 43.74000 39.88400
H  45.87700 45.26600 36.20400
H  45.83200 46.91500 36.70700
H  43.48900 46.93300 36.28700
H  43.29300 45.70800 37.54300
H  50.21800 41.13300 37.65500
H  50.27900 40.53700 39.39200
H  51.64200 40.53200 38.38700
H  54.90700 42.92800 41.08200
H  55.14400 43.77000 39.44500
H  55.76900 42.19700 39.66000
H  54.77100 47.65500 40.25800
H  53.46600 49.54500 41.98100
H  54.09300 46.56400 42.99200
H  54.94100 48.16500 42.94900
H  55.66300 46.90400 42.09100
H  53.13700 50.27300 39.20300
H  54.59000 49.41900 39.34300
H  54.15000 52.25300 40.19600
H  55.65500 51.27900 39.92400
H  54.84800 51.23300 41.46600
H  48.43100 52.46000 41.47700
H  48.24800 52.70800 39.73700
H  49.82800 52.45600 40.53800
H  45.37000 48.87400 38.03500
H  41.89300 47.30100 40.37200
H  41.67400 46.75400 38.77300
H  41.38800 48.48000 39.11700

