158

Mg 24.59900 -4.83400 46.64700
C  26.29400 -2.06300 45.32000
C  21.84500 -3.98200 44.65500
C  23.29800 -7.90700 47.15600
C  27.61300 -5.99700 48.01800
N  24.22400 -3.22000 45.16400
C  25.02500 -2.16900 44.80400
C  24.32600 -1.26100 43.81000
C  22.79900 -1.58400 44.05500
C  22.94400 -3.05000 44.61700
C  21.95300 -0.67500 45.03000
C  24.81700 -1.58700 42.37300
C  25.36500 -0.52100 41.45300
H  24.85500 -0.60700 39.99400
N  22.76600 -5.74900 46.06700
C  21.75700 -5.18300 45.35300
C  20.71100 -6.10800 45.37200
C  21.11600 -7.28200 46.09800
C  22.44800 -7.04600 46.44600
C  19.39100 -5.82400 44.69800
C  20.18900 -8.51700 46.29400
O  19.08700 -8.61400 45.70000
C  20.55800 -9.78300 47.08800
N  25.30100 -6.75200 47.37400
C  24.59000 -7.86600 47.56600
C  25.25700 -8.81400 48.60100
C  26.73600 -8.33400 48.62000
C  26.59600 -6.95300 47.90500
C  24.62000 -8.95600 50.03300
C  27.72700 -9.26000 47.94800
C  28.70600 -10.00800 48.78900
N  26.60100 -4.15800 46.70800
C  27.67400 -4.70700 47.37600
C  28.79500 -3.69200 47.38200
C  28.34600 -2.65600 46.53500
C  27.01400 -2.98200 46.12800
C  30.08300 -3.77100 48.16300
C  28.68700 -1.33800 45.94600
O  29.72000 -0.67500 46.06100
C  27.37600 -0.90100 45.06400
C  26.86000 0.49900 45.42200
O  27.15300 1.55400 44.87200
O  25.94600 0.32200 46.45400
C  25.30200 1.53600 46.90600
H  21.02200 -3.51300 44.11200
H  22.84400 -8.79400 47.60300
H  28.48800 -6.21500 48.63500
H  24.55400 -0.23900 44.11100
H  22.32800 -1.60800 43.07200
H  21.00200 -0.38900 44.58000
H  22.40100 0.27100 45.33100
H  21.69600 -1.15800 45.97300
H  24.08900 -2.18100 41.82000
H  25.66600 -2.25800 42.50700
H  26.44300 -0.68000 41.47800
H  25.07700 0.47200 41.79700
H  19.20100 -4.77200 44.91200
H  18.54800 -6.38000 45.10900
H  19.36400 -6.05200 43.63300
H  20.75500 -9.43700 48.10300
H  21.42900 -10.32000 46.71300
H  19.66000 -10.39700 47.15300
H  25.16300 -9.80300 48.15300
H  27.13800 -8.27600 49.63100
H  25.10700 -8.36100 50.80600
H  24.35500 -9.96500 50.35000
H  23.74200 -8.33700 49.85200
H  28.34900 -8.62600 47.31600
H  27.22200 -9.90600 47.23000
H  29.68100 -9.52400 48.74000
H  28.75300 -11.04400 48.45200
H  28.45400 -9.92500 49.84600
H  30.89100 -3.16200 47.75700
H  30.35500 -4.78700 48.45100
H  29.88700 -3.23300 49.09100
H  27.58800 -0.78500 44.00200
H  24.78600 2.00000 46.06600
H  25.88300 2.26700 47.47000
H  24.49300 1.30500 47.59800
Mg -6.91900 26.05400 25.30700
C  -5.24800 27.29100 28.10400
C  -8.31300 23.70400 27.49000
C  -8.06100 24.35500 22.48900
C  -5.05600 27.95800 23.21700
N  -6.82300 25.62100 27.50100
C  -6.15900 26.35900 28.41700
C  -6.58700 26.01500 29.83500
C  -7.41200 24.67800 29.62100
C  -7.55300 24.66700 28.14600
C  -6.79700 23.34500 30.24400
C  -7.37400 27.19300 30.57400
C  -7.07900 27.40500 32.02800
H  -6.63100 26.17400 32.86200
N  -8.18300 24.31900 25.03400
C  -8.59500 23.52200 26.05700
C  -9.27900 22.40800 25.44400
C  -9.33500 22.53400 23.99900
C  -8.53700 23.78500 23.78700
C  -9.79900 21.30900 26.24000
C  -10.03400 21.71600 22.90000
O  -10.04800 22.17300 21.77800
C  -10.69600 20.41200 23.27900
N  -6.82200 26.32400 23.13600
C  -7.30200 25.41800 22.20600
C  -6.81100 25.82600 20.74900
C  -6.00200 27.15200 21.03100
C  -5.96900 27.18700 22.58700
C  -6.15600 24.72000 19.90400
C  -6.63100 28.46600 20.44300
C  -5.96800 29.04400 19.18200
N  -5.54300 27.51600 25.54700
C  -4.77200 28.14300 24.61100
C  -3.83800 29.03700 25.29800
C  -3.99800 28.74700 26.73400
C  -5.01500 27.77000 26.79500
C  -2.96300 30.06500 24.69900
C  -3.62100 29.12900 28.06300
O  -2.78200 29.95000 28.44700
C  -4.27900 28.03500 28.99100
C  -3.26900 27.11900 29.60700
O  -3.05500 26.01400 29.22900
O  -2.57400 27.73600 30.64500
C  -1.48500 26.92000 31.18200
H  -8.75300 22.97300 28.17200
H  -8.34000 23.82000 21.57900
H  -4.41000 28.53900 22.55600
H  -5.67700 25.86900 30.41700
H  -8.42200 24.81900 30.00400
H  -6.02900 22.98800 29.55800
H  -7.51100 22.54500 30.43800
H  -6.37900 23.60200 31.21700
H  -8.45000 27.18200 30.40100
H  -7.11400 28.14900 30.12000
H  -7.98500 27.79900 32.48700
H  -6.31300 28.17900 32.07800
H  -10.86500 21.47100 26.39600
H  -9.32600 21.20600 27.21700
H  -9.62900 20.33900 25.77300
H  -9.94900 19.70500 23.64000
H  -11.24300 20.07200 22.40000
H  -11.49500 20.61300 23.99200
H  -7.71500 26.05200 20.18300
H  -5.06300 26.97900 20.50500
H  -5.91600 23.88200 20.55900
H  -5.21800 25.03900 19.45000
H  -6.82900 24.27500 19.17200
H  -6.67100 29.37000 21.05100
H  -7.63400 28.31900 20.04300
H  -6.71100 29.40900 18.47300
H  -5.23500 28.37000 18.73900
H  -5.43100 29.92800 19.52700
H  -3.35600 30.40700 23.74200
H  -2.04100 29.54700 24.43400
H  -2.67100 30.82300 25.42600
H  -4.75600 28.71400 29.69700
H  -0.64600 26.97800 30.49000
H  -1.81200 25.88000 31.16700
H  -1.18700 27.34200 32.14200

