158

Mg 47.37600 44.66100 42.55200
C  44.00800 43.46000 42.41800
C  48.23800 41.20200 42.36700
C  50.37200 45.63200 42.36600
C  46.15300 47.89500 42.03300
N  46.20700 42.60100 42.50800
C  44.86000 42.33500 42.51100
C  44.51900 40.89000 42.28000
C  45.87000 40.14600 42.55600
C  46.88100 41.39400 42.52200
C  45.74300 39.30800 43.88000
C  43.84000 40.60900 40.83800
C  44.40600 41.24800 39.54500
H  44.15100 40.54700 38.20000
N  49.07500 43.55800 42.42900
C  49.30200 42.16200 42.35500
C  50.74200 41.95700 42.23300
C  51.40400 43.18400 42.20500
C  50.27700 44.19600 42.32600
C  51.33600 40.57000 42.22500
C  52.91500 43.34000 42.16600
O  53.62700 42.34000 42.00700
C  53.47400 44.67300 42.07100
N  48.16700 46.60600 42.23700
C  49.49400 46.70600 42.33200
C  49.88300 48.19800 42.42200
C  48.59400 48.87400 41.83800
C  47.56600 47.78100 42.01100
C  50.15300 48.64200 43.92400
C  48.84300 49.27800 40.38600
C  47.92500 50.23100 39.66700
N  45.54200 45.51700 42.15600
C  45.18500 46.86200 42.06400
C  43.72100 47.02200 42.01000
C  43.21700 45.68800 42.21700
C  44.34200 44.81700 42.25300
C  42.99000 48.38900 41.69600
C  42.00900 44.95100 42.27700
O  40.83400 45.32700 42.17300
C  42.44900 43.44800 42.51800
C  42.02800 42.95000 43.84000
O  41.52500 41.85000 44.11000
O  42.33800 43.89800 44.80100
C  41.80600 43.56200 46.10600
H  48.48800 40.13900 42.38800
H  51.32300 46.16300 42.28300
H  45.82700 48.89200 41.73100
H  43.66700 40.64700 42.91600
H  46.18400 39.42500 41.80200
H  46.17900 39.75100 44.77500
H  46.12400 38.29200 43.77800
H  44.68800 39.18000 44.12300
H  42.80600 40.94600 40.91500
H  43.77000 39.52200 40.79600
H  45.45600 41.53800 39.58200
H  43.88700 42.19600 39.40500
H  50.71800 39.69600 42.43000
H  52.18400 40.48700 42.90500
H  51.71900 40.28000 41.24700
H  53.27300 45.01700 41.05700
H  54.55800 44.59200 42.15200
H  53.02000 45.20200 42.90900
H  50.80500 48.43300 41.89200
H  48.30000 49.83100 42.27100
H  51.13200 49.10100 44.06000
H  50.12700 47.72400 44.51100
H  49.35900 49.28300 44.30500
H  48.86900 48.38700 39.76000
H  49.85700 49.67200 40.32100
H  48.60000 50.93900 39.18500
H  47.15000 50.67700 40.29000
H  47.47100 49.66400 38.85500
H  43.50800 49.05100 42.39000
H  41.96200 48.41800 42.05600
H  43.09300 48.75000 40.67300
H  41.88800 42.76100 41.88400
H  40.72300 43.47100 46.18800
H  42.21800 44.19700 46.89000
H  42.17400 42.61100 46.49100
Mg -11.02600 16.95300 43.26800
C  -7.68700 17.53600 43.17500
C  -11.61600 20.30200 42.64500
C  -14.29800 16.27300 42.88000
C  -10.38700 13.48700 43.44300
N  -9.80600 18.62700 42.69600
C  -8.45700 18.66500 42.83200
C  -7.93100 20.05300 42.68900
C  -9.16500 20.89900 42.98800
C  -10.28500 19.91000 42.74400
C  -9.22500 21.49000 44.45300
C  -7.22500 20.19200 41.29500
C  -5.79800 20.68300 41.38400
H  -4.81500 19.83000 40.52800
N  -12.71100 18.12200 42.76500
C  -12.76100 19.50300 42.61500
C  -14.08900 19.93400 42.40700
C  -14.91600 18.76300 42.48700
C  -14.01000 17.68700 42.73900
C  -14.48100 21.34000 42.12900
C  -16.43700 18.86100 42.27500
O  -16.88800 19.94000 41.95600
C  -17.38900 17.76300 42.46300
N  -12.17800 15.09600 43.12600
C  -13.48900 15.14500 43.06900
C  -14.13500 13.72800 43.10100
C  -12.84100 12.89000 42.97700
C  -11.72100 13.84000 43.13500
C  -14.98900 13.48000 44.35600
C  -12.72000 12.07900 41.67700
C  -13.36300 10.66500 41.75700
N  -9.37500 15.74400 43.30200
C  -9.25900 14.34000 43.46500
C  -7.89300 14.06200 43.62200
C  -7.25300 15.26100 43.66000
C  -8.18100 16.25700 43.37100
C  -7.27400 12.68000 43.91900
C  -5.96300 15.91100 43.76400
O  -4.87100 15.41500 43.84500
C  -6.21500 17.46700 43.48600
C  -5.88600 18.30900 44.76000
O  -6.53100 18.29300 45.80500
O  -4.84300 19.17900 44.53100
C  -4.41900 20.08400 45.54900
H  -11.84800 21.36800 42.68600
H  -15.37900 16.13600 42.82000
H  -10.18800 12.41300 43.44200
H  -7.06900 20.08800 43.35500
H  -9.30400 21.66600 42.22600
H  -8.21600 21.59100 44.85300
H  -9.79500 20.87300 45.14900
H  -9.67200 22.46800 44.27800
H  -7.69400 20.87700 40.58900
H  -7.32600 19.21500 40.82300
H  -5.45200 20.77100 42.41400
H  -5.73300 21.72500 41.06900
H  -15.22100 21.70700 42.84100
H  -14.83300 21.42700 41.10100
H  -13.69200 22.08700 42.04100
H  -18.39600 18.17400 42.40300
H  -17.20700 17.28000 43.42300
H  -17.33400 17.04900 41.64100
H  -14.83000 13.63900 42.26700
H  -12.76200 12.27500 43.87300
H  -14.88300 14.32800 45.03300
H  -14.46300 12.65100 44.83000
H  -16.01800 13.14300 44.23400
H  -11.65000 11.93200 41.52500
H  -13.22400 12.55800 40.83700
H  -12.50100 9.99900 41.80400
H  -13.93800 10.44300 40.85700
H  -14.00200 10.67700 42.64000
H  -7.68000 12.50200 44.91500
H  -6.18700 12.74000 43.95900
H  -7.57100 11.93700 43.17900
H  -5.51000 17.60600 42.66600
H  -4.55600 19.87100 46.60900
H  -4.80200 21.08900 45.37200
H  -3.35100 20.25300 45.40500

