158

Mg 35.23100 2.86900 29.93900
C  32.90400 3.78000 32.55800
C  37.69200 2.97800 32.28100
C  37.37300 2.12600 27.51700
C  32.62600 3.02300 27.67400
N  35.31200 3.45000 32.14900
C  34.26200 3.72600 32.99500
C  34.76900 3.83200 34.47800
C  36.32000 3.98700 34.27800
C  36.49100 3.48600 32.82100
C  36.83300 5.51500 34.38200
C  34.39800 2.69500 35.44300
C  34.04400 3.17500 36.91200
H  35.01900 4.03100 37.65400
N  37.22500 2.63300 29.92200
C  38.07600 2.57100 30.99700
C  39.38500 2.14700 30.57900
C  39.35400 2.09200 29.17700
C  37.92100 2.34700 28.80300
C  40.53900 1.90900 31.57000
C  40.50300 1.77000 28.18100
O  40.35500 1.77300 26.97900
C  41.87300 1.50400 28.79800
N  34.98100 2.44900 27.96700
C  36.04500 2.17700 27.14500
C  35.62200 1.98000 25.63400
C  34.09100 2.21700 25.79600
C  33.85600 2.60400 27.26400
C  36.37400 2.98800 24.63300
C  33.25900 1.01400 25.42700
C  32.62800 1.01200 23.98400
N  33.15300 3.41900 30.04500
C  32.20600 3.48600 28.99500
C  30.93000 3.92500 29.56500
C  31.19900 4.09700 30.91600
C  32.55200 3.72500 31.16800
C  29.59500 3.95600 28.78600
C  30.55400 4.29400 32.20400
O  29.36700 4.41000 32.36500
C  31.65200 4.08500 33.31400
C  31.83000 5.41000 34.01700
O  32.31300 6.38700 33.42100
O  31.45700 5.30700 35.31700
C  31.64900 6.52700 36.16900
H  38.46500 3.05100 33.04900
H  38.00000 1.84900 26.66700
H  31.68100 2.93200 27.13400
H  34.42600 4.75300 34.95100
H  36.84500 3.31200 34.95500
H  37.54300 5.53600 35.20900
H  36.12800 6.32200 34.58100
H  37.40300 5.79400 33.49600
H  35.29100 2.09500 35.61900
H  33.59300 2.21000 34.89100
H  34.03500 2.26900 37.51800
H  33.08100 3.67700 36.82000
H  41.36600 2.59400 31.38300
H  40.95500 0.91100 31.43900
H  40.31600 1.89200 32.63700
H  42.13900 2.36100 29.41700
H  42.59900 1.42000 27.98900
H  41.92200 0.56400 29.34800
H  36.00700 0.98200 25.42300
H  33.74100 3.05900 25.19900
H  36.40000 3.95600 25.13400
H  35.73600 2.94400 23.75000
H  37.34300 2.53500 24.42100
H  32.47000 0.70400 26.11300
H  33.94100 0.16500 25.38900
H  31.58300 0.70700 24.03600
H  33.24600 0.32000 23.41200
H  32.55000 1.97800 23.48400
H  29.17800 2.94900 28.80500
H  29.72800 4.33300 27.77200
H  28.97300 4.64500 29.35700
H  31.39400 3.29800 34.02300
H  32.27600 7.30100 35.72600
H  32.15700 6.22500 37.08600
H  30.74000 7.01200 36.52400
Mg 27.07000 51.01000 25.37200
C  25.31100 52.20700 28.19200
C  29.66400 50.03600 27.56000
C  28.87800 49.91900 22.61100
C  24.81300 52.56700 23.30400
N  27.45100 51.10800 27.59600
C  26.50000 51.51800 28.59100
C  27.09500 51.28200 29.96500
C  28.50400 50.65000 29.72000
C  28.58400 50.66400 28.20700
C  29.75700 51.24400 30.61400
C  26.27400 50.50300 31.01000
C  26.08600 51.28700 32.37000
H  25.37800 50.50800 33.43500
N  28.92700 50.04100 25.13700
C  29.82400 49.67100 26.20700
C  30.99300 48.97300 25.61200
C  30.67200 48.92500 24.23400
C  29.45600 49.66900 23.94400
C  32.11800 48.44900 26.51300
C  31.35000 48.08400 23.28300
O  30.94600 47.85300 22.14000
C  32.48500 47.29700 23.71100
N  26.92400 51.34400 23.21000
C  27.67000 50.66200 22.29400
C  27.14200 50.87300 20.84600
C  25.76700 51.51500 21.08700
C  25.78900 51.86800 22.61700
C  28.19900 51.53400 19.94600
C  24.50400 50.81600 20.62200
C  23.40200 51.71400 20.06600
N  25.46800 52.27200 25.61200
C  24.67000 52.85300 24.65500
C  23.57200 53.53800 25.23800
C  23.78000 53.32400 26.69000
C  24.92300 52.46700 26.83200
C  22.47600 54.31200 24.55900
C  23.25000 53.58500 28.05400
O  22.28100 54.16700 28.41600
C  24.28500 52.91400 29.07000
C  24.76200 53.87200 30.04200
O  25.80400 54.54900 29.96000
O  23.86700 53.88800 31.03600
C  24.25400 54.76700 32.21900
H  30.32300 49.57200 28.29700
H  29.34500 49.52100 21.70700
H  24.03200 52.93300 22.63400
H  27.15400 52.30300 30.34100
H  28.45400 49.63000 30.10000
H  30.32100 51.83500 29.89200
H  30.42300 50.54400 31.11800
H  29.35800 51.92500 31.36500
H  26.70700 49.51300 31.15000
H  25.31400 50.29500 30.53800
H  25.60700 52.24200 32.15100
H  27.10800 51.44700 32.71300
H  32.19100 47.36200 26.50100
H  32.05400 48.81700 27.53700
H  33.07800 48.85400 26.19200
H  33.27600 48.00100 23.96800
H  32.78200 46.60300 22.92500
H  32.16700 46.65300 24.53100
H  26.97100 49.89500 20.39600
H  25.80600 52.46800 20.56100
H  28.86300 52.12900 20.57300
H  27.74300 52.22200 19.23500
H  28.69600 50.80700 19.30300
H  24.17400 50.34000 21.54500
H  24.71100 50.06500 19.85900
H  23.76200 52.74000 19.98300
H  22.52200 51.67500 20.70700
H  22.99800 51.39700 19.10400
H  22.76100 54.78800 23.62000
H  21.94400 54.98600 25.23000
H  21.80000 53.49600 24.30700
H  23.75800 52.14100 29.62900
H  24.92900 54.15800 32.82000
H  23.35100 54.96300 32.79700
H  24.76900 55.70800 32.02500

