158

Mg -1.62300 17.99700 27.57800
C  -2.10900 15.63400 30.13500
C  -1.86000 20.46200 29.96200
C  -1.75600 20.23900 25.02000
C  -1.61600 15.34600 25.26100
N  -1.74900 17.99700 29.84200
C  -2.01500 16.95900 30.68300
C  -2.32500 17.42900 32.12100
C  -2.58300 18.89500 31.81200
C  -2.02300 19.17400 30.47500
C  -4.12500 19.22900 32.04700
C  -1.19500 17.11300 33.15600
C  -1.46800 16.36800 34.42800
H  -0.18600 16.34600 35.34700
N  -1.57700 20.02500 27.47700
C  -1.62500 20.86300 28.62000
C  -1.45300 22.21600 28.14400
C  -1.57100 22.26300 26.72500
C  -1.68700 20.80600 26.31700
C  -1.25000 23.41000 29.05900
C  -1.40800 23.29800 25.76100
O  -1.49700 23.17300 24.57200
C  -1.02800 24.69200 26.28900
N  -1.67800 17.80500 25.45500
C  -1.75300 18.89200 24.69200
C  -1.54800 18.53200 23.19300
C  -1.24800 16.99400 23.27200
C  -1.51200 16.66500 24.74800
C  -2.75400 18.96000 22.30800
C  0.14600 16.49300 22.90500
C  1.24400 16.88400 23.86700
N  -1.76600 15.93300 27.61000
C  -1.76300 14.99500 26.57300
C  -1.97100 13.66500 27.08000
C  -2.11900 13.86500 28.48900
C  -2.06600 15.25100 28.75600
C  -1.99300 12.42300 26.32500
C  -2.39900 13.20700 29.74300
O  -2.53900 12.04000 29.94000
C  -2.31800 14.38100 30.88400
C  -1.24300 14.02900 31.76700
O  -0.05100 14.34200 31.67300
O  -1.70500 13.14000 32.76200
C  -0.70600 12.80100 33.72300
H  -2.17200 21.23700 30.66500
H  -1.65400 20.96600 24.21200
H  -1.39200 14.48600 24.62500
H  -3.25600 16.96200 32.44000
H  -2.03600 19.56800 32.47100
H  -4.67000 18.35800 32.40900
H  -4.55900 19.62300 31.12800
H  -4.20200 20.00500 32.80900
H  -0.71700 18.06600 33.38000
H  -0.39600 16.64000 32.58500
H  -1.77500 15.32900 34.31400
H  -2.34700 16.76400 34.93700
H  -0.38400 24.00300 28.76400
H  -1.25500 23.21000 30.13100
H  -2.16300 23.98100 28.89200
H  -1.15900 25.38800 25.46100
H  -0.02600 24.66400 26.71600
H  -1.83300 24.94900 26.97800
H  -0.71500 19.07500 22.74500
H  -1.85300 16.47400 22.52900
H  -2.46300 19.37700 21.34400
H  -3.33600 19.69900 22.85800
H  -3.29700 18.06500 22.00500
H  0.38300 16.85800 21.90500
H  -0.08500 15.42800 22.92000
H  0.96500 17.16300 24.88300
H  1.76600 17.72400 23.41100
H  1.77500 15.93500 23.94200
H  -1.45000 12.55100 25.38800
H  -3.04100 12.19400 26.13500
H  -1.50700 11.65700 26.92900
H  -3.25300 14.55600 31.41700
H  -0.12400 12.00800 33.25300
H  -1.22100 12.42300 34.60600
H  0.06000 13.52000 34.01200
Mg -12.42200 37.75400 41.96200
C  -10.00200 35.22400 41.56600
C  -10.46100 39.88400 40.11500
C  -15.05000 39.95300 41.96200
C  -14.56000 35.50500 43.49900
N  -10.50500 37.44800 40.84000
C  -9.70300 36.36500 40.78500
C  -8.51600 36.55800 39.90400
C  -8.54700 38.16800 39.79000
C  -9.93200 38.52800 40.29200
C  -7.49500 39.03500 40.56900
C  -8.49600 35.70600 38.57000
C  -7.39500 34.64200 38.42800
H  -6.42500 34.85700 37.23400
N  -12.68100 39.70100 41.22600
C  -11.71900 40.41200 40.54000
C  -12.19900 41.81500 40.44000
C  -13.59200 41.81800 40.80900
C  -13.85400 40.47500 41.36300
C  -11.41400 42.92300 39.87700
C  -14.57300 42.97400 40.52500
O  -14.19100 43.96100 39.95500
C  -16.04200 42.81200 40.68100
N  -14.65400 37.60200 42.50500
C  -15.40700 38.67600 42.54100
C  -16.81400 38.29000 42.98100
C  -16.68300 36.77200 43.34100
C  -15.23400 36.61800 43.19000
C  -17.44000 38.97900 44.22100
C  -17.51700 35.87500 42.35900
C  -18.56900 35.02300 43.13200
N  -12.37200 35.70500 42.27500
C  -13.13100 35.01400 43.19400
C  -12.50100 33.77800 43.54000
C  -11.24500 33.86100 42.97600
C  -11.22900 35.10100 42.21400
C  -13.10900 32.68400 44.32300
C  -10.02400 33.09200 42.80400
O  -9.55600 32.01600 43.29000
C  -9.11500 33.95900 41.80500
C  -7.83900 34.21700 42.50500
O  -6.92200 33.33700 42.62500
O  -7.79500 35.54500 42.97000
C  -6.54600 35.92600 43.55900
H  -9.80800 40.59500 39.60400
H  -15.87400 40.66500 41.88100
H  -15.09300 34.73500 44.06300
H  -7.63900 36.31700 40.50400
H  -8.41500 38.47300 38.75200
H  -6.70800 38.32900 40.83300
H  -7.94100 39.48500 41.45600
H  -7.16600 39.83600 39.90800
H  -8.55800 36.38200 37.71700
H  -9.42900 35.14600 38.61900
H  -7.91600 33.69100 38.31800
H  -6.78900 34.56300 39.33100
H  -11.29000 43.70800 40.62200
H  -11.89400 43.33600 38.99000
H  -10.38400 42.62900 39.67100
H  -16.32800 42.70400 41.72800
H  -16.28700 41.91400 40.11400
H  -16.56500 43.68000 40.28000
H  -17.48800 38.45600 42.14000
H  -16.87200 36.53500 44.38800
H  -16.70100 39.67400 44.61800
H  -17.63000 38.29900 45.05100
H  -18.26900 39.62000 43.92100
H  -16.84400 35.13500 41.92700
H  -18.05700 36.38400 41.56000
H  -18.32200 35.04900 44.19400
H  -18.48800 33.99000 42.79600
H  -19.56500 35.39200 42.88700
H  -12.50600 31.80100 44.11500
H  -14.15200 32.60000 44.01700
H  -13.10200 32.82600 45.40400
H  -8.97200 33.29800 40.95100
H  -6.41700 35.33600 44.46600
H  -6.65300 36.98300 43.80500
H  -5.59800 35.69700 43.07400

