158

Mg 16.55000 -2.37900 28.78000
C  15.32400 -0.00500 31.09800
C  18.76700 -3.59000 31.18400
C  18.07600 -3.91500 26.39000
C  14.67700 -0.62200 26.38000
N  16.95800 -1.77900 30.91700
C  16.32200 -0.89400 31.66500
C  16.71600 -1.04400 33.18900
C  18.08000 -1.74300 33.05300
C  17.95100 -2.44500 31.60500
C  19.32200 -0.82400 33.06400
C  15.68100 -1.87600 34.13600
C  15.34100 -1.36400 35.60800
H  16.36400 -0.51600 36.32200
N  17.98700 -3.81600 28.82300
C  18.81500 -4.13500 29.84900
C  19.68100 -5.27400 29.36400
C  19.55000 -5.35000 27.93000
C  18.48100 -4.33900 27.66300
C  20.60000 -6.07700 30.35800
C  20.25200 -6.28100 26.93600
O  19.96600 -6.28400 25.73100
C  21.33000 -7.29900 27.28800
N  16.52700 -2.11900 26.67000
C  17.20900 -2.90900 25.88500
C  17.06000 -2.54900 24.39900
C  15.74700 -1.77000 24.50000
C  15.61600 -1.47200 25.90700
C  18.35600 -1.75000 23.87400
C  14.48200 -2.36300 23.76800
C  13.84100 -1.47300 22.69500
N  15.27500 -0.65600 28.69500
C  14.54200 -0.10500 27.63400
C  13.65900 0.94500 28.14400
C  13.95800 1.07600 29.50700
C  14.99300 0.10500 29.74900
C  12.69800 1.74900 27.23800
C  13.57800 1.74100 30.72100
O  12.77200 2.67700 30.85500
C  14.52900 1.02200 31.78700
C  15.27700 2.14600 32.38800
O  15.87500 2.94500 31.69300
O  15.07600 2.35800 33.71400
C  15.70800 3.48100 34.43800
H  19.47000 -3.99100 31.91600
H  18.43500 -4.42800 25.49500
H  14.00300 -0.31000 25.58000
H  16.88600 -0.04700 33.59400
H  18.06800 -2.45600 33.87700
H  19.89000 -0.83000 32.13400
H  19.98500 -1.12700 33.87500
H  19.06400 0.21100 33.28800
H  15.95300 -2.93000 34.19500
H  14.72900 -1.94200 33.60800
H  15.09900 -2.19600 36.27000
H  14.42100 -0.78100 35.56300
H  21.27900 -6.77100 29.86300
H  19.86300 -6.73000 30.82600
H  21.02100 -5.36500 31.06700
H  22.11200 -6.78900 27.85000
H  21.77700 -7.65800 26.36000
H  20.90600 -8.12400 27.85900
H  16.91400 -3.48400 23.85700
H  15.83500 -0.80400 24.00300
H  18.85700 -1.29700 24.72900
H  18.07100 -0.91100 23.23800
H  19.07700 -2.37100 23.34100
H  13.80500 -2.73900 24.53500
H  14.80200 -3.30600 23.32500
H  13.08500 -2.10800 22.23300
H  14.66500 -1.07500 22.10300
H  13.15000 -0.80300 23.20700
H  12.27800 0.93800 26.64300
H  13.30900 2.38500 26.59700
H  11.91200 2.24000 27.81200
H  13.72000 0.59100 32.37800
H  15.94000 4.31500 33.77600
H  16.64300 3.12400 34.87000
H  14.97900 3.89300 35.13500
Mg -4.64700 25.28300 25.72100
C  -3.48200 26.77200 28.68100
C  -6.80300 23.46400 27.50800
C  -5.64700 23.89400 22.74600
C  -2.19900 27.13100 23.94100
N  -4.99300 25.02600 27.88400
C  -4.52400 25.91400 28.92200
C  -5.26800 25.57400 30.29900
C  -6.01200 24.21300 29.82400
C  -5.99000 24.26800 28.31000
C  -5.23000 22.94400 30.28700
C  -6.26000 26.70700 30.73100
C  -6.40000 26.98400 32.22300
H  -6.25700 25.86400 33.22300
N  -6.02900 23.80100 25.20100
C  -6.90300 23.28200 26.06900
C  -7.86500 22.45600 25.35500
C  -7.45600 22.46300 23.93500
C  -6.33500 23.37200 23.90100
C  -8.86400 21.60300 26.11400
C  -8.10400 21.77600 22.70500
O  -7.58400 21.89500 21.58200
C  -9.35800 21.09400 22.89400
N  -4.04100 25.49900 23.66600
C  -4.62000 24.77000 22.67000
C  -3.85600 25.03300 21.38500
C  -3.06600 26.34600 21.71200
C  -3.04200 26.32600 23.20500
C  -2.92600 23.86200 20.94000
C  -3.78300 27.58400 21.17900
C  -3.08900 28.14500 19.95500
N  -3.11600 26.71600 26.10900
C  -2.31200 27.44600 25.30400
C  -1.64700 28.44800 26.04400
C  -2.01500 28.15900 27.43800
C  -2.90800 27.08800 27.38300
C  -0.75300 29.57100 25.50700
C  -1.85800 28.65700 28.74900
O  -1.21300 29.58500 29.17900
C  -2.75500 27.72500 29.65500
C  -1.72400 27.12400 30.54300
O  -0.91900 26.25400 30.30300
O  -1.99500 27.56700 31.81300
C  -1.19700 27.00200 32.84200
H  -7.51900 22.86400 28.07300
H  -5.82700 23.31500 21.83700
H  -1.52300 27.64600 23.25500
H  -4.57700 25.44500 31.13200
H  -7.05300 24.06500 30.11100
H  -5.74400 22.45100 31.11300
H  -4.28000 23.24600 30.72700
H  -5.01400 22.23100 29.49100
H  -7.27100 26.48600 30.38700
H  -5.79600 27.58400 30.27800
H  -7.36800 27.44200 32.42900
H  -5.58500 27.68400 32.40600
H  -9.73200 22.17900 26.43400
H  -8.39600 21.18300 27.00400
H  -9.15600 20.81600 25.41700
H  -9.07600 20.18800 23.43200
H  -9.90000 20.82800 21.98600
H  -10.07400 21.67200 23.47700
H  -4.58100 25.07800 20.57200
H  -2.05100 26.20000 21.34100
H  -1.90300 24.23700 20.95200
H  -3.26700 23.48400 19.97600
H  -2.96300 23.07400 21.69300
H  -3.83400 28.39600 21.90500
H  -4.82400 27.36400 20.94300
H  -3.19200 27.45400 19.11800
H  -2.03300 28.20800 20.21900
H  -3.60900 29.07800 19.73800
H  -1.12500 30.54800 25.81600
H  -0.64400 29.46700 24.42700
H  0.17000 29.49500 26.08200
H  -3.57800 28.17400 30.21000
H  -0.13300 27.21900 32.74500
H  -1.47000 25.95000 32.93300
H  -1.57800 27.42800 33.77000

