158

Mg 48.55600 34.89200 26.49400
C  46.42200 33.60600 29.00300
C  49.02500 37.65100 28.42000
C  50.15600 36.24800 23.88800
C  47.64500 32.13000 24.51700
N  47.71000 35.54600 28.48000
C  47.08400 34.73400 29.39500
C  47.14100 35.36400 30.75800
C  47.85800 36.73300 30.54700
C  48.26200 36.58000 29.06700
C  46.98000 37.98900 30.84100
C  47.97100 34.37200 31.71300
C  47.64600 34.49800 33.19500
H  46.72800 35.58700 33.57800
N  49.50500 36.76500 26.18100
C  49.58500 37.76300 27.13700
C  50.37300 38.82000 26.53700
C  50.49800 38.56500 25.15600
C  50.04600 37.18000 24.96400
C  50.83500 40.03700 27.30800
C  51.07200 39.47100 23.96300
O  51.08700 39.05300 22.82600
C  51.43200 40.88300 24.22300
N  48.79900 34.29700 24.52200
C  49.61600 34.99200 23.63000
C  50.07200 34.21000 22.42400
C  49.22900 32.85200 22.61100
C  48.51700 33.08600 23.99100
C  49.88900 34.97600 21.12900
C  50.17600 31.54200 22.58200
C  50.87500 31.19300 21.24000
N  47.30500 33.21200 26.67500
C  47.02800 32.17000 25.76300
C  46.00900 31.25700 26.29700
C  45.78500 31.78600 27.55800
C  46.53700 32.98900 27.73400
C  45.49200 30.02800 25.57400
C  44.92400 31.62700 28.75300
O  44.08900 30.76200 29.04200
C  45.25100 32.85000 29.73100
C  45.54400 32.30000 31.09700
O  46.38400 31.39600 31.35500
O  44.51000 32.76300 31.98600
C  44.57800 32.38200 33.43200
H  49.31000 38.48200 29.06800
H  50.73800 36.60500 23.03600
H  47.52200 31.20000 23.95800
H  46.11800 35.51900 31.09900
H  48.78500 36.88000 31.10100
H  47.70100 38.74400 31.15400
H  46.28600 37.80200 31.66100
H  46.48900 38.18900 29.88900
H  49.04000 34.57000 31.78700
H  47.88500 33.33800 31.38000
H  48.54900 34.73100 33.76000
H  47.21900 33.59100 33.62300
H  50.54700 40.09500 28.35800
H  50.50700 40.95500 26.82100
H  51.91500 40.16300 27.23000
H  52.02700 40.92100 25.13600
H  50.49300 41.42200 24.35200
H  51.85900 41.35200 23.33700
H  51.11000 34.00000 22.68200
H  48.44300 32.77000 21.86100
H  49.03600 34.57200 20.58200
H  50.87500 34.85200 20.68300
H  49.51400 35.99600 21.21400
H  49.52700 30.73000 22.90800
H  50.93700 31.63600 23.35700
H  50.68100 31.97100 20.50100
H  50.47700 30.26600 20.82700
H  51.95400 31.24000 21.38500
H  44.42000 30.02900 25.77400
H  45.94200 29.17600 26.08300
H  45.66300 29.94000 24.50100
H  44.37300 33.49400 29.67600
H  44.95700 33.24200 33.98500
H  45.13100 31.47100 33.65900
H  43.51700 32.24200 33.63700
Mg -5.26600 24.65100 26.89900
C  -3.89400 26.54000 29.54500
C  -6.81400 22.65900 29.19800
C  -6.45600 22.76900 24.43500
C  -2.94800 26.28800 24.82000
N  -5.17600 24.56500 29.09200
C  -4.73000 25.50600 29.97200
C  -5.16300 25.19500 31.38700
C  -5.69600 23.68700 31.24600
C  -5.93100 23.59900 29.77200
C  -4.72000 22.59300 31.77500
C  -6.20500 26.23100 31.85400
C  -6.63300 26.34300 33.38500
H  -5.88600 25.38300 34.32500
N  -6.61700 23.09600 26.79900
C  -7.16900 22.39700 27.86300
C  -8.15700 21.44100 27.41900
C  -8.09700 21.49300 26.05200
C  -7.04700 22.48300 25.67600
C  -9.12200 20.72300 28.42300
C  -8.99600 20.78900 25.17700
O  -8.99700 21.07400 23.99200
C  -9.87500 19.63500 25.51500
N  -4.81100 24.61000 24.92500
C  -5.40600 23.61100 24.09700
C  -4.73600 23.61500 22.72000
C  -3.64700 24.79800 22.89000
C  -3.75200 25.28300 24.29000
C  -4.21100 22.20700 22.44800
C  -3.69700 25.87100 21.76600
C  -2.37000 26.07800 20.99400
N  -3.61200 26.07100 27.05800
C  -2.86600 26.75500 26.11300
C  -2.24200 27.86900 26.74100
C  -2.51800 27.76900 28.06800
C  -3.45100 26.72500 28.22500
C  -1.36000 28.87400 26.00000
C  -2.27200 28.34900 29.40300
O  -1.48900 29.17400 29.78900
C  -3.23500 27.63900 30.31400
C  -2.40800 27.20000 31.44700
O  -1.53300 26.29200 31.35700
O  -2.77300 27.91100 32.60100
C  -2.03800 27.65600 33.80700
H  -7.25600 22.02800 29.97300
H  -6.80400 22.13400 23.61700
H  -2.38800 26.92700 24.13500
H  -4.27400 25.10000 32.00900
H  -6.67800 23.63500 31.71500
H  -3.87600 22.91600 32.38500
H  -4.49700 21.92400 30.94400
H  -5.21200 21.91500 32.47300
H  -7.16700 26.11100 31.35500
H  -5.88400 27.25700 31.67100
H  -7.69300 26.15900 33.55900
H  -6.41400 27.38200 33.63300
H  -10.16100 20.95900 28.19100
H  -8.90100 20.88800 29.47700
H  -9.05400 19.63600 28.37200
H  -10.40100 19.17600 24.67800
H  -10.70800 19.89600 26.16900
H  -9.21400 18.86800 25.91800
H  -5.57900 23.90700 22.09400
H  -2.66800 24.31800 22.89500
H  -4.12600 21.51000 23.28100
H  -3.33500 22.23400 21.80000
H  -4.96300 21.71600 21.83000
H  -4.01600 26.84400 22.13900
H  -4.46200 25.52100 21.07300
H  -1.57800 25.55600 21.53100
H  -2.13700 27.14200 20.97100
H  -2.44000 25.76300 19.95300
H  -1.76400 29.34700 25.10500
H  -0.55200 28.25100 25.61800
H  -0.92000 29.56900 26.71600
H  -3.99200 28.32800 30.68800
H  -1.47300 26.72500 33.85200
H  -2.81500 27.55600 34.56600
H  -1.43600 28.47000 34.20900

