158

Mg 16.78000 52.45300 24.64900
C  18.15700 51.39000 27.71200
C  14.13700 53.72900 26.36600
C  15.57800 53.61600 21.75300
C  19.32300 50.86600 23.03300
N  16.16000 52.29400 26.88600
C  16.93700 52.04600 27.92200
C  16.30900 52.48500 29.25700
C  14.89200 52.92600 28.79300
C  15.09100 53.12000 27.19300
C  13.72000 51.92600 28.93900
C  17.13400 53.53700 30.11400
C  17.47900 53.30800 31.71500
H  16.66100 52.28500 32.48900
N  14.97100 53.39300 24.12500
C  14.02300 53.92100 24.95200
C  13.09000 54.64100 24.17500
C  13.42500 54.54000 22.84200
C  14.75300 53.86500 22.84300
C  11.89800 55.42700 24.88000
C  12.74900 55.10400 21.58800
O  13.27000 55.00200 20.47400
C  11.38400 55.79700 21.68300
N  17.30100 52.18400 22.59900
C  16.77100 52.87900 21.57000
C  17.45800 52.66600 20.20900
C  18.60800 51.81500 20.74800
C  18.54400 51.73500 22.24500
C  16.52700 52.00700 19.12600
C  20.05700 52.34500 20.35200
C  20.23500 52.66700 18.88200
N  18.36500 51.23300 25.20800
C  19.34200 50.61900 24.40400
C  20.33000 49.90500 25.23300
C  19.88200 50.32800 26.51400
C  18.70200 51.06000 26.45900
C  21.70300 49.37900 24.93000
C  20.32300 50.26400 27.89200
O  21.20300 49.53200 28.30100
C  19.17500 50.99800 28.71600
C  18.63000 49.86800 29.55600
O  17.73500 49.08100 29.24100
O  19.19900 49.73000 30.79400
C  18.55400 48.88700 31.81100
H  13.36700 54.24400 26.94300
H  15.14700 53.99400 20.82400
H  20.08600 50.44700 22.37300
H  16.40000 51.53800 29.79000
H  14.65900 53.89700 29.22900
H  13.96700 51.20600 29.71900
H  13.51900 51.41900 27.99500
H  12.81700 52.48100 29.19000
H  16.79000 54.56000 29.96500
H  18.08400 53.50700 29.58200
H  17.34000 54.27200 32.20500
H  18.56100 53.19100 31.77100
H  11.80800 56.35400 24.31300
H  12.24300 55.80000 25.84400
H  11.02100 54.78400 24.96200
H  11.12100 56.07100 20.66100
H  11.45800 56.74800 22.21100
H  10.67500 55.09700 22.12400
H  17.77600 53.64700 19.85700
H  18.39900 50.83500 20.31800
H  16.89800 51.05800 18.73800
H  16.56800 52.54700 18.18000
H  15.51000 51.91500 19.50600
H  20.96800 51.81300 20.62800
H  20.12800 53.23400 20.97800
H  21.16500 52.20600 18.54900
H  20.33400 53.72900 18.65400
H  19.45400 52.25900 18.24100
H  22.38400 50.16000 25.26700
H  21.85300 49.34700 23.85000
H  21.85100 48.40700 25.40000
H  19.52200 51.87600 29.26000
H  18.77700 47.83600 31.62900
H  17.48200 48.87600 32.00700
H  19.03300 49.16900 32.74900
Mg -0.58000 43.62000 25.88300
C  1.82000 43.25500 28.59100
C  -3.03200 42.79700 28.20500
C  -2.66800 43.73100 23.39700
C  2.20600 43.72900 23.73600
N  -0.55400 42.96800 28.11600
C  0.47300 42.93200 28.99600
C  -0.10500 42.81000 30.44300
C  -1.58000 42.28800 30.21100
C  -1.72400 42.58900 28.70400
C  -1.81900 40.79600 30.65200
C  0.01200 44.14300 31.23600
C  0.50800 43.93800 32.69500
H  0.04800 42.68700 33.53700
N  -2.59400 43.47100 25.82400
C  -3.45900 43.15300 26.86400
C  -4.84400 43.28600 26.45900
C  -4.78500 43.57700 25.04800
C  -3.31800 43.60500 24.66500
C  -6.02800 42.85900 27.31200
C  -5.90000 43.75800 23.98500
O  -5.66200 43.99400 22.81800
C  -7.27600 43.54200 24.44000
N  -0.27900 43.76900 23.85700
C  -1.32300 43.72700 22.99000
C  -0.82400 43.85300 21.55100
C  0.68400 44.11800 21.67700
C  0.92300 43.82700 23.16700
C  -1.07000 42.56800 20.76800
C  1.27800 45.53700 21.23100
C  1.05800 46.70800 22.17600
N  1.50600 43.61400 26.07000
C  2.44000 43.64100 25.11300
C  3.79100 43.63300 25.73900
C  3.58000 43.49600 27.06400
C  2.20900 43.47500 27.24200
C  5.14300 43.64400 25.00600
C  4.31700 43.32500 28.37200
O  5.49300 43.20900 28.63300
C  3.11100 43.31500 29.41400
C  3.31600 42.08600 30.28700
O  2.84300 40.92200 30.12300
O  3.85400 42.44900 31.51100
C  3.98000 41.31300 32.34900
H  -3.78300 42.59000 28.97000
H  -3.36200 43.99900 22.59800
H  3.06700 43.63200 23.07200
H  0.48300 42.09600 31.02100
H  -2.14000 42.95400 30.86800
H  -2.47300 40.81800 31.52400
H  -0.85500 40.35000 30.89700
H  -2.22000 40.14700 29.87400
H  -0.93600 44.66400 31.10000
H  0.83300 44.70800 30.79400
H  0.26200 44.81400 33.29500
H  1.59600 44.00400 32.70000
H  -5.75300 42.43700 28.27800
H  -6.51800 42.04700 26.77300
H  -6.77800 43.64900 27.32800
H  -8.04500 43.68800 23.68000
H  -7.58100 44.22800 25.23000
H  -7.36100 42.50500 24.76300
H  -1.21300 44.76300 21.09300
H  1.25900 43.31600 21.21400
H  -0.29400 41.82000 20.92900
H  -1.19600 42.85500 19.72400
H  -1.96000 42.00400 21.05000
H  0.86300 45.82000 20.26400
H  2.36000 45.41100 21.22200
H  0.41800 46.26900 22.94100
H  0.45900 47.51300 21.75200
H  1.96900 47.15200 22.57700
H  5.04200 43.85700 23.94100
H  5.47700 42.61900 25.16400
H  5.83900 44.30700 25.52000
H  3.15700 44.23800 29.99300
H  4.70200 40.63400 31.89700
H  3.08600 40.78100 32.67500
H  4.47400 41.53200 33.29600

