158

Mg 24.28000 -5.18200 46.52000
C  26.20200 -2.83100 44.71500
C  21.67600 -4.67700 44.33800
C  22.73700 -7.96000 47.79200
C  27.07400 -5.95600 48.48400
N  24.11800 -4.00100 44.64600
C  24.93100 -2.96400 44.23400
C  24.29900 -2.15000 43.07600
C  22.83100 -2.60400 43.20200
C  22.84600 -3.86400 44.08900
C  21.87900 -1.40900 43.76200
C  25.00600 -2.38700 41.71400
C  25.49600 -1.09500 41.11700
H  24.98700 -0.94200 39.66100
N  22.45800 -6.14600 46.20600
C  21.48100 -5.75600 45.26500
C  20.26300 -6.55800 45.37100
C  20.54800 -7.49100 46.39700
C  22.01700 -7.27300 46.83300
C  19.07100 -6.43700 44.48400
C  19.59400 -8.58900 46.86600
O  18.45600 -8.77900 46.41200
C  19.94600 -9.45500 47.98700
N  24.77800 -6.73900 47.95200
C  23.93200 -7.78300 48.29400
C  24.72300 -8.84700 49.07000
C  26.12800 -8.13900 49.42700
C  26.01800 -6.90100 48.53400
C  24.05200 -9.54300 50.27800
C  27.37300 -9.00800 49.28100
C  28.50500 -8.88200 50.25900
N  26.24500 -4.53600 46.71300
C  27.27400 -4.86100 47.57800
C  28.37100 -4.04300 47.36800
C  28.02500 -3.28600 46.21000
C  26.71000 -3.61000 45.82900
C  29.58400 -3.80600 48.23400
C  28.53400 -2.24100 45.33900
O  29.63700 -1.66800 45.39200
C  27.44300 -2.02600 44.21000
C  27.08700 -0.58100 44.33500
O  26.45100 -0.03300 45.24700
O  27.68500 0.07400 43.30400
C  27.80200 1.52900 43.40400
H  20.85100 -4.28200 43.74300
H  22.23200 -8.91000 47.98200
H  27.93800 -6.22100 49.09800
H  24.21900 -1.09300 43.33100
H  22.55100 -2.94300 42.20500
H  20.92200 -1.31500 43.24800
H  22.26600 -0.39100 43.77600
H  21.57100 -1.60600 44.78900
H  24.31100 -2.95300 41.09300
H  25.83200 -3.08000 41.87400
H  26.58600 -1.09200 41.09900
H  25.20200 -0.19800 41.66200
H  19.17500 -7.28500 43.80700
H  19.08100 -5.48800 43.94700
H  18.16500 -6.55400 45.07900
H  20.42200 -8.89400 48.79100
H  20.67800 -10.17100 47.61200
H  19.18400 -10.13900 48.36000
H  24.87800 -9.60500 48.30200
H  26.07600 -7.78600 50.45700
H  23.72900 -10.50900 49.89100
H  23.26300 -8.90500 50.67600
H  24.80600 -9.64800 51.05800
H  27.75500 -8.86800 48.26900
H  27.03600 -10.04500 49.29100
H  28.78900 -9.74600 50.86000
H  28.21600 -8.03000 50.87400
H  29.46000 -8.67300 49.77700
H  29.96200 -4.81000 48.42800
H  29.31000 -3.34300 49.18200
H  30.52100 -3.50500 47.76600
H  27.83500 -2.25100 43.21800
H  28.76700 1.71900 43.87500
H  26.95400 1.95500 43.94000
H  27.85800 1.87500 42.37100
Mg -2.63700 34.40100 26.54600
C  -4.52000 32.90800 29.14500
C  -1.66800 36.85500 28.94600
C  -1.03600 36.09100 24.17000
C  -4.25200 32.36700 24.27100
N  -3.18600 34.82300 28.70900
C  -3.80500 33.99700 29.60000
C  -3.78300 34.49900 31.08200
C  -3.06100 35.93200 30.90900
C  -2.52700 35.81100 29.44800
C  -3.95800 37.16600 31.21600
C  -3.05700 33.58300 32.11800
C  -3.62100 33.44200 33.53700
H  -2.71400 33.84400 34.71100
N  -1.39600 36.19300 26.52600
C  -1.10100 37.04100 27.64700
C  -0.19600 38.08500 27.24000
C  0.05400 37.83600 25.84400
C  -0.81100 36.64200 25.43600
C  0.27700 39.16700 28.11500
C  0.91900 38.57300 24.87000
O  1.11000 38.17400 23.74400
C  1.69100 39.82600 25.31000
N  -2.77700 34.35900 24.49600
C  -1.91100 35.08500 23.71700
C  -1.95600 34.60500 22.23000
C  -2.79500 33.31500 22.36200
C  -3.36700 33.34600 23.76500
C  -2.41500 35.69900 21.25000
C  -2.13700 31.98200 21.98300
C  -3.02800 30.93500 21.28200
N  -4.05300 32.92800 26.67000
C  -4.62700 32.18400 25.63800
C  -5.50100 31.16900 26.20500
C  -5.42300 31.44000 27.53000
C  -4.60900 32.53900 27.80700
C  -6.39000 30.19800 25.44900
C  -5.85100 30.88600 28.81500
O  -6.46700 29.85200 29.10200
C  -5.37400 31.90400 29.89500
C  -6.50200 32.50100 30.54900
O  -7.27200 33.28000 30.01000
O  -6.60800 32.16100 31.86900
C  -7.63700 32.82700 32.66800
H  -1.34800 37.61700 29.66000
H  -0.40200 36.47800 23.37000
H  -4.75300 31.71400 23.55400
H  -4.79700 34.68300 31.43700
H  -2.19500 36.14200 31.53600
H  -4.08600 37.27300 32.29300
H  -4.92200 36.94800 30.75700
H  -3.56600 38.09900 30.81100
H  -1.99500 33.82300 32.08000
H  -3.10200 32.58000 31.69400
H  -3.73000 32.36400 33.65300
H  -4.53100 34.03200 33.64800
H  1.36000 39.25500 28.19700
H  -0.10200 39.12300 29.13600
H  -0.10400 40.11400 27.73300
H  0.99500 40.36700 25.95100
H  2.06100 40.34900 24.42800
H  2.59900 39.52700 25.83300
H  -0.90300 34.43000 22.01000
H  -3.64300 33.50700 21.70400
H  -2.44400 36.57600 21.89600
H  -3.29100 35.47900 20.64000
H  -1.70000 35.95900 20.46900
H  -1.58900 31.42400 22.74200
H  -1.38700 32.27500 21.24900
H  -3.20900 30.09600 21.95400
H  -2.41500 30.58100 20.45300
H  -3.99400 31.34500 20.98900
H  -6.80100 30.47500 24.47800
H  -7.31900 30.00000 25.98500
H  -5.82400 29.29900 25.20700
H  -4.77800 31.36400 30.63100
H  -7.14700 33.65000 33.18900
H  -8.06600 32.15400 33.41000
H  -8.39100 33.17300 31.96200

