158

Mg -1.59200 34.94500 26.54400
C  -3.35600 33.44200 29.09400
C  -0.31500 37.15900 29.00100
C  -0.16500 36.78700 24.17300
C  -3.06800 32.97000 24.23300
N  -1.88900 35.30500 28.80300
C  -2.46900 34.41300 29.67000
C  -2.12400 34.74800 31.18000
C  -1.52400 36.23500 31.03400
C  -1.14800 36.19700 29.54800
C  -2.39700 37.45300 31.52900
C  -1.19900 33.76900 31.92500
C  -1.90200 32.91700 32.99200
H  -1.31800 32.92100 34.39700
N  -0.38900 36.65200 26.58400
C  0.11100 37.37000 27.69700
C  0.84400 38.57600 27.23900
C  0.86400 38.47300 25.87100
C  0.08600 37.31100 25.44100
C  1.25700 39.71500 28.10300
C  1.46900 39.42000 24.85600
O  1.31200 39.37300 23.61500
C  2.44600 40.39700 25.28800
N  -1.86000 35.05600 24.47100
C  -0.97600 35.74600 23.69200
C  -0.81200 35.15400 22.28200
C  -1.60400 33.84800 22.39300
C  -2.22900 33.97600 23.73500
C  -1.23800 36.10800 21.07800
C  -0.78600 32.53000 22.31500
C  0.17900 32.07000 23.44500
N  -2.93700 33.52200 26.59400
C  -3.46300 32.76600 25.60800
C  -4.39500 31.80600 26.11400
C  -4.40000 31.98700 27.51100
C  -3.49200 33.08900 27.76800
C  -5.02200 30.67900 25.37000
C  -4.87600 31.58900 28.83000
O  -5.70600 30.73400 29.07700
C  -4.13300 32.41800 29.87700
C  -5.25000 33.10400 30.66600
O  -5.65400 34.21600 30.44100
O  -5.58800 32.22300 31.65000
C  -6.79800 32.70100 32.40000
H  0.08000 37.93000 29.66600
H  0.39400 37.17300 23.31800
H  -3.55800 32.30000 23.52400
H  -3.12900 34.73800 31.60400
H  -0.62400 36.33800 31.63900
H  -3.27400 37.20200 32.12500
H  -2.65600 38.08800 30.68100
H  -1.77600 38.12400 32.12100
H  -0.35000 34.31000 32.34300
H  -0.70800 33.17700 31.15200
H  -1.82700 31.88200 32.65700
H  -2.94300 33.21000 33.12600
H  2.34200 39.81000 28.14900
H  0.87100 39.56800 29.11200
H  0.80400 40.64700 27.76500
H  1.95400 41.31800 25.59900
H  3.19500 40.54900 24.51000
H  2.77700 39.72000 26.07600
H  0.26300 34.98700 22.21300
H  -2.53000 33.79200 21.82000
H  -0.38100 36.10800 20.40400
H  -1.25800 37.09000 21.54900
H  -2.18000 35.78500 20.63400
H  -0.06700 32.67300 21.50900
H  -1.55900 31.80900 22.04700
H  0.49800 32.88200 24.09800
H  1.05300 31.67600 22.92700
H  -0.26800 31.22000 23.96100
H  -4.87800 29.80200 26.00000
H  -4.59500 30.64400 24.36700
H  -6.09800 30.85200 25.33700
H  -3.59600 31.72000 30.52000
H  -7.53000 33.34200 31.91000
H  -6.43700 33.25100 33.26900
H  -7.43500 31.90100 32.77700
Mg -5.27700 25.79700 26.41700
C  -3.94000 27.48200 29.26000
C  -7.30200 23.93100 28.46700
C  -5.95400 24.10300 23.70000
C  -2.96700 27.68000 24.34900
N  -5.59800 25.67300 28.62600
C  -4.96300 26.49600 29.61700
C  -5.54700 26.14900 31.05000
C  -6.54800 24.97700 30.74100
C  -6.47700 24.86900 29.22700
C  -6.31700 23.62300 31.50100
C  -6.12900 27.42800 31.66700
C  -5.72400 27.77000 33.08000
H  -5.55800 26.59700 33.94900
N  -6.46800 24.28400 26.11900
C  -7.22200 23.64800 27.08300
C  -7.95100 22.59300 26.46100
C  -7.51200 22.54200 25.11100
C  -6.57400 23.65600 24.90200
C  -8.80600 21.63500 27.26400
C  -7.73900 21.56000 23.99100
O  -7.18800 21.58300 22.92600
C  -8.64800 20.41300 24.18900
N  -4.76100 26.17000 24.24500
C  -5.20200 25.20700 23.33100
C  -4.59900 25.47300 21.89100
C  -3.74300 26.73300 22.17500
C  -3.85200 26.90700 23.67000
C  -3.64000 24.30300 21.38200
C  -4.31200 28.12800 21.60100
C  -3.51500 28.57300 20.43300
N  -3.80900 27.27700 26.69900
C  -3.01500 27.90800 25.76000
C  -2.16100 28.82900 26.46200
C  -2.47300 28.77300 27.89200
C  -3.46500 27.72900 27.96200
C  -1.17300 29.69500 25.83900
C  -2.18400 29.18800 29.18100
O  -1.39500 30.07400 29.53100
C  -3.06800 28.39200 30.12200
C  -2.14100 27.61500 30.98700
O  -1.33700 26.76000 30.63700
O  -2.39300 27.84200 32.32900
C  -1.56000 27.32300 33.38900
H  -7.91900 23.32800 29.13500
H  -6.25200 23.52000 22.82600
H  -2.14300 28.16700 23.82300
H  -4.71000 25.65600 31.54500
H  -7.55200 25.34600 30.94800
H  -6.15400 22.90400 30.69800
H  -7.17200 23.33100 32.11100
H  -5.55700 23.61800 32.28300
H  -7.21800 27.42000 31.69100
H  -5.87900 28.26200 31.01200
H  -6.51500 28.45800 33.38000
H  -4.88600 28.46500 33.13500
H  -8.32800 21.11100 28.09200
H  -9.30700 20.88900 26.64700
H  -9.54400 22.26500 27.75900
H  -8.53200 19.91300 23.22700
H  -9.66500 20.78400 24.31700
H  -8.32500 19.69200 24.94000
H  -5.38400 25.68300 21.16500
H  -2.71000 26.57800 21.86500
H  -2.71400 24.57800 20.87600
H  -4.31300 23.78300 20.70100
H  -3.40500 23.65200 22.22400
H  -4.17000 28.86100 22.39500
H  -5.35300 28.09000 21.28100
H  -4.01400 28.35300 19.49000
H  -2.54400 28.07800 20.41800
H  -3.50600 29.64900 20.60200
H  -0.51700 29.11700 25.18900
H  -0.62300 30.23400 26.61000
H  -1.74000 30.40800 25.24100
H  -3.58500 29.11000 30.75900
H  -0.54500 27.38900 32.99500
H  -1.84600 26.27700 33.49700
H  -1.59100 27.91900 34.30200

