158

Mg 49.06100 45.81500 43.15200
C  45.63000 45.74900 42.21900
C  49.09400 42.51800 42.28600
C  52.49400 46.06300 42.97000
C  48.80900 49.27500 43.63100
N  47.55000 44.34300 42.23100
C  46.23800 44.50900 41.99000
C  45.42300 43.18900 41.64900
C  46.54700 42.21000 41.88600
C  47.78900 43.06100 42.31200
C  46.28700 41.05600 42.82300
C  44.70700 43.07000 40.23000
C  45.39600 43.76200 39.03000
H  45.24600 42.91700 37.75000
N  50.59800 44.50800 42.59600
C  50.38800 43.17100 42.39500
C  51.62300 42.50800 42.23400
C  52.63600 43.49100 42.37600
C  51.95400 44.74700 42.63700
C  51.77100 41.01000 41.86300
C  54.11100 43.18300 42.33400
O  54.45800 41.98700 42.10100
C  55.09200 44.29900 42.46900
N  50.39100 47.50100 43.14000
C  51.78200 47.27700 43.16200
C  52.52100 48.62900 43.33900
C  51.33200 49.63400 43.56900
C  50.11600 48.77500 43.46000
C  53.67500 48.67000 44.32500
C  51.21700 50.73400 42.50600
C  50.74400 52.15800 42.94700
N  47.48100 47.24800 43.17300
C  47.55300 48.61900 43.38800
C  46.22800 49.17500 43.27700
C  45.41000 48.13300 42.76600
C  46.21600 46.94300 42.76500
C  45.82600 50.68500 43.46600
C  44.12100 47.77700 42.16600
O  43.11500 48.44000 41.95600
C  44.15200 46.21500 41.84200
C  43.07000 45.48600 42.62300
O  42.37900 44.53900 42.30200
O  42.90200 46.12100 43.86900
C  41.94400 45.45600 44.76800
H  49.17700 41.47600 41.97100
H  53.56800 46.22300 43.08400
H  48.64800 50.30000 43.97200
H  44.66500 43.15200 42.43100
H  46.84600 41.83000 40.90900
H  46.53100 40.13900 42.28700
H  45.24800 41.05900 43.15400
H  46.82300 41.26800 43.74800
H  43.64900 43.32600 40.29800
H  44.69200 42.00000 40.02500
H  46.47700 43.71900 39.16000
H  45.06000 44.77800 38.82200
H  51.96400 41.01300 40.79000
H  50.96700 40.32000 42.11800
H  52.64800 40.64700 42.40000
H  55.02100 44.69500 41.45600
H  56.06100 43.80100 42.50400
H  54.95600 44.88800 43.37600
H  52.92600 48.87600 42.35700
H  51.39400 50.01500 44.58800
H  53.38500 49.39700 45.08400
H  54.52200 49.00600 43.72800
H  53.81400 47.68200 44.76500
H  50.46100 50.41600 41.78900
H  52.20800 50.90500 42.08500
H  50.41400 52.13200 43.98600
H  49.89400 52.40300 42.31000
H  51.48900 52.93000 42.75600
H  46.66000 51.26300 43.06800
H  45.75400 50.80200 44.54700
H  44.89400 50.82300 42.91700
H  44.10600 45.87300 40.80800
H  42.07400 45.77400 45.80300
H  42.42400 44.47800 44.74400
H  40.93300 45.49600 44.36300
Mg 42.39700 41.69400 26.14000
C  41.79000 44.03300 28.62000
C  43.59100 39.51500 28.54700
C  43.24600 39.62800 23.55400
C  41.55900 44.12700 23.70100
N  42.44600 41.72100 28.35800
C  42.26700 42.80200 29.18200
C  42.34900 42.41900 30.67500
C  43.28200 41.16700 30.57500
C  43.01100 40.72800 29.06400
C  44.74100 41.25700 30.99500
C  40.99500 42.27300 31.48000
C  40.60000 43.34700 32.48400
H  41.50300 43.61800 33.71600
N  43.24500 39.81200 26.13000
C  43.66100 39.10100 27.18000
C  44.10200 37.82500 26.66800
C  43.97600 37.79600 25.26500
C  43.43200 39.12100 24.86300
C  44.63100 36.74000 27.58400
C  44.33500 36.69400 24.27600
O  44.07000 36.74000 23.04900
C  45.03900 35.39700 24.70600
N  42.25900 41.77700 24.01800
C  42.70000 40.84200 23.16800
C  42.67000 41.30700 21.70500
C  41.78500 42.54000 21.80400
C  41.82100 42.83900 23.32600
C  44.06700 41.54900 21.05300
C  40.29500 42.34400 21.46800
C  39.60200 41.16500 22.09500
N  41.78300 43.60800 26.15400
C  41.60100 44.49800 25.05700
C  41.30700 45.82000 25.59500
C  41.28400 45.59900 27.00900
C  41.64700 44.27200 27.28200
C  41.04000 47.10100 24.85700
C  41.06500 46.31600 28.27700
O  40.67600 47.46300 28.49600
C  41.32900 45.32300 29.40100
C  42.36100 45.87800 30.34500
O  43.52300 45.53400 30.39700
O  41.81500 46.92600 31.08600
C  42.79800 47.50900 32.02200
H  43.92600 38.77100 29.27200
H  43.55700 39.05200 22.68000
H  41.20200 44.89300 23.01000
H  42.93900 43.17400 31.19400
H  42.94700 40.32600 31.18200
H  45.03800 42.28200 31.21600
H  45.31700 40.74500 30.22400
H  44.89700 40.66300 31.89500
H  40.76000 41.32100 31.95500
H  40.32800 42.32900 30.61900
H  39.57700 43.11900 32.78400
H  40.63200 44.32400 32.00200
H  45.72000 36.70700 27.58200
H  44.28300 35.78800 27.18300
H  44.43900 36.86400 28.64900
H  45.26800 34.91200 23.75600
H  44.43800 34.65400 25.23000
H  45.93200 35.80500 25.17900
H  42.07100 40.49900 21.28800
H  42.23500 43.40000 21.31000
H  44.30200 42.49600 20.56800
H  44.12700 40.75400 20.31000
H  44.87900 41.24600 21.71500
H  40.20000 42.26600 20.38500
H  39.70600 43.23300 21.69600
H  38.65600 41.51100 22.51300
H  40.17200 40.68100 22.88800
H  39.37100 40.44300 21.31200
H  41.44900 47.13700 23.84700
H  41.37900 47.96600 25.42700
H  39.95200 47.16200 24.84000
H  40.37400 45.20300 29.91300
H  43.22600 46.77300 32.70200
H  42.11400 48.11000 32.62100
H  43.58700 48.02100 31.47100

