158

Mg 41.01600 9.19200 29.61900
C  43.00600 10.27800 32.26200
C  38.59100 8.10300 32.00500
C  39.11600 7.89700 27.12000
C  43.45300 9.92100 27.48800
N  40.84900 9.19800 31.90700
C  41.76000 9.78700 32.72400
C  41.16900 9.70400 34.17800
C  39.87300 8.79100 34.07500
C  39.71200 8.78900 32.52900
C  39.75900 7.48500 34.80700
C  40.88800 11.14100 34.67000
C  40.03100 11.34500 35.96600
H  40.63700 12.09800 37.19800
N  39.07700 8.13700 29.51300
C  38.24500 7.77900 30.62000
C  37.15000 6.96200 30.11200
C  37.16400 7.15100 28.67600
C  38.52100 7.71600 28.38500
C  36.24900 6.20400 31.01700
C  36.15800 6.77500 27.71000
O  36.29100 7.01400 26.52400
C  34.84800 6.14900 28.17600
N  41.26900 8.81300 27.62700
C  40.39500 8.34300 26.77200
C  40.82900 8.51100 25.31700
C  42.14500 9.26900 25.42200
C  42.31700 9.35100 26.98400
C  40.78500 7.16900 24.45400
C  42.39400 10.58000 24.62200
C  41.56700 11.78700 24.96500
N  42.90800 9.89300 29.86000
C  43.84300 10.19700 28.85200
C  45.03500 10.86500 29.43600
C  44.69600 10.86600 30.83700
C  43.49700 10.26600 31.04500
C  46.25200 11.44500 28.66300
C  45.18900 11.30400 32.07000
O  46.31300 11.79100 32.39900
C  44.01500 11.08500 33.05600
C  44.52900 10.41800 34.31100
O  45.07700 9.34800 34.31100
O  44.42400 11.25300 35.40300
C  44.94300 10.64900 36.63100
H  37.79900 7.84600 32.71200
H  38.61300 7.48300 26.24300
H  44.24700 10.28500 26.83200
H  41.87000 9.14100 34.79400
H  39.00400 9.36000 34.40600
H  40.64600 7.35600 35.42800
H  39.45300 6.74900 34.06300
H  38.92600 7.51700 35.50900
H  40.45800 11.75600 33.88000
H  41.90600 11.51900 34.76200
H  39.64200 10.41600 36.38300
H  39.15000 11.87200 35.60000
H  35.28300 6.69900 31.12400
H  36.59700 6.08900 32.04400
H  36.07500 5.20800 30.60900
H  34.45400 6.67500 29.04500
H  34.92800 5.07600 28.34800
H  34.02700 6.31300 27.47800
H  40.11900 9.22200 24.89300
H  42.95900 8.69100 24.98300
H  40.54300 6.33900 25.11800
H  41.75100 7.09900 23.95300
H  40.07100 7.28100 23.63800
H  42.05700 10.28900 23.62700
H  43.46800 10.74200 24.53000
H  42.36300 12.47100 25.26200
H  40.86400 11.48900 25.74300
H  41.01500 12.00500 24.05100
H  46.21400 11.16600 27.61000
H  47.07000 11.01600 29.24100
H  46.27700 12.53500 28.68500
H  43.60900 12.05600 33.33700
H  44.87700 9.56500 36.54200
H  44.37300 11.02700 37.47900
H  45.98100 10.85300 36.89500
Mg 30.43700 57.47400 40.94600
C  27.46900 55.57500 39.84000
C  32.34500 54.90400 39.90000
C  32.87000 59.50800 41.37600
C  28.02500 59.94800 41.73600
N  29.91400 55.52100 39.97900
C  28.71100 54.91000 39.62500
C  28.93000 53.45700 39.12500
C  30.47300 53.28100 39.32300
C  30.96400 54.60100 39.80700
C  30.91600 52.15300 40.25200
C  28.47100 53.13600 37.65300
C  28.88700 54.30100 36.68500
H  27.88000 55.30900 36.10500
N  32.41200 57.21800 40.69800
C  33.01900 56.08900 40.25600
C  34.43000 56.28600 40.46100
C  34.60600 57.64500 40.81700
C  33.25500 58.19800 41.01100
C  35.47100 55.12600 40.30000
C  35.91800 58.36100 41.16900
O  37.00700 57.78400 41.00500
C  36.02400 59.71400 41.83500
N  30.42100 59.42400 41.26800
C  31.65800 60.02200 41.50000
C  31.40100 61.54600 41.82300
C  29.88800 61.58600 42.26900
C  29.40800 60.23800 41.71900
C  32.30700 62.26800 42.87000
C  29.05000 62.81200 41.97100
C  28.02700 63.25700 43.06200
N  28.13100 57.71900 40.98800
C  27.35700 58.82700 41.28200
C  25.95400 58.59100 41.10800
C  25.98400 57.32800 40.54900
C  27.29200 56.83700 40.43800
C  24.81500 59.45200 41.51200
C  25.13200 56.25100 39.99700
O  23.91200 56.23000 39.89600
C  26.05200 55.06300 39.62000
C  25.67900 53.90300 40.42600
O  25.54800 53.88100 41.58500
O  25.58100 52.74200 39.64900
C  25.19500 51.56200 40.44800
H  32.94800 54.00800 39.73800
H  33.71600 60.17100 41.57100
H  27.36000 60.75500 42.05000
H  28.42200 52.85300 39.87600
H  30.91500 53.07200 38.34800
H  30.23200 51.33200 40.47100
H  31.06500 52.57400 41.24600
H  31.91500 51.84500 39.94200
H  27.43000 52.82200 37.72500
H  29.05200 52.25300 37.38700
H  29.32400 53.75800 35.84700
H  29.68600 54.93100 37.07600
H  36.47100 55.55700 40.24300
H  35.33600 54.72600 39.29500
H  35.31700 54.25700 40.93900
H  35.73900 60.54400 41.18900
H  37.06100 59.79500 42.16200
H  35.42700 59.60500 42.74000
H  31.50700 62.05400 40.86400
H  29.80100 61.41500 43.34200
H  33.27700 61.82400 43.09500
H  31.70700 62.33000 43.77700
H  32.55100 63.30600 42.64300
H  28.46700 62.65300 41.06400
H  29.68600 63.67100 41.75800
H  28.33700 64.14200 43.61700
H  27.82600 62.56400 43.88000
H  27.04700 63.40000 42.60700
H  24.37300 59.95400 40.65200
H  25.14500 60.34100 42.05100
H  24.07200 58.90300 42.09000
H  25.89900 54.82700 38.56700
H  24.87700 50.86300 39.67500
H  24.35600 51.76300 41.11300
H  26.13600 51.31900 40.94200

