158

Mg -2.20100 17.15500 25.88300
C  -2.39500 14.74900 28.39700
C  -2.74000 19.60100 28.21500
C  -2.52200 19.27500 23.39000
C  -1.93300 14.47900 23.60500
N  -2.57700 17.15600 28.09600
C  -2.45400 16.05400 28.92500
C  -2.67400 16.48500 30.39200
C  -2.79600 18.06200 30.29700
C  -2.67500 18.31500 28.78700
C  -4.17500 18.52700 30.89700
C  -1.63500 15.96000 31.36900
C  -1.48200 16.56000 32.72400
H  -1.91300 15.98100 34.12100
N  -2.63200 19.19600 25.81700
C  -2.72200 20.07900 26.84500
C  -2.70700 21.45500 26.31900
C  -2.61800 21.33900 24.90600
C  -2.65300 19.89600 24.66700
C  -2.88400 22.60400 27.23100
C  -2.61200 22.38400 23.86500
O  -2.56100 22.18700 22.65600
C  -2.44800 23.82600 24.25700
N  -2.13800 16.95100 23.76800
C  -2.26200 17.97300 22.93700
C  -2.06100 17.53900 21.52900
C  -1.69700 15.99500 21.62500
C  -1.90300 15.79200 23.10500
C  -3.26200 17.85800 20.59200
C  -0.34900 15.64900 21.15100
C  0.80400 16.22400 21.88100
N  -2.10100 15.07600 25.89900
C  -2.02900 14.11400 24.89500
C  -1.91300 12.79800 25.45300
C  -2.02700 13.00000 26.81600
C  -2.17800 14.40600 27.03900
C  -1.89300 11.45000 24.84600
C  -2.06000 12.33900 28.07200
O  -2.04600 11.11500 28.34900
C  -2.26600 13.51400 29.14600
C  -1.00500 13.41900 29.85800
O  -0.00800 14.05600 29.53200
O  -1.16300 12.56200 30.94600
C  -0.00800 12.58300 31.88100
H  -2.92800 20.43900 28.89000
H  -2.70600 19.88300 22.50200
H  -1.84700 13.77500 22.77500
H  -3.54900 15.88300 30.64100
H  -1.97900 18.57800 30.80000
H  -4.51600 17.67700 31.48800
H  -5.01800 18.78600 30.25600
H  -4.06600 19.37200 31.57600
H  -0.69500 15.94400 30.81800
H  -1.96900 14.94300 31.57500
H  -2.13000 17.43600 32.70700
H  -0.48700 16.99900 32.78900
H  -1.99000 23.07700 27.63800
H  -3.52200 22.38500 28.08600
H  -3.47500 23.33900 26.68400
H  -1.72600 23.90600 25.07000
H  -3.46900 24.13700 24.47900
H  -2.02500 24.39200 23.42700
H  -1.17200 17.99400 21.09100
H  -2.48800 15.39100 21.17900
H  -2.92300 18.41900 19.72100
H  -4.11100 18.30600 21.11000
H  -3.63900 16.96200 20.10000
H  -0.30600 16.19100 20.20600
H  -0.19500 14.58800 20.95600
H  0.64500 16.24500 22.95900
H  1.12700 17.15000 21.40500
H  1.65400 15.54700 21.79700
H  -1.37100 11.34100 23.89500
H  -2.88600 11.02300 24.70700
H  -1.38300 10.76100 25.51800
H  -3.13200 13.31200 29.77700
H  -0.32800 11.92900 32.69200
H  0.31900 13.53100 32.31000
H  0.91000 12.25600 31.39300
Mg -1.58000 34.43500 26.59400
C  -3.53000 32.76600 29.11000
C  -0.27600 36.33900 29.12300
C  -0.58400 36.76300 24.37400
C  -3.46900 32.90200 24.17500
N  -1.98500 34.54800 28.85600
C  -2.61300 33.64300 29.66600
C  -2.40000 33.90800 31.10300
C  -1.55100 35.22400 31.15900
C  -1.22000 35.40300 29.58400
C  -2.24500 36.49600 31.68100
C  -1.66600 32.66000 31.71400
C  -2.13300 32.27800 33.15400
H  -1.04600 32.38300 34.29300
N  -0.39300 36.24400 26.73800
C  0.04100 36.81200 27.86500
C  0.78600 37.99600 27.46700
C  0.60200 38.24800 26.09100
C  -0.20700 37.08500 25.68200
C  1.70400 38.74900 28.47900
C  1.13800 39.29800 25.19600
O  0.75000 39.43900 24.06000
C  2.13800 40.38500 25.65400
N  -2.01100 34.76400 24.56100
C  -1.41600 35.74900 23.87200
C  -1.67200 35.61600 22.27900
C  -2.51700 34.30100 22.17600
C  -2.67700 33.89000 23.68200
C  -2.34200 36.78000 21.46100
C  -1.84000 33.30200 21.29600
C  -0.87800 32.13000 21.75500
N  -3.15000 33.09300 26.63000
C  -3.73000 32.53900 25.48600
C  -4.67500 31.54500 25.91100
C  -4.60800 31.55200 27.36100
C  -3.66300 32.55400 27.68100
C  -5.71400 30.86800 25.13600
C  -5.12200 30.96300 28.57500
O  -5.91900 30.08900 28.73800
C  -4.40800 31.70500 29.77700
C  -5.44200 32.35500 30.53300
O  -6.08900 33.34300 30.22100
O  -5.50400 31.73600 31.77600
C  -6.61300 32.07100 32.70300
H  0.11100 36.94600 29.94400
H  -0.38600 37.49700 23.59100
H  -4.01900 32.33000 23.42600
H  -3.38500 33.99800 31.56000
H  -0.71100 34.95600 31.80000
H  -1.70300 36.87800 32.54600
H  -3.26800 36.24400 31.96100
H  -2.21800 37.31400 30.96100
H  -0.59700 32.83500 31.83200
H  -1.68400 31.77000 31.08400
H  -2.40400 31.22600 33.07200
H  -2.95300 32.96200 33.37300
H  1.75600 38.32700 29.48200
H  1.36500 39.76800 28.66000
H  2.69500 38.83200 28.03200
H  3.07600 39.98600 26.03900
H  1.70400 41.04100 26.40900
H  2.31100 41.05800 24.81400
H  -0.63100 35.50700 21.97400
H  -3.53500 34.45700 21.82200
H  -1.76800 36.97500 20.55500
H  -2.24800 37.72100 22.00400
H  -3.37500 36.61000 21.15700
H  -1.28300 33.95500 20.62400
H  -2.56600 32.84400 20.62500
H  -0.98700 31.26500 21.10100
H  -1.13300 31.87300 22.78400
H  0.18200 32.36700 21.67500
H  -5.22800 30.19900 24.42600
H  -6.36000 31.54700 24.57800
H  -6.42000 30.36500 25.79700
H  -3.89500 30.94500 30.36500
H  -7.51300 32.32700 32.14300
H  -6.21600 32.72800 33.47600
H  -6.77800 31.16300 33.28300

