158

Mg 41.25500 7.24500 28.79700
C  42.97100 8.33800 31.67500
C  38.95800 5.88900 31.11500
C  39.91000 5.55300 26.27800
C  43.87700 8.25800 26.79000
N  41.07700 7.15600 31.23400
C  41.82400 7.81100 32.16000
C  41.09100 7.89900 33.48800
C  39.89700 6.86300 33.26700
C  39.92200 6.60300 31.80900
C  39.94700 5.55000 34.17600
C  40.68700 9.30100 33.80100
C  39.90800 9.53700 35.06300
H  40.52000 10.48000 36.12300
N  39.56000 6.08100 28.68000
C  38.81700 5.59800 29.74900
C  37.69300 4.81900 29.18800
C  37.82700 4.88200 27.76400
C  39.20800 5.45300 27.46200
C  36.58400 4.22800 30.04900
C  36.94600 4.47200 26.58600
O  37.18800 4.42900 25.40600
C  35.55200 4.03300 26.94700
N  42.00000 6.66100 26.97700
C  41.21300 6.02600 26.07500
C  41.74800 6.11800 24.61300
C  42.99200 7.04700 24.76300
C  42.91100 7.37700 26.27700
C  41.87900 4.69500 23.99200
C  42.97800 8.26200 23.84300
C  41.87200 9.28700 24.13400
N  43.00000 8.07700 29.10700
C  43.92800 8.60000 28.16900
C  44.85700 9.37900 28.83300
C  44.47100 9.40500 30.18000
C  43.43000 8.50200 30.32400
C  46.05900 9.85000 28.09400
C  44.90700 9.88000 31.50300
O  45.88500 10.56600 31.86200
C  43.84700 9.23900 32.45800
C  44.43100 8.57200 33.61000
O  45.20400 7.59300 33.60100
O  44.05800 9.24600 34.73300
C  44.61500 8.83900 35.97500
H  38.16900 5.53500 31.78200
H  39.52200 5.11800 25.35500
H  44.64400 8.68700 26.14100
H  41.87900 7.48900 34.12000
H  38.97200 7.40300 33.46800
H  40.78800 5.67500 34.85800
H  39.96900 4.64700 33.56600
H  39.03600 5.48000 34.77100
H  40.19600 9.73800 32.93200
H  41.50800 9.99400 33.98300
H  39.56800 8.59400 35.49200
H  39.02300 10.10700 34.78100
H  36.28200 3.25900 29.65200
H  35.76700 4.93600 30.19200
H  36.98800 4.02700 31.04100
H  35.47500 3.07900 27.47000
H  35.03100 3.92200 25.99600
H  34.95300 4.78500 27.46100
H  41.13700 6.76800 23.98600
H  43.90800 6.45900 24.71700
H  41.45100 4.59500 22.99500
H  41.33700 4.05500 24.68900
H  42.85500 4.26900 24.22500
H  42.94300 7.81700 22.84800
H  43.90800 8.82500 23.76300
H  41.32100 9.11800 25.06000
H  41.14900 9.27200 23.31800
H  42.35900 10.26100 24.09600
H  46.64100 10.40300 28.83200
H  45.86700 10.44500 27.20100
H  46.60500 8.93700 27.85900
H  43.19000 10.02300 32.83500
H  43.88100 8.64800 36.75800
H  45.30300 9.65400 36.19800
H  45.09700 7.86200 35.93800
Mg 46.47600 24.42800 28.13500
C  47.00500 26.71000 30.82000
C  45.22600 22.16800 30.23300
C  46.57600 22.21900 25.60600
C  47.53300 27.00200 25.98300
N  46.08400 24.49800 30.30600
C  46.45900 25.46100 31.23700
C  45.87900 25.01900 32.59800
C  45.28300 23.59400 32.38700
C  45.51600 23.40000 30.88300
C  45.86200 22.46800 33.30500
C  44.92400 26.01100 33.32100
C  45.25400 26.81500 34.57500
H  44.32500 26.80600 35.82800
N  45.99400 22.40100 27.98800
C  45.46200 21.65200 29.01400
C  45.23100 20.29800 28.48000
C  45.69800 20.31100 27.11600
C  46.19800 21.62600 26.86900
C  44.78200 19.22700 29.48400
C  45.73000 19.19700 26.12100
O  46.28800 19.25200 25.06100
C  45.11200 17.95400 26.55400
N  47.03400 24.63200 26.09400
C  46.87100 23.54700 25.19000
C  47.01900 24.02400 23.67600
C  47.12200 25.58800 23.87700
C  47.26300 25.76500 25.42100
C  48.17800 23.30900 22.99200
C  45.97600 26.49000 23.34600
C  44.55800 26.16300 23.68600
N  47.26900 26.44000 28.29400
C  47.68000 27.32200 27.32500
C  48.14100 28.60400 27.99000
C  47.92600 28.42300 29.35900
C  47.40000 27.09100 29.48900
C  48.68300 29.79800 27.24500
C  47.94100 28.94400 30.72400
O  48.37200 30.05700 31.09000
C  47.35500 27.91300 31.76100
C  48.42500 27.58000 32.76700
O  49.58500 27.17600 32.51300
O  48.09000 28.04100 34.10700
C  49.12700 28.00500 35.13200
H  44.69400 21.59800 30.99800
H  46.59800 21.56400 24.73200
H  47.89300 27.85400 25.40300
H  46.64800 24.78700 33.33500
H  44.19600 23.57100 32.46500
H  45.06600 21.86200 33.73900
H  46.46600 22.84700 34.12900
H  46.55000 21.78100 32.81200
H  44.04800 25.40200 33.54200
H  44.57600 26.69500 32.54700
H  45.40200 27.83900 34.23300
H  46.16900 26.44800 35.04100
H  43.71900 19.08300 29.29300
H  44.73000 19.55100 30.52400
H  45.31800 18.27800 29.47500
H  45.54600 17.52000 27.45500
H  44.89700 17.27800 25.72600
H  44.07800 18.21200 26.78600
H  46.07500 23.85300 23.15700
H  48.02800 25.97900 23.41400
H  48.60900 22.51400 23.59900
H  48.89000 24.05000 22.62800
H  47.72600 22.88400 22.09600
H  46.06000 26.52300 22.25900
H  46.20500 27.54400 23.50400
H  44.51200 25.20300 24.20100
H  43.99400 25.99000 22.77000
H  44.14800 26.92900 24.34500
H  48.55800 30.68600 27.86500
H  47.90900 29.96900 26.49700
H  49.65500 29.69300 26.76300
H  46.50400 28.36100 32.27400
H  49.97200 27.34900 34.92300
H  48.71700 27.71400 36.09900
H  49.47400 29.02900 35.26900

