158

Mg 25.85600 50.18000 25.68500
C  23.97800 51.18300 28.32900
C  28.19600 48.85400 27.99000
C  27.85300 49.32000 23.15700
C  23.67900 51.63700 23.41000
N  26.11800 50.13400 27.92700
C  25.13600 50.60000 28.81600
C  25.58500 50.43500 30.29600
C  26.89900 49.62600 30.09500
C  27.12400 49.54800 28.58800
C  28.03000 50.12900 30.95000
C  24.46200 49.79600 31.15200
C  24.79700 49.04000 32.44600
H  24.09100 49.56800 33.69300
N  27.70100 49.22700 25.57300
C  28.50200 48.75400 26.61600
C  29.72200 48.19300 26.06200
C  29.71200 48.54900 24.66800
C  28.35100 49.07700 24.42100
C  30.71800 47.49600 26.87500
C  30.87500 48.39200 23.67800
O  30.82000 48.74200 22.53000
C  32.19700 47.88100 24.16700
N  25.66600 50.31900 23.55400
C  26.65300 49.77900 22.70100
C  26.30000 50.10700 21.26100
C  24.81000 50.77900 21.38700
C  24.68000 50.94300 22.90100
C  27.35600 51.02700 20.53800
C  23.59500 49.91700 20.85600
C  23.57700 49.82200 19.30600
N  24.24300 51.21500 25.77900
C  23.45700 51.78700 24.82700
C  22.24500 52.32400 25.47300
C  22.43200 52.15500 26.85100
C  23.64900 51.48800 27.01800
C  21.07500 52.95500 24.74400
C  21.81100 52.34100 28.13700
O  20.73200 52.74500 28.49700
C  22.83800 51.69600 29.19300
C  23.21300 52.84100 30.10900
O  24.09400 53.66800 29.99400
O  22.30900 52.64700 31.24600
C  22.60300 53.63100 32.31100
H  28.83200 48.43900 28.77500
H  28.58500 49.01400 22.40600
H  22.91400 52.09200 22.77800
H  25.77000 51.41900 30.72700
H  26.66100 48.60200 30.38200
H  28.82500 50.32100 30.22900
H  28.44500 49.41100 31.65700
H  27.73400 51.01300 31.51400
H  23.97600 49.14700 30.42400
H  23.94600 50.69900 31.47900
H  25.85800 49.24100 32.59900
H  24.53800 47.98600 32.34500
H  30.31700 47.28800 27.86700
H  31.68800 47.99100 26.92400
H  30.84000 46.49500 26.46200
H  32.12600 46.89800 24.63300
H  32.58600 48.55800 24.92700
H  32.92000 47.96500 23.35600
H  26.16600 49.15900 20.74000
H  24.89300 51.73700 20.87200
H  28.26700 51.28900 21.07700
H  26.98000 51.94800 20.09300
H  27.75400 50.59500 19.62000
H  22.60400 50.31500 21.07400
H  23.77300 48.94600 21.32000
H  23.64000 48.80100 18.92900
H  24.32400 50.42600 18.79100
H  22.68900 50.11100 18.74500
H  20.88000 52.41200 23.81900
H  21.21400 53.96800 24.36700
H  20.09900 52.80100 25.20400
H  22.32700 50.90800 29.74700
H  22.96400 54.60400 31.98000
H  23.29400 53.24200 33.06000
H  21.74900 53.82200 32.96000
Mg 16.21200 52.37600 25.13700
C  17.48300 50.84500 27.87600
C  13.57700 53.45400 27.02500
C  14.61700 53.24600 22.31400
C  18.66800 50.79000 23.16300
N  15.75900 52.43700 27.24000
C  16.42700 51.72200 28.22000
C  15.86500 52.07600 29.63900
C  14.58600 52.95400 29.29100
C  14.59400 52.90400 27.76200
C  13.21100 52.45900 29.93100
C  16.95200 52.72000 30.52400
C  17.11200 52.16900 31.96000
H  15.96300 51.40600 32.59500
N  14.49800 53.43100 24.77300
C  13.46300 53.69400 25.64300
C  12.49200 54.46500 24.96700
C  12.68100 54.32400 23.58200
C  13.94200 53.62100 23.49100
C  11.21700 55.14500 25.69300
C  11.85100 54.67500 22.35900
O  12.17800 54.40900 21.19400
C  10.50900 55.36100 22.55100
N  16.63200 52.12500 23.02600
C  15.80500 52.57800 22.11600
C  16.39300 52.19600 20.76500
C  17.91800 51.86400 20.98800
C  17.75200 51.53200 22.46700
C  15.65100 51.08200 19.88900
C  18.91400 53.09500 20.94700
C  20.14200 52.83000 20.16000
N  17.75600 51.10500 25.44300
C  18.73100 50.62100 24.56000
C  19.65900 49.78400 25.28400
C  19.20100 49.94300 26.61100
C  18.02200 50.68400 26.60900
C  20.81900 48.99300 24.74300
C  19.47600 49.48500 27.92200
O  20.35200 48.74900 28.31600
C  18.42700 50.16200 28.83600
C  17.81600 49.11800 29.80100
O  16.64900 48.77500 29.87600
O  18.75000 48.73600 30.70500
C  18.28300 47.93600 31.84400
H  12.84400 53.86100 27.72500
H  14.27000 53.47800 21.30500
H  19.49200 50.46000 22.52600
H  15.50200 51.17000 30.12400
H  14.77400 54.01300 29.47200
H  12.63100 52.16600 29.05600
H  12.68600 53.26600 30.44300
H  13.31900 51.60500 30.59800
H  16.67700 53.73500 30.81000
H  17.97000 52.79300 30.14400
H  17.36400 53.00900 32.60800
H  17.94600 51.46600 31.96900
H  10.24200 55.06100 25.21300
H  11.51400 56.16900 25.92000
H  11.24600 54.74100 26.70500
H  9.63300 54.78400 22.84800
H  10.34100 55.61300 21.50400
H  10.65600 56.21600 23.21000
H  16.19900 53.11100 20.20500
H  18.28600 50.93800 20.54600
H  14.81900 50.84200 20.55000
H  16.37000 50.26400 19.84100
H  15.33900 51.37600 18.88600
H  19.26700 53.46400 21.90900
H  18.39700 53.96500 20.54300
H  19.98100 52.84600 19.08200
H  20.50600 51.85900 20.49400
H  20.98600 53.48100 20.38900
H  20.63700 48.64300 23.72700
H  21.11000 48.13800 25.35400
H  21.65500 49.67200 24.57400
H  18.94300 50.79900 29.55400
H  17.90900 48.48200 32.71000
H  19.02600 47.22800 32.21200
H  17.51200 47.23400 31.52800

