158

Mg 24.50100 2.72600 29.78400
C  26.80300 2.15700 32.42700
C  21.89700 2.61800 32.30500
C  22.30500 2.90500 27.32000
C  26.99400 1.93700 27.56500
N  24.40000 2.53300 32.11900
C  25.52200 2.41800 32.94500
C  25.12000 2.60600 34.37800
C  23.53800 2.57100 34.23400
C  23.24300 2.53700 32.76900
C  22.87300 1.35900 34.94600
C  25.76900 3.84800 35.03900
C  26.62900 3.73500 36.33900
H  26.16200 4.70900 37.47700
N  22.37900 2.65800 29.75000
C  21.55100 2.69300 30.86000
C  20.23000 2.88300 30.33600
C  20.25400 2.83600 28.91800
C  21.68400 2.79300 28.55100
C  18.99000 3.05100 31.12500
C  19.18700 2.95900 27.89700
O  19.36000 3.31600 26.70500
C  17.77100 2.62000 28.28200
N  24.66300 2.73300 27.76800
C  23.63900 2.87900 26.95700
C  24.10700 2.87500 25.42500
C  25.61700 2.58200 25.53900
C  25.77700 2.41400 27.06600
C  23.34200 2.09100 24.27600
C  26.51400 3.59900 24.68600
C  26.85200 4.93600 25.40200
N  26.51300 2.23800 29.91800
C  27.36800 1.85800 28.97800
C  28.68900 1.40800 29.54300
C  28.48500 1.53400 30.87500
C  27.17700 2.02700 31.08200
C  29.98600 0.98800 28.85000
C  29.15800 1.30300 32.13600
O  30.34300 1.03400 32.37900
C  28.10000 1.85800 33.27300
C  27.96600 0.89200 34.40400
O  27.31400 -0.12200 34.31100
O  28.71300 1.38000 35.50200
C  28.62400 0.66000 36.81600
H  21.11800 2.80000 33.04800
H  21.59500 2.98600 26.49400
H  27.71000 1.53700 26.84400
H  25.30200 1.64300 34.85600
H  23.19100 3.54700 34.57300
H  22.60600 0.59800 34.21300
H  21.92700 1.80700 35.25100
H  23.38400 0.88500 35.78500
H  25.01500 4.55800 35.37800
H  26.47000 4.35800 34.37800
H  27.61600 4.10600 36.06200
H  26.65600 2.69500 36.66300
H  18.38400 2.15700 30.97500
H  18.44500 3.95000 30.83700
H  19.32000 3.10700 32.16300
H  17.36600 3.46700 28.83600
H  17.86600 1.76300 28.94800
H  17.15900 2.32000 27.43100
H  23.98700 3.90800 25.09900
H  25.81600 1.56800 25.19200
H  22.48000 1.66100 24.78600
H  23.93400 1.23700 23.94900
H  23.08600 2.71300 23.41900
H  25.92800 3.89600 23.81600
H  27.43700 3.16500 24.30200
H  26.66800 4.87100 26.47400
H  26.15600 5.72800 25.12700
H  27.86000 5.19300 25.07800
H  30.43800 1.78600 28.26100
H  29.77400 0.23700 28.08900
H  30.69300 0.41800 29.45400
H  28.53500 2.80500 33.59200
H  29.63100 0.30500 37.03400
H  27.96800 -0.21000 36.82100
H  28.26800 1.34000 37.59000
Mg 27.49400 49.94800 26.95900
C  25.41400 50.69200 29.75400
C  29.91700 49.15100 29.36300
C  29.32800 49.01700 24.53200
C  24.87100 50.94000 24.92600
N  27.60800 49.91000 29.35900
C  26.61300 50.19100 30.24900
C  27.02300 50.01900 31.71900
C  28.58500 49.74500 31.57000
C  28.73300 49.58100 29.99200
C  29.47600 50.84600 32.16100
C  26.20900 48.92600 32.40100
C  25.48400 49.38600 33.71600
H  25.73200 48.44100 34.94000
N  29.40600 49.21600 26.95200
C  30.24900 48.92100 27.98300
C  31.45200 48.36300 27.44500
C  31.35000 48.47000 26.06100
C  30.02300 48.88100 25.79300
C  32.56100 47.75900 28.36600
C  32.47600 48.21500 25.12300
O  32.40500 48.43800 23.91300
C  33.75600 47.79700 25.62400
N  27.19500 50.11300 25.01700
C  28.10800 49.56500 24.18100
C  27.53900 49.29500 22.72300
C  26.02600 49.78800 22.90700
C  25.98700 50.31400 24.39900
C  28.38000 49.98600 21.61100
C  24.92700 48.63100 22.65300
C  24.31200 48.64600 21.27900
N  25.59400 50.84700 27.21100
C  24.61400 51.08800 26.28100
C  23.49500 51.66300 26.94100
C  23.73800 51.44400 28.28100
C  25.01300 50.93300 28.38500
C  22.17900 52.16000 26.36700
C  23.10800 51.43700 29.61800
O  22.02100 51.80700 29.96600
C  24.23700 51.02300 30.66300
C  24.43800 52.20100 31.48400
O  25.22300 53.13300 31.27900
O  23.76000 52.08000 32.68300
C  23.84200 53.10100 33.79700
H  30.74200 49.00700 30.06300
H  29.90900 48.58700 23.71400
H  24.04600 51.15100 24.24200
H  26.89000 50.90100 32.34500
H  28.77900 48.73800 31.93900
H  28.90200 51.51600 32.80200
H  29.89900 51.40000 31.32300
H  30.35100 50.50900 32.71600
H  26.77700 48.04600 32.70200
H  25.35500 48.63900 31.78700
H  24.42100 49.25900 33.51300
H  25.68400 50.43100 33.95500
H  32.59000 46.67100 28.30700
H  32.30400 47.72700 29.42400
H  33.57100 48.15500 28.26300
H  34.11000 48.63800 26.22000
H  34.52900 47.66300 24.86700
H  33.59400 46.84700 26.13200
H  27.54200 48.21900 22.54600
H  25.83900 50.64400 22.25800
H  28.43400 49.30000 20.76500
H  29.41400 50.05500 21.94800
H  28.01600 50.98300 21.36000
H  24.14200 48.73100 23.40200
H  25.50400 47.71800 22.79800
H  23.23400 48.74000 21.40900
H  24.58200 47.74500 20.72900
H  24.52200 49.57200 20.74400
H  21.54400 51.42700 25.86900
H  22.33400 53.04200 25.74400
H  21.70000 52.32400 27.33200
H  23.83400 50.13700 31.15400
H  23.66200 54.11200 33.43100
H  24.79700 53.10600 34.32300
H  23.04900 53.03400 34.54200

