158

Mg 1.28000 -1.54000 44.39600
C  4.61200 -0.24900 44.00000
C  0.21500 1.27500 42.74300
C  -1.73600 -3.00900 43.94600
C  2.51500 -4.23900 45.90200
N  2.33700 0.15000 43.20800
C  3.68000 0.52300 43.30500
C  3.98900 1.88300 42.75700
C  2.57200 2.54000 42.83700
C  1.62100 1.27500 42.90900
C  2.38900 3.50100 44.02800
C  4.55500 1.80500 41.33100
C  6.01400 2.12900 40.90500
H  6.15800 2.99200 39.60900
N  -0.66800 -0.83400 43.59300
C  -0.85800 0.35400 42.97500
C  -2.19900 0.53600 42.58000
C  -2.77800 -0.78300 42.86600
C  -1.70000 -1.61200 43.47000
C  -2.72000 1.81200 41.91300
C  -4.19300 -1.17600 42.56500
O  -4.91700 -0.42300 41.92300
C  -4.73800 -2.43200 43.06200
N  0.57500 -3.40000 44.78300
C  -0.72100 -3.69500 44.61500
C  -1.00100 -5.00800 45.34500
C  0.30700 -5.49600 45.90500
C  1.17100 -4.30800 45.48800
C  -2.06600 -4.81000 46.40900
C  0.80700 -6.89300 45.32000
C  1.13900 -7.88900 46.43100
N  3.14200 -2.21500 44.78400
C  3.52400 -3.34200 45.45000
C  4.86100 -3.29200 45.83500
C  5.36000 -2.11800 45.27200
C  4.27300 -1.48300 44.60500
C  5.64000 -4.27600 46.70600
C  6.50600 -1.25300 45.24600
O  7.62200 -1.29000 45.76600
C  6.12800 -0.07800 44.27700
C  6.38500 1.12600 45.04900
O  5.61000 1.60200 45.90700
O  7.59000 1.64000 44.65300
C  8.09600 2.71700 45.36900
H  -0.05100 2.29200 42.44800
H  -2.59300 -3.68600 43.97600
H  2.95200 -5.05100 46.48700
H  4.61200 2.44800 43.45000
H  2.35200 3.21200 42.00800
H  3.27000 3.83000 44.57900
H  1.69000 3.03600 44.72300
H  1.95600 4.44700 43.70300
H  3.98900 2.44400 40.65300
H  4.32500 0.90000 40.76800
H  6.35900 1.12300 40.66900
H  6.54400 2.56500 41.75300
H  -2.85500 1.56100 40.86100
H  -2.11900 2.72000 41.86500
H  -3.71500 2.03000 42.30200
H  -5.78900 -2.62300 42.84300
H  -4.53900 -2.31100 44.12700
H  -4.12700 -3.16600 42.53700
H  -1.31500 -5.71900 44.58000
H  0.19400 -5.47000 46.98900
H  -1.46100 -4.39700 47.21600
H  -2.48200 -5.78600 46.66100
H  -2.90300 -4.22400 46.03100
H  1.76000 -6.65100 44.85100
H  0.16100 -7.41500 44.61400
H  2.09000 -7.57900 46.86400
H  1.11700 -8.90800 46.04400
H  0.37000 -7.98100 47.19700
H  5.97500 -5.01300 45.97600
H  4.98600 -4.80100 47.40200
H  6.44600 -3.63900 47.07100
H  6.81900 0.00500 43.43800
H  9.12900 2.91700 45.08600
H  8.10800 2.44800 46.42500
H  7.50400 3.59300 45.10400
Mg 28.23500 55.84800 39.98900
C  25.95500 53.33200 39.24600
C  30.69400 53.61900 39.02300
C  30.41900 58.34700 39.84700
C  25.61600 58.03300 40.19200
N  28.31300 53.72400 39.19500
C  27.25600 52.88000 39.03100
C  27.66700 51.46100 38.69500
C  29.24800 51.54100 38.90500
C  29.45200 53.02900 39.12700
C  29.90100 50.74000 40.11700
C  27.19300 51.10700 37.29300
C  27.92500 51.68800 36.11000
H  27.10300 52.33000 34.91200
N  30.29500 55.94500 39.68600
C  31.13300 54.89200 39.37200
C  32.47500 55.31700 39.41700
C  32.45900 56.69100 39.70000
C  31.06100 57.06300 39.71900
C  33.70600 54.41300 39.20600
C  33.60400 57.56000 39.88500
O  34.79000 57.17100 39.71400
C  33.50000 59.09000 40.20600
N  28.05100 57.94300 39.86700
C  29.06700 58.76600 40.03000
C  28.58800 60.24600 40.18400
C  27.06300 60.10900 40.48400
C  26.84600 58.64100 40.07700
C  29.39200 61.15100 41.15000
C  26.17100 61.11300 39.70900
C  25.27300 62.06500 40.53900
N  26.21600 55.77900 39.87900
C  25.28300 56.78100 39.88700
C  23.95100 56.22100 39.86100
C  24.15800 54.88000 39.62700
C  25.58200 54.68300 39.46100
C  22.64200 56.98100 40.22600
C  23.54500 53.58900 39.50100
O  22.36900 53.22000 39.60000
C  24.68100 52.52600 39.23100
C  24.65200 51.50900 40.27300
O  24.13900 50.39500 40.08200
O  25.51500 51.79200 41.34000
C  25.92300 50.68000 42.19000
H  31.49700 52.91400 38.79600
H  31.16500 59.14100 39.92300
H  24.79200 58.70900 40.42700
H  27.16200 50.82800 39.42400
H  29.62300 51.12800 37.96900
H  29.14700 49.95400 40.15100
H  29.80500 51.38500 40.99000
H  30.91100 50.42500 39.85500
H  26.11700 51.13000 37.12200
H  27.49300 50.06300 37.21400
H  28.55600 50.86500 35.77400
H  28.57200 52.51300 36.40600
H  33.90700 54.39600 38.13500
H  33.41900 53.45600 39.64300
H  34.47400 54.78500 39.88400
H  32.81000 59.36500 41.00300
H  33.24900 59.69000 39.33100
H  34.50600 59.37700 40.51500
H  28.66300 60.60600 39.15800
H  26.98100 60.20400 41.56700
H  30.27000 60.64600 41.55300
H  28.81300 61.55700 41.98000
H  29.71700 62.04400 40.61600
H  25.55300 60.58200 38.98400
H  26.86200 61.65100 39.06000
H  25.93100 62.74800 41.07700
H  24.64800 61.52700 41.25100
H  24.68700 62.62500 39.81000
H  22.33000 57.59600 39.38200
H  22.91700 57.59000 41.08700
H  21.84100 56.30000 40.51500
H  24.46100 52.15800 38.22900
H  27.00400 50.67700 42.32400
H  25.73600 49.65900 41.86000
H  25.48900 50.69800 43.19000

