158

Mg 24.40400 -5.25600 45.61300
C  26.63500 -2.84700 44.18500
C  22.04900 -4.16200 43.50100
C  22.69100 -8.06600 46.29200
C  27.24300 -6.48200 47.36900
N  24.42600 -3.73300 44.01000
C  25.45600 -2.91100 43.49000
C  25.01700 -2.08400 42.34000
C  23.50700 -2.47700 42.18300
C  23.31200 -3.61000 43.20200
C  22.51500 -1.27000 42.42500
C  25.86800 -2.32800 41.01100
C  26.18300 -1.07800 40.23400
H  25.90700 -1.19000 38.69800
N  22.57500 -5.88100 45.11800
C  21.74000 -5.27200 44.27700
C  20.41700 -5.86900 44.39200
C  20.56400 -7.04300 45.14600
C  21.98400 -7.05400 45.56900
C  19.25200 -5.42200 43.53900
C  19.46800 -8.02700 45.40200
O  18.29900 -7.75700 45.08200
C  19.70600 -9.38000 45.98000
N  24.95300 -7.05400 46.65800
C  23.98900 -8.09900 46.79500
C  24.65900 -9.30500 47.53600
C  26.00500 -8.67400 48.07100
C  26.13500 -7.35800 47.26800
C  23.68100 -10.00600 48.58800
C  27.24800 -9.64900 48.18200
C  27.79600 -10.10500 49.51400
N  26.53000 -4.75700 45.83600
C  27.46000 -5.28000 46.71500
C  28.63100 -4.46100 46.67200
C  28.31800 -3.50300 45.74800
C  27.02700 -3.73500 45.23400
C  29.89500 -4.64100 47.35600
C  28.99100 -2.35100 45.00400
O  30.05700 -1.73900 45.08800
C  27.85200 -1.93100 44.01700
C  27.56500 -0.52100 44.41500
O  27.24600 -0.15100 45.49000
O  27.86000 0.31700 43.33800
C  27.95300 1.76700 43.69700
H  21.33000 -3.76400 42.78200
H  22.12200 -8.93400 46.63200
H  28.13200 -6.82400 47.90300
H  25.18100 -1.05300 42.65200
H  23.19700 -2.95700 41.25500
H  22.88100 -0.40000 41.88000
H  22.30800 -0.94700 43.44500
H  21.53100 -1.42900 41.98300
H  25.24700 -2.88700 40.31100
H  26.79900 -2.85200 41.22900
H  27.23300 -0.81200 40.35700
H  25.57900 -0.27900 40.66400
H  18.32800 -5.17100 44.06000
H  18.99700 -6.26200 42.89400
H  19.45000 -4.69000 42.75600
H  18.81000 -10.00000 45.96000
H  19.90100 -9.08900 47.01200
H  20.43800 -9.77700 45.27600
H  24.88700 -10.07300 46.79700
H  25.74800 -8.41300 49.09800
H  23.06100 -9.21600 49.01100
H  24.21100 -10.41700 49.44700
H  23.13700 -10.84400 48.15300
H  28.09500 -9.16900 47.69100
H  27.00400 -10.50600 47.55400
H  28.79500 -9.67500 49.59200
H  27.91900 -11.15800 49.77000
H  27.15500 -9.73900 50.31600
H  29.75400 -5.47500 48.04400
H  30.11600 -3.72100 47.89800
H  30.65800 -4.74600 46.58500
H  28.11800 -1.93300 42.96000
H  27.87300 2.26400 42.73000
H  28.96100 1.82200 44.10900
H  27.25200 2.14100 44.44300
Mg 41.57600 41.37000 26.53100
C  40.80800 43.81800 28.93000
C  42.98900 39.38700 28.98500
C  42.37600 39.00100 24.23900
C  40.47600 43.48600 24.13400
N  41.84400 41.54100 28.83800
C  41.42300 42.70300 29.59100
C  41.76700 42.38400 31.01600
C  42.65300 41.07100 30.94700
C  42.51600 40.58400 29.48700
C  44.10700 41.40700 31.36500
C  40.45100 42.11600 31.89100
C  40.74300 41.66700 33.38100
H  39.75400 42.22300 34.51100
N  42.48600 39.39400 26.62500
C  42.99200 38.82300 27.69000
C  43.72300 37.65700 27.28100
C  43.26200 37.34000 25.97200
C  42.71700 38.61400 25.55300
C  44.51400 36.76600 28.35800
C  43.20000 36.02200 25.13300
O  42.68200 35.90800 24.06300
C  43.72600 34.75400 25.70300
N  41.46100 41.26800 24.49900
C  41.85400 40.21700 23.71100
C  41.52200 40.37700 22.20000
C  40.83800 41.80800 22.14500
C  40.88000 42.17600 23.72400
C  42.83800 40.06100 21.36900
C  39.40800 41.77800 21.54000
C  38.40800 40.97400 22.44800
N  40.85100 43.23400 26.47400
C  40.51100 44.04600 25.44000
C  40.00300 45.35700 25.88500
C  40.08900 45.25000 27.28000
C  40.60300 43.98500 27.59100
C  39.45500 46.52500 25.02600
C  39.88800 45.99400 28.54900
O  39.43400 47.13100 28.72200
C  40.29200 45.03600 29.64800
C  41.21900 45.73100 30.58500
O  42.37400 46.01400 30.38500
O  40.52400 45.99000 31.78000
C  41.30000 46.70500 32.79300
H  43.63900 38.94300 29.74200
H  42.53400 38.31700 23.40200
H  40.26700 44.13100 23.27900
H  42.34700 43.23500 31.37400
H  42.29600 40.33400 31.66700
H  44.60300 40.44300 31.25100
H  44.15500 41.66900 32.42200
H  44.66900 42.04700 30.68500
H  39.98000 41.33400 31.29500
H  39.83100 43.01200 31.87700
H  41.77800 41.87200 33.65100
H  40.70300 40.58300 33.48000
H  44.75900 37.31800 29.26600
H  45.37000 36.16200 28.05600
H  43.72200 36.08300 28.66400
H  44.78700 34.77700 25.45500
H  43.17100 33.88600 25.34700
H  43.61100 34.69400 26.78500
H  40.81400 39.62100 21.85900
H  41.54100 42.37200 21.53300
H  43.76600 39.87500 21.91000
H  43.07300 40.82900 20.63200
H  42.56500 39.14400 20.84800
H  39.48300 41.15900 20.64600
H  39.02200 42.76300 21.27600
H  37.47300 41.49800 22.64600
H  38.76200 40.58700 23.40300
H  38.08300 40.05300 21.96500
H  38.95600 46.06600 24.17300
H  40.18500 47.20000 24.58000
H  38.77900 46.92400 25.78200
H  39.35100 44.83500 30.15900
H  42.16500 47.28900 32.48000
H  41.67100 45.99600 33.53300
H  40.69100 47.35500 33.42200

