158

Mg 44.57400 5.23000 48.46600
C  42.86900 8.14500 47.44100
C  41.69600 3.48800 47.79500
C  46.34300 2.35400 48.75000
C  47.47100 7.10300 48.91100
N  42.55500 5.74700 47.74600
C  42.10800 6.98600 47.37500
C  40.66200 6.98400 46.94300
C  40.23100 5.50100 47.22100
C  41.51600 4.85800 47.64100
C  39.04100 5.37200 48.22700
C  40.48900 7.34600 45.40000
C  39.34300 8.29700 45.18700
H  38.26200 7.99900 44.03800
N  44.11600 3.14700 48.25500
C  42.83900 2.67600 48.05800
C  42.91300 1.27800 48.04800
C  44.24000 0.84600 48.18700
C  44.98000 2.12500 48.34000
C  41.76700 0.43500 47.80800
C  44.70600 -0.57300 48.26400
O  43.91800 -1.48500 48.19200
C  46.10100 -0.82500 48.34900
N  46.62400 4.78200 48.71700
C  47.12500 3.52200 48.90700
C  48.70900 3.44400 49.12200
C  49.02200 4.97500 49.04300
C  47.59400 5.70300 48.93100
C  49.08300 2.80500 50.49400
C  50.05200 5.38200 47.88800
C  51.37500 6.04300 48.26000
N  45.10300 7.24700 48.33900
C  46.28500 7.87500 48.52400
C  46.13500 9.28200 48.34700
C  44.81600 9.36100 47.96800
C  44.21200 8.16000 47.93300
C  47.26100 10.25500 48.55500
C  43.81000 10.25500 47.40500
O  43.97200 11.43400 47.17400
C  42.52100 9.55800 47.09200
C  41.46700 10.15600 47.94700
O  41.16700 9.66900 49.05400
O  40.75900 11.11800 47.23300
C  39.43300 11.42700 47.79900
H  40.77900 3.00300 47.45600
H  47.08100 1.54900 48.78100
H  48.34600 7.75700 48.90200
H  40.02500 7.63500 47.54000
H  39.93200 4.99800 46.30100
H  39.35000 4.82500 49.11800
H  38.36800 4.79600 47.59200
H  38.64100 6.33200 48.55300
H  40.40200 6.41000 44.84800
H  41.40100 7.86400 45.10200
H  39.77400 9.29100 45.06400
H  38.80100 8.19800 46.12800
H  42.15400 -0.42000 47.25300
H  40.95100 0.92100 47.27300
H  41.40900 0.14700 48.79600
H  46.27100 -1.88700 48.52400
H  46.47400 -0.32100 49.24100
H  46.47200 -0.41300 47.41100
H  49.08400 2.87400 48.27200
H  49.52500 5.23900 49.97300
H  49.23600 1.74000 50.32100
H  48.33300 3.00800 51.25900
H  49.99600 3.22600 50.91600
H  49.57000 6.10600 47.23000
H  50.14700 4.43800 47.35200
H  52.23100 5.48600 47.88100
H  51.43600 6.14400 49.34400
H  51.38300 7.02200 47.78100
H  47.85300 9.93200 49.41100
H  46.83200 11.23900 48.74000
H  47.91500 10.27000 47.68300
H  42.34200 9.72700 46.03000
H  38.89400 10.48500 47.89300
H  38.79200 11.97000 47.10500
H  39.53300 11.93400 48.75900
Mg 2.04800 42.24400 26.37600
C  3.35300 42.15000 29.51900
C  -0.89500 40.87600 27.47600
C  0.95900 42.00600 23.08300
C  5.05500 43.49300 25.16800
N  1.31600 41.69400 28.25400
C  1.99400 41.81000 29.46100
C  1.04900 41.53000 30.69000
C  -0.26300 41.02500 29.95200
C  0.09900 41.22400 28.47700
C  -0.65400 39.59100 30.34700
C  0.77100 42.80200 31.58900
C  1.35100 42.65300 33.04800
H  1.06900 41.35500 33.79300
N  0.28800 41.46100 25.41500
C  -0.86400 41.01200 26.07800
C  -1.83800 40.72900 25.14600
C  -1.32800 41.00500 23.88200
C  0.04200 41.55000 24.03600
C  -3.11300 40.02800 25.66100
C  -2.05900 40.89300 22.42200
O  -1.65700 41.50800 21.41200
C  -3.45100 40.30200 22.42100
N  2.95400 42.53500 24.41200
C  2.26400 42.51700 23.23900
C  3.09300 43.06400 22.04500
C  4.25300 43.74000 22.83300
C  4.10000 43.22700 24.23900
C  3.62400 41.85000 21.23200
C  4.28800 45.24400 22.60300
C  4.66000 45.85800 21.16600
N  3.86900 42.63900 27.15300
C  4.99600 43.19000 26.54100
C  5.99900 43.41100 27.52600
C  5.40800 43.01700 28.72400
C  4.10400 42.56300 28.40900
C  7.43900 43.95400 27.35200
C  5.53000 42.89100 30.11600
O  6.52800 43.13600 30.84900
C  4.23400 42.31400 30.67600
C  4.56800 41.02000 31.36700
O  4.87400 39.95700 30.83600
O  4.73200 41.27600 32.70400
C  5.00800 40.08000 33.51900
H  -1.80100 40.47800 27.93800
H  0.71600 41.92800 22.02100
H  6.00700 43.89600 24.81700
H  1.55500 40.76100 31.27400
H  -1.12100 41.64200 30.22000
H  -1.73700 39.55600 30.46400
H  -0.23200 39.38000 31.33000
H  -0.26500 38.84000 29.66000
H  -0.29400 42.91900 31.79100
H  1.24600 43.62900 31.06100
H  1.04500 43.58500 33.52300
H  2.43500 42.75600 32.99100
H  -2.98500 39.43600 26.56700
H  -3.37300 39.33300 24.86300
H  -4.00100 40.62200 25.88100
H  -4.12400 40.97600 22.95100
H  -3.37400 39.31600 22.87700
H  -3.78000 40.08700 21.40400
H  2.59200 43.88400 21.53100
H  5.21900 43.33300 22.53400
H  4.46200 42.02700 20.55700
H  2.83600 41.61000 20.51800
H  3.67400 40.91200 21.78400
H  5.13700 45.59000 23.19200
H  3.38700 45.72600 22.98100
H  4.49600 44.97000 20.55600
H  5.69400 46.15800 20.99600
H  3.91400 46.62800 20.96900
H  8.19300 43.21600 27.62900
H  7.57900 44.76600 28.06500
H  7.58700 44.32400 26.33800
H  3.96200 43.15300 31.31600
H  4.40200 40.16900 34.42000
H  6.07400 39.97300 33.72200
H  4.67000 39.15300 33.05600

