158

Mg -2.23800 34.09200 26.78700
C  -3.61200 32.48600 29.54500
C  -0.69400 36.29400 28.96200
C  -1.23800 35.93000 24.09700
C  -4.31700 32.23800 24.66900
N  -2.25600 34.33000 29.00800
C  -2.69500 33.40500 29.92000
C  -1.98100 33.51700 31.28000
C  -1.15800 34.85400 31.12600
C  -1.35400 35.26200 29.57400
C  -1.53300 35.91000 32.10200
C  -1.15600 32.27800 31.83700
C  -1.47600 31.86000 33.30200
H  -0.27400 31.84200 34.27600
N  -1.07900 35.86400 26.56800
C  -0.52800 36.56400 27.60600
C  0.28600 37.56400 27.11700
C  0.15600 37.48000 25.66800
C  -0.69700 36.37300 25.35700
C  1.15200 38.54900 27.86600
C  0.83900 38.24000 24.49200
O  0.72500 37.98000 23.30300
C  1.76800 39.33300 24.85700
N  -2.88300 34.20400 24.64900
C  -2.23900 34.98700 23.76000
C  -2.80700 34.77400 22.32400
C  -3.82700 33.63700 22.48700
C  -3.66300 33.34400 24.03000
C  -3.32400 36.07400 21.65500
C  -3.64400 32.48900 21.54200
C  -2.42100 31.61700 21.73700
N  -3.66000 32.64400 26.97900
C  -4.31800 31.90900 26.04000
C  -5.15800 30.90100 26.74900
C  -4.76900 31.07300 28.11200
C  -3.97100 32.17600 28.18000
C  -6.07500 29.92300 26.07700
C  -5.00200 30.52400 29.43100
O  -5.73000 29.60600 29.80800
C  -4.11300 31.34300 30.39100
C  -5.03400 31.90000 31.36700
O  -5.96700 32.62300 31.04300
O  -4.77600 31.64900 32.66900
C  -5.61800 32.28900 33.71800
H  -0.14700 37.04400 29.53700
H  -0.93400 36.41100 23.16500
H  -4.91700 31.54500 24.07500
H  -2.82800 33.72200 31.93400
H  -0.08000 34.70000 31.15800
H  -2.36900 35.71400 32.77300
H  -1.89600 36.77800 31.55100
H  -0.65700 36.29300 32.62600
H  -0.11600 32.60500 31.82500
H  -1.26400 31.36700 31.24800
H  -1.83400 30.85000 33.49800
H  -2.11100 32.66800 33.66600
H  2.18900 38.37700 27.58000
H  0.87700 38.56500 28.92100
H  0.78900 39.50800 27.49500
H  1.92100 40.01700 24.02200
H  2.74200 38.95000 25.16200
H  1.27800 39.91900 25.63500
H  -2.01300 34.31400 21.73600
H  -4.80800 34.11300 22.47700
H  -3.12800 36.07000 20.58300
H  -2.85900 37.01100 21.96200
H  -4.40500 36.18700 21.74000
H  -3.72500 32.79600 20.49900
H  -4.51700 31.84800 21.66400
H  -1.90200 31.85800 20.80900
H  -2.62200 30.54600 21.70200
H  -1.80600 31.91200 22.58700
H  -6.17000 30.08700 25.00300
H  -7.04400 29.97700 26.57300
H  -5.73800 28.90000 26.24300
H  -3.43300 30.63200 30.86100
H  -4.99400 32.56400 34.56800
H  -6.29600 31.50400 34.05400
H  -6.01000 33.23900 33.35600
Mg -5.25900 24.63800 26.47900
C  -3.64400 26.64000 28.86700
C  -6.13300 22.42700 28.90400
C  -6.97900 22.92500 24.14000
C  -4.01200 26.80500 23.95200
N  -5.16100 24.69700 28.60200
C  -4.54200 25.64800 29.41500
C  -4.71100 25.36400 30.92900
C  -5.35800 23.95200 30.83000
C  -5.49200 23.60600 29.31400
C  -4.36100 22.94200 31.42900
C  -5.60600 26.45200 31.61800
C  -5.17100 26.90100 32.99700
H  -4.65700 25.77100 33.99400
N  -6.38900 22.86800 26.52300
C  -6.54800 22.07700 27.59400
C  -7.30800 20.86100 27.18800
C  -7.52800 21.02700 25.80400
C  -6.92300 22.30700 25.39200
C  -7.67500 19.79200 28.26500
C  -8.23200 20.03800 24.84900
O  -8.40900 20.28800 23.67400
C  -8.95300 18.88300 25.44800
N  -5.49000 24.88000 24.34200
C  -6.28700 24.05900 23.62200
C  -6.09200 24.42600 22.07900
C  -5.24700 25.72100 22.10100
C  -4.79400 25.76700 23.52600
C  -5.36100 23.29400 21.29900
C  -5.95400 26.95900 21.53700
C  -5.21800 27.77900 20.48100
N  -4.09400 26.35600 26.37200
C  -3.58600 27.06800 25.32700
C  -2.82700 28.17500 25.83700
C  -2.87200 28.07700 27.21200
C  -3.57800 26.92000 27.48700
C  -2.14400 29.19100 24.98000
C  -2.36300 28.66200 28.44500
O  -1.69000 29.66700 28.63800
C  -2.85700 27.74000 29.57600
C  -1.63100 27.20200 30.24600
O  -0.67000 26.72800 29.65300
O  -1.73900 27.32700 31.61000
C  -0.67000 26.75400 32.34500
H  -6.34100 21.77000 29.75200
H  -7.53000 22.37300 23.37600
H  -3.64400 27.57500 23.27100
H  -3.75100 25.51300 31.42400
H  -6.32000 23.84700 31.33100
H  -3.87100 22.43300 30.59900
H  -4.89800 22.24300 32.07000
H  -3.57500 23.42600 32.00900
H  -6.62600 26.11200 31.79800
H  -5.66300 27.37700 31.04400
H  -5.98000 27.38900 33.54100
H  -4.28900 27.53300 32.89400
H  -8.76300 19.73500 28.23200
H  -7.30500 20.07500 29.25000
H  -7.07800 18.90400 28.05700
H  -8.25400 18.21000 25.94400
H  -9.62400 18.32900 24.79100
H  -9.50800 19.36000 26.25600
H  -7.11800 24.55100 21.73400
H  -4.26400 25.66900 21.63400
H  -5.49300 22.28200 21.68200
H  -4.28200 23.44800 21.30400
H  -5.76800 23.30900 20.28800
H  -6.25400 27.58400 22.37800
H  -6.86900 26.56800 21.09300
H  -5.98000 28.18000 19.81300
H  -4.45300 27.28700 19.88100
H  -4.74400 28.53300 21.11000
H  -2.81000 29.73800 24.31400
H  -1.41200 28.68300 24.35200
H  -1.69200 29.90300 25.67100
H  -3.50500 28.28100 30.26700
H  0.29600 26.75300 31.84000
H  -0.91400 25.73300 32.63900
H  -0.48200 27.39000 33.21000

