158

Mg 24.08400 -3.83600 45.91400
C  26.03700 -1.54400 44.20200
C  21.49100 -3.03400 43.72900
C  22.46100 -6.63400 46.87500
C  26.99800 -4.89200 47.64300
N  23.89300 -2.44000 44.05200
C  24.81600 -1.55600 43.60500
C  24.32400 -0.68700 42.50600
C  22.79100 -1.02500 42.60700
C  22.65300 -2.22700 43.55200
C  21.93100 0.24300 43.11800
C  24.91800 -0.98400 41.05600
C  24.39000 0.01700 39.95900
H  24.05100 -0.58500 38.57900
N  22.16100 -4.74100 45.36100
C  21.23200 -4.23500 44.52800
C  20.13000 -5.11800 44.59400
C  20.36600 -6.15700 45.56900
C  21.71200 -5.88600 45.99100
C  18.90400 -4.73900 43.81600
C  19.39600 -7.26400 45.87300
O  18.28200 -7.35400 45.34900
C  19.71200 -8.33900 46.86600
N  24.65300 -5.44100 47.12800
C  23.80000 -6.50000 47.30900
C  24.54000 -7.70000 47.90900
C  25.92900 -7.13300 48.32900
C  25.85400 -5.75200 47.67400
C  23.83200 -8.53800 49.06400
C  27.13300 -8.09100 47.97500
C  27.95900 -8.62700 49.11000
N  26.03400 -3.25500 46.12800
C  27.12000 -3.71000 46.88100
C  28.28900 -2.79900 46.69300
C  27.82900 -1.94100 45.70100
C  26.48800 -2.34900 45.30400
C  29.54400 -2.83300 47.41800
C  28.34000 -0.89300 44.85200
O  29.40100 -0.26100 44.84600
C  27.27200 -0.66300 43.84000
C  26.86500 0.81400 43.91500
O  26.14800 1.33800 44.71900
O  27.30400 1.49600 42.77100
C  27.30300 2.98000 43.00200
H  20.58000 -2.73500 43.20600
H  21.94600 -7.56400 47.12200
H  27.86600 -5.27200 48.18600
H  24.59000 0.35200 42.70100
H  22.48400 -1.43600 41.64500
H  21.53800 0.22100 44.13500
H  21.01800 0.22600 42.52300
H  22.37400 1.23400 43.01900
H  24.97100 -2.03400 40.76600
H  25.93100 -0.60000 41.17900
H  25.17900 0.75800 39.82500
H  23.57800 0.57900 40.41900
H  19.12000 -4.18200 42.90500
H  18.11900 -4.27500 44.41300
H  18.47200 -5.65000 43.40100
H  18.89500 -9.04600 47.01400
H  20.06100 -7.79400 47.74300
H  20.43300 -9.02900 46.42700
H  24.56800 -8.45100 47.11900
H  25.89900 -7.01600 49.41200
H  24.48800 -8.81200 49.89000
H  23.38100 -9.49300 48.79300
H  22.95600 -8.08100 49.52500
H  27.78300 -7.52800 47.30500
H  26.70900 -8.87900 47.35200
H  27.65200 -8.05500 49.98600
H  29.00300 -8.44300 48.85900
H  27.76700 -9.69800 49.16200
H  29.93200 -3.84900 47.48800
H  29.54600 -2.25300 48.34100
H  30.18800 -2.27800 46.73600
H  27.79900 -0.84700 42.90300
H  27.65500 3.50500 42.11400
H  27.89600 3.20500 43.88800
H  26.31400 3.29000 43.33900
Mg 30.10600 57.71600 40.67000
C  27.72300 55.39000 39.50800
C  32.48200 55.62700 39.19200
C  32.42700 60.20800 40.97000
C  27.56000 59.97800 41.42800
N  30.03100 55.74200 39.56300
C  29.01500 54.91200 39.20700
C  29.49100 53.68800 38.36800
C  30.93400 53.59200 38.75600
C  31.17500 55.03800 39.19500
C  31.40200 52.54200 39.82900
C  29.26100 54.02800 36.85200
C  28.54200 52.92900 36.12100
H  27.37100 53.48500 35.27100
N  32.16600 57.90700 40.17200
C  32.91900 56.85700 39.65300
C  34.28800 57.27500 39.65100
C  34.37800 58.65700 40.12700
C  32.95500 58.97600 40.46000
C  35.39300 56.36500 39.16700
C  35.65400 59.40600 40.32000
O  36.73500 58.91500 39.95300
C  35.66600 60.68800 41.12000
N  30.03000 59.76400 41.22100
C  31.06700 60.60400 41.28100
C  30.65200 62.02400 41.79500
C  29.13300 61.91800 41.97300
C  28.88100 60.45400 41.53100
C  31.36300 62.62100 43.02300
C  28.23400 62.94400 41.20000
C  27.37300 63.84900 42.12700
N  28.13200 57.68000 40.67300
C  27.22600 58.61800 41.04800
C  25.88800 58.12800 40.95500
C  26.06700 56.88200 40.33100
C  27.43600 56.60900 40.16900
C  24.60200 58.87000 41.29700
C  25.31500 55.67300 39.93000
O  24.12300 55.40200 40.04100
C  26.38300 54.65200 39.32500
C  26.30800 53.39800 40.09800
O  26.66700 53.17300 41.25300
O  25.61400 52.52600 39.31200
C  25.45900 51.18100 39.93400
H  33.20000 54.86000 38.89400
H  33.16600 61.00600 41.06900
H  26.82800 60.64100 41.89200
H  28.96600 52.86000 38.84600
H  31.60200 53.38300 37.92000
H  32.01000 51.75300 39.38700
H  30.55500 52.06200 40.32000
H  31.98700 53.03500 40.60500
H  30.19400 54.06400 36.28900
H  28.78000 55.00400 36.78500
H  28.20600 52.15000 36.80400
H  29.26100 52.48600 35.43200
H  35.98500 56.86700 38.40200
H  35.08100 55.40300 38.76100
H  36.09600 56.07700 39.94800
H  35.43000 61.52800 40.46700
H  36.66700 60.84900 41.52000
H  35.01100 60.62600 41.98900
H  30.87800 62.69100 40.96300
H  28.99500 61.96400 43.05300
H  32.11000 61.88500 43.32300
H  30.72100 62.87100 43.86700
H  31.85400 63.53600 42.69100
H  27.52000 62.42500 40.56100
H  28.77600 63.51000 40.44200
H  27.64400 64.90000 42.03100
H  27.44000 63.46300 43.14400
H  26.34000 63.60500 41.88000
H  24.16000 59.41100 40.46100
H  24.63700 59.60800 42.09800
H  23.92800 58.05500 41.56100
H  26.22800 54.52900 38.25300
H  26.45900 50.80400 40.14900
H  24.94800 50.60000 39.16500
H  24.93400 51.22100 40.88800

