158

Mg 48.64600 14.95900 28.82800
C  46.56500 15.20700 31.69400
C  51.07700 16.72400 30.37800
C  50.20500 14.93400 25.98900
C  45.75200 13.51800 27.18600
N  48.69200 15.97000 30.72700
C  47.79300 15.87800 31.81400
C  48.43200 16.47600 33.09200
C  49.75900 17.14800 32.58400
C  49.89400 16.61000 31.14600
C  49.67700 18.71200 32.53900
C  48.69900 15.55700 34.24100
C  48.08500 15.89900 35.58600
H  48.91600 15.48300 36.79900
N  50.49600 15.67600 28.26300
C  51.34200 16.36700 29.03800
C  52.53700 16.64300 28.29100
C  52.31800 16.17800 26.97600
C  50.96600 15.56800 26.99300
C  53.76400 17.37500 28.95600
C  53.14700 16.23600 25.67700
O  52.81100 15.65500 24.62200
C  54.49500 16.90200 25.79600
N  47.95200 14.47900 26.78200
C  48.91000 14.53100 25.77100
C  48.31400 13.88900 24.53400
C  46.88800 13.34500 24.93300
C  46.81300 13.72900 26.39100
C  48.29100 14.85600 23.25500
C  46.71100 11.83900 24.78600
C  47.83400 10.81300 25.24500
N  46.64000 14.28100 29.38000
C  45.62600 13.74700 28.56400
C  44.47500 13.50000 29.39000
C  44.77900 13.98900 30.65500
C  46.11800 14.46200 30.57300
C  43.22500 12.80800 29.03900
C  44.24500 14.24800 31.93800
O  43.12400 14.05700 32.44500
C  45.46200 15.01000 32.69300
C  44.86300 16.22000 33.31000
O  44.41500 17.18100 32.66400
O  44.72200 16.10300 34.69200
C  44.04400 17.09500 35.53100
H  51.77700 17.18600 31.07700
H  50.75600 14.54000 25.13200
H  44.80800 13.15100 26.77600
H  47.79100 17.27500 33.46500
H  50.63200 17.00300 33.22100
H  50.54100 19.20800 32.98100
H  48.76600 19.09300 33.00200
H  49.61100 19.07100 31.51200
H  49.76700 15.54600 34.45400
H  48.45100 14.56500 33.86200
H  47.06300 15.52100 35.60300
H  47.97900 16.98300 35.53900
H  53.37500 17.95300 29.79400
H  54.37100 18.05300 28.35600
H  54.41700 16.64200 29.42900
H  55.16800 16.23200 26.33000
H  54.52600 17.90600 26.21800
H  54.95900 16.88100 24.81000
H  49.09900 13.17400 24.28900
H  46.13700 13.96700 24.44500
H  48.87600 14.34400 22.49000
H  48.65300 15.87100 23.41900
H  47.28800 14.87700 22.82900
H  46.46300 11.47700 23.78800
H  45.81700 11.49700 25.30600
H  47.53600 9.78500 25.03400
H  47.93100 10.94400 26.32200
H  48.74700 11.07300 24.71000
H  42.90300 12.76400 27.99900
H  42.38800 13.11500 29.66700
H  43.37800 11.74200 29.20300
H  45.81800 14.30700 33.44700
H  44.70300 17.24300 36.38700
H  43.01300 16.86700 35.80000
H  44.01000 18.04100 34.99200
Mg 7.02800 53.42300 40.41400
C  6.67300 49.90700 40.38200
C  10.33300 53.00500 39.95700
C  7.09900 56.61500 39.59800
C  3.65700 53.68000 41.03500
N  8.36100 51.61800 40.07600
C  7.99300 50.27500 40.13200
C  9.21600 49.36600 40.19900
C  10.35100 50.36600 40.46800
C  9.69200 51.77900 40.17800
C  11.02900 50.27000 41.90300
C  9.43000 48.57600 38.86400
C  9.54600 49.32900 37.49400
H  8.25000 49.28900 36.59900
N  8.51600 54.65700 39.86600
C  9.85900 54.30100 39.69700
C  10.58500 55.41600 39.32800
C  9.75100 56.52000 39.31400
C  8.38500 56.00100 39.55000
C  12.11200 55.51400 39.14300
C  10.23100 57.95900 39.02000
O  11.41500 58.25800 38.93200
C  9.23100 59.06500 38.79800
N  5.49800 54.93400 40.05200
C  5.85100 56.26400 39.98800
C  4.60800 57.20900 40.09500
C  3.43900 56.23000 40.60200
C  4.24400 54.84400 40.58800
C  4.83300 58.37500 41.09100
C  2.15500 56.33600 39.71400
C  1.02200 56.95900 40.41700
N  5.50100 52.20400 40.70700
C  4.23500 52.38500 41.01800
C  3.50100 51.14600 41.11700
C  4.49300 50.15100 40.92400
C  5.64500 50.83900 40.60200
C  2.13700 50.91900 41.66900
C  4.79200 48.71300 41.08700
O  4.09000 47.81600 41.49100
C  6.13100 48.53900 40.51100
C  6.04300 47.83600 39.18300
O  5.42300 48.27400 38.18800
O  6.55400 46.62500 39.28300
C  6.52700 45.76500 38.02000
H  11.41300 52.84800 39.92300
H  6.96000 57.67400 39.37300
H  2.61100 53.88800 41.26800
H  9.06000 48.60000 40.95800
H  11.16200 50.42400 39.74100
H  12.11500 50.36200 41.88600
H  10.78500 49.30900 42.35600
H  10.85300 51.21400 42.41900
H  8.62000 47.84700 38.83300
H  10.31500 47.95000 38.97300
H  10.35100 48.88900 36.90600
H  9.89400 50.36000 37.55400
H  12.48200 54.51400 39.36900
H  12.49100 56.11300 39.97100
H  12.43100 55.80000 38.14100
H  8.68400 58.80900 37.89000
H  9.79600 59.98400 38.64400
H  8.56200 59.01200 39.65600
H  4.44100 57.67200 39.12300
H  3.28500 56.48900 41.64900
H  5.08300 59.14400 40.36000
H  5.71000 58.20800 41.71600
H  3.98500 58.57900 41.74600
H  1.98100 55.32600 39.34300
H  2.38400 56.99000 38.87300
H  1.18200 56.82700 41.48700
H  0.17100 56.33500 40.14500
H  0.82000 57.95900 40.03200
H  1.71200 51.85500 42.03000
H  2.22400 50.35900 42.60000
H  1.52100 50.54800 40.84900
H  6.69300 47.98700 41.26400
H  6.10200 44.80700 38.31800
H  7.53400 45.76000 37.60300
H  5.85200 46.11900 37.24000

