158

Mg 47.90700 16.38600 29.35900
C  45.94800 15.68000 32.10500
C  49.98300 18.18600 31.44900
C  49.63500 17.45100 26.61700
C  45.46400 15.10300 27.21500
N  47.76700 17.00400 31.49800
C  47.03600 16.45900 32.49400
C  47.51200 16.88500 33.92500
C  48.58100 17.92500 33.63700
C  48.79300 17.74500 32.07800
C  48.16200 19.38300 33.93900
C  47.90700 15.69000 34.87500
C  47.12800 15.58000 36.21600
H  46.79800 16.82800 37.01700
N  49.62500 17.57200 29.09700
C  50.46200 18.04600 30.08100
C  51.75600 18.39900 29.51700
C  51.59200 18.21200 28.08800
C  50.23800 17.74600 27.85000
C  52.97400 18.88300 30.28900
C  52.60000 18.50900 27.00400
O  52.43300 18.24200 25.81700
C  53.95400 19.09000 27.44900
N  47.54500 16.26300 27.18500
C  48.39900 16.82700 26.31500
C  48.04300 16.59200 24.84300
C  46.68400 15.77900 25.06100
C  46.55200 15.62000 26.58700
C  47.84100 17.81600 23.99300
C  46.61200 14.40000 24.42000
C  45.13400 13.78100 24.10800
N  46.11800 15.51100 29.58300
C  45.25300 14.97300 28.63300
C  44.18200 14.24000 29.29700
C  44.36000 14.57700 30.65500
C  45.55300 15.37600 30.77800
C  43.02600 13.50100 28.53800
C  43.76800 14.43400 31.96000
O  42.75200 13.83400 32.37300
C  44.78000 15.14800 32.95800
C  43.85300 16.12000 33.78700
O  43.55500 17.23600 33.44900
O  43.55900 15.68600 35.04700
C  42.71400 16.58300 35.86200
H  50.70600 18.69800 32.08700
H  50.20700 17.75200 25.73600
H  44.58300 14.80700 26.64100
H  46.65900 17.46300 34.27800
H  49.55800 17.64500 34.03000
H  48.96100 19.73600 34.59200
H  47.22900 19.53300 34.48200
H  48.04400 19.93500 33.00700
H  48.94400 15.80200 35.19200
H  47.97200 14.76700 34.29900
H  47.75200 14.93900 36.83800
H  46.24700 14.96500 36.02900
H  52.79100 18.94000 31.36200
H  53.23100 19.91100 30.03300
H  53.80000 18.18900 30.13400
H  54.53700 18.43700 28.09900
H  53.83900 20.10400 27.83200
H  54.61000 19.35100 26.61900
H  48.78800 15.86800 24.51100
H  45.79300 16.30900 24.72500
H  48.34700 18.61800 24.53100
H  46.82600 17.94300 23.61600
H  48.49700 17.77200 23.12400
H  47.11200 13.59300 24.95700
H  47.05300 14.50200 23.42900
H  44.98400 12.79100 24.53800
H  44.91400 13.66400 23.04700
H  44.31000 14.34000 24.55200
H  43.15000 12.41900 28.48200
H  42.74700 13.88900 27.55800
H  42.12000 13.57200 29.13800
H  45.08900 14.46500 33.74900
H  41.89100 17.05300 35.32300
H  43.32500 17.33900 36.35400
H  42.28800 15.90900 36.60500
Mg -1.07100 34.91400 26.99700
C  -2.91000 33.33600 29.59700
C  0.30200 37.03400 29.40700
C  0.55100 36.35800 24.49400
C  -2.69700 32.74600 24.78900
N  -1.28700 35.12500 29.27100
C  -2.00900 34.29400 30.08300
C  -1.71800 34.66600 31.51800
C  -0.88900 36.00000 31.49800
C  -0.60500 36.09100 29.99500
C  -1.57500 37.30900 32.04700
C  -1.11700 33.53000 32.42700
C  -0.92900 33.98000 33.90600
H  -1.49400 33.11500 35.08900
N  0.18000 36.49500 26.93300
C  0.69000 37.19200 28.01500
C  1.64700 38.22400 27.55000
C  1.62300 38.12500 26.17900
C  0.72100 36.95900 25.77100
C  2.35800 39.10900 28.52700
C  2.30100 39.07400 25.16000
O  2.15700 38.98700 23.94800
C  3.16500 40.14700 25.67600
N  -1.27000 34.73500 24.94500
C  -0.30500 35.35500 24.16700
C  -0.41000 34.87700 22.68300
C  -1.52600 33.74800 22.74000
C  -1.87000 33.72500 24.28000
C  -0.62800 35.89000 21.60300
C  -1.05400 32.34900 22.14500
C  -0.56000 31.28800 23.16600
N  -2.53100 33.39000 27.06000
C  -3.02700 32.59200 26.10400
C  -3.96000 31.66900 26.62600
C  -3.91300 31.85100 28.06600
C  -3.06800 32.95900 28.24300
C  -4.71100 30.51500 25.86800
C  -4.47400 31.43200 29.38700
O  -5.22400 30.48000 29.68700
C  -3.81200 32.41100 30.42400
C  -4.92300 33.10700 31.06500
O  -5.45600 34.10900 30.64400
O  -5.26900 32.43700 32.19400
C  -6.31800 33.04900 33.00700
H  0.58000 37.83000 30.10000
H  1.19800 36.57900 23.64200
H  -3.15500 32.01300 24.12200
H  -2.67400 34.74300 32.03500
H  0.04500 35.75500 32.00400
H  -1.85000 37.97100 31.22600
H  -0.76400 37.74100 32.63400
H  -2.51800 37.18800 32.57900
H  -0.11600 33.30700 32.05800
H  -1.77500 32.67000 32.55500
H  -1.26600 35.00900 34.02400
H  0.14300 33.98700 34.09900
H  2.33600 38.67900 29.52800
H  1.91800 40.10200 28.43100
H  3.42000 39.09200 28.28200
H  3.90100 39.55400 26.21900
H  2.69700 40.93200 26.27000
H  3.66100 40.61900 24.82800
H  0.54400 34.37100 22.53400
H  -2.42200 34.07300 22.21200
H  -0.82300 36.84900 22.08300
H  -1.51000 35.74700 20.97800
H  0.31700 35.90800 21.06000
H  -0.27600 32.51400 21.40000
H  -1.95800 32.05400 21.61300
H  -0.11800 31.76400 24.04200
H  0.30600 30.82900 22.69000
H  -1.34700 30.54900 23.31500
H  -4.18300 30.32000 24.93400
H  -5.76000 30.78000 25.73100
H  -4.78000 29.56000 26.38700
H  -3.21200 31.78300 31.08400
H  -6.00500 33.74400 33.78700
H  -6.85300 32.28300 33.56600
H  -7.10200 33.48600 32.38900

