158

Mg 47.75600 25.08100 28.20300
C  48.96700 27.28600 30.74600
C  46.79800 22.96100 30.62600
C  47.27000 22.86300 25.71600
C  49.17800 27.30200 25.80300
N  47.93400 25.07800 30.45800
C  48.25600 26.19800 31.27600
C  47.97600 25.91200 32.69400
C  47.43800 24.48200 32.73600
C  47.30200 24.18000 31.23800
C  48.28200 23.36800 33.41400
C  47.00300 27.06300 33.26500
C  46.15100 26.76900 34.48400
H  45.95400 27.80800 35.59000
N  47.19800 23.22200 28.17500
C  46.85300 22.47200 29.29500
C  46.39800 21.15700 28.92200
C  46.60200 21.08300 27.49700
C  47.08000 22.44300 27.04600
C  45.73600 20.15100 29.88300
C  46.18300 19.96600 26.54100
O  46.57000 19.92900 25.40200
C  45.28400 18.87200 27.01400
N  48.16900 25.08700 26.06900
C  47.88800 24.05000 25.28900
C  48.26200 24.26600 23.80000
C  48.67900 25.79600 23.80200
C  48.72200 26.10100 25.30300
C  49.32100 23.29200 23.17000
C  47.78200 26.76600 23.04700
C  48.33200 28.00900 22.41400
N  48.81800 26.90600 28.19100
C  49.35300 27.64000 27.17900
C  49.98200 28.76200 27.73900
C  49.90800 28.70600 29.13700
C  49.18000 27.50600 29.35000
C  50.58800 29.84700 26.94400
C  50.23300 29.36100 30.38700
O  50.83300 30.44700 30.52400
C  49.60900 28.45100 31.47600
C  50.63600 28.16100 32.48300
O  51.29900 27.17300 32.39100
O  50.72000 29.11600 33.38700
C  51.84100 28.83000 34.31000
H  46.37600 22.42000 31.47500
H  47.10400 22.18300 24.87800
H  49.72100 28.05000 25.22100
H  48.94700 25.95400 33.18800
H  46.43400 24.37500 33.14800
H  47.69900 22.70100 34.04900
H  48.99000 23.84700 34.09000
H  48.68900 22.72600 32.63300
H  46.29600 27.39100 32.50300
H  47.78500 27.77800 33.52200
H  46.44900 25.86200 35.01000
H  45.17500 26.57600 34.04000
H  46.41500 19.31300 30.03800
H  44.80600 19.72800 29.50300
H  45.58100 20.60900 30.86000
H  45.73500 18.24300 27.78100
H  45.05300 18.22200 26.17000
H  44.30600 19.20900 27.35600
H  47.34500 24.31400 23.21300
H  49.68800 25.89400 23.40200
H  49.82600 22.68900 23.92400
H  50.08600 23.76800 22.55600
H  48.73500 22.63400 22.52900
H  47.04000 27.12200 23.76300
H  47.32000 26.14400 22.28000
H  47.76700 28.15900 21.49400
H  49.40100 27.95800 22.20900
H  48.19200 28.86100 23.07900
H  49.86700 30.13700 26.17900
H  51.45400 29.38800 26.46800
H  50.83900 30.64900 27.63700
H  49.00700 29.12600 32.08400
H  52.78400 28.84600 33.76300
H  51.77100 27.97900 34.98700
H  51.88800 29.74700 34.89700
Mg 43.26700 41.72000 26.30100
C  42.29500 43.70200 29.07100
C  44.50100 39.50700 28.76800
C  44.51000 39.92700 23.87600
C  42.60800 44.34200 24.14400
N  43.21400 41.63500 28.71400
C  42.78400 42.52000 29.49300
C  43.01400 42.15400 30.93800
C  43.88300 40.83700 30.85400
C  43.92900 40.65900 29.36000
C  45.38100 40.94500 31.45400
C  41.71700 41.86900 31.70900
C  41.66600 41.67500 33.26400
H  40.96400 42.81900 34.15900
N  44.31000 39.92700 26.26400
C  44.72700 39.17700 27.37900
C  45.28200 37.92400 26.84900
C  45.19800 38.04800 25.43400
C  44.64300 39.36000 25.12200
C  45.92000 36.86300 27.78700
C  45.55400 36.96200 24.34300
O  45.49600 37.09100 23.12000
C  45.99300 35.63000 24.83900
N  43.73300 42.18300 24.29400
C  44.17400 41.15000 23.48200
C  43.93200 41.57600 21.98900
C  43.35900 43.02500 22.05400
C  43.24600 43.21000 23.57400
C  45.19100 41.47000 21.02400
C  42.07500 43.26500 21.18500
C  41.95300 42.70200 19.76500
N  42.58800 43.58300 26.49900
C  42.32400 44.52600 25.52200
C  41.53300 45.58500 26.14800
C  41.56300 45.28600 27.51500
C  42.24600 44.10000 27.71900
C  40.85900 46.68200 25.46700
C  41.03800 45.77600 28.75800
O  40.44900 46.76900 29.11600
C  41.58400 44.78900 29.84100
C  42.54300 45.60400 30.63900
O  43.75100 45.84800 30.32700
O  41.92400 45.89100 31.78400
C  42.57100 46.92800 32.64800
H  44.91700 38.79800 29.48800
H  44.54200 39.30400 22.98000
H  42.37600 45.12300 23.41700
H  43.55300 43.02400 31.31300
H  43.25900 40.08500 31.33700
H  45.54600 41.87800 31.99300
H  46.10800 40.95300 30.64300
H  45.60800 40.08100 32.08000
H  41.24900 40.97100 31.30600
H  41.03600 42.68700 31.47400
H  42.64500 41.55400 33.72800
H  41.11500 40.76200 33.49200
H  45.88500 35.81000 27.50700
H  45.30000 36.79900 28.68100
H  46.89900 37.24800 28.07300
H  46.79400 35.81000 25.55600
H  46.36600 34.94100 24.08100
H  45.10300 35.24500 25.33500
H  43.19700 40.93000 21.50800
H  44.09800 43.80500 21.86900
H  44.97400 40.70600 20.27700
H  46.04600 41.16800 21.63000
H  45.38700 42.45400 20.60000
H  41.78200 44.31400 21.15400
H  41.31300 42.81400 21.82100
H  42.89800 42.29200 19.41000
H  41.60800 43.49600 19.10200
H  41.25800 41.87500 19.61700
H  41.58000 47.31100 24.94300
H  40.44100 47.29400 26.26600
H  40.04000 46.29000 24.86400
H  40.64900 44.47600 30.30800
H  41.80000 47.64800 32.91800
H  43.47200 47.33700 32.18900
H  42.83800 46.36200 33.54100

