158

Mg 47.13900 34.47900 28.18000
C  45.63000 32.62200 30.79300
C  47.49600 37.19200 30.28700
C  48.14800 36.28600 25.48000
C  46.42200 31.84000 26.00300
N  46.63100 34.84300 30.30200
C  46.16300 33.86100 31.20300
C  46.34700 34.46800 32.64200
C  46.53300 36.04200 32.37600
C  46.97400 36.05200 30.94100
C  45.30800 36.99900 32.63000
C  47.56500 33.89400 33.36900
C  47.50900 33.57500 34.82000
H  46.51900 34.36700 35.71200
N  47.85800 36.39200 27.91300
C  47.95300 37.35600 28.94800
C  48.58200 38.52700 28.39400
C  48.73300 38.33900 26.96700
C  48.22200 37.01600 26.71100
C  48.97800 39.75400 29.26100
C  49.21800 39.30100 25.91800
O  49.34500 38.92600 24.77400
C  49.51300 40.74400 26.23900
N  47.13900 34.14700 26.03700
C  47.66600 35.01900 25.18400
C  47.89100 34.45400 23.77100
C  47.14300 33.12600 23.83000
C  46.92800 33.01500 25.39600
C  47.51500 35.29400 22.55600
C  48.00100 31.97100 23.22700
C  47.21600 30.96900 22.50400
N  46.29900 32.61900 28.32700
C  46.06300 31.67400 27.34400
C  45.54000 30.44700 27.91600
C  45.41100 30.82000 29.26000
C  45.84600 32.07200 29.46300
C  45.03200 29.11500 27.26600
C  44.90100 30.30300 30.53900
O  44.54200 29.19600 30.81200
C  44.82800 31.56200 31.49500
C  45.31800 31.09800 32.85500
O  46.35600 30.49400 33.03000
O  44.32200 31.34500 33.73300
C  44.39900 30.45900 34.89800
H  47.65900 38.02900 30.96900
H  48.50600 36.77800 24.57300
H  46.29900 31.00600 25.30800
H  45.39800 34.43000 33.17700
H  47.27200 36.38000 33.10200
H  45.64500 37.67000 33.42000
H  44.37900 36.47200 32.84900
H  45.10300 37.54000 31.70700
H  48.46100 34.46000 33.11500
H  47.62400 32.92100 32.88100
H  48.51900 33.80100 35.16300
H  47.35000 32.49900 34.88300
H  49.98400 40.10500 29.03200
H  48.97900 39.56300 30.33400
H  48.23100 40.51100 29.02500
H  49.57600 41.49900 25.45500
H  50.52100 40.71800 26.65300
H  48.79300 41.16200 26.94300
H  48.97100 34.33200 23.69600
H  46.14400 33.29800 23.42900
H  47.12200 36.21200 22.99200
H  46.73600 34.87800 21.91700
H  48.33700 35.55800 21.89000
H  48.50600 31.56300 24.10300
H  48.79400 32.29500 22.55300
H  47.31900 31.13900 21.43300
H  46.16200 31.05400 22.77000
H  47.54000 29.95100 22.72000
H  45.95200 28.62100 26.95500
H  44.40100 29.33800 26.40600
H  44.52900 28.62200 28.09800
H  43.81400 31.94100 31.62400
H  44.69900 29.43200 34.68900
H  43.34900 30.49600 35.18800
H  45.13600 30.90300 35.56700
Mg 6.97500 56.80900 41.76800
C  5.62400 53.59700 41.04500
C  9.93200 55.79500 40.85900
C  7.83100 60.18600 41.62700
C  3.68100 57.87600 42.39700
N  7.60100 54.91500 40.91300
C  6.95000 53.67700 40.71800
C  8.00000 52.58200 40.32600
C  9.39300 53.31100 40.57900
C  8.93400 54.75300 40.96000
C  10.17300 52.57800 41.69000
C  7.64600 52.21500 38.82800
C  7.61800 50.73300 38.41000
H  7.41500 50.35000 36.84900
N  8.57800 57.87600 41.22300
C  9.74700 57.25900 40.88000
C  10.76900 58.21700 40.62200
C  10.18400 59.51000 40.72200
C  8.76600 59.24700 41.18200
C  12.16700 57.83600 40.26100
C  10.81700 60.81900 40.45400
O  12.00300 60.96700 40.14300
C  10.16400 62.13800 40.57700
N  5.81700 58.82300 41.91400
C  6.50200 60.02100 41.96200
C  5.51700 61.20300 42.29300
C  4.18800 60.36000 42.54800
C  4.54300 58.93800 42.25000
C  6.04600 62.04700 43.46800
C  2.88100 60.86300 41.81600
C  1.70300 61.47200 42.61300
N  5.04200 56.00300 41.76200
C  3.83700 56.50200 42.19000
C  2.84300 55.53200 42.30500
C  3.56500 54.32100 41.92100
C  4.85200 54.66400 41.55400
C  1.42100 55.58300 42.84100
C  3.47300 52.88300 41.79700
O  2.63700 52.09600 42.16800
C  4.69000 52.37700 41.23000
C  4.33300 51.74500 39.90300
O  4.14000 52.32200 38.84100
O  4.22300 50.41200 40.02300
C  3.64400 49.62600 38.88800
H  10.93500 55.54300 40.50700
H  8.24500 61.19400 41.69700
H  2.66000 58.22400 42.56700
H  7.69100 51.79200 41.01000
H  10.08900 53.22700 39.74400
H  11.17100 53.01100 41.75100
H  10.17800 51.50000 41.53200
H  9.60300 52.91100 42.55700
H  8.33500 52.62100 38.08700
H  6.72100 52.69600 38.51000
H  6.86900 50.29500 39.06900
H  8.58000 50.32200 38.71700
H  12.43700 58.35100 39.33900
H  12.42200 56.79800 40.04600
H  12.85700 58.16400 41.03800
H  10.39800 62.47000 41.58800
H  9.11400 62.22400 40.29900
H  10.62200 62.85700 39.89800
H  5.49000 61.70200 41.32400
H  4.00100 60.31100 43.62000
H  5.36600 61.97300 44.31700
H  6.10800 63.08800 43.15100
H  7.07100 61.81200 43.75400
H  2.38200 60.09900 41.22000
H  3.25800 61.62300 41.13100
H  1.98600 61.23900 43.64000
H  0.79800 60.95700 42.29200
H  1.59800 62.49600 42.25400
H  0.75100 55.22000 42.06100
H  1.12500 56.61300 43.03600
H  1.33400 55.05400 43.79000
H  5.23800 51.64200 41.82000
H  3.29300 48.77700 39.47400
H  4.38300 49.45000 38.10700
H  2.85900 50.21900 38.41800

