158

Mg 25.65100 -0.74000 29.28900
C  27.68000 -0.62600 32.12700
C  23.03400 0.21800 31.19900
C  23.76500 -0.52000 26.51700
C  28.39100 -1.74700 27.33200
N  25.43900 -0.36200 31.48900
C  26.40100 -0.14000 32.44400
C  25.88700 0.38600 33.78500
C  24.28900 0.45800 33.41900
C  24.20800 0.07400 31.93300
C  23.41700 -0.54300 34.30900
C  26.63200 1.69400 34.11000
C  27.59300 1.70700 35.31600
H  27.14800 2.64200 36.53500
N  23.62600 -0.27300 28.89900
C  22.74800 0.12500 29.87000
C  21.50100 0.42100 29.19000
C  21.73700 0.32800 27.80500
C  23.08600 -0.17100 27.69400
C  20.17300 0.72100 29.91100
C  20.91600 0.68400 26.62700
O  21.22100 0.50100 25.46900
C  19.54500 1.34900 26.86500
N  26.02900 -1.21400 27.20200
C  25.08700 -0.95900 26.19700
C  25.81400 -1.07500 24.81300
C  27.30200 -1.30000 25.14900
C  27.21500 -1.49800 26.64500
C  25.24500 -2.07000 23.75500
C  28.28000 -0.18200 24.62100
C  28.53000 1.06700 25.44200
N  27.61600 -1.23000 29.60800
C  28.56700 -1.69300 28.73600
C  29.72500 -1.98100 29.47200
C  29.51400 -1.50900 30.78100
C  28.15600 -1.13300 30.86600
C  31.04000 -2.45400 28.94100
C  30.12900 -1.28700 32.04400
O  31.26400 -1.52700 32.43100
C  29.02100 -0.61800 32.92500
C  29.04600 -1.33600 34.26800
O  28.43100 -2.34100 34.55000
O  29.74300 -0.54400 35.10900
C  29.90100 -1.14700 36.47300
H  22.20100 0.37400 31.88800
H  23.24700 -0.34200 25.57200
H  29.33300 -1.87700 26.79500
H  25.97200 -0.38900 34.54700
H  23.88300 1.46400 33.53100
H  24.04700 -0.97300 35.08700
H  22.74300 -1.24300 33.81600
H  22.69700 0.02200 34.90300
H  25.85200 2.43800 34.26900
H  27.21800 2.00100 33.24400
H  28.57000 2.08600 35.01600
H  27.73200 0.69400 35.69400
H  19.95400 1.78800 29.94000
H  20.30400 0.51600 30.97400
H  19.38700 0.08800 29.50000
H  19.45900 2.12600 27.62500
H  18.76400 0.63400 27.12300
H  19.20900 1.76000 25.91300
H  25.67100 -0.06500 24.42700
H  27.64100 -2.25200 24.74000
H  24.79400 -1.39900 23.02400
H  24.62000 -2.84800 24.19300
H  26.05600 -2.53700 23.19500
H  27.93400 0.08600 23.62300
H  29.30400 -0.54300 24.52600
H  27.94100 1.05300 26.35900
H  28.35300 1.96400 24.84800
H  29.58900 1.15300 25.68600
H  31.27400 -1.93100 28.01400
H  31.09500 -3.54100 28.88200
H  31.67300 -2.05500 29.73500
H  29.28800 0.42800 33.07700
H  29.17700 -0.69100 37.14800
H  30.92200 -1.05400 36.84300
H  29.79400 -2.22900 36.53900
Mg 46.61800 24.70400 29.53700
C  47.26700 26.95900 32.14900
C  46.12600 22.26200 31.89000
C  46.69100 22.44000 27.10900
C  47.71400 27.27900 27.33100
N  46.60100 24.62700 31.77100
C  46.88300 25.69500 32.63600
C  46.67700 25.19500 34.05100
C  46.55200 23.65900 33.93700
C  46.37500 23.51000 32.42900
C  47.61500 22.83900 34.72300
C  45.40900 25.99300 34.61900
C  45.58900 26.44600 36.13600
H  44.42400 26.13500 37.11000
N  46.34700 22.63200 29.51300
C  46.02400 21.81800 30.56600
C  45.83700 20.47500 30.12100
C  46.05600 20.47600 28.73000
C  46.35100 21.91500 28.39000
C  45.50600 19.34000 31.10300
C  46.10500 19.27200 27.79800
O  46.57800 19.36800 26.66700
C  45.56600 17.96800 28.29700
N  47.14200 24.86500 27.56400
C  47.06200 23.71200 26.75200
C  47.47100 24.16500 25.32200
C  47.40100 25.68700 25.33700
C  47.41700 25.97200 26.83300
C  48.86500 23.51500 24.91600
C  46.20300 26.28900 24.59100
C  44.75300 26.11200 25.20400
N  47.21100 26.84900 29.62900
C  47.67100 27.73400 28.67300
C  48.18200 28.95400 29.30500
C  47.94600 28.71900 30.67300
C  47.43500 27.41100 30.79300
C  48.78100 30.17900 28.59400
C  48.13500 29.30700 31.94900
O  48.52700 30.40200 32.31500
C  47.74000 28.14400 33.01800
C  48.96200 27.59300 33.77100
O  50.06800 27.34300 33.32300
O  48.71100 27.56500 35.06900
C  49.71700 27.86000 36.08900
H  45.86900 21.51700 32.64600
H  46.67600 21.81000 26.21700
H  47.85600 28.02900 26.55000
H  47.54600 25.41400 34.67100
H  45.61000 23.37400 34.40500
H  48.35800 23.45400 35.23100
H  48.11300 22.25600 33.94800
H  47.03200 22.22900 35.41200
H  44.55400 25.34700 34.42000
H  45.11400 26.86700 34.04000
H  45.67600 27.52900 36.21800
H  46.48100 26.07200 36.63800
H  45.60700 19.57800 32.16200
H  46.23300 18.58900 30.79300
H  44.50300 18.94200 30.95400
H  45.35600 17.48400 27.34300
H  44.68700 18.11500 28.92500
H  46.38600 17.50400 28.84600
H  46.62900 23.83100 24.71700
H  48.29000 26.24100 25.03400
H  48.61800 22.64800 24.30400
H  49.46400 23.28100 25.79600
H  49.37300 24.23700 24.27500
H  46.22400 26.13600 23.51200
H  46.43600 27.35000 24.50900
H  44.74300 25.70700 26.21600
H  44.11200 25.40500 24.67700
H  44.33000 27.11000 25.32200
H  48.21200 31.08300 28.81000
H  48.83200 30.11200 27.50700
H  49.78000 30.16000 29.02900
H  46.96100 28.48900 33.69800
H  50.72400 27.55000 35.80800
H  49.49900 27.23100 36.95200
H  49.55900 28.90800 36.34500

