158

Mg -1.68100 17.43500 27.02700
C  -2.17900 15.23900 29.72700
C  -2.30300 19.98300 29.23100
C  -2.05100 19.47600 24.28900
C  -1.94100 14.69700 24.92700
N  -2.37900 17.57100 29.23300
C  -2.27800 16.58900 30.15600
C  -2.38200 17.05900 31.59500
C  -2.42600 18.61100 31.39100
C  -2.51900 18.74900 29.87300
C  -3.59400 19.40500 32.04200
C  -1.25400 16.52000 32.55400
C  -1.14700 17.35100 33.82400
H  -0.94900 16.62700 35.25200
N  -1.90300 19.41700 26.83100
C  -2.17400 20.26000 27.86200
C  -2.04900 21.66500 27.34600
C  -1.77300 21.54300 25.92900
C  -1.97800 20.12100 25.62200
C  -2.02200 22.90600 28.21600
C  -1.48800 22.58100 24.86100
O  -1.42900 22.32400 23.67300
C  -1.17700 23.90300 25.37100
N  -2.03900 17.18200 24.90100
C  -2.10700 18.13400 23.94700
C  -2.27900 17.58900 22.56400
C  -1.97200 16.08000 22.75600
C  -1.96800 15.91900 24.30700
C  -3.54600 17.82600 21.76800
C  -0.60100 15.63800 22.14200
C  0.66400 16.07300 22.96600
N  -1.80800 15.33900 27.19600
C  -1.93500 14.39600 26.25500
C  -2.14000 13.07700 26.92500
C  -2.22000 13.32600 28.25800
C  -2.09600 14.77300 28.38600
C  -2.43600 11.87400 26.23900
C  -2.34000 12.71100 29.54900
O  -2.35600 11.54100 29.93600
C  -2.22000 13.90300 30.58600
C  -0.93900 13.63500 31.31800
O  0.20200 13.94800 30.92000
O  -1.14900 12.92600 32.51900
C  0.05500 12.60200 33.33500
H  -2.32100 20.79800 29.95800
H  -1.93400 20.15700 23.44300
H  -2.01800 13.83400 24.26200
H  -3.31600 16.80500 32.09700
H  -1.54500 19.09700 31.81100
H  -4.09000 18.84400 32.83400
H  -4.29300 19.78500 31.29800
H  -3.23100 20.27600 32.58700
H  -0.30400 16.27900 32.07700
H  -1.57100 15.54800 32.93300
H  -1.96100 18.05300 34.00400
H  -0.17900 17.84300 33.73300
H  -2.68300 23.63100 27.74300
H  -1.00700 23.27600 28.36200
H  -2.52600 22.71700 29.16400
H  -0.47800 23.84400 26.20600
H  -2.16500 24.30600 25.59100
H  -0.75200 24.43700 24.52100
H  -1.44900 17.95100 21.95800
H  -2.68500 15.32300 22.42900
H  -4.10000 16.89600 21.89400
H  -3.29700 18.04200 20.72900
H  -4.15300 18.65000 22.14200
H  -0.58800 16.07300 21.14300
H  -0.59400 14.54800 22.12200
H  0.45400 16.55000 23.92300
H  1.09200 16.79900 22.27400
H  1.31100 15.20600 23.09500
H  -1.63000 11.47500 25.62300
H  -3.25500 11.95300 25.52400
H  -2.64800 11.18600 27.05700
H  -3.07500 13.78100 31.25100
H  -0.36900 11.94000 34.09000
H  0.47200 13.43700 33.89900
H  0.79200 12.19700 32.64200
Mg 16.80900 -1.94500 27.69800
C  15.85100 0.15700 30.26600
C  18.82300 -3.57300 29.78800
C  17.98700 -3.64000 25.11000
C  14.99900 0.17300 25.41200
N  17.26400 -1.71600 29.75100
C  16.75300 -0.85600 30.63300
C  17.30400 -1.00600 32.05000
C  18.50500 -1.96800 31.85600
C  18.20900 -2.46100 30.40900
C  19.90600 -1.40900 32.02200
C  16.20400 -1.66000 32.96900
C  16.12200 -1.05900 34.36400
H  17.35500 -0.44300 34.95700
N  18.01300 -3.56000 27.49300
C  18.74500 -4.05400 28.49700
C  19.27000 -5.26500 28.04500
C  19.10600 -5.37900 26.68600
C  18.34200 -4.18800 26.35000
C  20.18900 -6.15500 28.96600
C  19.57800 -6.50300 25.66900
O  19.51600 -6.37900 24.45900
C  20.18900 -7.77100 26.24300
N  16.44400 -1.85200 25.57800
C  17.14700 -2.62400 24.70900
C  16.79800 -2.29500 23.21500
C  15.76800 -1.14800 23.32500
C  15.74200 -0.94100 24.88400
C  18.14500 -1.96600 22.54500
C  14.33600 -1.45200 22.79100
C  13.96300 -0.62200 21.50600
N  15.75900 -0.19600 27.74400
C  15.01000 0.53500 26.79800
C  14.19900 1.54400 27.41200
C  14.56100 1.49800 28.77300
C  15.47500 0.41900 28.94700
C  13.19700 2.47000 26.83900
C  14.30200 2.04700 30.06800
O  13.59800 2.94600 30.43400
C  15.15300 1.16600 31.11000
C  16.09300 2.08500 31.91700
O  17.19500 2.46500 31.63700
O  15.37500 2.39700 33.10100
C  16.15900 3.30200 33.98600
H  19.62600 -3.95700 30.42000
H  18.41200 -4.29200 24.34300
H  14.37800 0.74800 24.72200
H  17.57700 -0.04900 32.49400
H  18.41400 -2.85200 32.48800
H  20.50800 -1.98500 32.72500
H  19.86000 -0.44100 32.52100
H  20.49500 -1.29500 31.11200
H  16.44300 -2.72000 33.04800
H  15.20600 -1.55900 32.54300
H  15.65700 -1.84400 34.96100
H  15.38600 -0.25500 34.35100
H  21.19600 -6.08000 28.55600
H  19.98500 -7.22600 28.94000
H  20.12700 -5.97200 30.03800
H  19.52700 -8.07300 27.05500
H  21.15900 -7.41600 26.58900
H  20.22900 -8.52200 25.45400
H  16.31700 -3.15100 22.74000
H  16.22400 -0.21100 23.00700
H  18.95800 -1.85200 23.26100
H  18.13600 -0.94900 22.15400
H  18.34200 -2.67200 21.73800
H  13.52400 -1.30000 23.50100
H  14.31000 -2.44700 22.34600
H  14.89700 -0.37200 21.00100
H  13.50900 0.32000 21.81300
H  13.34700 -1.22600 20.84000
H  13.71700 3.42300 26.74600
H  12.30900 2.73500 27.41400
H  12.68600 2.17400 25.92300
H  14.38500 0.69500 31.72500
H  16.78400 3.99600 33.42400
H  16.68500 2.79500 34.79500
H  15.50800 3.93600 34.58700

