158

Mg -1.71600 17.08000 25.99900
C  -2.50500 14.89900 28.70300
C  -2.67700 19.63300 28.08100
C  -1.40200 18.97400 23.31200
C  -1.46700 14.20700 23.99100
N  -2.51400 17.20300 28.15800
C  -2.69400 16.17700 29.02300
C  -3.09100 16.67300 30.38700
C  -3.41000 18.23900 30.18100
C  -2.89600 18.36700 28.66900
C  -4.87200 18.74700 30.38400
C  -2.08700 16.36800 31.60300
C  -2.08300 17.29300 32.81300
H  -2.42200 16.61900 34.10600
N  -1.85600 19.12000 25.79000
C  -2.21500 20.07800 26.73600
C  -2.04700 21.31700 26.16000
C  -1.62600 21.18500 24.81600
C  -1.58300 19.69600 24.54200
C  -2.47300 22.50000 26.95100
C  -1.36100 22.19800 23.82800
O  -1.14500 21.95800 22.61200
C  -1.41500 23.65900 24.20100
N  -1.52200 16.69700 23.93700
C  -1.40600 17.63400 22.96800
C  -1.04700 17.10900 21.57200
C  -0.88300 15.61800 21.99700
C  -1.27300 15.49100 23.45500
C  -2.11900 17.47800 20.41600
C  0.50900 14.96800 21.80800
C  1.73200 15.79800 22.31000
N  -1.88400 14.96300 26.29100
C  -1.80200 13.88900 25.33700
C  -2.00300 12.62000 26.04700
C  -2.23100 12.99800 27.38100
C  -2.13400 14.38100 27.44000
C  -2.00100 11.30800 25.38900
C  -2.56500 12.36900 28.60400
O  -2.59700 11.20200 28.88600
C  -2.65100 13.63000 29.53600
C  -1.70900 13.32400 30.70400
O  -0.54800 13.61200 30.85100
O  -2.42500 12.78300 31.73900
C  -1.74700 12.43200 33.00000
H  -2.82000 20.35500 28.88800
H  -1.29500 19.57700 22.40800
H  -1.38400 13.32600 23.35000
H  -3.99700 16.13700 30.67400
H  -2.85000 19.02900 30.68100
H  -5.36400 18.87000 29.41900
H  -4.84200 19.74100 30.83000
H  -5.43300 18.16400 31.11400
H  -1.09100 16.29300 31.16600
H  -2.32100 15.35900 31.94000
H  -2.77200 18.13200 32.71100
H  -1.10600 17.73300 33.01600
H  -1.68200 23.21600 27.17400
H  -2.82900 22.23200 27.94600
H  -3.27600 23.03800 26.44700
H  -0.63500 23.83100 24.94300
H  -2.35700 23.96100 24.66000
H  -1.35300 24.20800 23.26200
H  -0.09800 17.60200 21.36000
H  -1.62500 15.14800 21.35200
H  -1.70300 18.30700 19.84500
H  -3.04500 17.76600 20.91500
H  -2.10000 16.63600 19.72400
H  0.68900 14.91400 20.73400
H  0.44900 13.94300 22.17500
H  2.37900 15.16700 22.91900
H  1.50400 16.64400 22.95800
H  2.27500 16.10600 21.41600
H  -1.87700 10.55900 26.17100
H  -1.22400 11.16400 24.63800
H  -2.92400 11.23500 24.81400
H  -3.62000 13.62000 30.03500
H  -0.93600 11.78700 32.66200
H  -2.47100 11.97100 33.67200
H  -1.33200 13.39600 33.29400
Mg 7.81200 53.56400 40.38000
C  7.07000 50.14400 39.96000
C  11.02800 52.99400 39.68800
C  8.06200 56.89100 39.93700
C  4.36900 54.09300 41.07700
N  8.86900 51.72800 39.86000
C  8.43500 50.46300 39.70700
C  9.63000 49.52100 39.41300
C  10.89100 50.45100 39.87100
C  10.24300 51.82800 39.78200
C  11.25000 50.08800 41.35900
C  9.87300 48.92000 38.01400
C  9.79600 50.03100 36.87000
H  8.42300 50.21100 36.15500
N  9.30900 54.74700 39.86000
C  10.65200 54.35400 39.72500
C  11.48000 55.52700 39.58300
C  10.58900 56.68700 39.69600
C  9.23300 56.16000 39.85300
C  13.02300 55.37700 39.37700
C  10.99800 58.11500 39.61400
O  12.19600 58.32700 39.42800
C  10.08500 59.32900 39.74100
N  6.33300 55.28800 40.32600
C  6.70200 56.57600 40.13400
C  5.53000 57.54100 40.34800
C  4.39200 56.54700 40.80200
C  5.08200 55.24700 40.73300
C  5.82300 58.72800 41.35400
C  3.09800 56.61500 39.86400
C  1.85100 57.33400 40.37300
N  6.11100 52.41000 40.60200
C  4.82800 52.78000 40.86400
C  4.04000 51.66000 40.90800
C  4.85500 50.54100 40.55000
C  6.14300 51.09700 40.38900
C  2.59400 51.61800 41.14900
C  4.84700 49.09300 40.30100
O  3.95100 48.26800 40.37600
C  6.40500 48.84700 39.90400
C  6.34500 48.15800 38.60400
O  5.78800 48.45700 37.56600
O  6.85400 46.86100 38.82100
C  6.94400 45.97600 37.68400
H  12.09100 52.81800 39.51200
H  8.18800 57.97100 39.83500
H  3.33800 54.34800 41.33000
H  9.57900 48.64500 40.05900
H  11.70400 50.35700 39.15200
H  10.90500 50.87100 42.03400
H  12.33600 50.17700 41.33200
H  10.91300 49.10200 41.67700
H  8.98400 48.29000 37.96200
H  10.87800 48.50100 37.96900
H  10.44000 49.59300 36.10800
H  10.15700 51.02800 37.12400
H  13.54900 56.28600 39.66900
H  13.20700 55.19700 38.31800
H  13.41300 54.61000 40.04600
H  9.39800 59.33000 38.89400
H  10.71700 60.20900 39.62700
H  9.61100 59.37800 40.72200
H  5.26800 57.88400 39.34700
H  4.26300 56.77500 41.86000
H  6.80800 58.64000 41.81200
H  5.11200 58.85800 42.17000
H  5.99500 59.66500 40.82500
H  2.77200 55.59500 39.66300
H  3.40400 56.91100 38.86000
H  1.53000 57.10000 41.38800
H  1.03800 57.17900 39.66300
H  2.11000 58.39300 40.40700
H  2.19900 52.34400 41.86000
H  2.30000 50.68900 41.63700
H  2.10200 51.73800 40.18400
H  6.77900 48.09700 40.60100
H  7.59900 45.14000 37.93000
H  7.39100 46.58900 36.90200
H  5.93000 45.64900 37.45300

