158

Mg 46.62400 45.68800 44.15000
C  43.29500 44.46900 43.77800
C  47.68700 42.37300 43.83400
C  49.71000 46.87100 43.90300
C  45.35700 48.87400 44.00900
N  45.60500 43.68400 43.69200
C  44.25600 43.43300 43.68100
C  43.97000 41.88800 43.61600
C  45.28800 41.31400 44.04800
C  46.27200 42.50500 43.83700
C  45.37500 40.76400 45.51600
C  43.32000 41.36600 42.24000
C  43.39100 42.32900 40.99500
H  43.04000 41.82900 39.55200
N  48.43800 44.74600 43.79500
C  48.63000 43.41100 43.75700
C  50.04600 43.19500 43.55700
C  50.72200 44.47800 43.66300
C  49.60600 45.43400 43.79300
C  50.55700 41.78700 43.27400
C  52.24300 44.71700 43.53200
O  53.02600 43.74000 43.58900
C  52.82400 46.06700 43.29200
N  47.38800 47.63100 43.65800
C  48.69500 47.80800 43.99700
C  49.04700 49.29500 44.35500
C  47.65500 49.97600 44.10500
C  46.74700 48.72500 43.92900
C  49.54800 49.49400 45.82600
C  47.59500 50.79300 42.74300
C  48.63200 51.90200 42.53800
N  44.71300 46.56600 43.96500
C  44.35600 47.85000 43.98500
C  42.89000 47.97800 43.83400
C  42.47800 46.67600 43.79800
C  43.59200 45.82000 43.90700
C  41.99300 49.27600 43.57200
C  41.29800 45.89100 43.75400
O  40.10200 46.11700 43.71000
C  41.79500 44.40200 43.71900
C  41.27700 43.66300 44.88400
O  40.89200 42.48300 44.86200
O  41.21900 44.46600 46.00900
C  40.48300 43.85000 47.21400
H  48.02200 41.34800 44.00400
H  50.69600 47.33700 43.95900
H  44.96300 49.88800 44.10600
H  43.23300 41.64700 44.38100
H  45.59700 40.46800 43.43300
H  45.50800 39.68300 45.47900
H  44.50000 41.14400 46.04400
H  46.31200 41.08600 45.97100
H  42.30100 41.02100 42.41400
H  43.99700 40.55400 41.97500
H  44.37300 42.80300 40.98900
H  42.82800 43.24300 41.18400
H  51.27800 41.54800 44.05600
H  51.10900 41.62800 42.34700
H  49.84100 40.96600 43.30500
H  52.91900 46.54400 44.26800
H  52.13000 46.57100 42.61900
H  53.76100 45.97600 42.74300
H  49.74900 49.71700 43.63600
H  47.31100 50.57200 44.95000
H  48.70200 49.37400 46.50200
H  50.19300 50.36500 45.94600
H  50.16200 48.64700 46.13300
H  46.64200 51.22700 42.43800
H  47.87000 50.07600 41.97000
H  49.35600 51.72100 41.74300
H  49.26300 52.14600 43.39200
H  48.04500 52.80600 42.38000
H  41.51100 49.31600 42.59500
H  42.62500 50.16300 43.62000
H  41.20700 49.33100 44.32500
H  41.43000 43.81200 42.87800
H  39.48300 44.27300 47.12200
H  40.79300 44.33000 48.14200
H  40.38200 42.77100 47.33100
Mg -2.65800 34.59900 27.05200
C  -3.60000 32.66300 30.05600
C  -0.99600 36.68300 29.18800
C  -2.08800 36.56800 24.39000
C  -4.60300 32.37800 25.16900
N  -2.30600 34.50600 29.36100
C  -2.69400 33.64000 30.35100
C  -2.22100 34.10200 31.76500
C  -1.57800 35.57700 31.41000
C  -1.64700 35.59500 29.87300
C  -2.26200 36.75800 32.15900
C  -1.32100 33.02900 32.42700
C  -1.82000 32.57800 33.76000
H  -0.78800 32.66600 34.88000
N  -1.64600 36.37200 26.80000
C  -0.96500 37.05200 27.77900
C  -0.35100 38.25400 27.21200
C  -0.62500 38.22100 25.77000
C  -1.46700 37.01400 25.57500
C  0.42200 39.22900 27.96200
C  -0.11900 39.11100 24.58900
O  -0.59000 39.09300 23.42700
C  0.88900 40.12600 24.93500
N  -3.29200 34.46400 25.09800
C  -2.97000 35.43200 24.16200
C  -3.45100 35.09700 22.82500
C  -4.19100 33.75400 22.98400
C  -4.08500 33.50500 24.52500
C  -4.30700 36.23400 22.14200
C  -3.62900 32.54900 22.21100
C  -2.40900 31.80900 22.89500
N  -3.77900 32.80200 27.48800
C  -4.47400 31.98700 26.57100
C  -5.18600 30.90900 27.28100
C  -4.91100 31.21200 28.64100
C  -4.04500 32.31900 28.70700
C  -6.06000 29.89900 26.64900
C  -5.18800 30.78700 29.96300
O  -5.86300 29.86800 30.39300
C  -4.44000 31.78800 30.95000
C  -5.48300 32.53400 31.68800
O  -6.31400 33.37300 31.21600
O  -5.34100 32.23500 32.97700
C  -6.15000 33.07700 33.84200
H  -0.36800 37.29400 29.84000
H  -2.04200 37.18600 23.49100
H  -5.21500 31.69700 24.57300
H  -3.20000 34.22000 32.23100
H  -0.51700 35.58600 31.65900
H  -2.61400 37.59000 31.54900
H  -1.68100 37.18200 32.97800
H  -3.12300 36.37900 32.71100
H  -0.27300 33.32100 32.49400
H  -1.33100 32.21800 31.69900
H  -2.04700 31.52000 33.62700
H  -2.75000 33.08500 34.01700
H  0.28200 40.23600 27.57100
H  1.48100 38.98100 28.03400
H  0.22400 39.21300 29.03400
H  0.33800 40.87800 25.50100
H  1.24400 40.63500 24.03900
H  1.78900 39.82400 25.47000
H  -2.56200 34.87800 22.23200
H  -5.24800 33.79900 22.72100
H  -3.62900 36.64700 21.39500
H  -4.45200 37.01500 22.88800
H  -5.23500 35.93400 21.65500
H  -3.27500 32.84500 21.22400
H  -4.39300 31.79500 22.02200
H  -1.62300 31.88500 22.14400
H  -2.83500 30.80800 22.96500
H  -2.02200 32.00800 23.89500
H  -5.70500 29.56700 25.67300
H  -7.06900 30.29700 26.53500
H  -6.26800 29.05500 27.30600
H  -3.79800 31.24300 31.64300
H  -7.10500 33.42400 33.44800
H  -5.69600 34.01500 34.16100
H  -6.46200 32.55600 34.74700

