158

Mg 0.27800 7.22000 26.36700
C  0.77000 9.66900 28.90700
C  0.42300 4.93500 28.93700
C  -0.04400 5.04700 24.04600
C  0.49900 9.81700 24.06300
N  0.68400 7.29000 28.65600
C  0.61900 8.41100 29.50400
C  0.42000 7.96700 31.08500
C  0.53300 6.43400 31.00200
C  0.50500 6.24300 29.43900
C  1.79000 5.76100 31.69900
C  -0.99400 8.45900 31.65100
C  -1.10900 8.66400 33.12500
H  -0.01300 8.00400 34.04100
N  0.04700 5.27200 26.43800
C  0.21200 4.45300 27.58500
C  -0.05100 3.07900 27.17400
C  -0.15500 3.06400 25.67900
C  0.00000 4.47700 25.33600
C  -0.30600 1.91800 28.09700
C  -0.46400 1.90900 24.77800
O  -0.58600 2.02800 23.56700
C  -0.42200 0.52800 25.32500
N  0.06100 7.40700 24.36800
C  -0.11700 6.36300 23.59800
C  -0.14800 6.75000 22.10900
C  -0.11400 8.28400 22.19000
C  0.09500 8.55400 23.60300
C  0.85300 6.05500 21.14300
C  -1.24600 9.06900 21.55200
C  -2.50500 9.44100 22.32100
N  0.70100 9.32700 26.41900
C  0.67600 10.27200 25.37500
C  1.04400 11.52900 25.89700
C  1.02900 11.36900 27.26000
C  0.89500 9.97600 27.55900
C  0.99500 12.75900 25.05500
C  1.08100 12.07200 28.43700
O  1.34000 13.28400 28.60400
C  0.84500 11.03200 29.62300
C  2.03500 11.10100 30.48700
O  3.20100 10.95200 30.08300
O  1.74000 11.26800 31.84200
C  2.83200 11.28300 32.85300
H  0.49800 4.15800 29.70000
H  0.04000 4.29300 23.26200
H  0.48700 10.68800 23.40500
H  1.22800 8.45100 31.63400
H  -0.33400 5.96400 31.46600
H  2.35500 6.46800 32.30600
H  2.47700 5.28600 30.99800
H  1.50300 4.95300 32.37200
H  -1.76200 7.71200 31.44900
H  -1.31000 9.38600 31.17300
H  -2.00100 8.14000 33.46700
H  -1.20900 9.74300 33.24700
H  -0.38600 2.17100 29.15400
H  0.57700 1.28300 28.01600
H  -1.17400 1.31100 27.83900
H  -1.39700 0.35600 25.78200
H  0.40000 0.43100 26.03400
H  -0.35000 -0.13800 24.46500
H  -1.14500 6.39200 21.85400
H  0.80100 8.72500 21.79300
H  0.29700 5.17500 20.82200
H  1.81800 5.95200 21.64100
H  1.12000 6.65100 20.27000
H  -1.46400 8.54800 20.62000
H  -0.84900 10.03200 21.22900
H  -3.33400 9.22700 21.64600
H  -2.42400 10.51800 22.46200
H  -2.60500 8.90900 23.26700
H  1.19400 13.71200 25.54500
H  -0.03300 12.85900 24.70600
H  1.71400 12.67100 24.24100
H  -0.00600 11.27000 30.26100
H  3.36300 12.23400 32.82300
H  3.48800 10.43700 32.64500
H  2.42200 11.22000 33.86000
Mg 41.06100 9.48700 29.75700
C  42.63300 10.32400 32.83000
C  38.57100 7.94200 31.59800
C  39.65600 8.70600 26.92400
C  43.88600 10.66600 27.95900
N  40.75900 9.14300 31.93700
C  41.42600 9.65200 32.96600
C  40.79600 9.20800 34.28100
C  39.58500 8.41300 33.91400
C  39.67200 8.47200 32.34300
C  39.45100 7.03800 34.56600
C  40.49000 10.39000 35.26800
C  40.80800 10.14600 36.77400
H  41.16800 11.39100 37.67400
N  39.39600 8.46600 29.30400
C  38.46400 7.89700 30.16100
C  37.30800 7.49700 29.44500
C  37.51400 7.80700 28.08000
C  38.93300 8.34800 28.07900
C  36.08200 6.78200 30.06900
C  36.69000 7.46900 26.89900
O  37.00300 7.70600 25.72600
C  35.26000 6.83300 27.01500
N  41.78000 9.49600 27.74500
C  40.90000 9.17700 26.80900
C  41.37700 9.47200 25.43500
C  42.79900 10.11800 25.73600
C  42.86400 10.13000 27.21400
C  41.26400 8.28800 24.45400
C  43.11800 11.45300 25.05700
C  41.98400 12.49600 25.40700
N  42.91800 10.30300 30.25800
C  43.95000 10.70700 29.41800
C  45.00300 11.30700 30.26500
C  44.48100 11.23600 31.60500
C  43.23100 10.60100 31.55800
C  46.27100 11.92400 29.76200
C  44.74300 11.51900 33.01000
O  45.61900 12.19900 33.46400
C  43.57400 10.90200 33.84400
C  44.18400 10.02300 34.87600
O  44.68400 8.93200 34.63900
O  44.14500 10.63300 36.11100
C  44.66800 9.74000 37.15200
H  37.69900 7.54400 32.12000
H  39.08300 8.53200 26.01000
H  44.72800 11.15000 27.45900
H  41.61000 8.63000 34.71900
H  38.65900 8.90800 34.20800
H  38.45700 7.04300 35.01300
H  40.30300 6.95600 35.24100
H  39.47300 6.30600 33.75900
H  39.45100 10.70700 35.17700
H  41.07200 11.25700 34.95500
H  41.63100 9.44700 36.92400
H  40.05000 9.72000 37.43100
H  35.20700 7.43100 30.06900
H  36.30800 6.60600 31.12100
H  35.80200 5.81000 29.66200
H  35.36900 5.86400 27.50400
H  35.01900 6.71600 25.95900
H  34.44200 7.37000 27.49300
H  40.69700 10.25100 25.09200
H  43.60200 9.45100 25.42300
H  40.82600 7.35500 24.80700
H  42.22100 8.02800 24.00000
H  40.64700 8.66300 23.63700
H  43.12000 11.21900 23.99200
H  44.10400 11.80500 25.36000
H  41.21000 12.49300 24.63900
H  42.45500 13.47100 25.52500
H  41.53500 12.33900 26.38700
H  46.79400 12.27300 30.65200
H  46.04600 12.69800 29.02800
H  46.79800 11.15300 29.20100
H  42.96500 11.66900 34.32400
H  45.74100 9.73000 36.95800
H  44.16300 8.77400 37.14300
H  44.36500 10.18300 38.10100

