158

Mg 34.80300 2.22400 29.94100
C  32.64900 3.31200 32.50300
C  37.45100 2.55900 32.03500
C  36.86800 1.66200 27.26900
C  32.20900 3.05800 27.64200
N  35.02400 3.01400 31.99700
C  33.99100 3.12000 32.89700
C  34.56000 3.15000 34.39800
C  36.11400 3.07500 34.21200
C  36.22300 2.92600 32.66400
C  36.93300 4.27700 34.75600
C  34.01100 1.92300 35.25700
C  33.83900 2.07300 36.72500
H  34.34600 3.33400 37.33000
N  36.85200 1.97600 29.69500
C  37.78100 2.17500 30.73800
C  39.07900 1.95800 30.17800
C  38.97500 1.65200 28.81200
C  37.51300 1.73200 28.54500
C  40.34300 2.10700 31.01200
C  40.03500 1.44000 27.81700
O  39.82500 1.12100 26.62700
C  41.46200 1.48300 28.29400
N  34.53300 2.23000 27.84500
C  35.57800 1.86900 26.94000
C  35.12900 1.85600 25.46200
C  33.55500 2.24000 25.64500
C  33.40000 2.50000 27.14900
C  35.88200 2.87300 24.57800
C  32.58700 1.09700 25.15000
C  32.61000 -0.17800 26.02400
N  32.76300 2.94900 29.99900
C  31.89200 3.22300 28.97800
C  30.55300 3.49300 29.50600
C  30.81100 3.47100 30.92000
C  32.15700 3.26300 31.16900
C  29.29800 3.67700 28.72700
C  30.23300 3.73100 32.25600
O  29.08100 4.03500 32.61500
C  31.30200 3.46900 33.32800
C  31.30500 4.66900 34.25000
O  31.81000 5.74500 34.03000
O  30.68600 4.29200 35.47500
C  30.46200 5.49300 36.32400
H  38.32400 2.66500 32.68300
H  37.46100 1.39500 26.39200
H  31.35900 3.08400 26.95700
H  34.28500 4.06600 34.92000
H  36.43400 2.11200 34.60800
H  36.30100 5.11200 35.05600
H  37.58900 4.59200 33.94500
H  37.60000 4.00700 35.57500
H  34.62800 1.03000 35.16100
H  33.05600 1.59100 34.85000
H  34.27300 1.18900 37.19200
H  32.75200 2.03000 36.77900
H  40.82900 3.00200 30.62400
H  40.95200 1.22400 30.82000
H  40.12000 2.27700 32.06600
H  41.70500 2.41900 28.79700
H  42.06100 1.43000 27.38500
H  41.60000 0.66100 28.99600
H  35.32900 0.82100 25.18500
H  33.18200 3.11000 25.10500
H  35.14800 3.24500 23.86300
H  36.61700 2.55300 23.84000
H  36.23300 3.69900 25.19700
H  32.70600 0.79900 24.10900
H  31.57700 1.44400 25.37200
H  31.58600 -0.54100 26.11400
H  32.95800 0.00100 27.04100
H  33.25000 -0.94300 25.58500
H  29.41100 2.80300 28.08500
H  29.16700 4.55600 28.09700
H  28.43000 3.48000 29.35700
H  31.01000 2.56900 33.86900
H  29.64300 6.04600 35.86500
H  31.42100 6.00000 36.43700
H  30.15500 5.17400 37.32000
Mg 46.33400 17.10800 29.05500
C  44.58800 16.64400 32.20400
C  48.66800 18.77900 30.69600
C  47.43800 17.80900 26.17200
C  43.46200 15.51000 27.60300
N  46.57300 17.73100 31.25200
C  45.78400 17.36200 32.33300
C  46.44700 17.91000 33.60000
C  47.67100 18.77100 33.10300
C  47.62400 18.53500 31.59700
C  47.67500 20.27900 33.51700
C  46.88400 16.84500 34.66600
C  46.05800 16.84800 35.99800
H  45.83100 18.21900 36.63500
N  47.99100 17.95600 28.51700
C  48.89400 18.56600 29.30900
C  50.09900 18.94900 28.51800
C  49.75100 18.66600 27.19500
C  48.31800 18.19300 27.23000
C  51.28700 19.59800 29.06900
C  50.52100 18.67600 25.95900
O  50.00300 18.45300 24.88500
C  51.96100 18.91200 25.97800
N  45.52800 16.72400 27.15700
C  46.15900 17.16200 26.10000
C  45.43900 16.85500 24.74400
C  44.31800 15.83400 25.26500
C  44.44900 15.92000 26.75900
C  45.00900 18.18100 24.03000
C  44.44600 14.46400 24.69500
C  43.56400 14.12700 23.51600
N  44.39500 16.30200 29.72800
C  43.37900 15.68200 28.95200
C  42.36400 15.17400 29.80200
C  42.79200 15.52700 31.08400
C  44.03500 16.23300 30.97300
C  41.01100 14.55600 29.33600
C  42.42800 15.51600 32.48700
O  41.42100 15.01700 33.04800
C  43.57000 16.19900 33.23900
C  42.93100 17.32300 33.96900
O  42.78200 18.46300 33.46400
O  42.47000 16.84500 35.15400
C  41.44800 17.79600 35.80800
H  49.46000 19.32900 31.20900
H  47.79300 18.15800 25.20000
H  42.71100 14.82300 27.20900
H  45.68400 18.51200 34.09400
H  48.59400 18.32800 33.47600
H  48.42200 20.47000 34.28800
H  46.73700 20.62600 33.95100
H  47.83500 20.93300 32.66000
H  47.93700 16.97300 34.91400
H  46.73300 15.86000 34.22500
H  46.63100 16.38100 36.79900
H  45.18000 16.22900 35.81500
H  51.32300 20.65600 28.81300
H  52.13000 19.01500 28.69900
H  51.25200 19.48000 30.15200
H  52.49200 18.09200 26.46300
H  52.25700 19.86000 26.42600
H  52.29700 18.87900 24.94200
H  46.15300 16.32800 24.11100
H  43.29200 16.12800 25.04400
H  45.59600 19.00500 24.43600
H  43.94900 18.35700 24.20900
H  45.28600 18.17800 22.97600
H  44.14700 13.68800 25.39900
H  45.46000 14.12900 24.47300
H  44.11400 14.53500 22.66800
H  42.55600 14.50700 23.68100
H  43.60400 13.04200 23.41900
H  40.58100 15.05400 28.46800
H  40.31400 14.52500 30.17400
H  41.20700 13.52100 29.05600
H  43.93400 15.50500 33.99700
H  42.11200 18.21600 36.56400
H  40.64000 17.30700 36.35200
H  40.99700 18.54200 35.15300

