158

Mg 8.42500 3.05600 27.42200
C  9.34900 1.45500 30.29700
C  6.50000 5.15100 29.28400
C  7.00400 4.39300 24.59100
C  9.77200 0.50000 25.59800
N  8.02200 3.23600 29.54100
C  8.62700 2.59000 30.54000
C  8.18500 3.16500 31.94500
C  7.05100 4.11500 31.59200
C  7.15700 4.14600 30.04800
C  5.65200 3.79600 32.21600
C  9.36600 3.70100 32.86200
C  8.82600 4.43600 34.16500
H  9.74000 4.25400 35.40700
N  7.14500 4.70000 26.94400
C  6.48700 5.39300 27.90000
C  5.83700 6.46000 27.26100
C  6.03900 6.40800 25.86400
C  6.71400 5.12100 25.72500
C  4.95600 7.42400 28.02200
C  5.64900 7.40400 24.80500
O  5.74600 7.16600 23.62400
C  5.14700 8.81200 25.20200
N  8.27200 2.46800 25.38400
C  7.59500 3.13700 24.40200
C  7.90500 2.57600 22.98800
C  8.72500 1.25800 23.41300
C  8.97400 1.38900 24.92800
C  6.56900 2.28100 22.20500
C  10.04100 1.27300 22.59900
C  10.67400 -0.07000 22.16500
N  9.37700 1.37600 27.86200
C  9.90400 0.45000 27.00600
C  10.66300 -0.64000 27.75400
C  10.41300 -0.23900 29.13700
C  9.68300 0.95600 29.08500
C  11.36900 -1.81900 27.20800
C  10.59100 -0.55600 30.52300
O  11.21100 -1.54700 30.97200
C  9.81700 0.53700 31.38400
C  8.73600 -0.14100 32.12300
O  7.56800 -0.21000 31.74100
O  9.19900 -0.67000 33.30100
C  8.25100 -1.57400 33.98400
H  5.91200 5.86100 29.87100
H  6.61900 4.79100 23.65000
H  10.23500 -0.25700 24.96100
H  7.76300 2.29700 32.45000
H  7.36100 5.13400 31.82000
H  4.90900 3.54300 31.46000
H  5.23800 4.50300 32.93500
H  5.78300 3.01100 32.96100
H  9.97500 4.39300 32.27900
H  9.88400 2.79600 33.18000
H  7.86500 3.94300 34.30900
H  8.73700 5.49800 33.93900
H  5.50200 8.36500 28.09100
H  4.56000 7.06200 28.97100
H  4.09400 7.58900 27.37500
H  4.13000 8.80400 25.59400
H  5.08200 9.49000 24.35000
H  5.75900 9.19900 26.01700
H  8.49700 3.35900 22.51600
H  8.12800 0.37600 23.18300
H  6.36100 3.10000 21.51700
H  5.80500 1.99500 22.92900
H  6.76700 1.37200 21.63700
H  10.80300 1.78600 23.18400
H  10.00900 1.85000 21.67500
H  10.86700 -0.06900 21.09200
H  10.19900 -1.02200 22.40300
H  11.70600 -0.11200 22.51400
H  11.62400 -1.68500 26.15700
H  10.74600 -2.70700 27.31300
H  12.28300 -1.99900 27.77400
H  10.56000 1.05700 31.98900
H  8.17900 -2.45500 33.34500
H  7.22700 -1.20200 33.93300
H  8.58800 -1.95500 34.94800
Mg 40.43800 8.24800 29.01000
C  42.19000 9.71800 31.73600
C  38.05300 7.16500 31.06100
C  39.09700 6.64200 26.43400
C  43.18400 9.14300 26.90200
N  40.17900 8.41300 31.21500
C  40.91500 9.11700 32.10600
C  40.25000 9.08900 33.52000
C  39.06500 8.10100 33.22900
C  39.07100 7.84200 31.75000
C  39.10400 6.79200 34.07900
C  39.84800 10.51700 34.09200
C  39.61600 10.45100 35.62700
H  40.83200 10.53700 36.56500
N  38.73500 7.26200 28.75000
C  37.82000 6.92000 29.69300
C  36.72100 6.19800 29.11000
C  36.93200 6.18700 27.71200
C  38.31100 6.60000 27.63100
C  35.55700 5.57300 29.94800
C  36.02800 5.61300 26.63600
O  36.32700 5.51700 25.47500
C  34.70100 5.11100 27.08300
N  41.16000 7.76100 26.97700
C  40.34500 7.11500 26.08300
C  40.84100 7.16300 24.64400
C  42.02200 8.22400 24.86300
C  42.15100 8.42100 26.37600
C  41.36700 5.85600 24.01200
C  41.88500 9.56900 24.09000
C  40.87700 10.71300 24.42000
N  42.36000 9.05500 29.20600
C  43.31600 9.35800 28.22400
C  44.43300 9.96400 28.87800
C  44.05900 10.19900 30.17500
C  42.75000 9.61100 30.39500
C  45.70500 10.38600 28.18700
C  44.50800 10.79400 31.46400
O  45.50400 11.42400 31.78500
C  43.24600 10.45000 32.50300
C  43.78900 9.70300 33.74900
O  43.69300 8.51800 33.97900
O  44.43500 10.55500 34.59200
C  45.28600 10.06700 35.67800
H  37.23700 6.83200 31.70500
H  38.60300 6.20800 25.56200
H  44.14400 9.33600 26.41900
H  40.89100 8.62700 34.27200
H  38.13300 8.50000 33.62900
H  38.29500 6.50000 34.74900
H  39.99300 6.86500 34.70500
H  39.20600 5.96400 33.37700
H  38.85100 10.76000 33.72300
H  40.47600 11.38100 33.87300
H  39.11400 9.51900 35.88700
H  38.91100 11.27400 35.74200
H  35.70300 5.73700 31.01600
H  35.58800 4.50300 29.74000
H  34.61900 6.06900 29.70100
H  34.80100 4.19000 27.65700
H  34.11100 4.77700 26.22900
H  34.23100 5.97800 27.54600
H  40.01200 7.58300 24.07400
H  42.98900 7.89600 24.48100
H  42.24400 6.08200 23.40600
H  40.58400 5.29600 23.50000
H  41.67900 5.30600 24.90000
H  41.86600 9.23900 23.05100
H  42.90200 9.94700 23.99400
H  40.49000 10.53300 25.42300
H  40.08000 10.91600 23.70600
H  41.39300 11.67300 24.40400
H  46.32600 11.02000 28.82000
H  45.39200 10.98500 27.33100
H  46.39700 9.62600 27.82400
H  42.67000 11.37100 32.58800
H  45.98300 10.81600 36.05300
H  45.83400 9.24700 35.21400
H  44.59700 9.70200 36.43900

