158

Mg 53.37400 23.93500 44.55200
C  50.96100 26.28300 43.69200
C  51.40200 21.38900 43.30800
C  56.07200 21.70900 44.66800
C  55.33600 26.53000 45.56300
N  51.38800 23.86200 43.49400
C  50.57500 24.96400 43.34600
C  49.30300 24.47800 42.62900
C  49.39100 22.91500 42.92200
C  50.79400 22.70300 43.32000
C  48.41900 22.41000 43.97100
C  49.11900 24.69900 41.09800
C  50.34100 25.02800 40.24900
H  50.01500 25.58100 38.83700
N  53.67700 21.80900 44.02900
C  52.73100 20.97400 43.51100
C  53.32400 19.66200 43.26300
C  54.67200 19.74100 43.73600
C  54.85200 21.06800 44.27200
C  52.64500 18.56400 42.52500
C  55.56200 18.51600 43.69600
O  55.30200 17.52200 43.04900
C  56.77800 18.46600 44.48200
N  55.43400 24.17500 44.94000
C  56.31500 23.08000 44.94000
C  57.66700 23.55200 45.44700
C  57.49200 25.08600 45.60000
C  56.03000 25.29500 45.38100
C  58.16500 22.87400 46.75400
C  58.49400 25.87900 44.63900
C  59.56300 26.74900 45.34500
N  53.22900 25.98900 44.71000
C  54.09500 26.90700 45.16000
C  53.43100 28.18900 45.19900
C  52.16600 28.02300 44.60100
C  52.13600 26.63500 44.37400
C  53.98100 29.45900 45.74800
C  50.90500 28.66200 44.23500
O  50.49900 29.83300 44.31400
C  50.03800 27.50800 43.57200
C  49.73500 28.08600 42.17100
O  50.50900 28.36100 41.28200
O  48.36000 28.15500 42.12800
C  47.60700 28.29700 40.89900
H  50.67800 20.59800 43.10100
H  56.97400 21.12600 44.46800
H  55.97100 27.34100 45.92600
H  48.46700 24.95600 43.14000
H  49.25800 22.28300 42.04400
H  48.01200 23.21900 44.57700
H  48.87300 21.76500 44.72300
H  47.52600 22.02600 43.47700
H  48.41900 25.53300 41.03300
H  48.61800 23.81200 40.71100
H  50.84900 24.06700 40.17600
H  51.01100 25.81600 40.59400
H  53.15700 18.24200 41.61800
H  51.61400 18.83900 42.30200
H  52.59200 17.66300 43.13600
H  56.91300 17.40400 44.68700
H  56.74500 18.98500 45.44000
H  57.59800 18.92200 43.92700
H  58.52400 23.44400 44.78200
H  57.80200 25.33900 46.61400
H  57.90000 21.81700 46.74400
H  57.74600 23.43300 47.59000
H  59.23900 22.97700 46.90700
H  57.82800 26.58600 44.14300
H  59.01200 25.27600 43.89300
H  59.73000 26.46600 46.38500
H  59.52000 27.82700 45.18700
H  60.55400 26.56800 44.93000
H  55.05400 29.56400 45.58800
H  53.79800 29.45200 46.82200
H  53.58700 30.38500 45.32800
H  49.14000 27.39800 44.18000
H  48.26500 28.18100 40.03800
H  47.07500 29.23900 41.03600
H  46.82800 27.53800 40.82600
Mg -11.61800 38.28100 42.73700
C  -9.43500 35.74700 41.50000
C  -9.53900 40.41400 40.95400
C  -13.92800 40.57400 43.11300
C  -13.83200 35.74200 43.66200
N  -9.65000 38.02100 41.34900
C  -8.98900 36.90000 40.94900
C  -7.91200 37.12800 39.90600
C  -7.90700 38.69800 39.75300
C  -9.07300 39.10900 40.72400
C  -6.52200 39.40900 40.18700
C  -8.25300 36.33900 38.61800
C  -7.12400 35.43200 37.99300
H  -6.12700 35.98700 36.97500
N  -11.65800 40.27100 42.28700
C  -10.69300 40.98900 41.61400
C  -11.14400 42.33800 41.51800
C  -12.46400 42.44600 42.03700
C  -12.74600 41.08900 42.50200
C  -10.29900 43.41200 40.78200
C  -13.40300 43.58500 41.91500
O  -12.94000 44.57000 41.36600
C  -14.92600 43.64300 42.35800
N  -13.62500 38.19800 43.41000
C  -14.37000 39.32200 43.54300
C  -15.68700 38.95100 44.23600
C  -15.64100 37.39700 44.40700
C  -14.28000 37.05800 43.81300
C  -15.81900 39.65600 45.61600
C  -16.83300 36.65700 43.74300
C  -16.89800 36.82900 42.23300
N  -11.67300 36.17400 42.72000
C  -12.59000 35.29000 43.20000
C  -12.06400 33.90300 43.07600
C  -10.79900 34.07500 42.55900
C  -10.64400 35.48300 42.31000
C  -12.79000 32.65100 43.37900
C  -9.58100 33.41200 42.10700
O  -9.33400 32.21200 42.12700
C  -8.72500 34.43900 41.41300
C  -7.46900 34.51000 42.26100
O  -7.17000 35.28200 43.19900
O  -6.75500 33.41200 41.90400
C  -5.75900 33.05100 42.90800
H  -9.00900 41.09100 40.28100
H  -14.76300 41.27700 43.10000
H  -14.50300 34.94600 43.99300
H  -6.98000 36.70500 40.28200
H  -8.12600 39.17200 38.79600
H  -6.19600 39.85300 39.24600
H  -5.70300 38.72600 40.41100
H  -6.67100 40.06600 41.04300
H  -8.55100 37.04200 37.84100
H  -9.05400 35.60900 38.74200
H  -7.47100 34.43700 37.71500
H  -6.54800 35.27200 38.90400
H  -10.77100 43.73300 39.85300
H  -9.31600 43.10300 40.42600
H  -10.19000 44.30100 41.40400
H  -15.49800 42.90300 41.80000
H  -15.26300 44.65200 42.11700
H  -15.08500 43.62600 43.43600
H  -16.59400 39.24500 43.70900
H  -15.60500 37.25500 45.48700
H  -16.85300 39.60900 45.95900
H  -15.62800 40.72900 45.60200
H  -15.12800 39.32800 46.39300
H  -17.69200 37.17100 44.17500
H  -16.91600 35.61200 44.03900
H  -16.64200 35.87300 41.77800
H  -16.28500 37.63600 41.83200
H  -17.94700 37.02100 42.00700
H  -12.24900 31.89300 43.94600
H  -13.13100 32.21200 42.44200
H  -13.68800 33.00400 43.88500
H  -8.42000 34.24400 40.38500
H  -4.91400 33.73700 42.85200
H  -5.30000 32.13000 42.54900
H  -6.11500 32.82400 43.91300

