158

Mg 0.93700 7.75300 25.86200
C  1.69100 9.45000 28.84100
C  0.75900 4.86500 27.65600
C  0.69000 6.24600 22.91900
C  1.61700 10.91200 24.12100
N  1.21600 7.22300 28.06300
C  1.42500 8.01400 29.06800
C  1.26000 7.28300 30.44600
C  1.31600 5.75600 29.97000
C  1.11200 5.93400 28.48300
C  2.58400 4.93100 30.21600
C  -0.05600 7.69100 31.12400
C  -0.08500 7.89200 32.63500
H  1.15000 7.70100 33.42200
N  0.75500 5.91900 25.38800
C  0.58000 4.83800 26.27100
C  0.31600 3.60500 25.52400
C  0.40000 3.95300 24.16300
C  0.61700 5.46500 24.11000
C  -0.06200 2.28200 26.08000
C  0.32800 3.06700 22.93300
O  0.38700 3.41700 21.76500
C  0.34400 1.57300 23.02000
N  1.20000 8.51200 23.81500
C  0.99600 7.60900 22.75600
C  1.04600 8.35200 21.41200
C  0.93700 9.85900 21.85800
C  1.33800 9.81100 23.34800
C  2.36600 8.13000 20.59600
C  -0.43500 10.62500 21.70100
C  -0.53000 11.41100 20.41000
N  1.51400 9.80200 26.34700
C  1.76400 10.91900 25.50900
C  1.96500 12.06200 26.46100
C  1.99500 11.53600 27.71900
C  1.76700 10.18200 27.64200
C  2.02600 13.51500 26.07200
C  2.21700 11.91200 29.11400
O  2.71600 12.92500 29.56900
C  1.88100 10.56000 29.91100
C  3.15200 10.47800 30.77100
O  4.17000 9.93400 30.45900
O  2.90300 11.17800 31.89500
C  4.02700 11.40700 32.83900
H  0.55000 3.93200 28.18300
H  0.61400 5.70700 21.97200
H  1.57700 11.88100 23.62100
H  2.20700 7.40700 30.97100
H  0.51300 5.15700 30.40000
H  3.18900 4.80300 29.31900
H  2.30000 3.97600 30.65800
H  3.22400 5.40000 30.96300
H  -0.72300 6.86400 30.87900
H  -0.42000 8.63600 30.72100
H  -0.98300 7.33100 32.89200
H  -0.46900 8.88100 32.88600
H  -1.03100 1.93000 25.72500
H  -0.29700 2.39900 27.13800
H  0.59800 1.42000 25.98600
H  1.04800 1.15300 23.73800
H  0.50200 1.14600 22.03000
H  -0.62300 1.16000 23.30700
H  0.27300 8.09400 20.68800
H  1.52500 10.67600 21.44000
H  3.04200 7.55100 21.22400
H  2.77900 9.11900 20.39800
H  2.02000 7.72200 19.64600
H  -0.70200 11.11300 22.63800
H  -1.27300 9.97900 21.43600
H  -1.14700 12.30300 20.51500
H  -0.98900 10.93700 19.54200
H  0.45800 11.77100 20.12400
H  0.97500 13.79600 26.14500
H  2.41900 13.71400 25.07500
H  2.63200 14.09200 26.77100
H  1.04400 10.78300 30.57200
H  4.84600 12.06500 32.54700
H  4.62900 10.51500 33.01300
H  3.53000 11.83400 33.71000
Mg 6.50400 54.32400 40.99500
C  5.57200 50.90100 40.37200
C  9.53900 53.70900 39.93500
C  6.79100 57.69500 40.90700
C  2.87400 54.90400 41.49100
N  7.48600 52.48400 40.38100
C  6.94600 51.22900 40.15500
C  8.04700 50.26900 39.68700
C  9.32600 51.13900 39.82900
C  8.80800 52.56900 40.12900
C  10.39800 50.65900 40.91200
C  7.87900 49.44900 38.33500
C  7.84400 50.20300 37.03600
H  6.62500 50.08900 36.09200
N  7.97400 55.52100 40.46600
C  9.22700 55.08700 40.08200
C  10.10600 56.20400 40.04900
C  9.36400 57.32600 40.35500
C  7.96600 56.90700 40.60700
C  11.58300 56.14600 39.77000
C  9.88500 58.68000 40.52700
O  10.95500 58.88900 40.06200
C  9.17300 59.84700 41.19100
N  4.99700 56.01400 41.16400
C  5.46400 57.29800 41.26600
C  4.35600 58.34100 41.42300
C  3.11100 57.45100 41.38400
C  3.65700 56.01200 41.48000
C  4.53200 59.14600 42.71300
C  2.23700 57.70500 40.11600
C  0.69800 58.06200 40.32200
N  4.59900 53.15800 41.05400
C  3.28000 53.51000 41.29600
C  2.47500 52.31300 41.48200
C  3.31100 51.28900 41.11200
C  4.57100 51.82600 40.73400
C  1.00100 52.16500 41.74500
C  3.40700 49.88700 40.94400
O  2.52100 49.04000 41.15500
C  4.82100 49.55300 40.40400
C  4.57400 49.04900 39.06000
O  4.04500 49.60200 38.10100
O  4.76900 47.68900 39.09900
C  3.85900 46.98100 38.08600
H  10.51500 53.63800 39.45100
H  6.88900 58.77400 41.04200
H  1.81000 55.14300 41.55100
H  8.19600 49.60300 40.53700
H  9.68700 51.17900 38.80100
H  11.30300 50.52400 40.31800
H  10.14500 49.70100 41.36700
H  10.61000 51.39100 41.69100
H  6.96900 48.85300 38.39700
H  8.74300 48.78500 38.30000
H  8.61800 49.74500 36.42000
H  8.14000 51.24600 37.14200
H  11.62600 56.79900 38.89800
H  11.92500 55.23800 39.27300
H  12.20800 56.38000 40.63200
H  8.46100 60.30800 40.50600
H  9.87500 60.59800 41.55500
H  8.69700 59.46200 42.09300
H  4.49100 58.92200 40.51100
H  2.46800 57.53700 42.26100
H  5.42200 58.89600 43.29000
H  3.71000 59.18600 43.42700
H  4.67700 60.18600 42.42200
H  2.29400 56.76400 39.56800
H  2.64800 58.53900 39.54800
H  0.15000 57.17600 40.00000
H  0.33000 58.83500 39.64700
H  0.44600 58.25700 41.36400
H  0.64000 53.02600 42.30800
H  0.81200 51.27600 42.34700
H  0.44600 52.06900 40.81200
H  5.31200 48.77800 40.99200
H  3.59500 46.01200 38.51000
H  4.41700 46.92800 37.15000
H  2.89000 47.47400 38.01500

