158

Mg -1.94000 17.67100 27.34400
C  -2.52100 15.29600 29.92700
C  -2.39400 20.10900 29.68500
C  -1.73200 19.97800 24.90500
C  -2.31300 15.07200 25.05100
N  -2.59000 17.65000 29.59600
C  -2.53200 16.56000 30.46800
C  -2.45700 16.94500 31.89700
C  -2.61000 18.54700 31.76000
C  -2.61500 18.82000 30.24900
C  -3.86600 19.12000 32.45800
C  -1.16500 16.54400 32.72300
C  -0.90100 17.33100 33.99300
H  -0.62000 16.57900 35.27600
N  -1.91500 19.77600 27.31400
C  -2.14700 20.59200 28.41600
C  -2.12900 21.98500 27.98400
C  -1.84900 21.99600 26.58600
C  -1.86100 20.54600 26.23700
C  -2.56000 23.12500 28.95700
C  -1.79500 23.15000 25.67200
O  -1.65000 23.07900 24.43200
C  -2.13200 24.48100 26.16000
N  -2.09000 17.50900 25.31300
C  -1.94000 18.61000 24.50800
C  -2.11300 18.23000 23.03100
C  -2.18100 16.70500 23.10400
C  -2.30400 16.37400 24.59200
C  -3.39500 18.86200 22.37300
C  -1.06000 16.03200 22.28500
C  0.31200 15.96400 22.97700
N  -2.18500 15.57900 27.43500
C  -2.33400 14.68200 26.41700
C  -2.58100 13.35200 26.91600
C  -2.59200 13.52500 28.28800
C  -2.39700 14.92000 28.57700
C  -2.77200 12.15000 26.00600
C  -2.63000 12.83000 29.57300
O  -2.72200 11.69900 29.94600
C  -2.58300 13.96600 30.60100
C  -1.42900 13.70600 31.45900
O  -0.26000 14.06000 31.29000
O  -1.91500 12.89000 32.50700
C  -0.96500 12.81100 33.59000
H  -2.58800 20.89700 30.41600
H  -1.67400 20.79700 24.18400
H  -2.38900 14.21100 24.38500
H  -3.31400 16.40400 32.29800
H  -1.85300 19.13600 32.27800
H  -3.54700 19.46500 33.44200
H  -4.56600 18.29100 32.56600
H  -4.38400 19.91300 31.92000
H  -0.21800 16.54100 32.18300
H  -1.48300 15.59200 33.14900
H  -1.71500 18.02600 34.20200
H  -0.07400 18.00100 33.75600
H  -3.62400 23.25400 28.75500
H  -2.03100 24.06400 28.79500
H  -2.53400 22.85900 30.01400
H  -3.16400 24.52200 26.50900
H  -1.89100 25.28400 25.46300
H  -1.49100 24.85800 26.95700
H  -1.20600 18.57000 22.53200
H  -3.11200 16.27400 22.73400
H  -3.93400 19.48900 23.08300
H  -4.08700 18.10200 22.01100
H  -3.04300 19.46100 21.53200
H  -0.79800 16.46000 21.31700
H  -1.45100 15.03600 22.07900
H  0.30300 16.36800 23.99000
H  0.88300 16.65400 22.35600
H  0.75400 14.97200 22.88200
H  -1.91200 12.13300 25.33800
H  -3.75800 12.20900 25.54500
H  -2.75700 11.26400 26.64200
H  -3.48400 13.99700 31.21300
H  -1.57800 12.53800 34.44800
H  -0.35500 13.68200 33.83100
H  -0.31000 11.96600 33.37400
Mg -0.77800 7.81900 27.04500
C  0.74500 9.85100 29.54200
C  -0.92300 5.28800 29.33600
C  -1.70800 5.71000 24.56900
C  0.12600 10.16400 24.67000
N  0.19500 7.47000 29.20100
C  0.43800 8.58600 30.04400
C  0.26600 8.16100 31.55000
C  -0.03700 6.59700 31.42500
C  -0.34200 6.43500 29.90400
C  1.26400 5.69900 31.85500
C  -1.01300 8.91000 32.10000
C  -1.14700 8.89900 33.60900
H  -0.00400 8.50400 34.53900
N  -1.32000 5.79800 26.95800
C  -1.38200 4.95600 28.05700
C  -1.95400 3.66600 27.67100
C  -2.19000 3.79700 26.22600
C  -1.72300 5.11400 25.84800
C  -2.27500 2.61000 28.67000
C  -2.69000 2.72000 25.27000
O  -2.75700 2.89000 24.05700
C  -3.11200 1.45600 25.97300
N  -0.76200 7.94100 24.90300
C  -1.29000 6.96700 24.12800
C  -1.47500 7.44600 22.61500
C  -0.90000 8.88400 22.68500
C  -0.50500 9.00200 24.18900
C  -0.76700 6.50800 21.62200
C  -1.87300 9.88500 22.03500
C  -1.27200 11.01100 21.22900
N  0.11200 9.65500 27.09100
C  0.50200 10.46600 26.02100
C  1.21700 11.63500 26.52800
C  1.16300 11.44900 27.90600
C  0.60900 10.22700 28.18200
C  1.57000 12.95000 25.80300
C  1.47900 12.06300 29.09400
O  2.02900 13.13000 29.23100
C  1.21800 11.07100 30.28300
C  2.43100 10.93800 31.09400
O  3.52900 10.34300 30.86600
O  2.28400 11.82400 32.14400
C  3.17500 11.62900 33.29400
H  -1.11800 4.58800 30.15100
H  -2.07200 5.04200 23.78600
H  0.33200 10.98800 23.98300
H  1.14200 8.31400 32.17900
H  -0.96100 6.26000 31.89500
H  1.07700 5.00400 32.67300
H  2.12700 6.32100 32.09400
H  1.54500 5.15600 30.95300
H  -1.91100 8.36600 31.80800
H  -1.18000 9.91800 31.72000
H  -2.05800 8.39100 33.92500
H  -1.31100 9.89300 34.02600
H  -1.79700 1.64600 28.49400
H  -3.33100 2.38500 28.52100
H  -2.16200 2.80600 29.73600
H  -2.31700 0.86000 26.42000
H  -3.52600 0.78500 25.22000
H  -3.86100 1.85600 26.65600
H  -2.54900 7.35100 22.45400
H  0.09200 8.97400 22.24200
H  0.04500 7.00000 21.08600
H  -1.54800 6.30400 20.88900
H  -0.31900 5.65900 22.13800
H  -2.57300 10.17800 22.81800
H  -2.52800 9.34100 21.35400
H  -1.89600 11.84800 21.54000
H  -1.42500 10.77200 20.17700
H  -0.22200 11.21800 21.43500
H  0.71600 13.51200 25.42300
H  2.18600 12.79400 24.91700
H  2.07000 13.64000 26.48200
H  0.35100 11.58400 30.70000
H  2.69800 11.46800 34.26100
H  3.68400 12.59200 33.32900
H  3.85500 10.80900 33.06200

