158

Mg 9.08900 3.92200 27.59000
C  10.44600 2.42900 30.31600
C  7.36900 6.20600 29.68500
C  8.22400 5.72900 24.92500
C  10.51500 1.52400 25.54200
N  8.73600 4.08300 29.73800
C  9.56300 3.46900 30.71300
C  9.19700 3.96400 32.12400
C  8.13500 5.10800 31.88600
C  8.00500 5.14500 30.31900
C  6.77600 4.83400 32.59900
C  10.42100 4.45600 33.03500
C  10.05900 5.11500 34.31000
H  10.44500 4.46400 35.65200
N  7.93500 5.68700 27.31600
C  7.29600 6.41700 28.24200
C  6.61100 7.59200 27.61500
C  6.96500 7.52200 26.25300
C  7.75900 6.29400 26.13900
C  5.78600 8.66600 28.34900
C  6.73600 8.57000 25.10200
O  7.02000 8.31400 23.95500
C  6.02400 9.84900 25.35100
N  9.20700 3.60400 25.48400
C  8.83700 4.51200 24.57100
C  8.98100 3.98200 23.16700
C  9.69400 2.63000 23.37900
C  9.90800 2.60600 24.89100
C  7.66000 4.04200 22.39500
C  11.06300 2.36700 22.60600
C  11.09300 1.14400 21.69500
N  10.28200 2.23100 27.78000
C  10.82500 1.37500 26.91300
C  11.75800 0.49500 27.62600
C  11.64300 0.82300 28.93000
C  10.75500 1.97700 28.98300
C  12.58000 -0.60900 26.92800
C  12.02900 0.49600 30.24400
O  12.75100 -0.38800 30.60600
C  11.32200 1.50000 31.18300
C  10.55000 0.93700 32.23800
O  9.34400 0.65800 32.18400
O  11.40800 0.66000 33.27500
C  10.75900 0.43700 34.51100
H  6.92200 7.10400 30.11600
H  7.76300 6.21500 24.06200
H  11.06700 0.85700 24.87600
H  8.82800 3.07700 32.63800
H  8.54400 5.98600 32.38700
H  5.96600 4.79800 31.86900
H  6.70500 5.69900 33.25700
H  6.86500 3.90300 33.15900
H  10.98400 5.05300 32.31700
H  11.18500 3.71000 33.25300
H  8.97700 5.21500 34.39600
H  10.59200 6.05200 34.14600
H  6.09700 9.68600 28.12100
H  5.90100 8.60000 29.43100
H  4.70600 8.53900 28.27700
H  5.90800 10.27100 24.35300
H  6.67500 10.51200 25.92200
H  5.06100 9.76400 25.85600
H  9.61600 4.64700 22.58200
H  8.91600 1.92800 23.07800
H  7.62800 4.79500 21.60800
H  6.77400 4.21500 23.00500
H  7.55100 3.11200 21.83700
H  11.93100 2.21400 23.24700
H  11.21000 3.27600 22.02200
H  11.94400 1.23900 21.02100
H  10.21500 0.97300 21.07200
H  11.23100 0.25300 22.30700
H  11.87800 -1.30600 26.47000
H  13.21100 -1.19100 27.60000
H  13.07500 -0.05900 26.12800
H  12.11800 2.13900 31.56400
H  11.27300 1.07000 35.23500
H  10.96600 -0.60900 34.73700
H  9.71500 0.72700 34.62800
Mg 30.36300 57.80300 39.98900
C  27.55200 56.04600 38.98600
C  32.39200 55.36600 38.70800
C  32.90500 59.99300 40.04600
C  28.18700 60.55100 40.58500
N  30.01900 55.90400 39.01300
C  28.75500 55.37800 38.76700
C  28.89400 54.11700 37.88000
C  30.42300 53.72500 38.05700
C  31.01900 55.09800 38.61800
C  30.60400 52.61400 39.04600
C  28.54000 54.45400 36.34400
C  27.37000 53.78800 35.65900
H  26.66700 54.71100 34.62200
N  32.40300 57.67500 39.56800
C  33.06500 56.59000 39.03600
C  34.47600 56.90500 39.12400
C  34.64800 58.20600 39.63800
C  33.27100 58.66400 39.81000
C  35.43500 55.89500 38.66600
C  36.00400 58.86000 39.80200
O  37.05000 58.25300 39.60300
C  36.10800 60.31200 40.36100
N  30.48600 60.03600 40.17600
C  31.71900 60.67300 40.16900
C  31.52200 62.12700 40.61000
C  29.93300 62.28200 40.83300
C  29.52600 60.90400 40.53200
C  32.26300 62.70200 41.87400
C  29.22000 63.44200 40.01800
C  28.27100 64.39000 40.76300
N  28.20800 58.21300 40.01900
C  27.49500 59.28300 40.29900
C  26.08300 58.98200 40.26300
C  26.05300 57.66100 39.76100
C  27.44500 57.31300 39.52000
C  24.96300 59.85000 40.58100
C  25.19000 56.55000 39.22400
O  23.97500 56.56500 39.01000
C  26.15100 55.41600 38.72800
C  25.96100 54.22200 39.57900
O  26.54800 54.04000 40.65400
O  25.23900 53.27900 38.84100
C  24.51400 52.33600 39.65100
H  33.00800 54.49000 38.49800
H  33.69600 60.74500 40.08600
H  27.51000 61.39200 40.74600
H  28.17000 53.35400 38.16600
H  30.91700 53.51900 37.10700
H  29.72400 52.40700 39.65500
H  31.44200 52.89100 39.68600
H  30.98100 51.73100 38.53100
H  29.48600 54.41200 35.80300
H  28.28600 55.51300 36.33300
H  26.63800 53.42700 36.38200
H  27.71100 52.93500 35.07300
H  35.91500 56.10500 37.71000
H  35.00500 54.91000 38.48400
H  36.19700 55.91700 39.44500
H  35.62500 60.95800 39.62800
H  37.17700 60.47900 40.49600
H  35.65900 60.40900 41.34900
H  31.75100 62.70100 39.71200
H  29.75700 62.31500 41.90800
H  33.04100 62.06000 42.28900
H  31.60400 63.06600 42.66200
H  32.86700 63.54800 41.54700
H  28.70300 63.20100 39.09000
H  30.05200 64.09000 39.74300
H  27.34200 64.22800 40.21700
H  28.43800 65.46600 40.71200
H  28.13300 64.15500 41.81800
H  24.06200 59.24900 40.70300
H  24.76100 60.52100 39.74600
H  25.09200 60.44800 41.48300
H  26.09800 55.08400 37.69100
H  24.46100 52.69800 40.67800
H  25.00000 51.36000 39.66700
H  23.48300 52.14800 39.34900

