158

Mg 16.65000 -0.33900 28.26200
C  15.59400 1.76100 30.97300
C  18.51800 -2.10400 30.53600
C  18.16000 -1.88700 25.78700
C  15.26200 2.04600 26.08200
N  16.94500 -0.27100 30.56400
C  16.35000 0.68800 31.41100
C  16.70300 0.35300 32.90600
C  17.84400 -0.74300 32.63700
C  17.76700 -1.08900 31.15400
C  19.35200 -0.46000 33.05000
C  15.57700 -0.03200 33.91000
C  15.58200 0.74000 35.23400
H  16.95500 1.15400 35.84400
N  17.89000 -1.96500 28.18400
C  18.63600 -2.56500 29.17800
C  19.44800 -3.65000 28.64900
C  19.14000 -3.72800 27.29800
C  18.33100 -2.49200 26.99000
C  20.40000 -4.57000 29.41500
C  19.48600 -4.73600 26.27500
O  18.96900 -4.78700 25.13300
C  20.38800 -6.03900 26.59700
N  16.58400 -0.08100 26.21500
C  17.36600 -0.79900 25.38900
C  17.32800 -0.33300 23.91500
C  16.25700 0.90000 24.03300
C  15.97400 0.94900 25.57400
C  18.81200 0.17000 23.49500
C  14.98000 0.67800 23.17800
C  14.34300 1.91000 22.46200
N  15.58200 1.50700 28.40800
C  15.04100 2.32400 27.43700
C  14.26800 3.35900 28.03700
C  14.46000 3.22700 29.44400
C  15.28100 2.05400 29.63700
C  13.47000 4.45700 27.36600
C  14.14900 3.70600 30.80300
O  13.54600 4.65200 31.15700
C  14.81200 2.71000 31.82000
C  15.77700 3.49600 32.52600
O  16.88800 3.83500 32.22600
O  15.15200 3.87500 33.70000
C  15.87700 4.86600 34.53200
H  19.18500 -2.72600 31.13600
H  18.71700 -2.40200 25.00100
H  14.76700 2.74200 25.40100
H  17.10400 1.29900 33.26800
H  17.54000 -1.64300 33.17000
H  19.52000 0.48600 33.56600
H  20.01400 -0.47200 32.18400
H  19.73000 -1.31500 33.61100
H  15.84600 -1.04600 34.20700
H  14.60100 -0.12900 33.43500
H  15.20700 0.01800 35.95800
H  14.92000 1.60500 35.25000
H  19.90300 -5.48500 29.73500
H  20.67700 -4.10300 30.36000
H  21.32800 -4.81400 28.89700
H  19.99300 -6.53200 27.48500
H  21.37300 -5.62900 26.82100
H  20.35600 -6.79300 25.81000
H  16.99800 -1.20200 23.34600
H  16.72200 1.85200 23.77900
H  19.50300 0.38200 24.31000
H  18.70100 1.10500 22.94600
H  19.25400 -0.60800 22.87300
H  14.24100 0.29100 23.88000
H  15.21200 0.03800 22.32700
H  14.90900 2.74500 22.87500
H  13.29200 2.06400 22.70700
H  14.48200 1.87100 21.38200
H  12.40000 4.26800 27.29000
H  13.92200 4.68200 26.40000
H  13.55800 5.40200 27.90000
H  14.06100 2.31300 32.50300
H  16.45900 5.66300 34.06900
H  16.52500 4.53600 35.34400
H  15.08500 5.42000 35.03700
Mg 56.22200 22.32400 43.48100
C  53.98400 24.47200 42.15600
C  53.85500 19.74100 43.26300
C  58.50600 20.06800 44.32300
C  58.63100 24.83900 43.33800
N  54.14600 22.13900 42.71100
C  53.44600 23.18600 42.27400
C  52.01100 22.73800 42.02300
C  51.86200 21.50500 42.93100
C  53.34800 21.03700 43.01100
C  51.13700 21.68800 44.28900
C  51.72200 22.52900 40.51200
C  50.57600 23.28900 39.93700
H  49.95400 23.02800 38.58100
N  56.19000 20.21700 43.72600
C  55.17100 19.34800 43.53600
C  55.64400 18.01400 43.68200
C  56.95800 18.00500 44.17100
C  57.27400 19.47800 44.10400
C  54.64600 16.87600 43.52300
C  57.85900 16.80500 44.41200
O  57.52800 15.66500 44.06000
C  59.09000 16.93500 45.20500
N  58.32200 22.39300 43.53700
C  59.00800 21.29000 44.00900
C  60.47300 21.66300 44.39600
C  60.54200 23.20400 44.03600
C  59.07300 23.55100 43.55500
C  61.01900 21.39000 45.87500
C  61.72100 23.65100 43.04600
C  63.17900 23.73500 43.63000
N  56.33700 24.37700 42.92300
C  57.37500 25.27300 42.99300
C  56.87800 26.57800 42.67200
C  55.58300 26.34000 42.32000
C  55.28900 24.96200 42.48100
C  57.66300 27.87000 42.77000
C  54.31000 26.98600 41.98100
O  54.05400 28.15300 41.80500
C  53.31600 25.73100 41.63200
C  53.27400 25.69600 40.18300
O  53.90800 25.02100 39.38600
O  52.26600 26.54800 39.70600
C  51.96200 26.49700 38.28800
H  53.10900 18.95500 43.12800
H  59.13900 19.34900 44.84700
H  59.46100 25.54800 43.39000
H  51.23400 23.44800 42.30500
H  51.20500 20.77900 42.45200
H  50.65000 22.65800 44.39200
H  51.83100 21.74200 45.12800
H  50.61200 20.80000 44.64000
H  51.55200 21.52000 40.13500
H  52.64800 22.73500 39.97700
H  50.83700 24.33800 40.07700
H  49.63600 23.05900 40.44000
H  54.94600 15.97500 44.05900
H  54.66600 16.56000 42.48000
H  53.59000 17.04500 43.73100
H  59.90500 17.30300 44.58000
H  59.38100 15.91100 45.43900
H  58.90100 17.60900 46.04100
H  61.14700 21.12100 43.73300
H  60.72100 23.71500 44.98100
H  60.24600 20.91600 46.48000
H  61.32400 22.29500 46.39900
H  61.90500 20.76200 45.78300
H  61.45800 24.62500 42.63400
H  61.84400 22.99500 42.18500
H  63.63600 24.62300 43.19400
H  63.87200 22.98100 43.25300
H  63.14800 23.71600 44.71900
H  56.94000 28.68100 42.86000
H  58.46300 27.94300 42.03300
H  58.12200 27.81500 43.75700
H  52.26800 25.88900 41.88800
H  52.54900 27.26700 37.78800
H  50.89600 26.63500 38.10600
H  52.24700 25.54700 37.83700

