158

Mg 9.77700 47.00200 25.42000
C  7.48600 46.87500 27.97200
C  12.28600 47.70200 27.55900
C  11.83200 47.70100 22.70000
C  7.07600 46.75300 23.10500
N  9.81400 47.39500 27.56400
C  8.78000 47.16600 28.45000
C  9.36200 47.35100 29.89700
C  10.80100 47.82100 29.68500
C  10.99900 47.59500 28.16300
C  11.15300 49.22200 30.20900
C  9.13500 46.17400 30.93400
C  10.07800 46.16400 32.16800
H  9.33700 45.74200 33.42300
N  11.84500 47.56100 25.16000
C  12.70600 47.75200 26.16300
C  14.06900 47.86700 25.59300
C  13.95300 47.71600 24.18600
C  12.47000 47.70600 23.95000
C  15.31100 48.02100 26.41400
C  15.01100 47.61300 23.10500
O  14.66800 47.56300 21.91700
C  16.52900 47.41500 23.40700
N  9.50000 47.23700 23.13700
C  10.51900 47.44800 22.31800
C  10.08000 47.35600 20.88500
C  8.55400 46.99000 20.99500
C  8.34300 46.91700 22.53400
C  10.44800 48.58100 19.96000
C  8.02400 45.70600 20.26900
C  6.85400 45.83200 19.28000
N  7.68600 46.78800 25.48800
C  6.69600 46.74500 24.49700
C  5.36800 46.56800 25.06800
C  5.68100 46.63700 26.39800
C  7.07700 46.72100 26.64500
C  4.08900 46.29000 24.32300
C  5.11900 46.51500 27.74500
O  3.96100 46.28700 28.07700
C  6.24500 46.62300 28.73500
C  6.26400 45.43300 29.55400
O  7.10700 44.54900 29.46600
O  5.36300 45.52900 30.57500
C  5.45000 44.50300 31.69000
H  13.14600 47.74400 28.23100
H  12.57400 47.75500 21.90100
H  6.33600 46.42000 22.37500
H  8.80900 48.20700 30.28300
H  11.47600 47.08700 30.12600
H  11.84900 49.16300 31.04700
H  10.32200 49.70300 30.72300
H  11.55200 49.85100 29.41300
H  9.36600 45.31300 30.30700
H  8.12700 46.14100 31.34700
H  10.59800 47.12000 32.22400
H  10.82000 45.37800 32.03000
H  15.14500 47.90800 27.48600
H  15.72300 49.00900 26.20700
H  15.99000 47.20500 26.16600
H  16.42000 46.52300 24.02400
H  16.94800 48.29000 23.90400
H  16.95700 47.20300 22.42700
H  10.53800 46.51400 20.36500
H  7.95500 47.84500 20.67900
H  10.97400 48.22400 19.07500
H  10.99800 49.43500 20.35400
H  9.66000 49.05900 19.37800
H  7.86200 44.93200 21.01900
H  8.85000 45.30000 19.68500
H  6.72700 44.94900 18.65500
H  6.93500 46.72000 18.65200
H  5.93500 45.89600 19.86300
H  4.13400 46.38300 23.23800
H  3.35600 47.02700 24.65100
H  3.68100 45.31800 24.60200
H  6.15700 47.48500 29.39600
H  4.62000 44.53900 32.39600
H  6.44600 44.53000 32.13100
H  5.41400 43.51400 31.23300
Mg 0.45200 43.16900 25.25700
C  2.88000 42.29500 27.65500
C  -1.86400 43.27600 27.81300
C  -1.90500 43.38800 22.97900
C  2.79900 42.48600 22.70100
N  0.53500 42.70600 27.43300
C  1.62700 42.40900 28.23700
C  1.19800 42.30800 29.70800
C  -0.37800 42.29000 29.59700
C  -0.65900 42.76000 28.19400
C  -0.97900 40.89900 29.72600
C  1.63400 43.54400 30.57800
C  1.41300 43.44900 32.06300
H  1.18800 42.12600 32.66700
N  -1.60300 43.52600 25.37300
C  -2.35900 43.56700 26.49400
C  -3.76100 43.99900 26.15300
C  -3.82300 43.92700 24.73400
C  -2.47100 43.56800 24.26100
C  -4.73500 44.49600 27.18300
C  -5.00700 44.09100 23.89200
O  -4.93800 43.75000 22.71500
C  -6.26100 44.31900 24.50000
N  0.49500 43.01800 23.10600
C  -0.64100 43.22400 22.43800
C  -0.37200 43.11100 20.93700
C  1.19300 42.94700 20.80300
C  1.59100 42.94600 22.26000
C  -1.12500 41.95100 20.23000
C  1.86200 44.13200 20.03300
C  2.18000 45.45400 20.76600
N  2.40500 42.62900 25.15200
C  3.23000 42.42600 24.04000
C  4.56200 42.33400 24.49500
C  4.48300 42.20700 25.89500
C  3.11200 42.40800 26.23100
C  5.80300 42.23500 23.76600
C  5.28100 42.01200 27.12000
O  6.45500 41.89000 27.29300
C  4.25000 42.09200 28.29300
C  4.41200 40.95400 29.23700
O  4.06100 39.82200 28.94100
O  5.01500 41.23500 30.37000
C  5.02900 40.14800 31.47100
H  -2.60800 43.51200 28.57600
H  -2.60600 43.37000 22.14100
H  3.54300 42.20400 21.95300
H  1.63600 41.42500 30.17400
H  -0.84700 42.97400 30.30400
H  -0.22900 40.15700 29.99800
H  -1.48500 40.59800 28.80900
H  -1.67900 40.88900 30.56200
H  0.97900 44.36700 30.29000
H  2.66600 43.81700 30.35800
H  0.53000 44.02500 32.34000
H  2.23500 43.89600 32.62300
H  -4.27900 44.47000 28.17200
H  -5.62400 43.87300 27.28300
H  -5.17000 45.45400 26.89900
H  -7.04800 44.32300 23.74500
H  -6.23200 45.18100 25.16700
H  -6.36000 43.44500 25.14400
H  -0.65800 44.04900 20.46000
H  1.49700 42.08700 20.20500
H  -0.49700 41.13000 19.88500
H  -1.64800 42.21900 19.31100
H  -1.74100 41.52200 21.02000
H  1.19100 44.34600 19.20100
H  2.71600 43.73900 19.48100
H  2.15700 45.34400 21.85000
H  1.46900 46.24900 20.54100
H  3.14800 45.82900 20.43400
H  5.82300 42.74600 22.80300
H  5.93600 41.16700 23.59300
H  6.63200 42.58200 24.38200
H  4.43700 43.03800 28.80100
H  4.11500 39.55400 31.48400
H  5.17500 40.63400 32.43600
H  5.89900 39.52200 31.27300

