158

Mg 17.47900 -0.28000 27.89100
C  16.43600 1.71700 30.54700
C  19.52700 -1.97200 30.06700
C  19.09100 -1.82400 25.24800
C  16.03700 1.89900 25.77700
N  17.94700 -0.04200 30.05100
C  17.19900 0.63700 30.94800
C  17.50100 0.25200 32.39600
C  18.64500 -0.80200 32.22400
C  18.79100 -0.91800 30.68200
C  19.99200 -0.43900 32.89400
C  16.25100 -0.39500 33.14100
C  15.98200 -0.03100 34.62400
H  17.20700 0.55900 35.42500
N  18.88100 -1.91200 27.69700
C  19.58200 -2.48500 28.72500
C  20.49500 -3.51600 28.25000
C  20.36500 -3.52100 26.77700
C  19.41700 -2.38300 26.52300
C  21.28600 -4.40000 29.19300
C  21.01600 -4.40500 25.77200
O  20.84500 -4.20500 24.56100
C  22.08000 -5.35400 26.11900
N  17.60900 -0.04100 25.78200
C  18.19700 -0.77500 24.89100
C  17.72700 -0.42000 23.45100
C  16.64400 0.67600 23.66100
C  16.73400 0.84500 25.13900
C  18.87000 0.12500 22.46800
C  15.27600 0.31400 23.03900
C  14.91200 1.08400 21.70900
N  16.41400 1.50100 28.01700
C  15.82400 2.25200 27.07700
C  15.16300 3.43500 27.67700
C  15.41300 3.27200 29.05900
C  16.14700 2.02200 29.17800
C  14.49700 4.50500 26.84700
C  15.13100 3.75100 30.40100
O  14.35000 4.69800 30.78000
C  15.67300 2.74500 31.36000
C  16.67900 3.52700 32.10900
O  17.66300 4.04000 31.65600
O  16.22200 3.65800 33.42300
C  16.87200 4.58700 34.31100
H  19.94100 -2.72600 30.74000
H  19.61500 -2.32200 24.43000
H  15.35000 2.37200 25.07200
H  17.85300 1.18900 32.82700
H  18.39000 -1.83000 32.48400
H  20.42100 -1.33400 33.34400
H  19.84800 0.41600 33.55400
H  20.79700 -0.02800 32.28300
H  16.36300 -1.47800 33.19000
H  15.27500 -0.21400 32.69000
H  15.69400 -0.89000 35.22900
H  15.04100 0.51800 34.66600
H  20.64300 -5.18700 29.58600
H  21.63800 -3.72800 29.97500
H  22.15900 -4.88500 28.75600
H  22.81300 -4.58000 26.34500
H  22.44500 -5.89900 25.24900
H  21.71100 -5.91900 26.97500
H  17.38700 -1.41600 23.16700
H  16.93900 1.61500 23.19400
H  19.87300 -0.16900 22.77600
H  18.93000 1.21200 22.53300
H  18.63000 -0.28100 21.48600
H  14.55200 0.50000 23.83300
H  15.23200 -0.75800 22.84500
H  15.74700 1.53600 21.17400
H  14.26000 1.87700 22.07600
H  14.45300 0.44800 20.95100
H  13.50500 4.24300 26.48100
H  15.08200 4.92600 26.02900
H  14.37600 5.30200 27.58100
H  14.88800 2.38300 32.02400
H  17.61300 5.20600 33.80400
H  17.55500 4.02900 34.95100
H  16.18900 5.19100 34.90900
Mg 48.88200 34.55000 26.62600
C  46.68800 33.28700 29.03200
C  49.09800 37.51700 28.46300
C  50.42700 35.94300 24.04600
C  48.01100 31.69600 24.65800
N  47.95800 35.28900 28.50600
C  47.24900 34.47800 29.39200
C  47.42000 35.03600 30.75100
C  47.77000 36.58000 30.39200
C  48.39200 36.49500 29.06800
C  46.53400 37.60600 30.39000
C  48.62800 34.44500 31.60100
C  48.52000 34.20400 33.08000
H  47.31900 34.94200 33.75200
N  49.84200 36.42200 26.39200
C  49.78300 37.52200 27.22900
C  50.72300 38.51100 26.73200
C  51.14800 38.05800 25.46100
C  50.44900 36.75000 25.27400
C  50.96900 39.70100 27.45900
C  52.11100 38.73300 24.57900
O  52.25900 38.47300 23.36300
C  52.81500 39.97600 25.11000
N  49.04300 33.88900 24.62700
C  49.76500 34.67100 23.78400
C  49.78300 34.01000 22.36400
C  49.36900 32.56000 22.69400
C  48.78000 32.71100 24.08800
C  48.76200 34.76100 21.38800
C  50.63500 31.55400 22.59700
C  50.68200 30.39900 21.57900
N  47.54200 32.79100 26.79800
C  47.36000 31.76100 25.92700
C  46.62100 30.74100 26.53600
C  46.21300 31.34100 27.74700
C  46.80400 32.56000 27.84200
C  46.28100 29.42100 25.97900
C  45.46800 31.16900 28.94000
O  44.67300 30.26900 29.19000
C  45.83400 32.34300 29.92100
C  46.53000 31.73400 31.08300
O  47.62000 31.19600 31.06700
O  45.76400 31.81400 32.18600
C  46.21000 31.15200 33.43100
H  49.09800 38.31800 29.20600
H  50.94300 36.37600 23.18600
H  48.10500 30.76300 24.10000
H  46.49300 34.98700 31.32300
H  48.50000 37.00400 31.08200
H  46.86600 38.41100 31.04700
H  45.67800 37.00200 30.69200
H  46.34900 37.97800 29.38300
H  49.41600 35.18800 31.47400
H  48.93500 33.51300 31.12700
H  49.33900 34.70700 33.59500
H  48.46100 33.14800 33.34200
H  50.65400 39.52900 28.48800
H  50.32600 40.50100 27.09100
H  51.95800 40.14300 27.57800
H  52.06500 40.72800 25.35900
H  53.38400 40.24200 24.21900
H  53.39600 39.72400 25.99700
H  50.76100 34.00400 21.88200
H  48.53500 32.32400 22.03400
H  47.75600 34.60200 21.77500
H  48.83300 34.27100 20.41600
H  48.97900 35.82700 21.45500
H  50.85400 31.02900 23.52700
H  51.52700 32.17400 22.51300
H  50.77900 29.42700 22.06400
H  51.53200 30.43600 20.89700
H  49.81000 30.45000 20.92700
H  46.40300 28.79400 26.86200
H  46.99000 29.17400 25.18900
H  45.28400 29.46100 25.54100
H  44.89400 32.78900 30.24600
H  47.28400 31.14200 33.61500
H  45.86500 30.11900 33.48100
H  45.71800 31.81700 34.14000

