158

Mg 43.74200 3.18100 47.44300
C  41.23300 5.37400 46.56800
C  41.31700 0.57700 47.44900
C  46.27700 0.91100 47.62500
C  46.01300 5.68300 47.38500
N  41.48400 2.98500 46.85400
C  40.65900 4.08000 46.66400
C  39.17700 3.67100 46.53300
C  39.28200 2.16900 47.07500
C  40.76900 1.90500 47.19600
C  38.52200 1.89800 48.46400
C  38.67500 3.67900 45.03400
C  37.56600 4.71400 44.60900
H  37.87100 5.63100 43.43900
N  43.75400 1.00100 47.51400
C  42.69000 0.12300 47.45400
C  43.17200 -1.27200 47.57100
C  44.56500 -1.21400 47.81600
C  44.96000 0.29400 47.66900
C  42.25800 -2.43400 47.46900
C  45.46400 -2.40100 48.02100
O  44.95000 -3.51900 47.95700
C  46.98600 -2.25300 48.20200
N  45.90000 3.29200 47.41800
C  46.69100 2.19100 47.45600
C  48.16400 2.60000 47.46100
C  48.10100 4.17200 47.47800
C  46.60500 4.42100 47.45700
C  49.06900 1.98100 48.55400
C  49.01800 4.94200 46.49700
C  50.45800 4.91900 46.89300
N  43.69600 5.24700 47.14100
C  44.68000 6.16300 47.16000
C  44.15800 7.47800 46.84200
C  42.78700 7.23600 46.69200
C  42.55400 5.86600 46.80500
C  44.92100 8.73000 46.69500
C  41.44900 7.81700 46.47200
O  41.12000 8.95400 46.45900
C  40.38800 6.62000 46.33900
C  39.53700 6.81700 47.53700
O  39.86000 6.87000 48.68600
O  38.25800 6.93700 47.11100
C  37.22300 7.13100 48.15800
H  40.53600 -0.18300 47.38800
H  47.17900 0.30300 47.72400
H  46.74700 6.49200 47.39200
H  38.57600 4.28100 47.20900
H  38.92400 1.48200 46.30800
H  37.94700 2.76000 48.80400
H  39.31600 1.76100 49.19800
H  37.84100 1.05400 48.35600
H  38.28200 2.69100 44.79200
H  39.47300 3.99200 44.36200
H  37.26000 5.38400 45.41200
H  36.66300 4.16200 44.34800
H  42.58900 -2.96800 46.57900
H  41.19800 -2.23600 47.31100
H  42.35300 -3.14500 48.28900
H  47.40300 -1.89700 47.26000
H  47.30800 -3.24200 48.52800
H  47.15400 -1.49500 48.96800
H  48.51700 2.30900 46.47200
H  48.51100 4.49100 48.43600
H  49.91200 1.50000 48.05800
H  48.55000 1.28200 49.21100
H  49.41800 2.71500 49.28000
H  48.71100 5.96800 46.29600
H  48.79100 4.46800 45.54200
H  50.63700 4.45900 47.86500
H  50.86400 5.92800 46.96200
H  51.08700 4.46200 46.12900
H  44.37000 9.57000 47.11800
H  45.19500 8.81200 45.64400
H  45.80800 8.69800 47.32800
H  39.87000 6.72300 45.38500
H  37.12800 6.36400 48.92700
H  36.26100 7.22500 47.65300
H  37.40200 8.10000 48.62400
Mg 35.20400 1.68500 29.38500
C  32.90000 2.94900 31.81100
C  37.62900 1.79300 31.66300
C  37.49100 1.09900 27.01900
C  32.71000 2.17200 26.98800
N  35.27800 2.38000 31.46700
C  34.18100 2.64300 32.29100
C  34.71700 2.69900 33.70700
C  36.27500 2.61900 33.58100
C  36.43600 2.26200 32.13800
C  37.04600 3.87800 33.84600
C  34.02000 1.61200 34.56500
C  33.71100 2.10300 35.97200
H  34.70600 2.96900 36.70100
N  37.16600 1.21400 29.46600
C  38.02600 1.31600 30.45800
C  39.29300 0.73300 30.12200
C  39.18700 0.40000 28.76300
C  37.90500 0.99000 28.35500
C  40.51500 0.52700 31.04000
C  40.23200 -0.27800 27.84200
O  40.09200 -0.33600 26.63400
C  41.46700 -0.90100 28.39300
N  35.10000 1.67600 27.36200
C  36.20100 1.45900 26.55800
C  35.76900 1.47700 25.08800
C  34.22100 1.60800 25.06700
C  33.98700 1.77000 26.59400
C  36.40100 2.55300 24.25000
C  33.45300 0.42700 24.41300
C  32.40000 0.71300 23.29900
N  33.12300 2.40000 29.32500
C  32.26100 2.58000 28.31500
C  30.95800 3.09300 28.77600
C  31.17300 3.19200 30.16200
C  32.51700 2.80200 30.44100
C  29.68400 3.35000 28.02100
C  30.63900 3.71900 31.44600
O  29.51000 4.20400 31.67700
C  31.62000 3.36000 32.53400
C  31.71700 4.48400 33.50900
O  32.40400 5.45700 33.30300
O  30.77800 4.32700 34.53300
C  30.98300 5.23200 35.67500
H  38.39200 1.63800 32.42800
H  38.17500 0.73200 26.25100
H  31.98600 2.27500 26.17700
H  34.41000 3.71300 33.96600
H  36.66000 1.78000 34.16100
H  37.93100 3.89600 33.21000
H  37.50800 4.03500 34.82100
H  36.42500 4.72600 33.55600
H  34.69000 0.75400 34.62000
H  33.12300 1.35100 34.00300
H  33.56700 1.20800 36.57800
H  32.80300 2.70500 35.96900
H  40.44200 1.03500 32.00200
H  41.37200 0.96200 30.52500
H  40.62100 -0.55400 31.13300
H  41.37500 -1.68100 29.14900
H  42.14500 -0.08100 28.63100
H  41.97700 -1.33700 27.53400
H  36.01300 0.48800 24.69900
H  33.80500 2.46900 24.54400
H  36.90800 3.17000 24.99100
H  35.68700 3.22900 23.78100
H  37.06300 2.26300 23.43400
H  32.99200 -0.25400 25.12900
H  34.04300 -0.28700 23.83900
H  31.69000 1.48500 23.59500
H  31.96400 -0.27200 23.13000
H  32.82800 0.86000 22.30800
H  28.94600 2.57200 28.21500
H  29.81400 3.31200 26.93900
H  29.40500 4.32200 28.42600
H  31.22500 2.57400 33.17800
H  30.30800 6.08700 35.64900
H  31.96700 5.70000 35.64000
H  30.80000 4.69300 36.60400

