158

Mg 35.50000 2.50100 29.61500
C  33.34200 3.87100 32.13000
C  37.90800 2.39500 31.95900
C  37.67500 1.76400 27.22500
C  33.08700 3.44300 27.28700
N  35.61400 3.11700 31.79700
C  34.59200 3.51300 32.61400
C  35.03400 3.58100 34.06000
C  36.51400 3.36400 33.96900
C  36.71000 2.87900 32.47600
C  37.37600 4.64000 34.19900
C  34.15400 2.53100 34.81600
C  33.66100 2.93100 36.18600
H  34.26800 4.16200 36.90900
N  37.46400 1.99700 29.67700
C  38.27000 1.89200 30.73800
C  39.54900 1.37800 30.33200
C  39.53600 1.27100 28.88800
C  38.15000 1.70600 28.53100
C  40.71900 1.05700 31.30600
C  40.54300 0.72500 27.87500
O  40.33100 0.78500 26.68100
C  41.74400 0.10200 28.38700
N  35.38700 2.55000 27.58400
C  36.38700 2.18300 26.78300
C  35.90500 2.07700 25.30100
C  34.46700 2.60600 25.33100
C  34.26400 2.85700 26.80400
C  36.80700 2.84700 24.38900
C  33.39200 1.49400 25.00700
C  32.06600 1.93600 24.24700
N  33.61900 3.42800 29.58800
C  32.70800 3.69100 28.62600
C  31.50700 4.13300 29.12700
C  31.75100 4.31200 30.49800
C  33.01800 3.85400 30.74100
C  30.30200 4.40400 28.33200
C  31.05800 4.69700 31.69400
O  29.91700 5.10900 31.91100
C  32.08500 4.35900 32.87600
C  32.31000 5.54400 33.71400
O  33.04800 6.44100 33.31500
O  31.52300 5.54500 34.80900
C  31.32600 6.79200 35.51500
H  38.78600 2.31300 32.60300
H  38.27600 1.45700 26.36700
H  32.43000 3.80000 26.49100
H  34.84900 4.56800 34.48400
H  36.77500 2.63100 34.73300
H  36.77800 5.54300 34.32000
H  38.08200 4.82300 33.38900
H  37.87100 4.58700 35.16900
H  34.74600 1.62300 34.92800
H  33.39200 2.06700 34.19100
H  33.77200 2.03900 36.80200
H  32.57200 2.91200 36.23400
H  41.50600 1.76500 31.04700
H  41.15600 0.06400 31.19700
H  40.37500 1.24900 32.32200
H  41.47400 -0.83200 28.87900
H  42.25200 0.72000 29.12700
H  42.47600 -0.10300 27.60500
H  35.90600 1.07000 24.88300
H  34.36900 3.53900 24.77600
H  36.39700 3.84600 24.23800
H  36.84400 2.29200 23.45200
H  37.82600 2.92300 24.76900
H  33.15500 0.90100 25.89000
H  33.90900 0.78200 24.36400
H  31.98100 3.02200 24.28000
H  31.23900 1.59300 24.86900
H  31.94400 1.55700 23.23200
H  30.55500 5.14500 27.57400
H  29.56500 4.96600 28.90600
H  29.92200 3.52200 27.81600
H  31.50000 3.59900 33.39500
H  31.15200 7.59900 34.80300
H  32.20000 7.09300 36.09400
H  30.48200 6.80200 36.20500
Mg 47.87000 25.22600 28.24300
C  48.40600 27.52100 30.70100
C  47.31200 22.91200 30.66200
C  47.50700 22.97000 25.77800
C  49.00400 27.50400 25.88100
N  47.84500 25.23300 30.46500
C  47.87500 26.38000 31.21700
C  47.63600 26.00300 32.72500
C  47.42900 24.42700 32.75100
C  47.48800 24.16300 31.23600
C  48.52200 23.61700 33.52900
C  46.32500 26.80300 33.24200
C  46.63900 28.14700 33.93400
H  45.93100 28.61600 35.19000
N  47.45300 23.19500 28.23000
C  47.26600 22.46000 29.33800
C  46.85100 21.13700 28.90600
C  46.90900 21.09800 27.47700
C  47.34000 22.45700 27.09900
C  46.36200 20.10600 29.83800
C  46.64700 19.95700 26.51000
O  46.81200 20.07200 25.26700
C  45.97100 18.71600 27.01000
N  48.27900 25.25400 26.12600
C  48.02800 24.14900 25.32000
C  47.93200 24.61200 23.81200
C  48.22700 26.08700 23.83800
C  48.55900 26.29600 25.32300
C  48.99000 23.82600 22.88600
C  47.07200 27.00500 23.36000
C  47.36400 27.88200 22.12600
N  48.65400 27.06500 28.29300
C  49.03100 27.86300 27.27200
C  49.54100 29.09900 27.82300
C  49.29800 29.02600 29.18600
C  48.67200 27.81300 29.40700
C  50.12000 30.23000 27.04800
C  49.45400 29.69900 30.42800
O  49.98100 30.77200 30.59100
C  48.99200 28.68100 31.51900
C  50.09300 28.37000 32.44200
O  51.00200 27.60100 32.25700
O  49.97100 29.14200 33.57800
C  51.04000 28.86400 34.54500
H  47.18400 22.16700 31.44900
H  47.19900 22.23900 25.02800
H  49.14800 28.33200 25.18400
H  48.39300 26.26600 33.46400
H  46.51000 24.26100 33.31300
H  48.96300 24.32600 34.23000
H  49.25700 23.23700 32.81900
H  48.09500 22.78800 34.09400
H  45.58200 26.20400 33.76900
H  45.77300 27.04300 32.33200
H  46.35700 28.81100 33.11700
H  47.71600 28.09600 34.10000
H  45.41000 19.68100 29.52200
H  46.04600 20.60000 30.75700
H  47.08100 19.28900 29.88900
H  45.14800 19.22400 27.51400
H  46.68600 18.29800 27.71900
H  45.61900 18.08700 26.19300
H  46.93900 24.38800 23.42200
H  49.16800 26.20300 23.30100
H  48.64600 22.79300 22.83400
H  49.98200 23.93800 23.32400
H  48.93100 24.27400 21.89400
H  46.67900 27.66100 24.13700
H  46.18000 26.45000 23.06800
H  47.23300 28.89700 22.50000
H  46.66300 27.63400 21.32800
H  48.41400 27.77000 21.85800
H  50.29200 30.06000 25.98500
H  51.09200 30.43900 27.49500
H  49.46500 31.10200 27.05100
H  48.21400 29.12100 32.14300
H  50.50300 28.08200 35.08200
H  51.20600 29.79200 35.09100
H  51.93600 28.28400 34.32500

