158

Mg 55.00800 23.38200 44.09800
C  52.90100 26.28200 43.68700
C  52.38200 21.46300 43.06400
C  57.13500 21.04800 44.14400
C  57.61400 25.81300 44.75300
N  52.87700 23.93000 43.35600
C  52.24400 25.06400 43.30800
C  50.84900 24.86100 42.83600
C  50.58300 23.35100 43.12800
C  52.06300 22.83700 43.16600
C  49.73300 23.11300 44.44000
C  50.78800 25.18500 41.31100
C  49.39700 25.64200 40.76800
H  48.79600 24.65300 39.75700
N  54.75900 21.45500 43.73500
C  53.65700 20.79900 43.27900
C  53.92300 19.39100 43.27900
C  55.36700 19.23200 43.51100
C  55.83500 20.58900 43.83600
C  52.91600 18.23100 43.05300
C  56.08500 17.90400 43.42500
O  55.57300 16.87100 43.16600
C  57.49200 17.83100 43.64900
N  57.10000 23.49300 44.36400
C  57.67000 22.28500 44.48400
C  59.06500 22.50300 45.06100
C  59.17900 24.02600 45.28800
C  57.93100 24.47300 44.64800
C  59.50300 21.79900 46.30100
C  60.48200 24.64000 44.69600
C  61.25100 25.39200 45.67000
N  55.26800 25.55600 44.27100
C  56.36400 26.37300 44.59800
C  55.88900 27.81800 44.72500
C  54.57500 27.77900 44.34000
C  54.24900 26.38800 44.11600
C  56.70600 29.13000 44.86300
C  53.43700 28.62700 44.05600
O  53.37000 29.85600 44.04300
C  52.31200 27.69300 43.56900
C  52.06100 28.08300 42.07600
O  52.88600 28.34900 41.21200
O  50.71700 28.35800 42.03400
C  50.42000 29.31400 41.01100
H  51.57300 20.80700 42.73700
H  57.84900 20.22200 44.18700
H  58.41000 26.55700 44.83300
H  50.11600 25.44300 43.39500
H  50.08600 22.95900 42.24100
H  49.24200 24.02000 44.79400
H  50.28400 22.72700 45.29700
H  49.03500 22.29200 44.28000
H  50.95300 24.30700 40.68600
H  51.56700 25.88200 41.00400
H  49.71600 26.52800 40.21800
H  48.76400 25.95600 41.59800
H  53.31300 17.65900 42.21400
H  51.92100 18.61300 42.82200
H  52.88100 17.63200 43.96300
H  58.01100 18.41400 42.88800
H  57.94500 16.84000 43.69000
H  57.55800 18.32300 44.61900
H  59.65900 22.12300 44.23000
H  59.03600 24.25100 46.34500
H  60.46100 21.29800 46.16400
H  58.86800 20.92700 46.45500
H  59.59600 22.32000 47.25400
H  60.35500 25.21300 43.77700
H  61.12900 23.78100 44.51800
H  62.26100 25.50700 45.27600
H  61.32700 24.95400 46.66600
H  60.84700 26.38800 45.85100
H  56.07800 29.76600 45.48700
H  56.90000 29.56000 43.88000
H  57.66000 28.77800 45.25500
H  51.37100 27.71400 44.11900
H  51.00200 30.21200 41.21800
H  49.35900 29.54200 41.11700
H  50.67900 29.00600 39.99800
Mg 46.86200 34.90700 26.21800
C  45.37700 33.77600 29.00400
C  47.59100 37.91400 27.74200
C  48.12400 36.06800 23.25100
C  46.10800 31.85400 24.59000
N  46.46000 35.74600 28.09500
C  46.04500 35.00300 29.13000
C  46.12200 35.80900 30.43300
C  46.65900 37.23000 29.97100
C  46.95900 36.88100 28.53800
C  45.67500 38.46600 30.05400
C  47.10900 35.11000 31.40600
C  46.81400 35.09700 32.89000
H  45.95800 36.21200 33.49000
N  47.77200 36.79400 25.57200
C  47.88100 37.88900 26.33700
C  48.49400 38.92900 25.56600
C  48.72900 38.41200 24.25000
C  48.27700 37.02200 24.33100
C  48.83900 40.24600 26.13600
C  49.34000 39.12000 23.01900
O  49.52400 38.60300 21.87600
C  50.04700 40.41900 23.22200
N  46.94600 34.14300 24.16200
C  47.68700 34.78800 23.18100
C  47.73700 33.93200 21.92400
C  46.95700 32.59000 22.29100
C  46.74700 32.80100 23.78400
C  47.25700 34.57800 20.63200
C  47.87500 31.34100 22.08300
C  48.56700 31.18100 20.71300
N  45.91200 33.14100 26.63800
C  45.66600 31.98200 25.88800
C  44.95100 31.11400 26.69000
C  44.72600 31.75500 27.87700
C  45.39100 32.99700 27.83300
C  44.62100 29.73800 26.27700
C  44.14400 31.58600 29.17500
O  43.46000 30.70800 29.64700
C  44.59900 32.95400 29.97600
C  45.17800 32.37500 31.20100
O  46.26700 31.81300 31.35700
O  44.20900 32.54000 32.16100
C  44.40900 31.69300 33.33800
H  47.89400 38.78600 28.32400
H  48.42500 36.52300 22.30400
H  45.88500 30.92800 24.05600
H  45.13400 35.83100 30.89200
H  47.53700 37.60800 30.49500
H  44.69300 38.25500 30.47700
H  45.51100 38.91200 29.07300
H  46.08000 39.25100 30.69300
H  48.10100 35.56200 31.38100
H  47.18200 34.09100 31.02700
H  47.81200 35.16100 33.32500
H  46.36100 34.15400 33.19400
H  48.38800 41.11700 25.66000
H  49.89700 40.47900 26.25200
H  48.38000 40.34800 27.12000
H  49.31500 41.22500 23.16700
H  50.84700 40.64800 22.51800
H  50.50000 40.48800 24.21100
H  48.80700 33.81100 21.75200
H  46.05300 32.44200 21.70000
H  46.63400 35.42700 20.91100
H  46.62700 33.81400 20.17400
H  48.08300 34.87400 19.98600
H  47.30300 30.44000 22.30600
H  48.64600 31.30900 22.85200
H  49.28900 30.36800 20.78800
H  49.18900 32.03900 20.45900
H  47.79800 31.03700 19.95400
H  43.60000 29.77500 25.89900
H  44.62800 28.97700 27.05800
H  45.35200 29.40500 25.54000
H  43.67400 33.49100 30.18500
H  44.63100 32.48400 34.05400
H  45.12200 30.86800 33.31000
H  43.40500 31.31700 33.53500

