158

Mg 47.10300 34.57000 27.74300
C  45.37000 32.91900 30.15400
C  47.59800 37.24000 29.93100
C  48.32800 36.45200 25.24400
C  46.41700 32.06400 25.50000
N  46.59100 35.02400 29.81000
C  45.86700 34.11500 30.61500
C  46.02700 34.57100 32.14300
C  46.23500 36.11300 31.90000
C  46.82500 36.17300 30.44400
C  44.91800 36.97200 32.04800
C  47.17200 33.81900 32.82200
C  47.02500 33.68200 34.35500
H  46.02800 34.54300 35.13900
N  47.91100 36.57600 27.59100
C  48.05600 37.45700 28.63400
C  48.66600 38.65900 28.06900
C  48.81100 38.42700 26.70600
C  48.30700 37.17200 26.45800
C  49.02400 39.78000 28.97900
C  49.40300 39.31500 25.67900
O  49.28200 39.17300 24.47700
C  49.94800 40.59300 26.17700
N  47.22600 34.35300 25.63800
C  47.86400 35.20300 24.86800
C  48.15200 34.68700 23.46100
C  47.72800 33.19600 23.64300
C  47.06800 33.15600 25.02900
C  47.43500 35.46600 22.38500
C  48.79100 32.13900 23.68800
C  48.67300 30.90500 22.72800
N  46.03100 32.82200 27.73100
C  45.84100 31.84300 26.75500
C  45.24800 30.69400 27.32400
C  44.91700 31.15600 28.64900
C  45.45400 32.38900 28.89100
C  45.04700 29.35600 26.72500
C  44.33800 30.70800 29.84700
O  43.73900 29.67600 30.17500
C  44.44200 31.89400 30.83000
C  44.77900 31.40100 32.21500
O  45.68400 30.57200 32.47700
O  43.94600 31.85000 33.09900
C  44.15600 31.46500 34.46700
H  47.65800 38.02100 30.69200
H  48.67500 36.93000 24.32600
H  46.33500 31.23200 24.79800
H  45.09100 34.53000 32.70000
H  47.00200 36.45300 32.59600
H  43.94300 36.49300 31.97100
H  44.88300 37.72800 31.26300
H  45.00100 37.58900 32.94300
H  48.11000 34.32500 32.59600
H  47.24900 32.82400 32.38500
H  48.00400 34.01500 34.69900
H  46.90600 32.63200 34.62500
H  50.05800 40.12200 28.91900
H  48.68900 39.68800 30.01200
H  48.42300 40.67600 28.82700
H  49.21200 41.11400 26.78800
H  50.02200 41.19700 25.27300
H  50.93300 40.57400 26.64500
H  49.23300 34.68900 23.32100
H  47.05200 32.91600 22.83400
H  46.83500 36.23700 22.86900
H  46.71400 34.89200 21.80200
H  48.11600 35.71000 21.57000
H  48.99600 31.64300 24.63700
H  49.69000 32.65900 23.35600
H  47.74000 30.87500 22.16500
H  48.70800 29.92400 23.20200
H  49.49000 31.02100 22.01700
H  45.67800 29.08200 25.87900
H  44.01800 29.26000 26.38000
H  45.23400 28.73400 27.60100
H  43.47000 32.38800 30.83400
H  44.14600 30.41700 34.76800
H  43.41000 31.96800 35.08200
H  45.15400 31.76800 34.78500
Mg -5.85600 25.06100 27.04100
C  -4.04600 26.71800 29.54600
C  -6.65700 22.61600 29.40700
C  -7.36900 23.49400 24.63600
C  -4.36300 27.30500 24.62200
N  -5.26600 24.67200 29.22300
C  -4.60700 25.55100 30.07400
C  -4.65100 25.05500 31.52400
C  -5.33400 23.62500 31.41200
C  -5.74700 23.58100 29.89600
C  -4.34100 22.39900 31.82400
C  -5.41900 26.07000 32.48000
C  -5.03100 26.02900 33.94100
H  -6.25100 26.28800 34.85400
N  -6.83500 23.29400 27.04800
C  -7.13100 22.46000 28.05500
C  -8.15900 21.52000 27.60500
C  -8.31700 21.71900 26.20200
C  -7.47500 22.87800 25.91400
C  -8.68700 20.52600 28.55700
C  -9.00600 20.78600 25.17600
O  -8.92500 20.93100 23.94700
C  -9.65900 19.51400 25.60700
N  -5.71300 25.27800 24.79700
C  -6.61900 24.59900 24.13500
C  -6.57000 24.92900 22.56100
C  -5.72900 26.28000 22.57300
C  -5.22700 26.30700 24.04100
C  -6.03900 23.76900 21.73600
C  -6.62400 27.41000 22.16700
C  -5.89400 28.49200 21.26800
N  -4.57700 26.67400 27.00500
C  -4.10800 27.48700 25.96700
C  -3.25300 28.53800 26.48700
C  -3.29700 28.37900 27.92300
C  -4.02200 27.12500 28.17200
C  -2.45100 29.57600 25.65800
C  -2.76900 28.82900 29.20500
O  -2.05400 29.73900 29.53300
C  -3.38500 27.85300 30.31700
C  -2.31900 27.38900 31.21400
O  -1.47100 26.53100 30.89300
O  -2.39600 28.08300 32.41800
C  -1.28000 27.76700 33.31200
H  -7.05500 21.98200 30.20300
H  -7.99400 23.00800 23.88400
H  -3.93900 28.01500 23.90900
H  -3.63900 24.98300 31.92100
H  -6.19800 23.55200 32.07400
H  -4.37100 22.19300 32.89400
H  -3.30600 22.60500 31.55400
H  -4.62100 21.43200 31.40500
H  -6.49700 26.02300 32.32700
H  -5.24000 27.07900 32.10800
H  -4.36700 26.87200 34.12600
H  -4.47000 25.13300 34.20700
H  -9.65200 20.14200 28.22600
H  -8.57400 20.84600 29.59300
H  -7.95700 19.71800 28.52100
H  -8.94400 19.05500 26.29000
H  -9.76500 18.92700 24.69500
H  -10.68000 19.69100 25.94700
H  -7.63600 25.06900 22.38500
H  -4.85500 26.03800 21.96900
H  -5.03900 23.51600 22.08900
H  -5.89300 23.97700 20.67600
H  -6.66400 22.92600 22.03200
H  -6.83800 27.96100 23.08300
H  -7.51400 27.08700 21.62700
H  -5.71100 29.43200 21.78700
H  -6.51600 28.63500 20.38400
H  -4.91000 28.14200 20.95500
H  -1.99000 30.29200 26.33800
H  -3.12300 30.13000 25.00200
H  -1.70000 29.06700 25.05300
H  -4.02500 28.42100 30.99200
H  -1.56200 28.32000 34.20800
H  -0.31900 28.14100 32.95800
H  -1.31600 26.69000 33.47300

