158

Mg 48.73000 45.91200 43.11300
C  45.54700 46.67700 42.12600
C  48.20100 42.60200 41.73300
C  52.12600 45.41600 42.84900
C  49.28400 49.15400 44.00400
N  46.96900 44.75200 42.04200
C  45.82300 45.33600 41.66500
C  44.91000 44.44700 40.83100
C  45.60700 42.98800 41.11000
C  46.99500 43.41000 41.72200
C  44.78200 42.13300 42.16600
C  44.90100 44.96500 39.32700
C  43.51300 44.96500 38.59000
H  43.43800 44.17700 37.25800
N  49.93100 44.15100 42.71200
C  49.51300 42.92900 42.14700
C  50.66000 42.07400 41.96500
C  51.79800 42.85100 42.41200
C  51.35500 44.21300 42.62400
C  50.55800 40.65600 41.44400
C  53.15500 42.29400 42.50300
O  53.35400 41.12400 42.35300
C  54.32000 43.22300 42.94600
N  50.43600 47.15900 43.29200
C  51.70800 46.69000 43.23300
C  52.69500 47.73000 43.63800
C  51.83600 48.87200 44.21300
C  50.43300 48.38500 43.84300
C  53.91800 47.29800 44.59400
C  52.12400 50.30400 43.63800
C  53.58000 50.85500 43.60800
N  47.66600 47.61200 43.14300
C  47.96100 48.87600 43.59600
C  46.79100 49.69000 43.60600
C  45.82000 48.91300 42.96400
C  46.39600 47.60600 42.74800
C  46.75600 51.11400 44.04300
C  44.44400 48.91700 42.41800
O  43.57200 49.76700 42.33200
C  44.27300 47.53300 41.83700
C  42.95100 46.91400 42.25800
O  41.89700 47.09300 41.66700
O  43.08900 46.11200 43.36500
C  41.84000 45.43300 43.88400
H  47.93200 41.57900 41.46600
H  53.19000 45.19100 42.75000
H  49.47100 50.12100 44.47500
H  43.89200 44.62600 41.17600
H  45.79400 42.46500 40.17200
H  45.09700 41.94000 43.19200
H  44.65700 41.20700 41.60500
H  43.77300 42.54500 42.13600
H  45.53500 44.25300 38.79800
H  45.34900 45.95600 39.25100
H  43.23600 46.00200 38.40100
H  42.87900 44.61800 39.40500
H  49.54200 40.29000 41.59400
H  51.33500 40.06900 41.93400
H  50.69500 40.60800 40.36400
H  54.16100 43.73400 43.89500
H  54.59000 43.95900 42.19000
H  55.21000 42.59600 43.00400
H  53.03800 48.14100 42.68900
H  51.84800 48.97800 45.29800
H  54.06500 46.22300 44.69900
H  53.89300 47.76200 45.58000
H  54.76800 47.75100 44.08400
H  51.54700 50.91900 44.32900
H  51.58900 50.53000 42.71500
H  53.86700 51.34800 42.68000
H  54.32000 50.14300 43.97600
H  53.38700 51.70200 44.26600
H  46.04800 51.18300 44.87000
H  46.42600 51.84000 43.30000
H  47.70300 51.37300 44.51800
H  44.27900 47.73600 40.76600
H  41.27400 44.78900 43.21000
H  41.24900 46.15400 44.44900
H  42.21700 44.71800 44.61500
Mg 9.99900 47.72800 26.44300
C  7.69100 47.90100 28.89300
C  12.30600 49.00200 28.47000
C  12.06400 47.97600 23.71100
C  7.44600 46.77700 24.10300
N  9.94500 48.40200 28.42900
C  8.91300 48.37700 29.21300
C  9.40200 48.84000 30.61500
C  10.73700 49.57600 30.36900
C  11.04600 48.99800 29.04100
C  10.72100 51.14300 30.34800
C  9.40900 47.59600 31.58700
C  10.12700 47.75300 32.84400
H  9.78600 46.73500 34.01900
N  11.91400 48.29700 26.24700
C  12.75100 48.66900 27.20400
C  14.09400 48.84300 26.68500
C  14.01200 48.61800 25.30200
C  12.61000 48.20500 25.03100
C  15.21700 49.30500 27.62300
C  15.13700 48.69100 24.21400
O  14.95600 48.23600 23.10900
C  16.44700 49.19400 24.55300
N  9.74000 47.43700 24.22000
C  10.77700 47.60900 23.40300
C  10.40600 47.26700 21.95600
C  9.01100 46.55400 22.09200
C  8.68100 46.92200 23.54400
C  10.51000 48.58100 21.10700
C  8.90400 45.09400 21.59000
C  9.30000 43.95400 22.44900
N  7.99000 47.45400 26.43000
C  7.04800 47.07100 25.45800
C  5.73600 46.94800 26.12700
C  5.96800 47.18300 27.45500
C  7.32500 47.55400 27.57200
C  4.46500 46.58900 25.42100
C  5.32700 47.27800 28.73700
O  4.12900 47.16200 28.99000
C  6.46700 47.54200 29.77000
C  6.56300 46.29600 30.59100
O  7.03700 45.25400 30.14900
O  5.98600 46.33600 31.83000
C  6.18600 45.15500 32.64000
H  13.01400 49.42600 29.18500
H  12.74900 48.07300 22.86600
H  6.68000 46.41400 23.41500
H  8.73400 49.65200 30.90100
H  11.49000 49.23700 31.08000
H  11.31000 51.57300 31.15900
H  9.73600 51.52800 30.61300
H  11.13800 51.55800 29.43100
H  9.68500 46.67500 31.07300
H  8.37200 47.58000 31.92200
H  9.87700 48.74800 33.21300
H  11.17300 47.54400 32.62400
H  16.11000 48.69300 27.49700
H  14.99700 49.13000 28.67600
H  15.47200 50.33000 27.35600
H  16.34800 50.16600 25.03800
H  17.00100 49.45100 23.65000
H  16.87500 48.35800 25.10500
H  11.12500 46.49200 21.68900
H  8.19800 47.03900 21.55100
H  10.57100 49.56900 21.56400
H  9.75400 48.55800 20.32200
H  11.46800 48.65900 20.59300
H  9.25000 44.96300 20.56500
H  7.81400 45.09600 21.61700
H  10.00100 44.33300 23.19300
H  9.83700 43.16600 21.92200
H  8.42800 43.53100 22.94800
H  4.69800 45.90700 24.60300
H  4.15000 47.51100 24.93300
H  3.78400 46.25600 26.20500
H  6.15900 48.36800 30.41100
H  5.16000 45.02300 32.98300
H  6.84700 45.25100 33.50100
H  6.51200 44.23900 32.14700

