158

Mg 26.20300 0.89700 28.98800
C  28.28600 0.74900 31.98600
C  23.48700 0.70200 31.24600
C  24.34600 0.93300 26.44300
C  29.02600 0.26900 27.11500
N  26.01900 0.80100 31.34900
C  26.93700 0.90900 32.31000
C  26.38100 0.98300 33.74700
C  24.81600 0.87700 33.48300
C  24.72000 0.91300 31.94800
C  24.04400 -0.32300 34.24200
C  26.83000 2.16300 34.60000
C  27.38400 1.93300 35.97100
H  27.05800 2.89100 37.13900
N  24.19200 0.86400 28.83400
C  23.22000 0.78200 29.87000
C  21.96700 1.02000 29.24900
C  22.13900 1.10200 27.84100
C  23.57600 0.91000 27.62800
C  20.66800 1.17900 30.00600
C  21.05300 1.44100 26.70100
O  21.42100 1.25500 25.57600
C  19.61700 1.76800 26.96500
N  26.65700 0.52400 27.09300
C  25.70400 0.72300 26.16200
C  26.27500 0.83700 24.73200
C  27.74000 0.51700 24.91800
C  27.84400 0.40600 26.45500
C  25.64800 -0.09800 23.61600
C  28.73900 1.55500 24.36100
C  28.76400 1.63000 22.88500
N  28.29700 0.55000 29.38000
C  29.30300 0.23800 28.50100
C  30.51400 0.13800 29.21500
C  30.25000 0.35100 30.56100
C  28.85700 0.64000 30.64000
C  31.79900 -0.25300 28.73900
C  30.79600 0.48000 31.91800
O  31.94900 0.31500 32.29200
C  29.53000 0.69800 32.93100
C  29.39500 -0.33400 33.96800
O  28.91800 -1.44000 33.85800
O  29.95100 0.08400 35.15800
C  29.97100 -0.81800 36.37400
H  22.59900 0.64300 31.87900
H  23.68800 0.94900 25.57200
H  29.90600 0.14600 26.48100
H  26.70500 0.13700 34.35400
H  24.30400 1.75200 33.88100
H  22.98500 -0.06900 34.27800
H  24.49000 -0.45500 35.22800
H  24.05100 -1.30400 33.76500
H  25.99000 2.82700 34.80200
H  27.53000 2.78300 34.04100
H  28.45500 1.74100 35.90400
H  26.91800 0.98000 36.22100
H  19.97200 0.37300 29.77300
H  20.20700 2.09300 29.63100
H  20.63800 1.34800 31.08300
H  19.46800 2.66200 27.57000
H  19.16300 0.86800 27.38000
H  19.10400 1.96400 26.02300
H  26.18900 1.88000 24.42600
H  27.95500 -0.45600 24.47700
H  24.96000 -0.69500 24.21500
H  26.32400 -0.83800 23.19000
H  25.07100 0.46800 22.88400
H  29.76700 1.39600 24.68700
H  28.45100 2.56600 24.65100
H  28.40000 2.59900 22.54600
H  28.13200 0.88300 22.40500
H  29.76700 1.42400 22.50900
H  31.68800 -1.32900 28.60400
H  32.56400 0.02800 29.46300
H  32.19600 0.22700 27.84500
H  29.67300 1.65100 33.44100
H  29.41000 -0.35100 37.18300
H  31.01200 -0.94900 36.67100
H  29.53200 -1.78800 36.13800
Mg 1.54700 42.95700 26.02100
C  3.63300 43.16100 28.72500
C  -1.05000 42.03700 28.04200
C  -0.43900 42.31100 23.20300
C  4.20900 43.62000 23.83500
N  1.36900 42.61700 28.07900
C  2.30700 42.90400 29.05700
C  1.74800 42.84200 30.48100
C  0.27700 42.38700 30.18700
C  0.19900 42.30600 28.68100
C  -0.18100 41.15600 30.96800
C  1.83100 44.25300 31.16300
C  2.12100 44.22100 32.65400
H  1.84400 42.90200 33.45300
N  -0.42200 42.15800 25.61500
C  -1.28200 41.92000 26.64100
C  -2.59300 41.57500 26.04600
C  -2.49400 41.65600 24.63600
C  -1.04500 42.02200 24.41700
C  -3.75900 41.24200 26.91400
C  -3.52200 41.45500 23.52300
O  -3.21800 41.55300 22.32600
C  -4.88600 41.27200 23.89600
N  1.80300 42.97200 23.79100
C  0.84800 42.70400 22.84700
C  1.40600 42.78500 21.43700
C  2.86000 43.35200 21.68700
C  3.01100 43.26800 23.19500
C  1.40900 41.47100 20.68500
C  3.09300 44.80500 21.14700
C  4.33800 44.99200 20.29500
N  3.53700 43.37300 26.21400
C  4.50400 43.60000 25.26400
C  5.75400 43.71600 25.96500
C  5.49300 43.60500 27.34400
C  4.16400 43.31300 27.41100
C  7.07900 43.83000 25.24100
C  6.05100 43.57800 28.63900
O  7.18100 43.74000 28.98800
C  4.86700 43.38000 29.75300
C  5.15100 42.15600 30.53700
O  4.92800 40.99500 30.31000
O  5.63900 42.51300 31.73800
C  5.88200 41.47500 32.78900
H  -1.90400 41.82500 28.68900
H  -1.03700 42.11300 22.31100
H  5.05200 43.96000 23.22900
H  2.35600 42.11400 31.01700
H  -0.41800 43.19800 30.40400
H  -1.11300 41.42100 31.46700
H  0.68900 40.87400 31.56100
H  -0.52400 40.32400 30.35400
H  0.99100 44.88300 30.86900
H  2.65700 44.84600 30.77100
H  1.42900 44.92700 33.11400
H  3.13700 44.57700 32.82500
H  -3.41000 40.62500 27.74200
H  -4.65900 40.73700 26.56400
H  -4.17700 42.18700 27.26200
H  -5.51700 41.40800 23.01800
H  -5.04200 42.13100 24.54800
H  -5.13000 40.34100 24.40800
H  0.84100 43.59300 20.97100
H  3.69900 42.75400 21.33100
H  0.60200 41.58400 19.96200
H  1.15200 40.64500 21.34800
H  2.37500 41.18400 20.27000
H  3.27800 45.41900 22.02900
H  2.30300 45.30800 20.58900
H  4.81500 44.04300 20.04800
H  5.11200 45.48200 20.88600
H  4.24100 45.48600 19.32900
H  7.78800 44.23500 25.96300
H  6.97800 44.61300 24.49000
H  7.51100 42.89100 24.89300
H  4.66200 44.19200 30.45000
H  6.80900 40.96300 32.53100
H  5.12500 40.69200 32.83400
H  6.06900 41.84900 33.79600

