158

Mg 2.18700 -2.08600 44.14900
C  5.68900 -1.52600 43.32900
C  1.48100 0.52400 42.06900
C  -0.89800 -3.14200 44.29200
C  3.31100 -5.23400 45.33800
N  3.48800 -0.67000 42.86900
C  4.84300 -0.71800 42.61300
C  5.22100 0.22500 41.49900
C  3.95500 1.11800 41.40200
C  2.87600 0.32000 42.14900
C  3.98200 2.60600 41.91700
C  5.57100 -0.54500 40.10200
C  6.75300 0.06000 39.37200
H  6.50900 0.57700 37.95300
N  0.45200 -1.34000 43.35200
C  0.32300 -0.27800 42.48800
C  -1.10100 0.03200 42.42800
C  -1.77500 -0.95500 43.17200
C  -0.75600 -1.82900 43.71700
C  -1.66600 1.14800 41.58900
C  -3.26200 -1.13600 43.17900
O  -3.95200 -0.37400 42.53600
C  -3.98800 -2.20900 43.99900
N  1.33000 -3.89800 44.93900
C  0.03600 -4.13400 44.63300
C  -0.36200 -5.59300 44.78300
C  1.00800 -6.27100 45.05800
C  1.95900 -5.08300 45.03000
C  -1.48200 -5.84700 45.92100
C  1.37600 -7.41100 44.06100
C  1.44200 -8.80200 44.66700
N  4.08100 -3.06900 44.60800
C  4.33400 -4.34200 45.07600
C  5.76600 -4.53500 45.20800
C  6.35900 -3.44900 44.56600
C  5.26300 -2.63200 44.09800
C  6.44400 -5.53900 46.07100
C  7.57200 -2.76800 44.19500
O  8.75800 -2.98600 44.43100
C  7.20300 -1.58100 43.26300
C  7.86800 -0.34100 43.77000
O  8.78500 0.23400 43.22800
O  7.28300 0.12000 44.92600
C  7.45100 1.58600 45.16100
H  1.24300 1.46800 41.57400
H  -1.91000 -3.55300 44.30200
H  3.64800 -6.23700 45.61000
H  6.10600 0.80300 41.76700
H  3.70500 1.20500 40.34500
H  3.63700 3.27400 41.12800
H  4.97200 2.91800 42.24900
H  3.29800 2.69700 42.76000
H  4.72200 -0.46500 39.42300
H  5.76000 -1.60200 40.29100
H  7.47500 -0.75600 39.39200
H  7.09300 0.93300 39.92900
H  -0.91000 1.86000 41.26100
H  -2.44600 1.72400 42.08700
H  -2.25500 0.67200 40.80500
H  -4.99800 -1.87600 44.23700
H  -3.44600 -2.35000 44.93400
H  -3.99800 -3.08200 43.34600
H  -0.80900 -5.88800 43.83400
H  0.81500 -6.66900 46.05500
H  -1.26400 -6.69600 46.57000
H  -2.47700 -5.89000 45.47800
H  -1.44200 -5.02500 46.63600
H  2.34600 -7.23800 43.59300
H  0.78700 -7.41000 43.14400
H  1.56200 -8.68200 45.74400
H  2.27400 -9.42800 44.34500
H  0.52000 -9.37700 44.58400
H  6.45000 -6.39500 45.39700
H  5.89900 -5.79500 46.98000
H  7.45800 -5.15500 46.18300
H  7.61500 -1.73700 42.26700
H  7.03800 1.92700 44.21100
H  8.48700 1.89600 45.29000
H  6.87500 2.07100 45.94900
Mg 17.23000 51.43500 25.56100
C  18.81400 50.47200 28.57400
C  14.32100 52.25900 27.54600
C  15.39000 51.95500 22.75200
C  19.70100 50.07200 23.69000
N  16.68000 51.52600 27.79300
C  17.53900 51.04500 28.77400
C  16.98300 51.53400 30.16400
C  15.44500 51.72400 29.83400
C  15.44800 51.86100 28.29700
C  14.54100 50.53600 30.27500
C  17.60400 52.83200 30.71300
C  17.48700 52.99700 32.18900
H  16.39800 52.36400 33.04800
N  15.25600 52.22300 25.25000
C  14.25300 52.51900 26.12100
C  13.15100 53.11700 25.43900
C  13.46100 53.04300 24.08900
C  14.77300 52.42900 23.97700
C  11.93700 53.70400 26.22600
C  12.65700 53.51500 22.90300
O  13.22300 53.53000 21.79800
C  11.28000 54.07900 23.04800
N  17.56900 51.20000 23.51900
C  16.63200 51.32000 22.55400
C  17.18400 50.94100 21.19500
C  18.73400 50.71900 21.49500
C  18.66000 50.62200 23.01900
C  16.44000 49.78000 20.51400
C  19.77700 51.79200 20.85100
C  21.07000 51.21800 20.29400
N  18.90200 50.44900 25.95500
C  19.91700 50.00000 25.12200
C  21.00800 49.47500 25.91600
C  20.70100 49.73200 27.22900
C  19.32000 50.24400 27.24900
C  22.20700 48.64500 25.38800
C  21.14700 49.66400 28.57400
O  22.22300 49.35500 29.03100
C  19.91700 50.18200 29.51100
C  19.51300 49.09200 30.40600
O  19.39500 47.93400 30.06900
O  18.99900 49.65800 31.61100
C  18.38700 48.77700 32.59500
H  13.43600 52.51100 28.13500
H  15.03400 51.95100 21.72000
H  20.47300 49.54600 23.12500
H  16.99000 50.68700 30.85000
H  15.04800 52.68100 30.17100
H  14.56300 49.79700 29.47500
H  13.55800 50.84300 30.63100
H  15.05100 50.01500 31.08600
H  17.13300 53.66800 30.19500
H  18.66400 52.82700 30.45800
H  17.59900 54.05800 32.41200
H  18.41600 52.71800 32.68600
H  11.86300 53.29200 27.23200
H  11.00500 53.44000 25.72600
H  11.95900 54.79300 26.25700
H  10.67100 53.32600 23.54900
H  10.95100 54.05500 22.00900
H  11.22600 55.05100 23.53800
H  17.08200 51.81800 20.55700
H  18.95300 49.70100 21.17400
H  15.47100 49.69100 21.00500
H  17.00400 48.85000 20.57000
H  16.11200 49.87200 19.47800
H  19.90200 52.61900 21.55100
H  19.24200 52.24600 20.01700
H  21.01200 51.14000 19.20800
H  21.37100 50.27100 20.74200
H  21.87100 51.91400 20.54300
H  23.13800 48.96300 25.85800
H  22.29100 48.55200 24.30500
H  21.95800 47.64300 25.73700
H  20.28200 51.01800 30.10800
H  18.39800 49.33000 33.53500
H  19.10200 47.98200 32.80600
H  17.43600 48.34800 32.28100

