158

Mg 47.48100 16.06300 29.00300
C  45.22600 15.63500 31.57100
C  49.44400 18.02200 31.07700
C  49.17800 17.21700 26.35700
C  44.96800 14.89200 26.76500
N  47.26000 16.85400 31.06300
C  46.41100 16.32600 31.95800
C  46.66800 16.87200 33.38900
C  47.94800 17.79200 33.19800
C  48.23400 17.63200 31.70700
C  47.75500 19.25300 33.63200
C  46.99800 15.67500 34.34000
C  46.16600 15.72900 35.63300
H  45.90600 17.04500 36.38000
N  49.25300 17.14000 28.82300
C  49.92900 17.78800 29.77500
C  51.23200 18.16200 29.24000
C  51.13800 17.94200 27.83600
C  49.82400 17.31200 27.59800
C  52.28300 18.72400 30.00900
C  52.20100 18.37600 26.72300
O  51.89500 18.33900 25.54800
C  53.62000 18.73600 27.15700
N  47.14500 16.01900 26.94800
C  47.92500 16.66900 26.08000
C  47.44200 16.55100 24.68100
C  46.35500 15.43200 24.73100
C  46.10300 15.44200 26.25000
C  46.77100 17.85100 24.21200
C  46.77000 14.04100 24.00800
C  46.37000 12.69500 24.66700
N  45.53600 15.28700 29.06900
C  44.64600 14.90100 28.14300
C  43.46800 14.36000 28.72700
C  43.66400 14.64900 30.09100
C  44.92500 15.15300 30.25800
C  42.20800 13.94900 28.08600
C  42.97000 14.55600 31.39000
O  41.87500 14.14800 31.69900
C  43.97200 15.28100 32.43500
C  43.18100 16.44800 32.97800
O  43.06800 17.55800 32.47500
O  42.69400 16.15300 34.18600
C  41.95400 17.18200 34.83800
H  49.86100 18.69700 31.82700
H  49.70600 17.57100 25.46900
H  44.21100 14.63400 26.02100
H  45.77600 17.42400 33.68700
H  48.75000 17.38200 33.81300
H  48.70100 19.49600 34.11600
H  46.96500 19.55800 34.31800
H  47.65200 19.81900 32.70600
H  48.04800 15.55200 34.60600
H  46.72900 14.71500 33.90000
H  46.76500 15.09500 36.28700
H  45.25400 15.19100 35.37300
H  52.68400 19.61700 29.52900
H  53.10900 18.07200 30.29500
H  51.89100 18.99700 30.98800
H  53.93700 18.00000 27.89500
H  53.63300 19.71100 27.64500
H  54.23800 18.77000 26.26000
H  48.20400 16.29400 23.94500
H  45.46500 15.73300 24.18000
H  47.19300 18.65700 24.81400
H  45.70500 17.93300 24.42500
H  47.01800 17.94800 23.15500
H  47.85300 13.99900 23.89300
H  46.37700 13.98300 22.99300
H  45.37400 12.76900 25.10300
H  46.97800 12.20100 25.42600
H  46.30400 12.07900 23.77100
H  42.08100 14.58100 27.20700
H  41.38000 14.00600 28.79200
H  42.27400 12.88400 27.86200
H  44.31600 14.53900 33.15500
H  42.53800 18.10100 34.78200
H  41.92300 16.80800 35.86100
H  40.93900 17.19200 34.43900
Mg -6.44400 25.38900 25.82700
C  -4.60500 26.85800 28.33600
C  -7.60700 23.05000 28.04100
C  -7.88800 23.78000 23.24400
C  -4.90200 27.64900 23.63100
N  -5.97500 24.90800 27.90300
C  -5.36500 25.78100 28.77800
C  -5.74100 25.36200 30.29100
C  -6.40400 23.99000 30.08800
C  -6.67700 23.98100 28.59100
C  -5.58800 22.81000 30.60600
C  -6.72600 26.41200 30.88400
C  -6.36800 26.69900 32.36600
H  -5.87200 25.54000 33.32800
N  -7.63500 23.67100 25.67700
C  -8.04800 22.84100 26.74700
C  -8.96800 21.85800 26.21800
C  -9.05300 22.11600 24.81600
C  -8.12800 23.20200 24.47900
C  -9.61900 20.66700 26.95800
C  -9.97300 21.42000 23.78500
O  -9.85100 21.59400 22.58000
C  -11.05000 20.50900 24.26500
N  -6.37500 25.68800 23.73200
C  -7.14400 24.91300 22.88000
C  -6.98500 25.41100 21.45600
C  -6.09700 26.69800 21.58100
C  -5.81800 26.72600 23.10800
C  -6.38800 24.29200 20.47000
C  -6.73500 27.99500 20.96000
C  -5.98700 28.65500 19.82400
N  -5.06200 26.93800 25.96100
C  -4.49500 27.72900 24.96600
C  -3.58200 28.68800 25.49500
C  -3.66500 28.45200 26.86900
C  -4.44300 27.30600 27.09200
C  -2.80700 29.77300 24.79000
C  -3.17900 28.82000 28.23700
O  -2.36200 29.67800 28.49900
C  -3.83800 27.89600 29.25100
C  -2.82000 27.22300 30.06500
O  -1.81500 26.61800 29.68000
O  -3.14300 27.39800 31.41900
C  -2.21500 26.83000 32.38400
H  -8.12400 22.37600 28.72700
H  -8.40500 23.28100 22.42200
H  -4.37300 28.29400 22.92700
H  -4.83700 25.38400 30.90000
H  -7.37300 23.95200 30.58600
H  -5.23100 22.13200 29.83100
H  -6.26400 22.28500 31.28100
H  -4.70200 23.22000 31.09200
H  -7.75800 26.07200 30.96300
H  -6.73300 27.30800 30.26400
H  -7.31600 27.09800 32.72700
H  -5.59400 27.44400 32.18100
H  -9.46600 19.70600 26.46600
H  -10.66100 20.92700 27.14700
H  -9.19900 20.55100 27.95700
H  -10.78100 19.49200 24.55000
H  -11.71800 20.39400 23.41100
H  -11.61900 21.07300 25.00300
H  -7.99000 25.73000 21.18000
H  -5.22400 26.42800 20.98600
H  -7.21100 23.67400 20.11000
H  -5.63100 23.66400 20.94200
H  -5.92600 24.74800 19.59400
H  -6.85400 28.59400 21.86300
H  -7.73800 27.74200 20.61400
H  -5.09800 28.04600 19.66200
H  -5.73800 29.70000 20.00900
H  -6.58000 28.52900 18.91800
H  -3.44400 30.12000 23.97700
H  -1.90800 29.38900 24.30700
H  -2.61000 30.63600 25.42600
H  -4.48300 28.42600 29.95300
H  -1.38900 27.54100 32.40600
H  -1.89400 25.81900 32.13200
H  -2.65500 26.89900 33.37900

