158

Mg 16.37200 -2.45900 27.99800
C  15.35600 -0.45000 30.66700
C  18.53200 -4.17700 30.22400
C  17.94900 -3.99300 25.39900
C  14.68200 -0.37100 25.82600
N  16.90400 -2.33500 30.15900
C  16.30100 -1.42000 31.00800
C  16.81300 -1.69700 32.42300
C  18.00400 -2.79900 32.28700
C  17.80700 -3.17600 30.80800
C  19.36500 -2.13900 32.58600
C  15.68000 -2.07700 33.38400
C  15.57300 -1.34900 34.74400
H  16.88500 -0.67200 35.18800
N  18.07800 -3.85100 27.87200
C  18.71200 -4.51100 28.88100
C  19.50000 -5.58900 28.39200
C  19.40300 -5.48100 26.93300
C  18.43100 -4.37400 26.64200
C  20.11100 -6.65500 29.28900
C  20.13600 -6.26600 25.90600
O  20.01900 -6.10700 24.69900
C  21.16900 -7.37800 26.35300
N  16.30100 -2.30100 25.98100
C  16.98600 -3.00600 25.02900
C  16.68100 -2.62100 23.62900
C  15.53800 -1.52700 23.80500
C  15.48800 -1.39400 25.31100
C  17.81100 -2.26000 22.67100
C  14.19400 -1.99700 23.13600
C  13.13000 -0.93800 22.97100
N  15.09400 -0.83500 28.16000
C  14.41900 -0.10800 27.20300
C  13.55300 0.92200 27.86000
C  13.87300 0.81300 29.20100
C  14.83100 -0.19400 29.34100
C  12.77900 1.97200 27.09200
C  13.59400 1.37000 30.54300
O  12.87900 2.32200 30.88400
C  14.50500 0.51100 31.52300
C  15.39500 1.53200 32.17800
O  16.29200 2.17800 31.59400
O  14.81100 1.80000 33.34600
C  15.01800 3.16300 33.75400
H  19.15500 -4.62000 31.00400
H  18.30700 -4.61800 24.57900
H  14.19100 0.38100 25.20600
H  17.31700 -0.77000 32.69700
H  17.90000 -3.66100 32.94600
H  19.90400 -1.91400 31.66500
H  20.00300 -2.92700 32.98500
H  19.25000 -1.30500 33.27800
H  15.79100 -3.15600 33.49100
H  14.68600 -1.87800 32.98300
H  15.18200 -2.04700 35.48400
H  14.80200 -0.57800 34.76700
H  21.17700 -6.48400 29.13900
H  19.73100 -7.62000 28.95400
H  19.88400 -6.43300 30.33200
H  20.71200 -7.99900 27.12300
H  22.09700 -6.94200 26.72500
H  21.47100 -8.01200 25.52000
H  16.17000 -3.46500 23.16600
H  15.95100 -0.55700 23.53000
H  18.65700 -1.94000 23.27900
H  17.56200 -1.40300 22.04600
H  18.13000 -3.08800 22.03800
H  13.84700 -2.73600 23.85900
H  14.28500 -2.47800 22.16200
H  13.70500 -0.03200 22.78100
H  12.44500 -0.88700 23.81700
H  12.51600 -1.34300 22.16700
H  13.18500 2.18600 26.10300
H  12.68000 2.88400 27.68200
H  11.74800 1.64900 26.94800
H  13.98500 0.04600 32.36100
H  14.42600 3.87000 33.17200
H  16.04500 3.52900 33.73700
H  14.64300 3.11300 34.77600
Mg -10.33800 38.39800 40.95400
C  -8.45200 35.41900 40.70900
C  -8.05600 40.13800 39.18200
C  -12.58600 40.87000 40.62800
C  -12.93000 36.34000 42.42400
N  -8.66600 37.70600 39.78700
C  -7.95300 36.51800 39.96700
C  -6.61000 36.53300 39.34000
C  -6.54900 38.05100 38.82700
C  -7.86100 38.71400 39.27000
C  -5.18400 38.75500 39.27100
C  -6.38700 35.58000 38.16200
C  -4.95800 35.10200 38.21000
H  -3.95200 35.53900 37.10000
N  -10.26000 40.34800 40.13200
C  -9.19100 40.93300 39.47800
C  -9.49200 42.29600 39.15000
C  -10.86300 42.49400 39.52100
C  -11.25700 41.20500 40.15900
C  -8.59900 43.15800 38.36700
C  -11.65000 43.77800 39.26100
O  -11.20000 44.65600 38.51000
C  -13.07800 43.98300 39.78900
N  -12.46300 38.48600 41.38200
C  -13.17400 39.67100 41.13700
C  -14.71600 39.49400 41.38100
C  -14.77200 37.97600 41.83700
C  -13.27200 37.56000 41.94100
C  -15.24400 40.47500 42.46500
C  -15.57500 36.93600 40.92200
C  -16.91600 36.35800 41.58000
N  -10.64500 36.32300 41.49400
C  -11.72600 35.67700 42.09500
C  -11.31600 34.28200 42.36700
C  -9.98900 34.21200 41.92800
C  -9.64000 35.41600 41.34100
C  -12.12700 33.25200 43.05600
C  -8.87300 33.30100 41.86500
O  -8.85800 32.16700 42.31700
C  -7.78500 34.02600 41.05500
C  -6.53100 34.14600 41.88000
O  -5.74800 33.24500 42.12400
O  -6.30800 35.43100 42.31000
C  -5.16500 35.80700 43.14400
H  -7.25000 40.77800 38.81800
H  -13.31200 41.67800 40.51500
H  -13.73300 35.79400 42.92300
H  -5.82200 36.42800 40.08600
H  -6.64300 38.12200 37.74300
H  -4.38300 38.01800 39.21700
H  -5.23700 39.11700 40.29800
H  -5.03800 39.62600 38.63200
H  -6.71200 36.13400 37.28100
H  -7.02000 34.69400 38.21700
H  -5.07100 34.02300 38.10600
H  -4.42500 35.30200 39.14000
H  -7.75100 42.67100 37.88600
H  -8.21000 44.01600 38.91400
H  -9.18200 43.61100 37.56500
H  -13.02600 43.72400 40.84600
H  -13.62100 43.24500 39.19900
H  -13.36200 45.00600 39.54000
H  -15.17600 39.47300 40.39300
H  -15.16800 37.94400 42.85200
H  -14.39000 40.95600 42.94100
H  -15.84600 39.93900 43.19900
H  -15.88700 41.18900 41.95000
H  -14.92500 36.10500 40.64900
H  -15.81100 37.33700 39.93700
H  -17.66800 37.07400 41.24700
H  -16.83800 36.24200 42.66100
H  -17.27700 35.44200 41.11200
H  -12.28700 32.33600 42.48800
H  -13.04400 33.79700 43.27800
H  -11.79500 32.91800 44.03900
H  -7.41300 33.42800 40.22200
H  -4.26500 35.76100 42.53100
H  -5.01400 35.21600 44.04700
H  -5.41600 36.81500 43.47300

