158

Mg 45.79000 6.39400 48.13000
C  43.50800 8.92300 47.34600
C  43.52200 4.12900 47.00600
C  48.28500 4.12100 48.03400
C  48.25100 8.95300 48.68700
N  43.78800 6.48400 47.19500
C  43.05700 7.62000 47.16700
C  41.65700 7.33100 46.63100
C  41.57500 5.81000 46.94800
C  43.06100 5.43700 46.98300
C  40.75400 5.34800 48.18600
C  41.61000 7.70900 45.08600
C  40.22400 8.18500 44.59900
H  39.66000 7.48600 43.36500
N  45.89900 4.43900 47.75900
C  44.85700 3.66400 47.34000
C  45.34700 2.30400 47.17700
C  46.74600 2.29100 47.36100
C  47.01600 3.70500 47.76800
C  44.39200 1.24200 46.64800
C  47.61000 1.09600 47.26000
O  47.08900 -0.04200 47.14400
C  48.99300 1.01300 47.32000
N  47.96600 6.55400 48.30400
C  48.74900 5.42400 48.28500
C  50.16400 5.70300 48.74800
C  50.09400 7.16800 49.31400
C  48.75000 7.60800 48.68400
C  50.91800 4.62400 49.71700
C  51.23400 8.07600 48.92500
C  51.48100 9.28900 49.94600
N  45.90700 8.53200 48.18500
C  46.92700 9.42500 48.39200
C  46.38700 10.80000 48.26100
C  45.07800 10.64800 47.87800
C  44.81800 9.23800 47.78400
C  47.09800 12.07300 48.57200
C  43.81500 11.32800 47.56100
O  43.62700 12.56000 47.57500
C  42.78500 10.19700 47.20800
C  41.77500 10.28000 48.35000
O  41.95200 9.94400 49.48700
O  40.53300 10.64100 47.83300
C  39.32300 10.54000 48.65100
H  42.69300 3.42000 46.95400
H  49.13100 3.43200 48.08200
H  48.89900 9.73900 49.07800
H  40.90100 7.90100 47.17100
H  41.08000 5.31800 46.11000
H  39.72300 5.09200 47.94300
H  40.83000 6.17800 48.88800
H  41.20600 4.42700 48.55500
H  42.02800 6.91400 44.46900
H  42.39600 8.43600 44.88000
H  40.29800 9.25900 44.42600
H  39.46300 7.99500 45.35500
H  44.92200 0.53300 46.01200
H  43.57300 1.76100 46.15000
H  43.88800 0.84300 47.52800
H  49.26700 -0.03900 47.24900
H  49.31300 1.25300 48.33400
H  49.46900 1.57700 46.51800
H  50.69600 5.80900 47.80300
H  49.88400 7.14500 50.38300
H  50.29200 3.82800 50.12000
H  51.45600 5.14700 50.50700
H  51.74700 4.16800 49.17600
H  51.07000 8.66200 48.02100
H  52.20700 7.62400 48.73400
H  52.38700 9.05500 50.50600
H  50.58900 9.47300 50.54500
H  51.68700 10.23700 49.45000
H  46.86600 12.33900 49.60300
H  46.77000 12.92000 47.96900
H  48.17100 11.88100 48.54400
H  42.35700 10.38900 46.22400
H  39.24900 11.47100 49.21200
H  39.35100 9.68400 49.32600
H  38.38500 10.43400 48.10600
Mg 47.37500 25.77300 27.62500
C  48.17400 28.18200 30.15300
C  47.02400 23.49500 30.13900
C  46.91800 23.40600 25.21800
C  48.91000 27.83600 25.26300
N  47.51300 25.89100 29.81400
C  47.72700 26.97000 30.66600
C  47.59300 26.64800 32.11100
C  47.50300 25.08300 32.05200
C  47.33900 24.81400 30.60900
C  48.72000 24.28300 32.70900
C  46.44500 27.45600 32.78900
C  45.84300 26.96200 34.12900
H  45.80300 27.93200 35.28900
N  46.90600 23.72900 27.63300
C  46.79500 22.97000 28.82900
C  46.29200 21.63400 28.53000
C  46.19000 21.60200 27.04700
C  46.74400 22.89100 26.55400
C  46.10700 20.56800 29.55600
C  45.69700 20.48800 26.15700
O  45.75800 20.59300 24.93600
C  45.13500 19.25500 26.64400
N  47.79700 25.62500 25.51000
C  47.52300 24.58100 24.69100
C  47.89800 24.87400 23.21400
C  48.08200 26.42700 23.25400
C  48.32100 26.63900 24.75700
C  49.03600 23.94800 22.73800
C  46.92200 27.29000 22.65000
C  47.35500 28.49800 21.79800
N  48.29000 27.64800 27.63900
C  48.93300 28.26800 26.63100
C  49.34600 29.59200 27.13400
C  49.06600 29.59600 28.51800
C  48.47200 28.38000 28.79100
C  49.88000 30.70000 26.32400
C  49.15600 30.38900 29.76400
O  49.68200 31.51200 29.93100
C  48.58100 29.48400 30.93500
C  49.62700 29.28800 31.95500
O  50.54000 28.40900 32.00900
O  49.25900 30.05900 33.06000
C  49.82400 29.57200 34.31700
H  46.87300 22.71000 30.88400
H  46.85000 22.67700 24.40800
H  49.32600 28.48200 24.48800
H  48.58400 26.90400 32.48400
H  46.65000 24.77100 32.65500
H  49.51000 24.91900 33.10800
H  49.24900 23.71600 31.94300
H  48.33600 23.58200 33.45000
H  45.61000 27.55200 32.09600
H  46.90800 28.43000 32.94900
H  46.22100 25.96600 34.36100
H  44.77700 26.77000 34.01100
H  45.07400 20.22500 29.51300
H  46.19400 20.88000 30.59600
H  46.77700 19.76000 29.26400
H  44.21600 19.40400 27.20900
H  45.92700 18.72800 27.17500
H  44.78000 18.72600 25.76000
H  47.04900 24.60900 22.58500
H  49.03800 26.52000 22.73900
H  49.38100 23.38000 23.60100
H  49.80900 24.57500 22.29400
H  48.52800 23.26800 22.05400
H  46.31500 27.63900 23.48500
H  46.22900 26.66300 22.08900
H  47.45000 29.37600 22.43800
H  46.53400 28.65200 21.09800
H  48.26300 28.32500 21.22000
H  49.16100 31.06600 25.59100
H  50.81100 30.47900 25.80300
H  50.09400 31.47100 27.06500
H  47.71300 29.89600 31.45100
H  50.90800 29.48400 34.23700
H  49.29400 28.64100 34.51500
H  49.63400 30.33900 35.06900

