158

Mg 41.57400 7.95100 29.77700
C  43.25600 9.39700 32.45400
C  39.43800 6.44400 31.99000
C  39.82200 6.78800 27.12500
C  44.02800 9.07200 27.56000
N  41.53400 7.73200 31.99900
C  42.13100 8.59600 32.89700
C  41.57200 8.36300 34.37100
C  40.43600 7.29100 34.15600
C  40.50000 7.06400 32.61700
C  40.61100 5.90600 34.89500
C  41.12700 9.73300 34.83500
C  40.93700 9.92500 36.35200
H  41.62400 11.04500 37.11100
N  39.80000 7.01000 29.61200
C  39.06100 6.41700 30.59400
C  37.79800 6.00000 30.06900
C  37.86100 6.19300 28.63000
C  39.14900 6.70400 28.37700
C  36.64100 5.48400 30.89800
C  36.74200 6.03500 27.63700
O  36.88200 6.18000 26.42900
C  35.33900 5.77400 28.17200
N  41.94400 7.86600 27.64100
C  41.08600 7.31900 26.79300
C  41.60500 7.47500 25.30300
C  42.76400 8.55100 25.45500
C  42.96000 8.49700 26.96500
C  41.95500 6.16600 24.63000
C  42.59700 9.98000 24.87100
C  41.33600 10.73900 25.13600
N  43.32500 8.89800 29.91400
C  44.23200 9.31500 28.89500
C  45.35000 10.03000 29.57700
C  44.97500 10.13000 30.91400
C  43.81800 9.38700 31.09500
C  46.52700 10.53800 28.81100
C  45.33200 10.75800 32.17700
O  46.32100 11.51700 32.41800
C  44.28500 10.29500 33.20400
C  45.02900 9.64300 34.36600
O  45.98900 8.89300 34.29600
O  44.48000 10.11500 35.51200
C  44.98500 9.74300 36.88900
H  38.66700 6.26300 32.74200
H  39.32000 6.50100 26.19900
H  44.77000 9.39800 26.82900
H  42.33900 8.00800 35.06000
H  39.44100 7.58400 34.49200
H  39.84800 5.81400 35.66800
H  41.56300 5.77400 35.40900
H  40.39400 5.08800 34.20800
H  40.21200 9.89300 34.26500
H  41.78200 10.57200 34.60200
H  41.17000 8.92400 36.71600
H  39.90400 10.27100 36.35300
H  36.68700 4.41700 30.67500
H  35.62600 5.81600 30.67800
H  36.72500 5.49300 31.98400
H  35.14400 6.61200 28.84100
H  35.25200 4.87200 28.77800
H  34.59800 5.71400 27.37500
H  40.79200 7.80300 24.65500
H  43.66400 8.11700 25.02000
H  43.02100 6.20700 24.40700
H  41.27400 6.03300 23.78900
H  41.73200 5.35000 25.31800
H  42.96100 10.14300 23.85600
H  43.37000 10.52900 25.40800
H  41.01800 11.23100 24.21700
H  41.43600 11.66000 25.71100
H  40.58200 10.13600 25.64300
H  46.84900 9.77600 28.10200
H  47.35500 10.90300 29.41900
H  46.11600 11.32400 28.17700
H  43.85200 11.21400 33.59800
H  46.04700 9.51200 36.80100
H  44.31500 9.06400 37.41600
H  44.95700 10.67200 37.45800
Mg 29.85200 58.59700 39.21800
C  27.13400 56.54500 38.27200
C  32.00500 55.87800 38.79900
C  32.52100 60.70200 39.42800
C  27.61800 61.26600 39.07400
N  29.59500 56.42800 38.60500
C  28.37200 55.85200 38.36500
C  28.64300 54.37600 37.96100
C  30.17900 54.08700 38.22400
C  30.66400 55.54800 38.51800
C  30.55800 53.14000 39.32900
C  28.35300 54.03300 36.44000
C  28.73200 54.97900 35.30900
H  27.84200 55.20800 34.11600
N  32.01300 58.26400 39.26900
C  32.63900 57.08100 39.12800
C  34.00500 57.31500 39.26700
C  34.25500 58.65700 39.60500
C  32.91700 59.28900 39.35800
C  35.00300 56.08900 39.36500
C  35.50700 59.34500 40.04900
O  36.51200 58.61300 40.09700
C  35.66300 60.82900 40.39300
N  30.02300 60.62800 39.16300
C  31.22400 61.28000 39.42100
C  30.97200 62.76600 39.51400
C  29.50800 62.94500 39.21500
C  28.99200 61.49000 39.18000
C  31.58600 63.21800 40.87700
C  29.25500 63.60200 37.76100
C  28.07700 64.67800 37.76100
N  27.75800 58.90800 38.75100
C  27.00100 60.05800 38.76200
C  25.57700 59.67200 38.55400
C  25.58800 58.27500 38.25300
C  26.94500 57.93900 38.45300
C  24.37500 60.57100 38.66200
C  24.80300 57.15000 37.89900
O  23.62700 57.00400 37.61600
C  25.75700 55.99800 37.81100
C  25.29000 54.88800 38.66700
O  25.64300 54.57900 39.75200
O  24.39800 54.08400 38.04500
C  23.98400 52.79600 38.57300
H  32.56200 54.94000 38.74800
H  33.38900 61.35300 39.54800
H  27.00700 62.15600 39.23800
H  28.02900 53.75000 38.60900
H  30.78300 53.84100 37.35100
H  29.71400 52.50000 39.59000
H  30.71700 53.66800 40.27000
H  31.45000 52.52400 39.21400
H  27.26700 53.95200 36.48400
H  28.77400 53.03400 36.32000
H  29.60000 54.47200 34.88700
H  29.13600 55.93300 35.64600
H  35.12200 55.72200 38.34600
H  34.71700 55.30700 40.06900
H  35.96100 56.43500 39.75100
H  34.93300 61.17500 41.12500
H  35.56400 61.37000 39.45100
H  36.67700 60.95200 40.77400
H  31.63300 63.30600 38.83600
H  29.07400 63.57800 39.99000
H  31.65600 62.46800 41.66500
H  30.85700 63.94600 41.23000
H  32.53400 63.75400 40.83300
H  28.95700 62.82500 37.05800
H  30.17600 64.10600 37.46700
H  27.39200 64.41700 36.95500
H  28.48700 65.68700 37.71800
H  27.65000 64.60900 38.76200
H  24.23200 60.82100 39.71300
H  23.54200 60.11800 38.12400
H  24.39000 61.52500 38.13600
H  25.64500 55.63600 36.78900
H  24.35400 51.95800 37.98300
H  22.89500 52.79800 38.55100
H  24.43300 52.69800 39.56100

