158

Mg 41.15500 9.68100 30.13500
C  43.13000 11.05100 32.95400
C  38.87400 8.72300 32.55600
C  39.38400 8.29300 27.74200
C  43.53600 10.60100 28.10200
N  41.04400 9.85700 32.50800
C  41.94800 10.53500 33.42200
C  41.43800 10.44700 34.83700
C  40.10200 9.53700 34.71900
C  39.96400 9.34500 33.16700
C  40.16600 8.15700 35.46300
C  41.21700 11.78200 35.54600
C  40.26300 11.77200 36.74600
H  40.71200 11.86300 38.16700
N  39.34900 8.66400 30.18300
C  38.49500 8.40400 31.23500
C  37.31900 7.82100 30.67900
C  37.47800 7.68800 29.28800
C  38.75600 8.20900 28.99500
C  36.17900 7.27600 31.56400
C  36.42400 7.20100 28.22600
O  36.65600 7.00400 27.04400
C  34.97100 6.88200 28.63600
N  41.46100 9.37600 28.23700
C  40.58900 8.81300 27.39200
C  40.99000 8.92000 25.89500
C  42.26000 9.83200 26.05200
C  42.45500 9.96500 27.58600
C  41.27500 7.55300 25.24600
C  42.03900 11.24000 25.33000
C  42.25800 11.38700 23.85700
N  43.02900 10.49900 30.36800
C  43.89400 10.86300 29.43900
C  45.13000 11.44700 29.94200
C  44.82700 11.61300 31.28400
C  43.60100 10.90400 31.55100
C  46.26200 12.01600 29.10700
C  45.23400 12.25900 32.52900
O  46.12000 13.01500 32.76400
C  44.16900 11.91000 33.63500
C  44.80600 11.25400 34.79100
O  45.30900 10.13400 34.75500
O  44.71000 11.98600 35.95900
C  45.05100 11.21800 37.22200
H  38.12200 8.54000 33.32700
H  38.77500 7.95700 26.90000
H  44.25100 10.94100 27.35000
H  42.16200 9.90400 35.44600
H  39.16900 10.02400 35.00500
H  40.16000 7.34900 34.73100
H  39.26200 8.08600 36.06700
H  41.05600 8.26600 36.08300
H  40.94300 12.62700 34.91300
H  42.17900 12.10500 35.94300
H  39.91800 10.74000 36.81500
H  39.45400 12.48400 36.58200
H  36.00500 6.22500 31.33500
H  35.21000 7.71700 31.32900
H  36.35200 7.56100 32.60100
H  34.29200 6.61400 27.82700
H  34.68300 7.85800 29.02600
H  35.03600 6.13700 29.43000
H  40.29100 9.41300 25.22000
H  43.10400 9.47700 25.46100
H  41.42000 6.81200 26.03200
H  42.24200 7.68200 24.75900
H  40.59800 7.32700 24.42300
H  42.64000 12.03800 25.76500
H  40.98400 11.43600 25.52300
H  41.44200 11.92900 23.37900
H  42.43400 10.39500 23.44200
H  43.14000 12.01900 23.74900
H  46.56400 12.99300 29.48400
H  46.04000 12.15400 28.04900
H  47.07400 11.29000 29.15800
H  43.70500 12.82000 34.01400
H  45.61300 11.92100 37.83600
H  45.66400 10.32800 37.08200
H  44.16200 10.91900 37.77800
Mg 47.50200 25.33900 28.20100
C  48.38200 27.58300 30.82400
C  46.77200 23.01300 30.65300
C  46.89200 23.11800 25.83300
C  48.62400 27.60300 25.91700
N  47.61800 25.31300 30.54500
C  47.87700 26.37100 31.36800
C  47.65000 26.04900 32.90100
C  47.36900 24.47100 32.80700
C  47.25200 24.20100 31.25100
C  48.53000 23.63200 33.37200
C  46.53900 26.92800 33.55800
C  45.81600 26.35900 34.76200
H  45.45600 27.35900 35.92000
N  46.79200 23.38400 28.26400
C  46.50700 22.59200 29.33400
C  46.09000 21.29300 28.92500
C  46.01300 21.35600 27.42400
C  46.50400 22.69300 27.10600
C  45.67900 20.22900 29.91100
C  45.47400 20.41200 26.40100
O  45.30300 20.74900 25.23900
C  45.16100 19.00400 26.86100
N  47.70200 25.39500 26.13700
C  47.49300 24.27400 25.34800
C  47.99200 24.45000 23.90500
C  48.40500 25.95500 23.86100
C  48.20000 26.36500 25.37000
C  49.04800 23.43400 23.55300
C  47.50300 26.84000 22.92700
C  48.13800 27.74800 21.92800
N  48.21300 27.29100 28.27500
C  48.63900 28.11700 27.24400
C  49.18200 29.37900 27.77300
C  49.04900 29.22100 29.18300
C  48.55000 27.91800 29.40000
C  49.73200 30.54900 26.94700
C  49.27500 29.87000 30.46900
O  49.68400 30.99800 30.68800
C  48.86300 28.80600 31.53500
C  50.04800 28.49900 32.46300
O  51.05800 27.93100 32.16500
O  49.69400 28.86700 33.75400
C  50.54900 28.26100 34.76400
H  46.52800 22.26900 31.41400
H  46.81800 22.41700 24.99900
H  48.98900 28.23400 25.10400
H  48.60200 26.21900 33.40300
H  46.35000 24.27000 33.13800
H  49.02300 23.04600 32.59600
H  48.05700 22.91500 34.04200
H  49.18200 24.35300 33.86500
H  45.84700 27.09100 32.73200
H  47.01900 27.85600 33.86700
H  46.24700 25.45000 35.18200
H  44.92400 25.85400 34.39200
H  46.42200 19.44000 30.02000
H  44.76800 19.78200 29.51300
H  45.48600 20.56700 30.92900
H  44.83100 18.46000 25.97700
H  44.43100 18.91900 27.66500
H  46.06400 18.57900 27.30100
H  47.08700 24.27800 23.32300
H  49.43400 26.19600 23.59700
H  49.97800 23.96000 23.76900
H  49.07300 23.32600 22.46800
H  49.00800 22.43400 23.98400
H  46.94200 27.53300 23.55400
H  46.64100 26.36400 22.45900
H  47.67800 27.66400 20.94300
H  49.21000 27.57800 21.82000
H  47.98300 28.76300 22.29300
H  49.51500 30.45200 25.88300
H  50.79700 30.65300 27.15700
H  49.27400 31.43400 27.38900
H  47.94200 29.02500 32.07500
H  51.39300 28.88500 35.06100
H  50.90800 27.25100 34.56800
H  49.88500 28.13200 35.61900

