158

Mg 23.96300 -4.88900 45.42200
C  25.92800 -2.64600 43.54400
C  21.23600 -3.90900 43.58200
C  22.31900 -7.62700 46.35700
C  26.86000 -6.16500 46.93800
N  23.64200 -3.42700 43.84500
C  24.55400 -2.55700 43.31200
C  23.96400 -1.66700 42.27300
C  22.36700 -1.99600 42.33500
C  22.34100 -3.10100 43.43200
C  21.51400 -0.75200 42.69100
C  24.57600 -1.83000 40.83300
C  25.26600 -0.64400 40.13600
H  24.89700 -0.42600 38.63600
N  21.98100 -5.60800 45.10000
C  21.00200 -5.05900 44.33300
C  19.86100 -5.88000 44.25800
C  20.23500 -6.98600 45.07200
C  21.56200 -6.80000 45.51100
C  18.53000 -5.54500 43.52000
C  19.32700 -8.19300 45.25000
O  18.14900 -8.15000 44.87800
C  19.79600 -9.47700 45.77100
N  24.60400 -6.79300 46.39200
C  23.65700 -7.62200 46.81300
C  24.27700 -8.70000 47.69000
C  25.74200 -8.16800 47.97700
C  25.77200 -6.96100 47.09500
C  23.39900 -9.10800 48.88900
C  26.92100 -9.17200 47.69600
C  27.96100 -9.23200 48.86200
N  26.02900 -4.45500 45.39000
C  27.01000 -5.10200 46.08700
C  28.22600 -4.48700 45.62700
C  27.91100 -3.46100 44.68200
C  26.49600 -3.51900 44.51100
C  29.60800 -4.78800 46.10600
C  28.44000 -2.55900 43.82000
O  29.59300 -2.15800 43.49700
C  27.13100 -1.82700 43.14900
C  26.99000 -0.59300 43.90100
O  26.07700 -0.22300 44.65500
O  28.01700 0.23300 43.63500
C  27.96500 1.66100 44.06600
H  20.39000 -3.60700 42.96000
H  21.82700 -8.53100 46.72400
H  27.72900 -6.54900 47.47700
H  24.10800 -0.60800 42.48500
H  21.98200 -2.47000 41.43200
H  22.05200 0.19300 42.76300
H  21.21100 -1.00000 43.70800
H  20.68900 -0.56000 42.00600
H  23.73900 -2.08500 40.18400
H  25.29600 -2.64300 40.92900
H  26.34500 -0.65400 40.28400
H  24.92600 0.31200 40.53600
H  18.22700 -6.34400 42.84400
H  18.72400 -4.71800 42.83700
H  17.69000 -5.44000 44.20600
H  19.16400 -10.30900 45.46200
H  19.96200 -9.53800 46.84700
H  20.78200 -9.56300 45.31300
H  24.43000 -9.56700 47.04700
H  25.80100 -7.84000 49.01500
H  23.92100 -9.25600 49.83500
H  22.76600 -9.94000 48.58100
H  22.70000 -8.30400 49.11700
H  27.41400 -8.92100 46.75700
H  26.44900 -10.13500 47.50300
H  28.46500 -10.19700 48.90700
H  27.38900 -9.25800 49.78900
H  28.69700 -8.42700 48.85400
H  29.42400 -5.78300 46.51300
H  29.80200 -4.12700 46.95100
H  30.15300 -4.73200 45.16500
H  27.27500 -1.58900 42.09500
H  27.19100 2.04500 44.73000
H  28.20700 2.36300 43.26800
H  28.80200 1.76800 44.75600
Mg 1.65300 41.02100 25.74500
C  2.74400 41.37600 28.99800
C  -1.30700 39.86700 26.78600
C  1.23200 40.28300 22.47600
C  4.94100 42.23500 24.70800
N  0.70000 40.97400 27.67100
C  1.40900 41.00800 28.88600
C  0.35500 40.86200 30.00800
C  -0.80600 40.09000 29.33900
C  -0.45800 40.27000 27.83000
C  -0.92200 38.60600 29.63500
C  -0.04700 42.24200 30.64900
C  -0.08900 42.33800 32.17400
H  -0.87900 41.18800 32.84200
N  0.19100 40.19800 24.77000
C  -1.03400 39.83800 25.37500
C  -1.94800 39.41700 24.28700
C  -1.20900 39.37100 23.06300
C  0.13500 39.94300 23.39400
C  -3.38400 38.98800 24.66500
C  -1.60900 39.04300 21.62700
O  -0.86700 39.05000 20.68900
C  -3.05100 38.71000 21.36300
N  2.86400 41.38800 23.81500
C  2.44300 40.90600 22.69100
C  3.48300 41.16700 21.55100
C  4.46700 42.06600 22.19200
C  4.08200 41.87300 23.70300
C  4.19600 39.92700 20.85300
C  4.49000 43.56200 21.69700
C  3.16900 44.33100 21.98200
N  3.48500 41.72200 26.65700
C  4.71200 42.06200 26.08900
C  5.62300 42.42400 27.13800
C  4.95600 42.20300 28.37600
C  3.65700 41.77000 27.99400
C  7.05400 42.80000 26.87700
C  4.99900 42.10100 29.77300
O  5.89600 42.32600 30.56100
C  3.53800 41.62200 30.25200
C  3.63000 40.40400 31.13700
O  4.28200 39.32900 30.93700
O  2.91200 40.66100 32.26100
C  2.71800 39.50100 33.06600
H  -2.22600 39.39800 27.14400
H  1.27100 40.00100 21.42200
H  5.88700 42.69500 24.41500
H  0.77900 40.24900 30.80300
H  -1.73000 40.58800 29.63600
H  -0.10100 38.23500 30.24800
H  -0.87800 38.07600 28.68300
H  -1.85000 38.27300 30.10000
H  -0.98600 42.65100 30.27500
H  0.69200 42.98000 30.33800
H  -0.48200 43.32500 32.41500
H  0.93500 42.34500 32.54700
H  -4.08700 38.99000 23.83200
H  -3.81200 39.60600 25.45500
H  -3.45700 37.98900 25.09400
H  -3.66800 39.59900 21.49600
H  -3.46100 37.83800 21.87200
H  -3.19700 38.51100 20.30100
H  2.84400 41.68500 20.83500
H  5.51400 41.76400 22.15500
H  4.27800 39.15200 21.61500
H  5.21100 40.26200 20.63800
H  3.64500 39.53600 19.99700
H  4.51400 43.44700 20.61400
H  5.35400 44.08800 22.10300
H  3.15800 45.10600 21.21500
H  3.31700 44.72400 22.98800
H  2.24300 43.75900 22.02300
H  7.28800 43.56200 27.62000
H  7.28000 43.24300 25.90700
H  7.65400 41.89100 26.84700
H  2.96900 42.37400 30.79900
H  2.47900 38.55500 32.58000
H  1.78600 39.83300 33.52200
H  3.45900 39.38600 33.85700

