158

Mg 8.98900 2.62000 26.92800
C  10.52000 1.00700 29.70400
C  7.07500 4.49800 29.23700
C  7.68000 4.22900 24.38900
C  10.59900 0.44300 24.81800
N  8.79500 2.66600 29.25800
C  9.60600 1.99000 30.12600
C  9.23000 2.33400 31.58000
C  8.13300 3.55000 31.42100
C  7.86900 3.53600 29.89500
C  6.84600 3.41800 32.26400
C  10.46100 2.76200 32.42500
C  10.32900 3.79200 33.55300
H  11.33800 3.65100 34.70900
N  7.61100 4.20000 26.83200
C  7.04800 4.80800 27.86600
C  6.43500 6.03500 27.36600
C  6.51200 6.04900 25.93900
C  7.23100 4.78700 25.64000
C  5.70200 6.95800 28.36800
C  5.93400 6.96900 24.84800
O  6.12800 6.75300 23.66800
C  5.20300 8.21400 25.21900
N  9.01100 2.26600 24.88400
C  8.35700 3.05100 24.01200
C  8.58800 2.60000 22.53100
C  9.75500 1.58200 22.74900
C  9.71800 1.31000 24.22200
C  7.36700 2.05600 21.77600
C  11.18400 1.98600 22.24300
C  11.28600 2.11300 20.65900
N  10.21400 0.94000 27.19900
C  10.77400 0.13900 26.19000
C  11.65700 -0.72800 26.81800
C  11.56700 -0.43800 28.22500
C  10.66200 0.61500 28.38900
C  12.45500 -1.67200 26.13000
C  12.00000 -0.85800 29.57600
O  12.77800 -1.73900 29.88900
C  11.45000 0.14300 30.50400
C  10.77700 -0.64700 31.56400
O  9.71200 -1.25800 31.46900
O  11.64700 -0.63800 32.68800
C  11.00200 -0.94400 33.98300
H  6.53500 5.14200 29.93500
H  7.40500 4.88300 23.55900
H  11.07700 -0.24400 24.11600
H  8.77200 1.45400 32.03000
H  8.57100 4.51200 31.68700
H  6.88000 2.52700 32.88900
H  5.96800 3.47700 31.62000
H  6.74000 4.33300 32.84800
H  11.27400 2.93100 31.71900
H  10.77500 1.82100 32.87600
H  9.31700 3.79800 33.95700
H  10.70500 4.77200 33.25700
H  6.34300 7.29400 29.18300
H  4.77800 6.57900 28.80600
H  5.63100 7.89800 27.82100
H  4.96500 8.67800 24.26200
H  5.94600 8.78100 25.78000
H  4.31200 7.97700 25.80200
H  8.98400 3.45900 21.98900
H  9.58900 0.66600 22.18100
H  6.57000 2.02700 22.51900
H  7.63400 1.16200 21.21400
H  7.09300 2.74800 20.98000
H  11.92700 1.26300 22.57800
H  11.45200 2.96500 22.63900
H  10.37700 1.97800 20.07300
H  11.90500 1.28300 20.31600
H  11.74900 3.03700 20.31300
H  13.34200 -2.01900 26.66000
H  12.77600 -1.35700 25.13700
H  11.94100 -2.61600 25.94900
H  12.22900 0.76100 30.95000
H  10.59400 -1.94700 33.85900
H  10.15000 -0.28700 34.15800
H  11.85700 -0.78000 34.63900
Mg -5.23700 24.99100 25.79600
C  -3.53600 26.41800 28.49100
C  -6.49700 22.61900 27.93900
C  -6.28900 23.19200 23.10300
C  -3.12300 26.89000 23.57400
N  -4.83500 24.41000 28.02400
C  -4.25600 25.21700 28.89900
C  -4.61700 24.87500 30.34500
C  -5.39400 23.50900 30.12100
C  -5.62900 23.49600 28.59200
C  -4.54900 22.31000 30.53500
C  -5.54800 25.97200 31.02500
C  -5.47100 26.08300 32.55700
H  -4.88800 24.91700 33.41200
N  -6.35300 23.29500 25.53300
C  -6.80100 22.46900 26.57100
C  -7.71500 21.55600 26.01100
C  -7.66900 21.65900 24.59900
C  -6.72400 22.78000 24.37900
C  -8.57500 20.59700 26.84400
C  -8.33500 20.80300 23.44000
O  -8.27700 21.24300 22.33500
C  -9.27700 19.52600 23.69700
N  -4.70900 25.00200 23.61500
C  -5.38600 24.18700 22.70900
C  -4.93400 24.47400 21.25300
C  -3.98200 25.71900 21.42400
C  -3.92000 25.91500 22.94600
C  -4.29500 23.15800 20.70600
C  -4.57900 27.04800 20.78200
C  -3.60700 28.20500 20.37700
N  -3.81400 26.49600 25.93400
C  -3.02400 27.14400 25.00300
C  -2.22800 28.17100 25.69800
C  -2.44800 27.95400 27.07700
C  -3.30900 26.89100 27.16600
C  -1.41400 29.28100 25.09700
C  -1.97200 28.34800 28.41500
O  -1.15300 29.15500 28.86600
C  -2.78700 27.41300 29.45300
C  -1.76500 26.69500 30.29900
O  -0.89300 25.90400 29.95100
O  -2.04600 27.09600 31.55900
C  -0.98600 26.64000 32.51200
H  -7.08300 22.09800 28.69900
H  -6.65800 22.76900 22.16600
H  -2.59700 27.66100 23.00600
H  -3.66600 24.82600 30.87400
H  -6.37500 23.48400 30.59400
H  -5.11300 21.66400 31.20700
H  -3.60900 22.61300 30.99700
H  -4.26100 21.64200 29.72300
H  -6.58600 25.76700 30.76600
H  -5.32300 26.95600 30.61400
H  -6.39700 26.43800 33.00900
H  -4.83300 26.94800 32.73600
H  -9.58300 21.00000 26.74500
H  -8.41000 20.52000 27.91900
H  -8.61000 19.59500 26.41700
H  -9.46600 19.17500 22.68300
H  -10.25500 19.86400 24.03900
H  -8.73800 18.84400 24.35600
H  -5.83700 24.71900 20.69200
H  -3.01800 25.48600 20.97000
H  -4.26300 22.41900 21.50600
H  -3.29400 23.38800 20.34200
H  -4.89100 22.68200 19.92700
H  -5.27200 27.58000 21.43400
H  -5.18300 26.68700 19.95000
H  -4.03200 28.49100 19.41500
H  -2.59400 27.80600 20.31900
H  -3.70300 29.02500 21.08900
H  -1.57800 30.20200 25.65700
H  -1.67200 29.53300 24.06900
H  -0.34000 29.09400 25.08300
H  -3.40600 28.15500 29.95600
H  -0.36300 27.46700 32.85200
H  -0.33800 25.80800 32.23500
H  -1.51500 26.21900 33.36700

