158

Mg 25.80900 0.55400 29.40400
C  27.63400 0.74900 32.38700
C  22.88100 0.97000 31.25000
C  24.04400 0.18300 26.50400
C  28.77000 -0.02800 27.62800
N  25.30200 0.84200 31.57200
C  26.21000 0.87900 32.59500
C  25.55600 1.26500 33.92400
C  24.06100 1.19400 33.56900
C  24.04500 1.01600 32.03000
C  23.04700 0.44500 34.47600
C  26.15900 2.52100 34.66900
C  26.48800 2.33100 36.12500
H  25.46300 2.83900 37.12000
N  23.71900 0.60800 28.93500
C  22.66900 0.80600 29.80700
C  21.45700 0.67600 29.02600
C  21.80400 0.41300 27.69900
C  23.22700 0.34300 27.67400
C  20.10300 0.67000 29.66100
C  20.90400 0.12300 26.54000
O  21.26200 -0.26500 25.39900
C  19.48700 0.33600 26.58400
N  26.35700 -0.00700 27.30400
C  25.46600 0.08300 26.35500
C  26.19800 0.13700 24.99400
C  27.63800 0.40600 25.39100
C  27.64200 0.04500 26.83600
C  25.96000 -1.22500 24.17500
C  28.07200 1.95100 25.14300
C  28.30400 2.39800 23.72600
N  27.79800 0.28800 29.85700
C  28.82500 -0.01700 29.07200
C  29.96000 -0.20300 29.94400
C  29.58800 0.09600 31.22000
C  28.21700 0.43900 31.14800
C  31.28300 -0.76600 29.55700
C  30.01100 0.18900 32.60800
O  31.11800 -0.04900 33.14100
C  28.82000 0.62200 33.38300
C  28.60900 -0.31900 34.46300
O  28.04400 -1.43100 34.34800
O  29.13900 0.19000 35.62500
C  29.07700 -0.53400 36.91900
H  21.90900 1.20000 31.69200
H  23.58700 0.23500 25.51300
H  29.72100 0.01500 27.09400
H  25.92900 0.37200 34.42500
H  23.76200 2.23800 33.66300
H  22.55400 -0.27300 33.82100
H  22.39900 1.24200 34.84000
H  23.55500 -0.02200 35.32000
H  25.31400 3.20600 34.74400
H  26.97900 3.00200 34.13600
H  27.44300 2.85500 36.14800
H  26.72200 1.28400 36.31800
H  20.17300 0.66000 30.74900
H  19.60800 -0.20300 29.23500
H  19.57700 1.56400 29.32500
H  19.01100 -0.53400 27.03800
H  19.17300 0.45100 25.54600
H  19.27700 1.30200 27.04200
H  25.82400 0.99800 24.43800
H  28.38300 -0.21100 24.88900
H  25.80000 -1.04200 23.11300
H  25.12300 -1.82900 24.52600
H  26.90800 -1.75500 24.26600
H  28.99700 2.15000 25.68500
H  27.32100 2.60000 25.59200
H  27.70500 3.26300 23.44100
H  28.13800 1.56700 23.04000
H  29.32300 2.75800 23.58600
H  31.98500 0.06800 29.53400
H  31.14600 -1.39600 28.67800
H  31.59900 -1.43600 30.35600
H  29.08800 1.59700 33.79000
H  29.80100 -0.08400 37.59800
H  29.16200 -1.61800 36.84500
H  28.13900 -0.25100 37.39700
Mg 47.04900 25.00700 28.92700
C  47.85500 27.44700 31.36100
C  46.02700 22.99900 31.46500
C  46.54200 22.73200 26.62700
C  48.84100 26.99600 26.55100
N  47.03900 25.20700 31.18900
C  47.19600 26.34100 31.90800
C  46.98200 26.14500 33.43000
C  46.49900 24.62500 33.50000
C  46.48300 24.24500 31.92000
C  47.30400 23.67600 34.42100
C  46.01900 27.18700 33.94700
C  46.10300 27.59700 35.44000
H  46.94700 26.79100 36.39900
N  46.24400 23.10600 29.00200
C  45.89600 22.45700 30.14400
C  45.36100 21.20600 29.72600
C  45.54800 21.15700 28.34700
C  46.08500 22.37700 27.91800
C  44.86900 20.15600 30.70800
C  45.27800 19.98700 27.39300
O  45.54000 20.03100 26.21300
C  44.83300 18.68800 28.04700
N  47.53300 25.00000 26.84800
C  47.20500 23.85900 26.13300
C  47.52400 24.13800 24.66300
C  48.27300 25.50700 24.58900
C  48.17200 25.88600 26.08800
C  48.28000 22.97200 23.85500
C  47.37500 26.40500 23.64400
C  46.20200 27.20800 24.26600
N  48.08000 26.83100 28.86500
C  48.69600 27.52500 27.85000
C  49.12300 28.78200 28.32900
C  48.83800 28.79600 29.70100
C  48.22900 27.60000 29.98800
C  49.57600 29.87600 27.36600
C  48.94400 29.64700 30.83600
O  49.41100 30.80500 30.85300
C  48.33400 28.78400 32.01600
C  49.33200 28.62300 33.08200
O  50.30800 27.85500 33.06800
O  49.01800 29.54400 34.00400
C  49.98600 29.46800 35.15200
H  45.43500 22.46300 32.21000
H  46.35200 22.01300 25.82800
H  49.34200 27.55200 25.75700
H  47.98400 26.14700 33.86000
H  45.43600 24.67300 33.73500
H  48.07900 24.29400 34.87400
H  47.64900 22.84500 33.80600
H  46.66700 23.42200 35.26700
H  45.06900 26.65200 33.94400
H  45.90900 28.07200 33.32000
H  45.04600 27.63500 35.70100
H  46.48300 28.61600 35.51800
H  45.50400 19.27300 30.79100
H  43.89600 19.77000 30.40500
H  44.82800 20.57700 31.71300
H  45.56800 18.04100 28.52700
H  44.65800 18.08500 27.15600
H  43.87600 19.01500 28.45200
H  46.53300 24.16400 24.20900
H  49.32800 25.52900 24.31600
H  49.21500 23.38400 23.47600
H  47.64600 22.71400 23.00700
H  48.39000 22.14600 24.55800
H  46.92000 25.74400 22.90600
H  48.03700 27.03300 23.04700
H  46.08000 27.17500 25.34800
H  45.26900 26.84500 23.83500
H  46.43900 28.21900 23.93500
H  49.42700 29.74000 26.29500
H  50.63400 30.06300 27.54900
H  48.95700 30.74100 27.60700
H  47.46700 29.37000 32.32400
H  50.97300 29.01100 35.08600
H  49.30300 29.04700 35.88900
H  50.21400 30.48800 35.46400

