158

Mg 30.51400 58.49300 39.82200
C  27.78800 56.30200 39.10400
C  32.66600 55.72800 39.11800
C  32.95100 60.61800 39.90200
C  28.16700 61.17800 39.68400
N  30.26700 56.27900 39.19500
C  29.01500 55.66000 39.12600
C  29.27100 54.30400 38.49100
C  30.76500 54.00100 38.98900
C  31.30300 55.40300 39.07400
C  30.86200 53.12600 40.21100
C  29.18700 54.31800 36.93900
C  28.39900 53.18800 36.25600
H  27.90900 53.49300 34.79500
N  32.55500 58.16800 39.57000
C  33.27500 57.03800 39.15500
C  34.61000 57.30900 39.03800
C  34.80000 58.67300 39.35500
C  33.40500 59.27500 39.64300
C  35.74900 56.34200 38.73500
C  36.09900 59.49200 39.44700
O  37.15300 58.95700 39.11600
C  36.25900 60.89300 39.79800
N  30.48600 60.61400 39.77500
C  31.67100 61.18700 40.03300
C  31.60100 62.59200 40.15400
C  30.11800 62.87200 39.93900
C  29.54400 61.47500 39.73000
C  32.28400 63.27200 41.44300
C  29.78000 63.86000 38.72200
C  29.63400 63.27900 37.25700
N  28.38700 58.76700 39.57000
C  27.59900 59.93100 39.52800
C  26.24900 59.48200 39.37700
C  26.28000 58.13000 39.06400
C  27.59300 57.69300 39.28800
C  25.01300 60.34900 39.36400
C  25.41800 57.00700 38.63500
O  24.19800 56.85000 38.42100
C  26.43700 55.76800 38.60000
C  25.96700 54.55400 39.33600
O  26.10700 54.41500 40.54900
O  25.31700 53.62900 38.53800
C  24.67700 52.41700 39.17900
H  33.30500 54.85100 38.99000
H  33.77600 61.30000 40.11700
H  27.50300 62.02900 39.84700
H  28.66000 53.49700 38.89600
H  31.16600 53.44100 38.14500
H  31.53100 52.33200 39.87900
H  29.91000 52.83500 40.65300
H  31.32800 53.72200 40.99600
H  30.20500 54.16900 36.57900
H  28.86000 55.31500 36.64400
H  27.41800 53.06000 36.71200
H  29.08900 52.34500 36.22400
H  36.15100 56.34000 37.72200
H  35.32500 55.33800 38.77000
H  36.54700 56.38400 39.47500
H  35.89400 61.14800 40.79300
H  35.58100 61.40800 39.11700
H  37.19600 61.32900 39.45200
H  32.18000 62.96300 39.30800
H  29.72100 63.29800 40.86000
H  32.85800 62.70800 42.17900
H  31.49400 63.77300 42.00200
H  32.85100 64.16100 41.16900
H  30.43500 64.72200 38.59600
H  28.83600 64.29600 39.05000
H  28.58100 63.02300 37.13200
H  30.21100 62.35900 37.17300
H  29.84000 64.01900 36.48400
H  24.46700 60.35300 40.30700
H  24.30600 59.98400 38.61900
H  25.23000 61.38800 39.11800
H  26.54600 55.49800 37.55000
H  25.27700 52.04900 40.01100
H  24.58800 51.66500 38.39500
H  23.67900 52.62600 39.56500
Mg -12.06700 16.48300 41.14900
C  -8.93000 14.97000 41.00500
C  -10.85600 19.30500 39.99000
C  -15.25300 17.55000 40.94200
C  -13.29600 13.26100 42.12600
N  -10.09600 16.94400 40.39600
C  -8.91100 16.29100 40.53000
C  -7.74800 17.13600 40.16700
C  -8.39900 18.54700 40.15500
C  -9.90100 18.26300 40.14000
C  -7.95700 19.35600 41.38000
C  -7.05200 16.69100 38.84300
C  -5.50100 16.94100 38.76500
H  -5.02400 17.24400 37.30400
N  -12.99800 18.16900 40.47700
C  -12.30800 19.24300 40.00700
C  -13.20300 20.28200 39.68700
C  -14.52000 19.80900 39.93100
C  -14.31200 18.49200 40.50300
C  -12.62500 21.56200 39.14500
C  -15.72100 20.58600 39.73600
O  -15.78500 21.69700 39.20300
C  -17.04300 19.99600 39.92800
N  -14.09200 15.42400 41.16500
C  -15.17700 16.18900 41.29400
C  -16.36000 15.44600 41.95000
C  -15.67100 14.15000 42.43400
C  -14.26900 14.26100 41.80200
C  -17.20300 16.22900 43.00800
C  -16.43400 12.82500 42.25200
C  -16.76800 12.06300 43.52800
N  -11.34500 14.39700 41.37500
C  -11.92200 13.27900 41.87300
C  -10.93000 12.24200 42.15500
C  -9.67700 12.89200 41.83100
C  -10.02000 14.17900 41.35300
C  -11.24600 10.90000 42.62200
C  -8.24800 12.68800 41.76300
O  -7.53000 11.72500 42.08400
C  -7.71200 14.00700 41.06700
C  -6.53900 14.58800 41.79300
O  -6.55200 14.85600 42.95400
O  -5.42400 14.50200 41.00600
C  -4.20700 14.88900 41.66100
H  -10.40700 20.28500 39.81400
H  -16.23500 17.97200 41.16900
H  -13.79600 12.41100 42.59700
H  -7.00100 17.02300 40.95300
H  -8.11000 19.05700 39.23700
H  -8.83800 19.56600 41.98600
H  -7.44800 20.25400 41.02600
H  -7.29200 18.77800 42.02100
H  -7.53800 17.15200 37.98300
H  -7.17000 15.62100 38.67700
H  -4.95400 16.03200 39.01300
H  -5.41000 17.78800 39.44500
H  -11.72100 21.40200 38.55800
H  -12.34900 22.22200 39.96700
H  -13.31200 22.12100 38.51100
H  -17.85700 20.49300 39.39900
H  -17.21900 19.88500 40.99800
H  -16.92800 19.02800 39.44000
H  -16.98500 15.25300 41.07800
H  -15.40700 14.31700 43.47800
H  -16.73000 17.19600 43.17900
H  -17.22200 15.67600 43.94700
H  -18.15200 16.47100 42.52900
H  -15.82600 12.19400 41.60500
H  -17.36600 13.02900 41.72400
H  -16.51600 12.65900 44.40600
H  -16.30000 11.07900 43.50300
H  -17.84400 11.90700 43.60000
H  -10.30800 10.36400 42.76400
H  -11.92700 10.25500 42.06500
H  -11.77000 10.84800 43.57600
H  -7.35200 13.58500 40.12900
H  -3.57500 14.01200 41.52100
H  -4.17000 14.99000 42.74600
H  -3.82200 15.80100 41.20400

