158

Mg 41.80000 8.86200 29.64500
C  43.62300 10.02800 32.39200
C  39.52800 7.40000 31.76500
C  40.08700 7.82200 27.03700
C  44.19700 10.26900 27.55700
N  41.60500 8.66300 31.84600
C  42.43000 9.31500 32.76600
C  41.94500 8.93800 34.21000
C  40.81300 7.95000 33.94600
C  40.64000 7.94400 32.40400
C  41.13100 6.45200 34.45400
C  41.51300 10.32600 34.93100
C  40.91400 10.11900 36.36000
H  41.15300 11.32900 37.31000
N  40.05100 7.68400 29.37100
C  39.23700 7.25200 30.38000
C  38.12300 6.54800 29.80500
C  38.19900 6.76400 28.37200
C  39.49500 7.39600 28.21900
C  37.07000 5.80100 30.56600
C  37.16000 6.31700 27.30200
O  37.44800 6.39600 26.11600
C  35.71700 5.70200 27.65400
N  42.12700 9.05900 27.51800
C  41.22300 8.54100 26.64200
C  41.78600 8.67100 25.18100
C  42.90900 9.71600 25.37700
C  43.08100 9.82400 26.92200
C  42.33500 7.37100 24.63300
C  42.61100 11.10400 24.69000
C  41.33200 11.77600 25.03400
N  43.58700 9.92100 29.87200
C  44.48100 10.45200 28.89600
C  45.56200 11.20800 29.56000
C  45.26700 10.93700 30.93400
C  44.11200 10.17200 31.10200
C  46.72900 11.96600 29.00300
C  45.79300 11.19700 32.30700
O  46.84400 11.74100 32.73600
C  44.62800 10.68100 33.28200
C  45.27300 9.66500 34.15800
O  45.97400 8.70700 33.81700
O  44.79700 9.84100 35.50100
C  45.20000 8.87600 36.50700
H  38.89400 6.98700 32.55300
H  39.51900 7.47000 26.17300
H  44.97500 10.64800 26.89100
H  42.70600 8.50800 34.86000
H  39.87900 8.11600 34.48300
H  41.17700 5.75800 33.61400
H  40.41300 6.04900 35.16900
H  42.06000 6.40100 35.02200
H  40.80900 10.91200 34.34100
H  42.32400 11.03000 35.11900
H  41.14200 9.18600 36.87500
H  39.83500 10.09200 36.20800
H  37.33900 5.85000 31.62100
H  37.02200 4.78400 30.17800
H  36.07100 6.19100 30.37300
H  35.78600 4.85200 28.33300
H  35.28100 5.43100 26.69200
H  35.24700 6.60000 28.05500
H  41.01600 9.14200 24.57100
H  43.83600 9.37700 24.91600
H  42.12200 6.57300 25.34400
H  43.37000 7.34400 24.29200
H  41.78100 7.13400 23.72400
H  42.64600 10.90300 23.61900
H  43.48000 11.71600 24.92900
H  41.48800 12.79700 25.38200
H  40.94200 11.24900 25.90500
H  40.57400 11.73700 24.25200
H  47.64300 11.38400 29.12000
H  46.78400 12.91800 29.53100
H  46.37600 12.23000 28.00600
H  44.21600 11.50500 33.86400
H  46.05800 8.24100 36.28500
H  44.35000 8.20300 36.62600
H  45.38400 9.60000 37.30000
Mg 6.16900 54.76800 40.15800
C  5.66800 51.32700 39.83500
C  9.48200 54.19200 39.12600
C  6.52400 58.12200 39.76000
C  2.69900 55.25600 40.55100
N  7.43200 52.92200 39.57800
C  6.98200 51.67800 39.48800
C  8.15900 50.76600 39.02500
C  9.47900 51.64000 39.09400
C  8.80900 52.99300 39.40600
C  10.42900 51.34000 40.28300
C  8.02100 49.94200 37.71800
C  7.22600 50.51500 36.51800
H  6.88200 52.05500 36.52700
N  7.80500 56.01600 39.55000
C  9.11000 55.59500 39.20900
C  9.81600 56.80900 38.92800
C  9.03500 57.92600 39.25100
C  7.72600 57.38700 39.53200
C  11.27000 56.74900 38.50900
C  9.47500 59.44900 39.20600
O  10.66800 59.66900 39.01200
C  8.58400 60.59000 39.40500
N  4.80800 56.33600 39.84600
C  5.25700 57.65600 39.98100
C  4.17000 58.61100 40.29100
C  2.98800 57.73700 40.57600
C  3.51000 56.35200 40.35200
C  4.45700 59.58400 41.42100
C  1.76000 58.06500 39.74200
C  1.70500 57.79100 38.21300
N  4.47200 53.54700 40.36700
C  3.14900 53.88200 40.62400
C  2.34100 52.62800 40.88900
C  3.29500 51.60400 40.55200
C  4.58100 52.22800 40.23400
C  0.87100 52.57400 41.17200
C  3.47700 50.13200 40.42700
O  2.57600 49.28100 40.62900
C  5.01600 49.88800 39.98800
C  5.02500 48.93300 38.89400
O  4.35400 49.02400 37.88000
O  5.74200 47.84200 39.10600
C  5.57800 46.61400 38.35400
H  10.51400 54.18800 38.76900
H  6.67500 59.20100 39.82700
H  1.65900 55.35500 40.87000
H  8.20300 49.99500 39.79400
H  10.07800 51.68800 38.18500
H  11.20200 52.07300 40.51700
H  10.83300 50.33200 40.19200
H  9.95400 51.22900 41.25800
H  7.63700 48.94100 37.91800
H  9.03200 49.80500 37.33500
H  6.36900 49.85500 36.37800
H  7.90700 50.36200 35.68100
H  11.56100 57.58500 37.87300
H  11.53200 55.79700 38.04600
H  11.84000 56.88400 39.42900
H  7.77500 60.60600 38.67500
H  9.03400 61.56200 39.60500
H  8.30400 60.29000 40.41500
H  3.87000 59.24000 39.45300
H  2.61400 57.80400 41.59800
H  5.52100 59.78400 41.54600
H  3.93200 59.27800 42.32600
H  4.00500 60.53300 41.13000
H  1.41300 59.08200 39.92700
H  0.97700 57.51800 40.26700
H  1.39900 58.66000 37.63100
H  1.01200 56.98400 37.97800
H  2.65100 57.35000 37.90000
H  0.30600 53.19800 40.48000
H  0.68500 53.00800 42.15400
H  0.65200 51.51000 41.08100
H  5.60300 49.41600 40.77700
H  5.44300 46.95200 37.32700
H  4.67100 46.09300 38.66200
H  6.40800 45.91200 38.43300

