158

Mg 17.59300 0.02300 27.31100
C  16.06400 1.92800 29.80600
C  19.06900 -1.90500 29.68700
C  19.15000 -1.72900 24.79600
C  16.00800 1.97700 25.02600
N  17.67300 0.18500 29.48200
C  16.94600 0.99200 30.33200
C  17.19400 0.54800 31.80900
C  18.31600 -0.52400 31.71700
C  18.37400 -0.80700 30.16600
C  19.62100 -0.03900 32.33900
C  15.86400 0.07100 32.56800
C  15.56700 0.70500 33.96900
H  16.65500 1.21000 34.87400
N  18.83800 -1.67200 27.30200
C  19.35000 -2.31000 28.35400
C  20.20500 -3.40600 27.96600
C  20.20900 -3.41000 26.54100
C  19.34200 -2.24100 26.12900
C  20.83100 -4.34600 28.87100
C  20.82400 -4.39600 25.60300
O  20.89800 -4.22700 24.36700
C  21.52600 -5.69100 26.13500
N  17.62900 0.15800 25.29600
C  18.38100 -0.61700 24.46500
C  18.35400 -0.19700 22.97900
C  17.35800 0.98600 23.00900
C  16.94200 1.00000 24.51500
C  19.74200 0.22400 22.43200
C  16.09100 0.74500 22.06500
C  15.65000 1.81900 21.09900
N  16.31600 1.70900 27.32500
C  15.70400 2.36500 26.33800
C  14.69800 3.37700 26.82100
C  14.85500 3.22700 28.22800
C  15.79500 2.18800 28.48000
C  13.85300 4.27000 26.08900
C  14.43800 3.70500 29.53200
O  13.72700 4.65700 29.75900
C  15.30000 2.94900 30.62700
C  16.04000 3.89400 31.40500
O  17.23200 4.17100 31.35000
O  15.28600 4.14200 32.58800
C  15.99900 5.04700 33.49700
H  19.54800 -2.41800 30.52400
H  19.64900 -2.17900 23.93500
H  15.38900 2.57500 24.35400
H  17.48700 1.38700 32.44100
H  17.99300 -1.44800 32.19700
H  20.41000 0.08500 31.59700
H  19.98600 -0.74400 33.08500
H  19.53300 0.94800 32.79500
H  15.71600 -0.99200 32.75400
H  15.06000 0.33200 31.88000
H  15.06100 -0.05500 34.56400
H  14.75800 1.41300 33.79000
H  20.22100 -5.24600 28.79500
H  20.88900 -3.95300 29.88600
H  21.89200 -4.47100 28.65000
H  22.45400 -5.45000 26.65400
H  21.64800 -6.36900 25.29100
H  20.82600 -6.29700 26.71000
H  18.00000 -1.06000 22.41400
H  17.82900 1.95900 22.87100
H  20.46500 0.09000 23.23700
H  19.78600 1.19800 21.94400
H  20.04200 -0.51300 21.68600
H  15.30800 0.37300 22.72600
H  16.36000 -0.11000 21.44400
H  15.91300 1.63400 20.05700
H  16.17500 2.73300 21.37500
H  14.56800 1.88000 21.21800
H  13.50700 3.93700 25.11000
H  14.42300 5.18400 25.92000
H  12.93200 4.56000 26.59500
H  14.60500 2.44200 31.29600
H  15.27400 5.30100 34.27000
H  16.34700 5.88200 32.88900
H  16.81200 4.42000 33.86500
Mg 48.65300 15.85600 29.34000
C  46.38900 15.30300 31.92400
C  50.83000 17.23300 31.59800
C  50.77500 16.29100 26.71400
C  46.30200 14.44200 27.12100
N  48.54100 16.30200 31.57300
C  47.60000 15.84000 32.42100
C  48.10200 15.99400 33.86500
C  49.34100 16.94500 33.71300
C  49.67300 16.76600 32.19100
C  49.18100 18.41500 34.16300
C  48.50500 14.60500 34.45400
C  48.36100 14.26300 36.00700
H  48.08200 15.52200 36.84300
N  50.53200 16.65600 29.18700
C  51.23300 17.21900 30.20100
C  52.43200 17.70100 29.63600
C  52.48800 17.38900 28.25700
C  51.19500 16.82000 27.98400
C  53.45000 18.47600 30.46700
C  53.50500 17.77400 27.14900
O  53.26500 17.68100 25.91100
C  54.83100 18.25600 27.61400
N  48.53100 15.38800 27.15100
C  49.47300 15.81200 26.31900
C  49.11300 15.54900 24.83400
C  47.77400 14.77100 25.02900
C  47.49500 14.86200 26.48900
C  48.92400 16.85600 24.07900
C  47.79700 13.24000 24.66000
C  47.00600 12.71600 23.48200
N  46.69900 15.21600 29.41100
C  45.85400 14.63100 28.45500
C  44.62000 14.18700 29.01000
C  44.84100 14.42700 30.39200
C  46.04900 15.13900 30.56700
C  43.56300 13.29400 28.28900
C  44.27000 14.26500 31.72400
O  43.28500 13.63600 32.04600
C  45.22000 14.84100 32.75400
C  44.44200 15.78500 33.60600
O  44.26300 16.92600 33.26800
O  44.16800 15.20700 34.80900
C  43.40200 16.07200 35.76900
H  51.55100 17.67100 32.29200
H  51.41200 16.32000 25.82800
H  45.58600 14.03700 26.40300
H  47.28700 16.43200 34.44100
H  50.24600 16.65000 34.24500
H  49.63900 19.18100 33.53700
H  49.69300 18.52300 35.11900
H  48.13400 18.70300 34.25900
H  49.54400 14.48300 34.14700
H  47.93700 13.90400 33.84300
H  49.27900 13.72800 36.25000
H  47.51800 13.58100 36.11900
H  53.99900 19.19500 29.85800
H  54.09900 17.73800 30.93900
H  52.86100 19.05400 31.17900
H  54.62400 19.32100 27.72200
H  55.62400 18.04500 26.89600
H  55.01200 17.72400 28.54700
H  49.81200 14.95300 24.24700
H  46.95700 15.16700 24.42700
H  49.13700 16.59300 23.04300
H  49.53900 17.68400 24.43400
H  47.90500 17.23600 24.15000
H  47.47300 12.61200 25.49000
H  48.84200 12.97900 24.49200
H  46.85700 13.55300 22.79900
H  45.98700 12.43000 23.74400
H  47.50900 11.88200 22.99300
H  42.92200 13.93300 27.68200
H  42.96300 12.68100 28.96100
H  44.04400 12.61300 27.58700
H  45.59600 14.01300 33.35500
H  42.39600 15.65300 35.76700
H  43.35800 17.14000 35.55200
H  43.92600 16.08700 36.72500

