158

Mg 43.11100 42.67900 26.57900
C  42.32800 44.70700 29.14600
C  44.29400 40.31400 28.89000
C  44.19100 40.88700 24.01100
C  42.31400 45.35500 24.37200
N  43.32500 42.48800 28.80000
C  42.78300 43.47300 29.61000
C  42.85600 43.01500 31.08700
C  43.77500 41.66500 30.97500
C  43.81600 41.43400 29.47900
C  45.21200 41.76400 31.62700
C  41.46300 42.86400 31.71900
C  41.38400 42.07100 32.99800
H  40.51800 42.50300 34.10500
N  44.08400 40.86800 26.45000
C  44.40400 40.00700 27.53500
C  45.00500 38.80400 26.96900
C  44.83300 38.89300 25.52600
C  44.36800 40.23700 25.26800
C  45.53500 37.66100 27.81900
C  45.17400 37.85500 24.48000
O  44.83600 38.05000 23.28900
C  45.72400 36.56100 24.82800
N  43.34000 43.09800 24.52100
C  43.75300 42.16300 23.64500
C  43.63500 42.59300 22.19400
C  42.74000 43.89900 22.33200
C  42.71400 44.12000 23.80300
C  45.03400 42.86300 21.68900
C  41.24600 43.69700 21.82300
C  40.40900 42.67300 22.60400
N  42.48300 44.70800 26.61700
C  42.22300 45.66400 25.70000
C  41.67800 46.83900 26.38700
C  41.70400 46.47800 27.73300
C  42.27500 45.20900 27.83600
C  41.19200 48.07900 25.67000
C  41.33700 46.86100 29.06300
O  40.79200 47.87200 29.42100
C  41.77300 45.77900 30.04600
C  42.78400 46.30600 31.03200
O  43.94500 46.57500 30.88900
O  42.18100 46.48600 32.27800
C  42.94200 47.21300 33.28200
H  44.65500 39.60600 29.63900
H  44.50900 40.33100 23.12600
H  42.03700 46.11200 23.63600
H  43.39600 43.68400 31.75700
H  43.23300 40.83000 31.41900
H  45.21900 40.97700 32.38100
H  45.40500 42.70900 32.13300
H  46.02700 41.63700 30.91400
H  40.83600 42.30300 31.02700
H  40.93100 43.77600 31.99000
H  42.37700 41.85700 33.39300
H  40.89400 41.12600 32.76200
H  45.62200 37.95800 28.86400
H  46.55200 37.49400 27.46400
H  44.96700 36.73500 27.71700
H  46.21200 36.26700 23.89800
H  45.12700 35.70100 25.13300
H  46.60400 36.57600 25.46900
H  43.04300 41.81400 21.71300
H  43.17600 44.71600 21.75600
H  45.14000 42.35000 20.73300
H  45.86300 42.42200 22.24300
H  45.18100 43.94200 21.63200
H  41.37500 43.43300 20.77400
H  40.91500 44.73500 21.83800
H  39.75400 42.07500 21.97000
H  39.74300 43.14500 23.32600
H  41.03500 42.04700 23.24000
H  41.96600 48.30700 24.93800
H  41.09500 48.93700 26.33500
H  40.26400 47.84200 25.15000
H  40.89000 45.38600 30.55000
H  43.72000 47.92500 33.00300
H  43.29400 46.43200 33.95500
H  42.44400 47.94900 33.91300
Mg 10.46100 48.17900 26.19200
C  8.36600 47.80000 29.00900
C  12.78600 49.41200 28.01700
C  12.06900 48.66500 23.25400
C  7.47500 47.32800 24.30500
N  10.39900 48.71000 28.25700
C  9.60000 48.24300 29.28000
C  10.19800 48.64200 30.66300
C  11.44000 49.42700 30.24100
C  11.56500 49.16100 28.73200
C  11.60600 50.94600 30.60100
C  10.54800 47.45300 31.62400
C  9.96900 47.48100 33.07100
H  10.49200 46.44900 34.14300
N  12.21000 48.89800 25.74500
C  13.16000 49.25200 26.65100
C  14.49100 49.22800 26.05100
C  14.25500 49.08400 24.69300
C  12.79900 48.81800 24.47400
C  15.71500 49.56400 26.82600
C  15.23100 49.03900 23.55900
O  14.89600 48.88800 22.40800
C  16.67800 49.30600 23.82200
N  9.92600 47.98500 24.05400
C  10.73900 48.33400 23.02800
C  10.01400 48.32000 21.68600
C  8.69200 47.58300 22.04200
C  8.63800 47.70900 23.58900
C  9.85300 49.74000 21.19100
C  8.49100 46.15500 21.37400
C  9.30100 45.05000 22.00000
N  8.36600 47.53000 26.46700
C  7.37900 47.20200 25.66700
C  6.14600 46.92200 26.43200
C  6.49000 47.15100 27.71300
C  7.82900 47.52400 27.69400
C  4.77100 46.56300 25.91300
C  5.94100 47.06600 29.07700
O  4.89300 46.61700 29.55300
C  7.21100 47.49200 29.96000
C  7.45700 46.27500 30.77400
O  7.96500 45.20400 30.37800
O  7.02400 46.51300 32.00500
C  7.00900 45.33000 32.85500
H  13.58400 49.63200 28.72900
H  12.61800 48.88400 22.33600
H  6.68600 46.93300 23.66200
H  9.64100 49.44200 31.14900
H  12.40700 49.07600 30.60100
H  12.33800 51.00500 31.40600
H  10.75600 51.52200 30.96900
H  11.95100 51.44000 29.69300
H  11.63000 47.32900 31.56100
H  10.09700 46.60100 31.11500
H  8.88200 47.55400 33.07400
H  10.29500 48.41200 33.53500
H  16.20400 50.43500 26.39200
H  16.30800 48.64900 26.84400
H  15.36500 49.84700 27.81800
H  16.92700 50.36700 23.80300
H  17.14500 48.58000 23.15700
H  17.00100 49.04200 24.83000
H  10.37300 47.58800 20.96200
H  7.78500 48.10300 21.73600
H  8.82300 50.09100 21.25300
H  9.85600 49.78900 20.10200
H  10.64700 50.39500 21.55000
H  8.64000 46.15100 20.29400
H  7.42300 45.97300 21.48700
H  9.76400 45.41000 22.91900
H  10.04400 44.71000 21.27800
H  8.62600 44.27500 22.36200
H  4.88700 45.64300 25.34000
H  4.31800 47.41300 25.40400
H  4.16000 46.25700 26.76200
H  6.91800 48.30300 30.62700
H  6.73000 45.62300 33.86800
H  8.01400 44.91200 32.90000
H  6.24000 44.63300 32.52300

