158

Mg 40.98500 41.35000 25.90900
C  40.39400 43.41900 28.55000
C  42.23900 38.98700 28.48400
C  42.46500 39.49100 23.49100
C  40.08500 43.73300 23.68000
N  41.27000 41.15000 28.24800
C  40.91900 42.23100 29.04000
C  41.08700 41.83900 30.52200
C  41.82000 40.45400 30.49200
C  41.83400 40.17900 29.00400
C  43.19500 40.51100 31.15300
C  39.71900 41.89000 31.26600
C  39.66300 42.80200 32.46300
H  39.03600 42.31400 33.85700
N  42.08900 39.47700 25.92600
C  42.34300 38.66700 27.07600
C  43.01300 37.48600 26.54900
C  43.21300 37.57500 25.17800
C  42.56600 38.87300 24.80700
C  43.23900 36.22000 27.36800
C  43.79300 36.58100 24.06800
O  43.91600 36.81400 22.88700
C  44.16600 35.20100 24.54900
N  41.23400 41.51000 23.96000
C  41.87400 40.69300 23.14900
C  41.68500 41.07400 21.62400
C  40.65600 42.17100 21.75600
C  40.66200 42.55200 23.22300
C  42.91100 41.36400 20.78300
C  39.22600 41.84500 21.23400
C  38.32400 40.77500 21.99700
N  40.30400 43.24500 26.05600
C  39.94700 44.12200 25.04200
C  39.69100 45.39000 25.61100
C  39.83900 45.17900 27.00900
C  40.20700 43.82400 27.22600
C  39.39000 46.68100 24.89400
C  39.68300 45.80300 28.28200
O  39.36100 46.93900 28.66600
C  39.97100 44.69900 29.35500
C  41.03300 45.28000 30.27700
O  42.24200 44.95300 30.24500
O  40.39600 46.06400 31.24100
C  41.31500 46.85700 32.03000
H  42.56200 38.24300 29.21500
H  42.97400 39.06900 22.62200
H  39.79500 44.39400 22.86000
H  41.73200 42.58700 30.98400
H  41.19800 39.74400 31.03800
H  43.94600 40.59700 30.36800
H  43.48400 39.63700 31.73700
H  43.40900 41.35300 31.81100
H  39.23600 40.96300 31.57400
H  39.02800 42.36100 30.56600
H  38.94000 43.57900 32.21300
H  40.62200 43.31500 32.51600
H  44.25700 35.84000 27.28100
H  42.52200 35.46600 27.04300
H  43.17000 36.45000 28.43100
H  45.09500 35.32700 25.10400
H  44.27900 34.42500 23.79100
H  43.47400 34.75300 25.26200
H  41.20900 40.20000 21.17900
H  41.04600 43.06800 21.27500
H  43.83600 41.64300 21.28800
H  42.72400 42.06500 19.96900
H  43.00500 40.47400 20.16100
H  39.25000 41.65000 20.16200
H  38.73600 42.78200 21.49800
H  37.89300 41.28700 22.85700
H  38.82800 39.83100 22.20900
H  37.53000 40.59100 21.27400
H  38.92100 46.42500 23.94500
H  40.34300 47.16100 24.67000
H  38.68400 47.27100 25.47900
H  39.06200 44.53900 29.93400
H  42.22800 47.08300 31.47900
H  41.57500 46.39100 32.98000
H  40.80800 47.79600 32.25600
Mg 34.97400 49.15300 24.43100
C  35.17600 47.20900 27.33000
C  33.62700 51.65400 26.46500
C  34.68600 51.02700 21.67400
C  35.97500 46.33000 22.52800
N  34.27900 49.34000 26.65500
C  34.76800 48.51500 27.62300
C  34.42900 49.06500 29.06700
C  33.63300 50.38600 28.75700
C  33.79100 50.45300 27.17300
C  32.17200 50.59200 29.19400
C  35.66100 49.07100 30.01100
C  35.45700 48.42900 31.40500
H  34.00500 48.60500 32.02400
N  34.23200 51.07200 24.13300
C  33.80900 51.98500 25.07900
C  33.44000 53.20700 24.42700
C  33.75400 53.02700 23.03900
C  34.22800 51.65800 22.89200
C  32.99100 54.41400 25.32400
C  33.64800 54.10300 21.89900
O  33.98200 53.87600 20.73300
C  33.02900 55.50300 22.26900
N  35.27900 48.78600 22.41100
C  35.20500 49.75800 21.49500
C  35.60800 49.24800 20.06400
C  36.20700 47.81600 20.41800
C  35.83000 47.62700 21.83700
C  34.46500 49.34100 19.02300
C  37.75600 47.62600 20.37000
C  38.23600 46.18100 20.05900
N  35.33500 47.18500 24.74500
C  35.75200 46.19500 23.89000
C  35.87700 45.02300 24.62400
C  35.73000 45.35500 25.96300
C  35.34600 46.68200 26.00200
C  36.25900 43.73200 24.06700
C  35.74300 44.86000 27.34200
O  36.08000 43.82100 27.88900
C  35.35700 46.05900 28.25600
C  34.15500 45.73300 29.08000
O  33.04500 46.00100 28.69400
O  34.41300 44.95800 30.19100
C  33.33600 44.50600 31.05800
H  33.22300 52.43700 27.11000
H  34.54600 51.57300 20.73800
H  36.43100 45.54000 21.92700
H  33.70600 48.38200 29.51200
H  34.11700 51.18100 29.32500
H  31.95500 49.75700 29.86000
H  31.41000 50.64000 28.41700
H  32.01600 51.37000 29.94200
H  35.92500 50.12900 30.02000
H  36.47800 48.53600 29.52600
H  36.13000 48.73700 32.20500
H  35.68200 47.39100 31.16200
H  33.68200 55.22200 25.08200
H  32.93000 54.33800 26.41000
H  32.01300 54.81000 25.05000
H  33.13800 56.14000 21.39200
H  33.75700 55.86100 22.99700
H  31.98900 55.43100 22.58400
H  36.47700 49.81700 19.73400
H  35.67700 47.12400 19.76300
H  33.58900 49.73500 19.53900
H  34.09100 48.34900 18.77000
H  34.60400 50.00100 18.16700
H  38.00300 47.89400 21.39700
H  38.32100 48.23900 19.66700
H  38.83400 45.72100 20.84600
H  38.85600 46.21400 19.16400
H  37.44300 45.49000 19.77200
H  35.91700 43.00500 24.80400
H  37.30200 43.59700 23.78200
H  35.71200 43.56700 23.13900
H  36.26100 46.15100 28.85900
H  32.46700 45.16200 31.11700
H  33.69600 44.46000 32.08600
H  32.84000 43.58400 30.75300

