158

Mg 36.66800 49.79900 25.06400
C  36.63800 47.79300 28.02600
C  35.73800 52.34200 26.98400
C  36.46900 51.46800 22.33700
C  37.66100 46.87700 23.32900
N  36.02300 49.88900 27.26700
C  36.24400 49.06500 28.32500
C  35.96700 49.69700 29.66500
C  35.48700 51.10700 29.26200
C  35.74900 51.10400 27.70400
C  34.03000 51.49300 29.56800
C  37.16100 49.64300 30.72600
C  36.88000 49.16400 32.14700
H  35.41100 49.22200 32.69400
N  36.15800 51.74000 24.69300
C  35.89600 52.68200 25.60000
C  35.60300 53.89800 25.00600
C  35.78300 53.64400 23.58100
C  36.17200 52.25800 23.42800
C  35.03800 55.10700 25.78600
C  35.69600 54.56500 22.29300
O  35.86100 54.19600 21.16800
C  35.38200 55.98200 22.50600
N  36.72100 49.14200 23.07000
C  36.76900 50.05400 22.11200
C  36.87100 49.34600 20.79200
C  37.39100 47.89600 21.08700
C  37.20000 47.97000 22.60500
C  35.56500 49.42800 20.05200
C  38.87100 47.57900 20.57100
C  40.01700 48.56300 21.03500
N  37.11400 47.75400 25.50800
C  37.53600 46.67000 24.70600
C  37.83500 45.48600 25.50300
C  37.50600 45.90200 26.82800
C  37.06200 47.25500 26.74600
C  38.34700 44.18100 25.02500
C  37.56500 45.56300 28.19500
O  38.07900 44.57000 28.72700
C  36.93700 46.69900 28.97800
C  35.65500 46.22600 29.58400
O  34.59500 46.09600 29.04000
O  35.87000 45.89800 30.92300
C  34.63400 45.38300 31.56000
H  35.58500 53.20300 27.63700
H  36.43000 52.03600 21.40500
H  38.16300 46.12700 22.71400
H  35.09100 49.16400 30.03500
H  36.11600 51.89000 29.68600
H  33.56200 50.89900 30.35200
H  33.44500 51.46200 28.64800
H  34.04000 52.47600 30.03900
H  37.68000 50.59700 30.81800
H  38.01400 49.06600 30.36900
H  37.61300 49.74800 32.70300
H  37.21600 48.12800 32.17400
H  35.68000 55.88900 25.38100
H  35.21200 55.20700 26.85800
H  33.97900 55.30600 25.62200
H  36.25700 56.49800 22.90200
H  34.45900 56.20700 23.04100
H  35.27100 56.38300 21.49800
H  37.61300 49.88500 20.20400
H  36.79200 47.09900 20.64500
H  34.68700 49.36300 20.69500
H  35.53400 48.77900 19.17700
H  35.57000 50.40300 19.56400
H  38.97400 47.56000 19.48600
H  38.87700 46.52300 20.84100
H  40.61900 48.79300 20.15600
H  40.66500 47.88200 21.58500
H  39.68100 49.36500 21.69300
H  39.24800 44.43800 24.46800
H  37.53700 43.70600 24.47000
H  38.64000 43.50900 25.83200
H  37.42300 47.00100 29.90600
H  34.82400 45.27900 32.62900
H  34.33700 44.41900 31.14700
H  33.82100 46.08300 31.37000
Mg -11.78900 16.90600 41.14600
C  -8.63800 15.17800 40.97500
C  -10.17300 19.59800 39.80500
C  -14.78900 18.19600 40.53500
C  -13.31900 13.78000 42.01100
N  -9.60600 17.34200 40.55400
C  -8.52000 16.53800 40.63900
C  -7.23500 17.23400 40.06800
C  -7.73200 18.68000 39.88100
C  -9.29400 18.56600 40.14900
C  -7.11600 19.71300 40.97000
C  -6.68400 16.60600 38.67400
C  -5.13100 16.79800 38.58100
H  -4.63500 17.15800 37.18300
N  -12.40500 18.72000 40.36300
C  -11.57500 19.69100 39.83200
C  -12.40500 20.78800 39.35000
C  -13.76000 20.44000 39.57000
C  -13.71500 19.07600 40.16100
C  -11.75100 22.08600 38.85400
C  -15.02600 21.28600 39.18800
O  -14.87700 22.36500 38.68900
C  -16.31700 20.86200 39.42300
N  -13.77700 16.07600 41.21600
C  -14.80500 16.91900 41.12600
C  -16.12100 16.13400 41.47300
C  -15.64300 14.82600 42.21300
C  -14.16000 14.85100 41.77900
C  -17.18700 16.89500 42.32600
C  -16.39000 13.47800 41.78300
C  -16.16000 13.03700 40.40500
N  -11.14100 14.90100 41.43600
C  -11.85800 13.74300 41.73000
C  -10.98000 12.59200 41.81900
C  -9.71200 13.14100 41.49700
C  -9.85500 14.52700 41.33900
C  -11.37200 11.13500 42.04100
C  -8.30500 12.78600 41.38600
O  -7.68900 11.76600 41.55800
C  -7.58300 14.03200 40.96300
C  -6.44900 14.21000 41.85000
O  -6.63800 14.53800 43.00500
O  -5.25400 13.90300 41.28000
C  -4.14800 14.08100 42.18900
H  -9.61100 20.47300 39.47200
H  -15.74600 18.70300 40.39900
H  -13.78300 12.86800 42.39400
H  -6.44600 17.20400 40.81900
H  -7.53900 19.10900 38.89700
H  -6.40700 19.11200 41.53900
H  -7.83000 20.16100 41.66100
H  -6.66700 20.53400 40.41100
H  -7.07700 17.08200 37.77600
H  -7.08500 15.59300 38.62500
H  -4.76700 15.80500 38.84500
H  -4.93500 17.48100 39.40800
H  -11.75800 22.14500 37.76500
H  -10.71000 22.23900 39.13900
H  -12.33400 22.87200 39.33300
H  -16.60000 19.92300 38.94600
H  -16.96900 21.62000 38.99000
H  -16.62600 20.78800 40.46600
H  -16.52000 15.83800 40.50300
H  -15.69900 14.89100 43.30000
H  -17.05300 17.97700 42.33200
H  -17.27700 16.49400 43.33600
H  -18.16100 16.73900 41.86300
H  -17.42700 13.70800 42.02800
H  -16.01700 12.75000 42.50400
H  -15.66000 12.06900 40.38700
H  -15.56000 13.74600 39.83500
H  -17.10100 12.87900 39.87700
H  -10.86500 10.85100 42.96200
H  -11.02400 10.55900 41.18300
H  -12.41600 10.86000 42.19200
H  -7.08100 13.87200 40.00800
H  -4.18000 14.96900 42.82100
H  -3.23200 14.24300 41.62300
H  -4.02200 13.22000 42.84500

