158

Mg -1.16400 7.05500 26.34700
C  0.01200 9.34700 28.78100
C  -1.10300 4.61300 28.97500
C  -2.13100 4.79200 24.10500
C  -0.34900 9.34100 23.86800
N  -0.43900 6.96200 28.64800
C  -0.30500 8.09700 29.35400
C  -0.33000 7.72400 30.87400
C  -0.44500 6.21100 30.92800
C  -0.61200 5.86000 29.38100
C  0.71800 5.28400 31.48600
C  -1.53400 8.49200 31.50000
C  -1.60100 8.75100 33.04100
H  -0.39300 8.42700 33.97000
N  -1.66800 5.02100 26.51700
C  -1.52200 4.24800 27.64700
C  -2.07800 2.93600 27.34400
C  -2.30300 2.93300 25.89500
C  -2.00100 4.24700 25.44700
C  -2.22600 1.79700 28.30100
C  -2.80000 1.78100 25.04300
O  -2.92200 1.91500 23.86700
C  -3.10000 0.42000 25.56900
N  -1.19100 7.09800 24.28400
C  -1.78000 6.06200 23.64300
C  -2.07700 6.48800 22.15300
C  -1.68900 8.00900 22.10200
C  -0.99200 8.16600 23.45200
C  -1.37000 5.59400 21.13100
C  -2.83800 8.97200 22.01300
C  -2.72200 10.20900 21.08800
N  -0.31800 8.97500 26.29800
C  -0.11100 9.76700 25.25400
C  0.39000 11.03000 25.70100
C  0.29800 10.98300 27.08800
C  0.00500 9.63700 27.42900
C  0.86200 12.15900 24.85500
C  0.51900 11.72800 28.26900
O  0.95700 12.87100 28.49400
C  0.20100 10.72000 29.47400
C  1.39500 10.65400 30.36200
O  2.38200 9.95500 30.09100
O  1.27200 11.47800 31.44900
C  2.43900 11.36000 32.40200
H  -1.21200 3.94800 29.83400
H  -2.65000 4.14300 23.39700
H  -0.35800 10.11800 23.10000
H  0.56900 8.05100 31.39600
H  -1.30900 5.88100 31.50500
H  0.85300 4.52100 30.72000
H  0.63800 4.84500 32.48100
H  1.58500 5.94500 31.46400
H  -2.39200 7.83300 31.36700
H  -1.76800 9.44900 31.03500
H  -2.40800 8.10600 33.38600
H  -2.01100 9.71600 33.33700
H  -3.27200 1.50100 28.37800
H  -1.85900 2.15300 29.26400
H  -1.66700 0.91200 27.99700
H  -3.75700 -0.20200 24.96100
H  -3.56500 0.45700 26.55400
H  -2.16000 -0.12800 25.50400
H  -3.13200 6.29300 21.96400
H  -0.86900 8.19300 21.40800
H  -1.07800 6.22300 20.29000
H  -1.99700 4.73400 20.89700
H  -0.48300 5.26700 21.67400
H  -3.03900 9.41600 22.98900
H  -3.73900 8.42900 21.73000
H  -3.47400 10.16600 20.30000
H  -1.70600 10.36500 20.72700
H  -2.84600 11.10700 21.69400
H  0.85800 13.03200 25.50800
H  0.21100 12.34300 24.00100
H  1.89100 11.91900 24.58800
H  -0.63700 11.13400 30.03500
H  2.77600 12.26300 32.91000
H  3.34600 10.98300 31.92800
H  2.18500 10.69700 33.22900
Mg 55.29700 24.28600 44.51700
C  52.90600 26.55200 43.39700
C  53.43400 21.75000 43.11100
C  58.09100 22.24700 44.64700
C  57.35400 26.90400 45.25100
N  53.47200 24.18200 43.25400
C  52.62700 25.26100 42.98600
C  51.29200 24.72300 42.44900
C  51.36600 23.12500 42.61500
C  52.84000 22.99000 43.07000
C  50.29300 22.37300 43.49600
C  50.94300 25.05900 41.00100
C  49.49500 25.10700 40.49300
H  49.14800 24.96800 39.01500
N  55.68000 22.19800 44.03300
C  54.74300 21.37400 43.42000
C  55.37600 20.01400 43.26300
C  56.74100 20.11200 43.75500
C  56.92900 21.53200 44.17000
C  54.64200 18.85500 42.59400
C  57.81300 18.94800 43.81900
O  57.53000 17.82200 43.42100
C  59.15900 19.17600 44.41800
N  57.33400 24.50500 44.95000
C  58.26200 23.53700 45.05700
C  59.67100 24.08300 45.30500
C  59.41800 25.61000 45.37100
C  57.94100 25.70300 45.18100
C  60.54800 23.38500 46.32800
C  60.11800 26.37900 44.21900
C  61.07100 27.50200 44.67600
N  55.10900 26.29100 44.62500
C  56.00700 27.24800 44.99000
C  55.38700 28.54600 45.09800
C  54.16200 28.30500 44.38900
C  54.02400 26.93000 44.15600
C  56.09400 29.78900 45.59700
C  52.97600 28.97000 43.94800
O  52.63000 30.15000 44.09500
C  52.13800 27.90600 43.12500
C  52.35000 28.30100 41.72700
O  53.34700 28.18100 41.08400
O  51.16600 28.70500 41.15900
C  51.23000 28.73700 39.66900
H  52.81600 20.96400 42.67200
H  59.00700 21.68200 44.83300
H  58.00600 27.69600 45.62500
H  50.57100 25.08100 43.18300
H  51.21800 22.82200 41.57800
H  50.71000 21.86000 44.36200
H  49.62000 21.73800 42.92000
H  49.65200 23.06500 44.04300
H  51.50800 24.39600 40.34600
H  51.37900 26.04200 40.82100
H  49.04600 26.08200 40.68300
H  48.82700 24.46000 41.06200
H  54.78200 17.87100 43.04100
H  55.19300 18.54500 41.70600
H  53.57600 19.06400 42.50000
H  59.66300 19.82600 43.70300
H  59.71400 18.24100 44.50800
H  58.98300 19.62300 45.39600
H  60.19600 23.84700 44.37900
H  59.68200 25.88900 46.39100
H  60.29300 22.35900 46.59500
H  60.53100 24.04700 47.19400
H  61.59100 23.30200 46.02300
H  59.34700 26.91600 43.66700
H  60.68600 25.76100 43.52300
H  61.41200 27.37600 45.70400
H  60.73700 28.50800 44.42400
H  61.92900 27.36000 44.01900
H  55.40800 30.63100 45.50700
H  57.03900 29.99700 45.09500
H  56.33800 29.64100 46.64900
H  51.10300 27.94300 43.46500
H  51.79000 29.58200 39.26900
H  50.20800 28.77000 39.29200
H  51.59100 27.81900 39.20400

