158

Mg 36.13400 49.92600 25.01700
C  36.39200 47.86700 28.04000
C  34.60800 52.28800 26.92900
C  35.27100 51.32700 22.23100
C  37.02000 46.97200 23.22400
N  35.70400 50.05200 27.24400
C  35.90100 49.12000 28.28500
C  35.61500 49.80200 29.68100
C  34.87900 51.15600 29.28100
C  35.13000 51.16700 27.71800
C  33.39300 51.10600 29.71800
C  36.92200 50.13300 30.41700
C  37.00000 49.80900 31.93300
H  35.70900 49.40900 32.70800
N  35.24800 51.72600 24.65500
C  34.64600 52.52300 25.57500
C  33.92200 53.60200 24.83200
C  34.11900 53.38700 23.43000
C  34.94100 52.11900 23.38200
C  33.05700 54.65300 25.47600
C  33.58700 54.10100 22.17400
O  33.63100 53.68900 21.00900
C  33.03100 55.50900 22.25600
N  36.23400 49.23800 22.96000
C  35.85300 50.06900 22.00400
C  36.07300 49.54800 20.58300
C  36.54000 48.05800 20.91300
C  36.56400 47.99100 22.45200
C  34.88500 49.62400 19.62700
C  37.99600 47.67100 20.43900
C  39.32800 48.28500 21.05700
N  36.77200 47.84700 25.45500
C  37.15000 46.76600 24.63600
C  37.49800 45.60300 25.37800
C  37.20500 45.93600 26.77500
C  36.74700 47.31500 26.71200
C  38.20900 44.38100 24.93700
C  37.17800 45.51100 28.10400
O  37.39500 44.40600 28.55000
C  36.71000 46.74100 29.04000
C  35.55700 46.23100 29.79800
O  34.35400 46.44600 29.51500
O  35.91600 45.41300 30.88800
C  34.77500 45.08700 31.74500
H  34.22200 53.14500 27.48400
H  34.97400 51.74500 21.26700
H  37.25100 46.12300 22.57900
H  34.95600 49.19600 30.30300
H  35.35600 51.97600 29.81900
H  33.13900 50.19200 30.25400
H  32.83300 51.17800 28.78600
H  33.09900 52.05100 30.17500
H  37.17200 51.18000 30.24900
H  37.69300 49.52100 29.94800
H  37.40600 50.69200 32.42600
H  37.74500 49.01900 32.02300
H  31.97200 54.55800 25.42700
H  33.28000 55.60500 24.99600
H  33.37000 54.82800 26.50500
H  33.82600 56.23800 22.41300
H  32.19000 55.55400 22.94900
H  32.67500 55.71200 21.24600
H  36.85900 50.13200 20.10200
H  35.80000 47.34800 20.54300
H  34.93500 48.83900 18.87200
H  34.71800 50.52700 19.04000
H  34.07400 49.33500 20.29500
H  38.08400 47.93400 19.38500
H  38.07100 46.58500 20.38500
H  39.76800 47.43000 21.57100
H  39.08900 49.11100 21.72700
H  40.01100 48.75300 20.34900
H  38.37300 44.42000 23.86000
H  37.64700 43.45100 25.02800
H  39.18100 44.50300 25.41400
H  37.42900 46.97800 29.82400
H  34.18300 44.35300 31.19900
H  34.14100 45.92500 32.03400
H  35.22400 44.72300 32.66900
Mg 1.14600 42.37500 25.69000
C  3.25500 42.32800 28.50500
C  -1.56600 41.66900 27.69900
C  -0.55900 41.46800 22.88000
C  3.99900 42.91900 23.82500
N  0.85500 42.17700 28.00400
C  1.84300 42.28100 28.90000
C  1.15700 42.21200 30.34100
C  -0.34700 41.94300 30.04800
C  -0.39500 42.07000 28.51000
C  -0.85500 40.60200 30.65100
C  1.33600 43.59600 31.05200
C  1.79300 43.54400 32.50800
H  0.61800 43.45200 33.50400
N  -0.79500 41.77400 25.31600
C  -1.75600 41.56100 26.27600
C  -2.98000 40.98600 25.67500
C  -2.67600 40.83000 24.27400
C  -1.29600 41.32900 24.08100
C  -4.17100 40.65900 26.54300
C  -3.59000 40.20700 23.14600
O  -3.10700 40.10300 21.99900
C  -5.04300 39.83600 23.37300
N  1.63600 42.19500 23.62500
C  0.77600 41.92400 22.65600
C  1.36300 42.12100 21.24100
C  2.74000 42.79700 21.57100
C  2.82800 42.66800 23.09500
C  1.48800 40.68300 20.48300
C  2.91000 44.25900 21.13400
C  2.66000 44.49600 19.64200
N  3.16900 42.52300 26.04900
C  4.22400 42.76900 25.18400
C  5.48200 42.93400 25.84400
C  5.19800 42.67400 27.16600
C  3.75000 42.44000 27.24000
C  6.78700 42.95700 25.17700
C  5.76800 42.55900 28.47500
O  6.92800 42.62400 28.81600
C  4.57000 42.45100 29.39500
C  4.67800 41.45400 30.57200
O  4.60000 40.22200 30.55100
O  4.92400 42.23500 31.69100
C  5.07100 41.44600 32.88300
H  -2.46500 41.54100 28.30500
H  -1.01200 41.07300 21.96800
H  4.83500 43.29200 23.23000
H  1.68900 41.44800 30.90700
H  -0.92100 42.81000 30.37500
H  -0.14800 39.95600 31.17200
H  -1.31200 40.09400 29.80200
H  -1.67700 40.77100 31.34600
H  0.43000 44.19000 30.92900
H  2.13300 44.15100 30.55700
H  2.41600 44.41800 32.69900
H  2.43200 42.66900 32.62500
H  -4.27900 41.42600 27.31100
H  -4.10000 39.63400 26.90600
H  -5.11400 40.89700 26.05000
H  -5.44000 39.60500 22.38500
H  -5.55900 40.75000 23.66600
H  -5.02700 38.96200 24.02500
H  0.69100 42.88700 20.85700
H  3.64500 42.32800 21.18500
H  1.29300 39.87400 21.18700
H  2.53900 40.59100 20.21200
H  0.83600 40.56300 19.61700
H  3.97800 44.47400 21.10700
H  2.44200 45.04300 21.72900
H  2.13400 43.66200 19.17800
H  3.61900 44.60300 19.13400
H  2.16900 45.44500 19.42400
H  6.89800 42.98800 24.09300
H  7.32500 42.06800 25.50600
H  7.34600 43.79300 25.59800
H  4.62200 43.43000 29.87100
H  5.65400 42.09500 33.53700
H  5.63700 40.53000 32.71600
H  4.04800 41.23000 33.19000

