158

Mg 16.97600 -1.17400 27.69700
C  15.96200 0.87000 30.33100
C  19.09500 -2.83800 29.81700
C  18.34200 -2.87100 25.05400
C  15.29100 0.91600 25.47800
N  17.60600 -0.84400 29.84700
C  16.88800 -0.07500 30.74100
C  17.27400 -0.40300 32.17100
C  18.38100 -1.49400 31.95500
C  18.37000 -1.78200 30.42600
C  19.82800 -1.16300 32.32300
C  16.03300 -0.82200 33.07100
C  16.19900 -0.20700 34.51200
H  17.47100 0.50700 35.05300
N  18.47900 -2.66200 27.46600
C  19.18800 -3.22400 28.47200
C  20.00300 -4.35400 27.92100
C  19.72600 -4.44500 26.49400
C  18.86200 -3.30500 26.25200
C  21.01000 -5.12800 28.79900
C  20.17900 -5.49600 25.55700
O  19.97300 -5.39300 24.36700
C  21.03800 -6.67800 26.01700
N  16.92000 -0.93400 25.55700
C  17.49000 -1.82400 24.67300
C  17.06600 -1.59200 23.25200
C  15.94900 -0.49500 23.41000
C  16.06800 -0.12500 24.92700
C  18.22800 -1.05800 22.30100
C  14.50400 -1.09200 23.18600
C  13.52100 -0.05200 22.80100
N  15.86800 0.49000 27.77700
C  15.21500 1.25000 26.79200
C  14.52100 2.32400 27.45300
C  14.75600 2.22900 28.78600
C  15.59300 1.10000 28.95800
C  13.71700 3.32500 26.74100
C  14.54900 2.84600 30.06700
O  13.90100 3.85900 30.32300
C  15.28000 2.01200 31.14900
C  16.22500 2.76100 31.86400
O  17.46100 2.87900 31.59900
O  15.57700 3.54300 32.82500
C  16.43400 4.53000 33.62100
H  19.61500 -3.48400 30.52700
H  18.56900 -3.54500 24.22600
H  14.72700 1.54100 24.78300
H  17.75700 0.47700 32.59600
H  18.16600 -2.43600 32.46000
H  20.51800 -1.31100 31.49200
H  20.11400 -1.82700 33.13800
H  19.99000 -0.16200 32.72200
H  15.91000 -1.90400 33.11100
H  15.09700 -0.44500 32.65900
H  15.82100 -1.03500 35.11200
H  15.45100 0.57800 34.62800
H  22.05400 -5.00000 28.51300
H  20.75100 -6.18700 28.79100
H  20.83300 -4.95900 29.86100
H  22.10200 -6.44900 25.96000
H  20.96000 -7.39100 25.19600
H  20.66800 -7.09800 26.95200
H  16.55900 -2.36900 22.67900
H  16.11100 0.35600 22.74900
H  18.11000 -0.06300 21.87300
H  18.57900 -1.69800 21.49100
H  19.08900 -0.82900 22.92800
H  14.17100 -1.67800 24.04300
H  14.58600 -1.82100 22.38000
H  12.68800 0.09400 23.48900
H  13.21900 -0.16900 21.76000
H  14.01700 0.90900 22.93200
H  12.69100 2.97500 26.62700
H  14.21100 3.64000 25.82200
H  13.60400 4.25300 27.30200
H  14.46900 1.68200 31.79900
H  16.66800 5.44700 33.08000
H  17.38300 4.07600 33.90700
H  15.87800 4.86700 34.49600
Mg -6.03800 25.69800 25.95400
C  -4.67600 26.84700 28.90600
C  -7.65100 23.14900 27.86700
C  -7.07300 24.20100 23.11900
C  -3.57000 27.49300 24.16800
N  -5.92700 24.96600 28.05200
C  -5.53400 25.78000 29.08900
C  -6.10000 25.24100 30.39600
C  -6.82800 23.89500 30.06700
C  -6.78000 23.98400 28.56300
C  -6.07100 22.60200 30.55000
C  -6.99400 26.22700 31.09100
C  -6.79400 26.41300 32.62500
H  -6.18000 25.18800 33.40700
N  -7.35300 24.01100 25.57600
C  -8.00200 23.21000 26.45600
C  -8.94600 22.40500 25.74600
C  -8.81700 22.63300 24.36200
C  -7.69500 23.64000 24.28300
C  -10.13200 21.64500 26.46200
C  -9.57300 22.05300 23.24700
O  -9.20700 22.23300 22.07000
C  -10.71700 21.09200 23.37800
N  -5.54700 26.05500 23.92300
C  -6.10700 25.22800 22.95600
C  -5.37900 25.49800 21.59500
C  -4.34800 26.64300 21.90300
C  -4.46600 26.76600 23.42700
C  -4.67700 24.27100 20.95700
C  -4.74200 28.02800 21.22000
C  -3.69200 28.62000 20.33600
N  -4.55400 27.06700 26.36800
C  -3.63400 27.73600 25.56900
C  -2.95600 28.65100 26.35500
C  -3.28400 28.38600 27.69400
C  -4.27600 27.40700 27.66300
C  -1.90200 29.65200 25.86500
C  -2.96100 28.67800 29.09500
O  -2.17800 29.45100 29.60200
C  -3.97100 27.69600 29.92000
C  -3.20700 26.92500 30.94700
O  -2.74600 25.84800 30.85600
O  -3.14300 27.63900 32.08600
C  -2.36900 26.98200 33.18700
H  -8.16800 22.41400 28.48800
H  -7.24500 23.80400 22.11600
H  -2.76500 27.88100 23.54000
H  -5.32200 24.94000 31.09800
H  -7.84300 23.75800 30.43900
H  -5.73100 22.09800 29.64500
H  -6.87300 22.03500 31.02400
H  -5.15100 22.64900 31.13300
H  -8.01100 25.84600 31.00300
H  -6.96600 27.18500 30.57100
H  -7.73900 26.54800 33.15100
H  -6.16300 27.25200 32.91700
H  -11.03700 22.24000 26.33800
H  -10.00800 21.45200 27.52700
H  -10.24700 20.63500 26.07000
H  -11.34300 20.90300 22.50600
H  -11.39200 21.23300 24.22200
H  -10.16500 20.17900 23.60000
H  -6.09800 25.95100 20.91300
H  -3.33900 26.31200 21.65800
H  -5.34300 23.93800 20.16100
H  -4.52900 23.37300 21.55600
H  -3.70800 24.55200 20.54500
H  -4.90000 28.77900 21.99400
H  -5.67400 27.99300 20.65500
H  -3.24700 29.54300 20.70700
H  -4.23600 28.94100 19.44800
H  -2.98000 27.83200 20.08800
H  -1.09400 29.94900 26.53400
H  -2.53300 30.50100 25.59900
H  -1.46400 29.19300 24.97900
H  -4.67100 28.36100 30.42600
H  -1.35000 26.77700 32.86100
H  -2.67800 25.95100 33.36200
H  -2.42000 27.49900 34.14600

