158

Mg 42.83900 42.04300 25.82100
C  41.87100 44.15600 28.60800
C  44.75800 40.22700 28.17100
C  44.05800 40.35800 23.32800
C  41.50000 44.39100 23.65300
N  43.17900 42.19500 28.05700
C  42.60300 42.98200 29.00400
C  42.69400 42.39700 30.39900
C  43.60200 41.19500 30.17200
C  43.88200 41.19300 28.71300
C  44.89700 41.20000 31.09200
C  41.36500 42.16100 31.16500
C  41.30700 41.10700 32.31500
H  40.61700 41.54000 33.66200
N  44.06700 40.40500 25.79200
C  44.84300 39.84400 26.82300
C  45.58800 38.71800 26.28800
C  45.30500 38.69800 24.89300
C  44.38800 39.83600 24.59400
C  46.58400 37.90500 27.15400
C  45.79400 37.77300 23.85600
O  45.35400 37.80900 22.72300
C  46.73700 36.70900 24.19800
N  42.63000 42.19700 23.80700
C  43.36700 41.47700 22.97400
C  43.24400 41.98500 21.53800
C  42.12600 43.05500 21.64100
C  42.12500 43.25600 23.13000
C  44.58700 42.55400 20.98400
C  40.75500 42.67700 20.99900
C  39.78800 41.80400 21.90600
N  41.92700 43.91200 25.99600
C  41.37000 44.74400 24.98000
C  40.67100 45.88300 25.54700
C  40.85300 45.67200 26.95200
C  41.57700 44.44400 27.13800
C  40.09300 47.03200 24.80100
C  40.51400 46.24300 28.25800
O  39.88400 47.26600 28.49200
C  41.04200 45.23300 29.38500
C  41.76500 45.90500 30.42500
O  42.87700 46.40000 30.31300
O  41.13500 45.79300 31.59200
C  41.76900 46.27800 32.87200
H  45.31400 39.64400 28.90800
H  44.51200 39.89700 22.44800
H  40.91500 45.12900 23.09900
H  43.27100 43.17600 30.89800
H  43.19600 40.22500 30.45700
H  45.04400 42.19300 31.51700
H  45.83300 41.08800 30.54500
H  45.02300 40.51400 31.93000
H  40.63200 41.90200 30.40000
H  41.18600 43.13500 31.62000
H  42.32000 40.71600 32.40500
H  40.78800 40.20900 31.98000
H  46.40200 36.83100 27.13200
H  46.71900 38.35600 28.13700
H  47.59200 37.92600 26.74100
H  47.51900 37.10700 24.84400
H  47.14200 36.43300 23.22500
H  46.32300 35.85300 24.73000
H  42.96700 41.09600 20.97100
H  42.48900 44.03100 21.31700
H  45.42900 42.19300 21.57500
H  44.54400 43.63900 20.88100
H  44.86200 42.18600 19.99600
H  40.91900 42.16100 20.05300
H  40.32100 43.67600 20.96000
H  40.06100 41.65500 22.95000
H  39.71400 40.79700 21.49600
H  38.79900 42.25100 21.79900
H  40.89000 47.62300 24.35000
H  39.54700 47.60300 25.55200
H  39.44500 46.78600 23.95900
H  40.14900 44.86400 29.88800
H  42.82900 46.53200 32.84600
H  41.67400 45.40800 33.52300
H  41.22500 47.13000 33.27900
Mg -5.66100 24.83900 26.19900
C  -4.42800 26.30300 29.09200
C  -7.94200 23.07900 28.13000
C  -6.38100 23.12900 23.45100
C  -3.21600 26.57300 24.44100
N  -6.11600 24.74100 28.41700
C  -5.46300 25.37900 29.38700
C  -5.97100 25.07800 30.72700
C  -6.94000 23.91700 30.46800
C  -6.97000 23.83300 28.92000
C  -6.71700 22.56300 31.16100
C  -6.68400 26.25100 31.41500
C  -6.35000 26.50700 32.95000
H  -5.86700 25.31500 33.80100
N  -6.94800 23.32200 25.87900
C  -7.89600 22.83400 26.73300
C  -8.85900 22.06200 25.90000
C  -8.36200 21.96500 24.57100
C  -7.19100 22.76500 24.60500
C  -10.06300 21.28900 26.51500
C  -8.76700 21.02700 23.42100
O  -7.97300 20.82200 22.56200
C  -10.09800 20.24600 23.39900
N  -4.77300 24.68000 24.29600
C  -5.19500 23.89000 23.34800
C  -4.40000 24.11900 22.01000
C  -3.65100 25.42800 22.26300
C  -3.98300 25.63600 23.72100
C  -3.70500 22.83900 21.59500
C  -3.80700 26.58200 21.22000
C  -2.64600 26.91000 20.34800
N  -4.07600 26.17900 26.60300
C  -3.27100 26.90300 25.81100
C  -2.35900 27.73600 26.55500
C  -2.80600 27.53700 27.83900
C  -3.92500 26.69500 27.79700
C  -1.30900 28.60300 25.95900
C  -2.46100 27.86500 29.26600
O  -1.62300 28.57000 29.79400
C  -3.53400 27.08400 30.08600
C  -2.67400 26.26700 31.13000
O  -2.14600 25.15700 30.90500
O  -2.49500 27.03800 32.29100
C  -1.58500 26.49800 33.27600
H  -8.69500 22.68800 28.81700
H  -6.77100 22.84300 22.47200
H  -2.34200 26.94800 23.90600
H  -5.15200 24.57800 31.24300
H  -7.93300 24.24900 30.77100
H  -7.47700 22.47700 31.93700
H  -5.73100 22.58000 31.62700
H  -6.72400 21.75500 30.43000
H  -7.77200 26.25300 31.36100
H  -6.43900 27.23100 31.00400
H  -7.16700 26.92800 33.53600
H  -5.55700 27.25500 32.93000
H  -11.04300 21.68900 26.25400
H  -10.18100 21.39400 27.59300
H  -9.95300 20.22800 26.29000
H  -10.82900 20.94800 23.80200
H  -9.97100 19.37200 24.03800
H  -10.25700 19.87900 22.38500
H  -5.24400 24.28600 21.34100
H  -2.57600 25.24700 22.23700
H  -2.61600 22.83100 21.63900
H  -3.81000 22.67400 20.52300
H  -4.12600 21.93500 22.03700
H  -3.95500 27.45100 21.86100
H  -4.72600 26.51100 20.63700
H  -2.20300 26.02600 19.89000
H  -1.84300 27.32000 20.96000
H  -3.00200 27.62600 19.60600
H  -0.42800 28.05500 25.62500
H  -0.86800 29.23400 26.73100
H  -1.61800 29.21200 25.11000
H  -4.19300 27.75100 30.64200
H  -0.67500 27.08200 33.14400
H  -1.33000 25.45200 33.10400
H  -1.88500 26.67700 34.30800

