158

Mg 47.76000 25.33600 29.55700
C  48.76900 27.40200 31.97500
C  46.41600 23.25500 31.98300
C  46.93600 22.95000 27.19100
C  49.38600 27.21600 27.15600
N  47.56400 25.39800 31.69700
C  47.98600 26.39100 32.48700
C  47.78800 26.11600 33.92700
C  47.06000 24.74200 33.90100
C  46.97900 24.42700 32.43500
C  47.84500 23.61300 34.75400
C  46.93500 27.20500 34.79500
C  47.30700 27.25600 36.33300
H  46.16700 26.97700 37.30300
N  46.56200 23.40400 29.52900
C  46.11500 22.75500 30.64600
C  45.49300 21.48600 30.26600
C  45.60600 21.38700 28.83200
C  46.44100 22.56800 28.44500
C  44.79900 20.60600 31.23200
C  45.06400 20.28100 27.90600
O  45.36700 20.18200 26.74500
C  44.24200 19.18600 28.44000
N  48.20400 25.02100 27.46300
C  47.61600 24.11700 26.71800
C  47.61500 24.49200 25.20100
C  48.36400 25.85800 25.20100
C  48.70400 26.04700 26.69500
C  48.12100 23.51000 24.10100
C  47.50200 27.09800 24.73200
C  48.26100 28.03300 23.65100
N  48.84000 26.91500 29.50300
C  49.51700 27.60900 28.49100
C  50.10100 28.79500 28.99800
C  49.88700 28.72300 30.34200
C  49.15400 27.62200 30.60800
C  50.83700 29.79200 28.12300
C  50.14000 29.38500 31.61700
O  50.62000 30.47200 31.90400
C  49.43300 28.48800 32.75700
C  50.53700 27.97300 33.59000
O  51.61500 27.52100 33.21900
O  50.19700 28.24000 34.87500
C  51.24600 27.84300 35.83200
H  46.10800 22.59100 32.79300
H  46.59300 22.38500 26.32200
H  49.72800 27.88200 26.36100
H  48.74500 25.97800 34.43100
H  46.08100 24.58500 34.35300
H  48.13100 22.73800 34.17000
H  47.13500 23.28800 35.51500
H  48.77700 23.98800 35.17800
H  45.87700 27.16800 34.53400
H  47.23800 28.19600 34.45600
H  47.68900 28.25700 36.53400
H  48.03000 26.45200 36.47500
H  43.76200 20.64600 30.90000
H  44.84000 20.87100 32.28900
H  45.14400 19.59400 31.02000
H  43.74400 18.57900 27.68300
H  43.57700 19.60300 29.19600
H  44.98200 18.59200 28.97600
H  46.55900 24.67000 24.99600
H  49.35800 25.81500 24.75600
H  48.67600 22.67600 24.52900
H  48.68900 24.08200 23.36600
H  47.26600 23.13400 23.53900
H  47.28500 27.69300 25.61900
H  46.62300 26.73800 24.19800
H  49.29100 27.67700 23.63000
H  48.06300 29.03300 24.03600
H  47.95100 27.84500 22.62300
H  50.99900 29.58100 27.06600
H  51.81900 29.94500 28.57100
H  50.26500 30.71300 28.23800
H  48.74500 29.10400 33.33500
H  51.34200 26.76000 35.75600
H  50.76700 27.99500 36.79900
H  52.23600 28.25500 35.63600
Mg -5.76400 25.20000 26.00100
C  -4.58600 26.79000 28.91600
C  -7.50900 23.14400 28.06000
C  -6.77100 23.58900 23.30500
C  -3.34100 26.87000 24.15100
N  -5.94200 24.97100 28.22100
C  -5.48300 25.78100 29.22000
C  -5.91100 25.36700 30.60600
C  -6.56400 24.00400 30.33800
C  -6.64400 23.95300 28.74300
C  -5.81600 22.70900 30.87600
C  -6.87600 26.34100 31.27400
C  -6.89100 26.57200 32.71100
H  -6.16100 25.51400 33.63300
N  -7.06900 23.72200 25.70200
C  -7.74300 23.06000 26.65400
C  -8.83300 22.21200 26.04000
C  -8.50300 22.22600 24.67400
C  -7.39300 23.18300 24.50100
C  -9.71000 21.45700 27.00200
C  -9.05900 21.38200 23.58400
O  -8.61700 21.29600 22.43600
C  -10.31100 20.63000 23.88500
N  -5.12000 25.22300 24.05200
C  -5.66500 24.45100 23.10100
C  -4.94600 24.51700 21.76300
C  -3.94500 25.61000 22.03700
C  -4.10800 25.92200 23.53000
C  -4.14200 23.21600 21.35900
C  -4.26400 26.91600 21.14300
C  -3.51200 27.04300 19.79600
N  -4.35100 26.70400 26.40500
C  -3.46700 27.29500 25.52100
C  -2.56600 28.19900 26.30700
C  -3.00200 28.03600 27.60200
C  -4.08100 27.12800 27.63500
C  -1.51700 28.93800 25.73100
C  -2.80800 28.48900 28.95100
O  -1.99200 29.31400 29.43500
C  -3.83100 27.74200 29.83700
C  -3.16200 27.02600 30.90500
O  -2.39400 26.09300 30.70000
O  -3.24400 27.67000 32.06600
C  -2.21200 27.41300 33.16100
H  -7.99900 22.47900 28.77500
H  -7.06100 23.11100 22.36700
H  -2.48900 27.24100 23.57600
H  -5.05200 25.27400 31.27100
H  -7.55700 23.92300 30.77900
H  -5.45500 22.06400 30.07500
H  -6.47500 22.11600 31.51000
H  -4.91700 23.04000 31.39600
H  -7.84300 25.97500 30.92800
H  -6.71800 27.25500 30.70100
H  -7.91300 26.54100 33.08900
H  -6.47000 27.53700 32.99200
H  -9.44700 20.54000 27.52800
H  -10.68100 21.10500 26.65500
H  -10.16600 22.14800 27.71100
H  -10.20600 19.55800 24.05700
H  -10.82600 20.72200 22.92900
H  -10.96800 21.12100 24.60200
H  -5.70100 24.72200 21.00400
H  -2.89600 25.38300 21.84600
H  -4.71700 22.61300 20.65600
H  -4.07700 22.61000 22.26200
H  -3.12400 23.43000 21.03200
H  -4.10900 27.87600 21.63500
H  -5.33500 26.85500 20.94600
H  -2.79600 27.86400 19.84500
H  -4.17300 27.03500 18.92900
H  -2.82100 26.21300 19.65400
H  -1.91800 29.92100 25.48300
H  -1.12200 28.57200 24.78300
H  -0.70100 29.22900 26.39200
H  -4.50300 28.44700 30.32500
H  -2.36900 26.46500 33.67500
H  -2.22900 28.33000 33.75100
H  -1.18200 27.44100 32.80600

