158

Mg 41.70600 41.64900 26.05200
C  41.24300 43.86300 28.80800
C  43.33900 39.48900 28.16100
C  42.05200 39.46200 23.41700
C  40.85300 44.26400 23.90300
N  42.08400 41.57000 28.31900
C  41.82300 42.62800 29.17400
C  42.38000 42.23700 30.59200
C  43.27600 40.99800 30.26100
C  42.94900 40.69000 28.80400
C  44.83000 41.11100 30.55900
C  41.21500 41.94300 31.57400
C  41.45500 42.43500 32.99500
H  40.40600 41.99700 34.02000
N  42.56000 39.80600 25.85000
C  43.13500 39.09000 26.82300
C  43.57600 37.82300 26.31700
C  43.21200 37.77400 24.92700
C  42.53400 39.07300 24.66000
C  44.28900 36.76300 27.08700
C  43.43600 36.61000 23.88000
O  43.31500 36.80800 22.66900
C  43.78900 35.20400 24.29500
N  41.73700 41.97100 23.98000
C  41.79500 40.81800 23.13900
C  41.57500 41.25100 21.72600
C  40.87600 42.72100 21.83800
C  41.24400 43.06900 23.32900
C  42.97100 41.21800 20.98100
C  39.39100 42.73900 21.54600
C  38.35300 42.48500 22.70300
N  41.01400 43.61200 26.24800
C  40.78600 44.53400 25.27400
C  40.37300 45.71300 25.96000
C  40.54900 45.46500 27.29300
C  40.99500 44.19900 27.43900
C  40.04900 46.92200 25.22500
C  40.31200 46.06000 28.62100
O  39.83600 47.14200 28.85200
C  40.72800 45.03700 29.69200
C  41.82800 45.64600 30.55600
O  42.98900 45.73400 30.26700
O  41.23300 46.02700 31.73300
C  42.20100 46.54400 32.71000
H  43.63800 38.71200 28.86900
H  42.08900 38.74900 22.59000
H  40.63500 45.06500 23.19300
H  43.01300 43.02900 30.99200
H  43.02600 40.08300 30.79800
H  45.35600 40.26400 30.11800
H  45.04600 41.18200 31.62500
H  45.26500 42.01800 30.14000
H  41.19900 40.86300 31.72200
H  40.27000 42.39300 31.27000
H  41.45800 43.52500 33.01700
H  42.38400 41.99800 33.36400
H  43.86400 35.78100 26.87800
H  44.26100 36.95400 28.16000
H  45.37800 36.79400 27.05200
H  43.53100 34.42800 23.57500
H  43.20300 34.91100 25.16600
H  44.82400 35.12200 24.62700
H  40.93400 40.58000 21.15400
H  41.39100 43.26900 21.04900
H  43.64300 40.42100 21.30000
H  43.45800 42.16600 21.20800
H  42.72800 41.16100 19.92000
H  39.20100 42.00500 20.76300
H  39.28300 43.69400 21.03200
H  38.91700 42.22300 23.59800
H  37.68200 41.65200 22.49500
H  37.70000 43.34600 22.84400
H  39.37800 46.68500 24.40000
H  40.96900 47.27700 24.76100
H  39.60600 47.69500 25.85400
H  39.84600 44.70700 30.24100
H  42.60800 45.81800 33.41400
H  41.70300 47.18800 33.43600
H  43.01200 47.11200 32.25200
Mg -10.91700 16.82700 40.90100
C  -7.43600 16.29500 40.47800
C  -10.30300 20.15200 39.98400
C  -14.22400 17.48800 40.73200
C  -11.38200 13.44600 40.81200
N  -9.08400 18.07700 40.27500
C  -7.74300 17.64900 40.35200
C  -6.74900 18.81400 40.13100
C  -7.72400 20.05800 40.45900
C  -9.12500 19.42400 40.20800
C  -7.48400 20.72300 41.86300
C  -6.21000 18.78200 38.71900
C  -4.67100 18.53500 38.45500
H  -4.32700 17.72200 37.20200
N  -12.13100 18.64900 40.52200
C  -11.70000 19.79300 40.03600
C  -12.76000 20.70600 39.69100
C  -13.91700 19.99900 40.09000
C  -13.45500 18.65300 40.44800
C  -12.54100 22.18000 39.22900
C  -15.31500 20.59100 40.10000
O  -15.46000 21.80200 39.85500
C  -16.57800 19.81000 40.40300
N  -12.57400 15.64700 40.81600
C  -13.82900 16.17300 40.84100
C  -14.82400 14.93000 40.98600
C  -13.88600 13.68400 40.62000
C  -12.52800 14.24400 40.79800
C  -15.50400 14.98700 42.37100
C  -14.11000 13.20900 39.14800
C  -14.18800 14.13000 37.98000
N  -9.68200 15.18800 40.85000
C  -10.01600 13.84700 40.84800
C  -8.84300 12.98500 40.69900
C  -7.83000 13.95900 40.55600
C  -8.40000 15.27700 40.64700
C  -8.90400 11.51200 40.75600
C  -6.42300 14.11700 40.39700
O  -5.59700 13.29300 40.02800
C  -6.10300 15.56400 40.43000
C  -5.18400 15.78500 41.57900
O  -4.27800 16.59900 41.52300
O  -5.45000 14.91600 42.65900
C  -4.37200 14.91200 43.74800
H  -10.12300 21.18200 39.66800
H  -15.30200 17.48900 40.55900
H  -11.60700 12.38700 40.67300
H  -5.91200 18.87700 40.82600
H  -7.55500 20.85300 39.73400
H  -6.86700 20.04500 42.45200
H  -8.46900 20.52900 42.28700
H  -7.08000 21.73500 41.89000
H  -6.59700 19.70800 38.29300
H  -6.71200 17.97100 38.19200
H  -4.21900 18.10100 39.34800
H  -4.24900 19.53700 38.37500
H  -11.71900 22.23300 38.51500
H  -12.21100 22.76500 40.08800
H  -13.50400 22.54100 38.86700
H  -16.71700 19.16400 39.53600
H  -17.42200 20.49700 40.46800
H  -16.41100 19.28000 41.34100
H  -15.63600 14.92700 40.25900
H  -14.08200 12.76800 41.17800
H  -16.57100 15.19200 42.27400
H  -15.00800 15.87400 42.76500
H  -15.22300 14.15200 43.01300
H  -14.86900 12.42600 39.14600
H  -13.21600 12.62400 38.92900
H  -13.26600 14.23800 37.40900
H  -14.49700 15.14500 38.22900
H  -15.02400 13.73600 37.40100
H  -8.02500 10.91600 40.51100
H  -9.72400 11.09600 40.17000
H  -8.99600 11.23300 41.80600
H  -5.46300 15.78700 39.57600
H  -4.83300 14.87000 44.73500
H  -3.84900 15.86600 43.82100
H  -3.73500 14.04200 43.58900

