158

Mg 47.91000 44.90100 43.26300
C  44.56300 44.29700 42.49500
C  48.62100 41.57800 43.01000
C  51.09400 45.67200 43.61400
C  47.09000 48.36400 43.20700
N  46.80500 43.16600 42.55000
C  45.37500 43.13300 42.48700
C  44.91800 41.70500 42.21300
C  46.19800 40.84300 42.42700
C  47.31500 41.92300 42.75500
C  46.26200 39.89300 43.61700
C  44.26200 41.59300 40.81400
C  44.68800 42.33200 39.53900
H  43.91200 41.94200 38.20900
N  49.67000 43.70700 43.29100
C  49.74900 42.39500 43.24300
C  51.09000 42.02400 43.44800
C  51.87300 43.21100 43.55400
C  50.87500 44.28100 43.52500
C  51.45100 40.52100 43.46500
C  53.30800 43.30500 43.85600
O  53.98700 42.27100 43.85600
C  54.05200 44.52900 44.14600
N  48.94700 46.78200 43.27300
C  50.24300 46.78300 43.51900
C  50.74700 48.23300 43.68900
C  49.38700 49.07000 43.73500
C  48.40200 48.00000 43.36400
C  51.63200 48.42000 45.03100
C  49.46000 50.35200 42.88400
C  49.48600 51.65300 43.75200
N  46.13100 46.16800 42.95800
C  45.96300 47.52200 42.98300
C  44.58100 47.87000 42.79700
C  43.97300 46.60500 42.63100
C  44.97100 45.63600 42.70800
C  43.95500 49.23100 42.88200
C  42.63700 45.95600 42.45800
O  41.54800 46.46400 42.35000
C  42.99400 44.44300 42.29600
C  42.23200 43.81100 43.39400
O  41.32400 42.98300 43.27200
O  42.71800 44.18200 44.62200
C  41.99000 43.75200 45.85800
H  48.68300 40.49000 43.07900
H  52.12600 45.93900 43.85100
H  46.79900 49.41100 43.31600
H  44.17900 41.46700 42.97800
H  46.53500 40.30000 41.54500
H  46.90100 40.28900 44.40700
H  46.78500 38.96800 43.37600
H  45.26000 39.65200 43.97300
H  43.18200 41.61100 40.96000
H  44.45300 40.56500 40.50500
H  45.67500 41.90100 39.37000
H  44.54500 43.41300 39.51300
H  52.50400 40.28000 43.31700
H  50.90500 40.00900 42.67300
H  51.12000 40.02500 44.37700
H  54.17800 45.16200 43.26800
H  55.11400 44.38100 44.34000
H  53.61500 45.09300 44.97000
H  51.30300 48.34300 42.75900
H  49.17400 49.27000 44.78500
H  51.68900 49.43900 45.41300
H  52.63400 48.08000 44.76900
H  51.20000 47.65300 45.67300
H  48.63700 50.43300 42.17400
H  50.33200 50.38700 42.23100
H  50.25800 52.39500 43.54800
H  49.69500 51.44700 44.80200
H  48.47600 52.05500 43.66400
H  44.19100 49.88900 42.04500
H  44.29400 49.87000 43.69700
H  42.87200 49.20500 43.00500
H  42.68600 44.07400 41.31800
H  41.76800 42.68500 45.86700
H  41.02000 44.22500 46.01200
H  42.65500 43.94000 46.70100
Mg -10.53100 40.15500 43.17000
C  -9.94400 36.91500 42.29600
C  -7.63500 41.25000 41.58900
C  -11.65900 43.43600 43.21400
C  -13.87700 39.27900 44.15700
N  -9.02900 39.20300 42.01800
C  -8.91600 37.80100 41.82100
C  -7.68300 37.49700 41.02000
C  -6.87900 38.85400 41.00700
C  -7.90300 39.84100 41.60100
C  -5.47800 38.86100 41.69900
C  -7.93800 36.84400 39.59100
C  -6.90000 35.83600 39.17400
H  -5.73500 36.29200 38.35800
N  -9.68400 42.06900 42.60600
C  -8.49300 42.27600 42.00100
C  -8.34300 43.67300 41.73400
C  -9.49900 44.33100 42.14300
C  -10.32800 43.27700 42.69200
C  -7.04700 44.26000 41.08300
C  -9.75400 45.84400 42.14600
O  -8.89300 46.54500 41.64000
C  -10.92000 46.52000 42.69300
N  -12.50700 41.17200 43.78800
C  -12.62300 42.51900 43.70900
C  -14.04000 42.95700 43.98900
C  -14.82500 41.61000 44.53800
C  -13.71300 40.61600 44.10500
C  -14.26700 44.20400 44.84900
C  -16.28200 41.30000 43.91900
C  -16.37900 40.53400 42.68300
N  -11.69800 38.47200 43.32000
C  -12.96800 38.27500 43.74900
C  -13.32100 36.82200 43.62200
C  -12.11600 36.28800 43.04800
C  -11.19400 37.30500 42.81800
C  -14.62600 36.27200 44.00900
C  -11.42100 35.02200 42.72600
O  -11.87000 33.88100 42.79300
C  -10.06000 35.45400 42.00700
C  -8.98400 34.64000 42.60700
O  -8.34100 34.82800 43.62200
O  -8.80300 33.58200 41.75600
C  -7.64900 32.68100 42.02100
H  -6.79000 41.60000 40.99200
H  -12.20700 44.37900 43.16700
H  -14.88200 39.04500 44.51300
H  -7.12100 36.81300 41.65700
H  -6.69500 39.12700 39.96800
H  -4.83800 38.01800 41.43900
H  -5.42800 39.05000 42.77100
H  -5.09700 39.72500 41.15400
H  -8.02700 37.67800 38.89500
H  -8.93800 36.41200 39.64200
H  -7.40800 35.04400 38.62400
H  -6.47200 35.36100 40.05700
H  -6.25800 44.57300 41.76700
H  -7.35300 45.08300 40.43700
H  -6.59500 43.61900 40.32600
H  -10.79800 47.60300 42.68400
H  -11.09100 46.27700 43.74200
H  -11.73600 46.24000 42.02600
H  -14.50600 43.15100 43.02200
H  -14.93700 41.54800 45.62000
H  -13.40600 44.48200 45.45600
H  -14.88800 43.88700 45.68700
H  -14.75100 45.04300 44.34700
H  -16.81300 42.23200 43.72800
H  -16.98700 40.84500 44.61600
H  -17.02000 41.07500 41.98700
H  -16.75300 39.57300 43.03700
H  -15.48700 40.25700 42.12200
H  -14.87400 35.29800 43.58800
H  -15.41400 37.00700 43.84300
H  -14.58100 36.11600 45.08700
H  -10.08800 35.23800 40.93900
H  -7.53200 31.96700 41.20600
H  -7.86800 32.04100 42.87600
H  -6.69300 33.15900 42.23500

