158

Mg 8.71200 3.05700 28.21400
C  9.98000 1.49100 30.83900
C  6.90600 5.21100 30.23400
C  7.47400 4.67700 25.43800
C  10.35600 0.80800 26.03500
N  8.37600 3.21400 30.33100
C  9.11500 2.57200 31.24700
C  8.86200 3.01700 32.68400
C  7.61900 3.99600 32.48600
C  7.59800 4.14100 30.91900
C  6.22800 3.64700 33.17800
C  10.10600 3.49400 33.45000
C  9.90300 4.38000 34.70000
H  10.47000 3.97000 36.05600
N  7.31500 4.61100 27.93700
C  6.67000 5.35800 28.85300
C  6.08200 6.50600 28.28000
C  6.23100 6.39000 26.86100
C  7.04500 5.12100 26.68200
C  5.52000 7.63500 29.19800
C  5.72000 7.35000 25.77400
O  6.13400 7.24700 24.58100
C  4.79900 8.40000 26.18700
N  8.83300 2.71800 26.11200
C  8.18300 3.48400 25.19400
C  8.72100 3.27500 23.72400
C  9.66000 2.01700 23.89500
C  9.60800 1.77400 25.43600
C  7.50400 3.12400 22.69400
C  11.00800 2.15200 23.22700
C  12.06900 3.04000 23.88700
N  9.77600 1.39800 28.34000
C  10.44100 0.56400 27.36400
C  11.40200 -0.36800 28.01000
C  11.20000 -0.00800 29.39700
C  10.21600 0.99800 29.50900
C  12.30100 -1.38300 27.40100
C  11.62400 -0.39100 30.78100
O  12.39400 -1.26500 31.15400
C  10.89300 0.67100 31.76500
C  10.14400 -0.22200 32.71400
O  9.26100 -0.95100 32.31500
O  10.46400 0.05200 33.98500
C  9.58700 -0.68300 34.93900
H  6.63900 5.93000 31.01100
H  7.27100 5.26300 24.53900
H  10.79100 0.08000 25.34800
H  8.47400 2.13500 33.19300
H  7.92800 4.99800 32.78300
H  6.34200 2.66800 33.64500
H  5.46900 3.60500 32.39700
H  5.94400 4.34400 33.96600
H  10.86900 3.85400 32.76100
H  10.48400 2.56900 33.88600
H  8.84000 4.61500 34.76500
H  10.43400 5.30900 34.49200
H  5.90800 8.62900 28.97400
H  5.86400 7.50200 30.22400
H  4.43500 7.69900 29.10800
H  5.42300 9.13800 26.69100
H  3.99700 8.02600 26.82400
H  4.35900 8.79900 25.27300
H  9.41700 4.08800 23.51900
H  9.18100 1.14500 23.45000
H  6.62700 3.11900 23.34100
H  7.56400 2.16100 22.18700
H  7.46700 3.94400 21.97700
H  10.91200 2.60400 22.24000
H  11.38200 1.15200 23.00900
H  11.84800 3.35100 24.90800
H  12.44500 3.87200 23.29100
H  12.92000 2.35900 23.90900
H  13.00700 -1.02500 26.65200
H  11.64000 -2.14400 26.98700
H  12.95700 -1.72300 28.20300
H  11.52100 1.24000 32.45000
H  10.36400 -1.33800 35.33300
H  8.85900 -1.39300 34.54700
H  9.14200 -0.04700 35.70400
Mg 42.00400 41.26800 27.17000
C  41.40100 43.80500 29.39200
C  42.82400 39.29400 29.76200
C  42.83700 38.83200 24.94100
C  41.55800 43.48000 24.57100
N  42.31900 41.58200 29.33200
C  41.74400 42.63200 30.05900
C  41.68700 42.36600 31.61600
C  42.48400 41.02700 31.72500
C  42.52700 40.56100 30.24300
C  43.85400 40.84300 32.47900
C  40.24700 42.37400 32.21300
C  39.94400 43.36500 33.36100
H  39.31500 42.76900 34.58500
N  42.75700 39.30300 27.31000
C  42.92600 38.62600 28.50500
C  43.18600 37.23800 28.20100
C  43.23300 37.05700 26.79000
C  42.90900 38.41300 26.28200
C  43.42600 36.21700 29.35900
C  43.58000 35.78900 25.95500
O  43.78400 35.82100 24.75700
C  43.91400 34.46500 26.57100
N  42.33100 41.25400 25.06100
C  42.50300 40.08600 24.41500
C  42.33200 40.23000 22.90100
C  41.85800 41.69900 22.72000
C  41.92000 42.18000 24.18300
C  43.50700 39.68800 22.04000
C  40.52100 41.91900 21.91600
C  39.24700 42.18300 22.70000
N  41.72600 43.28400 26.95900
C  41.53300 44.03500 25.85100
C  41.11200 45.41500 26.27900
C  41.01200 45.34300 27.64100
C  41.42800 44.02400 27.99400
C  40.61300 46.52500 25.29800
C  40.70000 46.08400 28.75400
O  40.16400 47.18500 28.90000
C  40.83900 45.11400 29.96300
C  41.51900 45.87500 31.05400
O  42.70300 46.24900 31.08500
O  40.54300 46.22100 31.96300
C  40.98100 46.72400 33.26900
H  42.94500 38.73300 30.69200
H  42.98100 38.04900 24.19300
H  41.21200 44.04000 23.70100
H  42.20200 43.11000 32.22500
H  41.78100 40.31800 32.16300
H  44.71600 40.97400 31.82400
H  43.75900 39.91100 33.03500
H  43.88700 41.64700 33.21400
H  39.97300 41.35800 32.49700
H  39.57600 42.46000 31.35900
H  39.22600 44.13300 33.07500
H  40.86400 43.82200 33.72600
H  43.74700 36.64300 30.31000
H  44.23100 35.49700 29.21400
H  42.50200 35.63900 29.38200
H  43.02000 34.33200 27.18100
H  44.79500 34.36100 27.20500
H  43.95100 33.63300 25.86800
H  41.45100 39.60200 22.76900
H  42.53500 42.21700 22.04100
H  43.70300 40.44400 21.28000
H  43.25500 38.72500 21.59500
H  44.42700 39.55600 22.61100
H  40.49600 41.09100 21.20700
H  40.88400 42.79300 21.37500
H  39.40000 41.79000 23.70500
H  38.36500 41.64000 22.36000
H  38.99000 43.23000 22.53800
H  39.82000 46.22100 24.61500
H  41.38400 47.10300 24.78900
H  40.14000 47.26700 25.94100
H  39.94600 44.81900 30.51400
H  41.88100 47.32700 33.14600
H  40.99900 45.96700 34.05300
H  40.11700 47.37500 33.40300

