158

Mg 40.47000 9.24100 29.85500
C  42.38300 10.56000 32.38500
C  38.16800 8.32400 32.07000
C  38.85600 7.87300 27.24000
C  43.16200 9.67800 27.64600
N  40.33600 9.26200 32.09600
C  41.31700 9.78700 32.93500
C  40.80600 9.73400 34.40100
C  39.38300 9.08700 34.29600
C  39.26300 8.88300 32.75700
C  39.22000 7.79000 35.14400
C  40.78200 11.21600 35.08000
C  39.81700 11.28500 36.32100
H  40.50700 11.81400 37.61500
N  38.70700 8.36800 29.62400
C  37.88700 8.09000 30.69400
C  36.62100 7.60500 30.17800
C  36.75900 7.49100 28.75100
C  38.13900 7.90600 28.49300
C  35.42200 7.32500 31.05200
C  35.76700 7.01900 27.74600
O  36.02900 7.01600 26.53600
C  34.39500 6.41200 28.24100
N  41.08300 8.51600 27.83400
C  40.18300 8.04300 26.95500
C  40.69400 8.09700 25.43000
C  42.14700 8.59900 25.60400
C  42.16500 8.98400 27.12700
C  40.54800 6.67700 24.69700
C  42.54600 9.64900 24.55700
C  42.46400 11.16600 25.06100
N  42.31400 9.99800 29.91100
C  43.17300 10.25800 28.91600
C  44.20100 11.16800 29.48500
C  43.91800 11.26900 30.84500
C  42.77400 10.54700 31.07800
C  45.32200 11.79700 28.73100
C  44.38500 11.83600 32.05700
O  45.39400 12.47300 32.23800
C  43.31300 11.41700 33.15800
C  44.01100 10.74500 34.28900
O  44.20000 9.53100 34.46900
O  44.39300 11.71600 35.22200
C  44.71200 11.19200 36.59500
H  37.39600 8.16100 32.82500
H  38.32600 7.50800 26.35800
H  44.03200 9.92900 27.03600
H  41.46600 9.18000 35.06900
H  38.49800 9.70300 34.45600
H  38.34900 7.77800 35.80000
H  40.05700 7.63100 35.82300
H  39.14100 6.93400 34.47400
H  40.51300 11.97200 34.34200
H  41.78000 11.46900 35.43700
H  39.43800 10.28600 36.53500
H  39.11400 12.02800 35.94500
H  34.52400 7.61500 30.50600
H  35.35600 7.85200 32.00400
H  35.20300 6.30800 31.37500
H  34.41400 5.79700 29.14100
H  34.04200 5.74000 27.45900
H  33.79400 7.31800 28.31800
H  40.04600 8.79600 24.90100
H  42.89300 7.80900 25.51500
H  41.48400 6.31300 24.27300
H  39.70500 6.71800 24.00700
H  40.33400 5.97100 25.50000
H  42.09900 9.67700 23.56300
H  43.57700 9.49700 24.23900
H  43.45700 11.52800 25.32900
H  41.74200 11.26600 25.87200
H  42.08300 11.84600 24.30000
H  45.11000 11.95500 27.67300
H  46.17000 11.12500 28.85800
H  45.53700 12.70400 29.29500
H  42.84200 12.36800 33.40700
H  43.97700 10.47900 36.96800
H  44.64600 12.02100 37.29900
H  45.73800 10.82800 36.64000
Mg 1.59800 42.49600 25.78000
C  3.00500 42.64900 29.05700
C  -1.19800 41.19100 27.12600
C  0.54700 41.92200 22.65200
C  4.74600 43.43100 24.58800
N  1.02200 42.09200 27.82000
C  1.69700 42.34100 29.01000
C  0.79100 42.09700 30.18800
C  -0.52200 41.57500 29.51600
C  -0.22100 41.51100 28.02900
C  -1.01200 40.15100 30.02800
C  0.61100 43.43700 30.96400
C  0.93600 43.48400 32.45900
H  0.02200 42.74400 33.43300
N  -0.09900 41.58200 25.02100
C  -1.13200 41.15000 25.70500
C  -2.16800 40.75300 24.82700
C  -1.79000 40.99400 23.49300
C  -0.40100 41.48100 23.67100
C  -3.41800 40.15600 25.28700
C  -2.45000 40.79100 22.11900
O  -1.95200 40.95400 21.01600
C  -3.89300 40.24400 22.06100
N  2.51000 42.59000 23.87500
C  1.79300 42.46300 22.72600
C  2.58700 42.80100 21.47600
C  3.79600 43.54300 22.12600
C  3.71700 43.13600 23.61200
C  2.99500 41.55200 20.67700
C  3.84700 45.05300 21.79400
C  4.29500 45.42900 20.28100
N  3.53500 42.92700 26.60200
C  4.65800 43.32200 25.94200
C  5.68300 43.58000 26.95000
C  5.07200 43.39700 28.17400
C  3.78700 42.95700 27.92600
C  7.16100 44.02200 26.71400
C  5.24600 43.37100 29.56100
O  6.27900 43.52800 30.19400
C  3.90300 42.97900 30.23200
C  4.06400 41.76500 31.12400
O  4.18600 40.61400 30.69200
O  4.13300 42.09800 32.39300
C  4.29400 41.11300 33.40600
H  -2.13300 40.90800 27.61300
H  0.19800 41.76100 21.62900
H  5.61300 43.86200 24.08300
H  1.18500 41.24600 30.74500
H  -1.40100 42.21100 29.61200
H  -0.70500 39.92700 31.05000
H  -0.62100 39.36100 29.38700
H  -2.09600 40.15400 30.14100
H  -0.44800 43.67600 30.85800
H  1.00000 44.26600 30.37300
H  0.92200 44.53800 32.73900
H  1.96000 43.12200 32.54500
H  -3.40800 39.06900 25.20600
H  -4.24100 40.60900 24.73500
H  -3.58500 40.42500 26.33000
H  -4.45300 40.94700 22.67700
H  -3.87400 39.28800 22.58400
H  -4.25800 40.12300 21.04100
H  2.05700 43.49200 20.82100
H  4.67500 43.15600 21.61100
H  2.70500 40.65900 21.23200
H  4.08000 41.45400 20.65400
H  2.45700 41.54400 19.72900
H  4.60600 45.54600 22.40100
H  2.84100 45.38900 22.04600
H  3.52700 45.93600 19.69600
H  4.63900 44.51100 19.80500
H  5.10000 46.15300 20.40800
H  7.64500 43.92400 25.74300
H  7.80900 43.50800 27.42400
H  7.15900 45.06800 27.02400
H  3.51500 43.85100 30.75900
H  5.28000 41.24600 33.85000
H  4.11200 40.07800 33.11700
H  3.51400 41.30500 34.14300

