158

Mg 16.90600 -1.59400 28.26300
C  15.50400 0.27400 30.99500
C  19.00600 -3.16300 30.61300
C  18.17200 -3.29200 25.78900
C  14.97900 0.32600 26.13000
N  17.26300 -1.37700 30.62000
C  16.56600 -0.57800 31.52600
C  17.07000 -0.85000 32.98600
C  18.34000 -1.68700 32.70300
C  18.13300 -2.18200 31.21100
C  19.70300 -1.07700 33.06400
C  15.93800 -1.64200 33.78300
C  16.08300 -1.70300 35.38600
H  17.15900 -0.82000 36.14400
N  18.31100 -3.11200 28.19100
C  19.07500 -3.63400 29.25800
C  19.87700 -4.71200 28.70700
C  19.64400 -4.77800 27.31000
C  18.65900 -3.72600 27.06100
C  20.77000 -5.54800 29.55900
C  20.21300 -5.65200 26.15600
O  19.70100 -5.67600 24.99000
C  21.32600 -6.65200 26.40600
N  16.63000 -1.45100 26.19300
C  17.31700 -2.22200 25.38200
C  16.95700 -2.03600 23.89500
C  15.88500 -0.85300 24.04500
C  15.77300 -0.60200 25.54600
C  18.18100 -1.63900 22.90800
C  14.54100 -1.21900 23.29700
C  14.47500 -0.81500 21.83600
N  15.60900 0.00700 28.40000
C  14.81500 0.62500 27.44700
C  13.88900 1.54700 28.06700
C  14.17900 1.39100 29.43800
C  15.17600 0.46300 29.59400
C  12.96800 2.55700 27.47900
C  13.76500 1.89600 30.78000
O  12.90600 2.72600 31.06200
C  14.67600 1.22800 31.84200
C  15.47100 2.30300 32.49000
O  16.06900 3.22400 31.89000
O  15.33900 2.33400 33.82300
C  16.13100 3.30900 34.59600
H  19.67700 -3.62800 31.33800
H  18.38300 -3.86800 24.88500
H  14.38000 1.02400 25.54100
H  17.29700 0.09500 33.48000
H  18.28700 -2.63800 33.23300
H  20.35800 -1.11700 32.19400
H  20.16900 -1.65400 33.86300
H  19.46100 -0.08900 33.45600
H  15.89800 -2.65000 33.37000
H  14.95500 -1.20300 33.60800
H  16.28400 -2.74700 35.62400
H  15.19900 -1.46400 35.97800
H  21.75200 -5.16000 29.28900
H  20.57700 -6.55600 29.19400
H  20.58400 -5.43500 30.62800
H  21.60900 -7.05200 25.43200
H  20.90500 -7.44200 27.02800
H  22.10000 -6.01600 26.83300
H  16.45700 -2.92100 23.50100
H  16.21100 0.09300 23.61300
H  17.90100 -0.88800 22.17000
H  18.49600 -2.56600 22.42900
H  18.96700 -1.18300 23.51100
H  13.64200 -0.78500 23.73500
H  14.46000 -2.30400 23.36600
H  13.52800 -0.32600 21.60700
H  14.55000 -1.68100 21.17900
H  15.33700 -0.22100 21.53200
H  12.95400 2.41000 26.39900
H  13.44300 3.51000 27.71200
H  11.96100 2.52500 27.89400
H  14.05400 0.81100 32.63500
H  17.11700 3.48800 34.16600
H  16.18600 3.01000 35.64300
H  15.53600 4.21400 34.71600
Mg 44.78400 4.00100 47.58200
C  42.30600 6.64600 47.15300
C  42.13800 1.76800 47.29300
C  46.93700 1.73500 47.43100
C  47.32400 6.50800 47.20500
N  42.54200 4.23300 47.23400
C  41.73300 5.35400 47.13400
C  40.25200 5.02000 46.97400
C  40.26300 3.53500 47.33400
C  41.71200 3.10500 47.27700
C  39.50300 3.26700 48.66900
C  39.54600 5.28100 45.58900
C  38.55800 6.46200 45.42400
H  38.42500 7.16100 43.99200
N  44.59500 2.02900 47.52600
C  43.44100 1.19800 47.38300
C  43.84600 -0.12900 47.58500
C  45.27600 -0.17000 47.61100
C  45.66700 1.24500 47.52000
C  42.87100 -1.23900 47.66000
C  46.17500 -1.44700 47.88600
O  45.72200 -2.53100 48.07100
C  47.66900 -1.39100 47.88300
N  46.87200 4.15700 47.29200
C  47.49800 2.98100 47.33800
C  49.05100 3.18700 47.37100
C  49.17300 4.71600 47.24000
C  47.70200 5.17200 47.25300
C  49.94600 2.62200 48.44000
C  49.93900 5.22000 45.94400
C  51.19800 6.00700 46.28300
N  44.89000 6.16900 47.30600
C  45.96200 7.05400 47.18200
C  45.49900 8.40800 46.98200
C  44.07000 8.26000 47.04000
C  43.75800 6.91500 47.27500
C  46.27200 9.73100 46.72000
C  42.85600 9.02800 46.86600
O  42.71600 10.23000 46.66500
C  41.65900 7.97800 46.91200
C  40.63500 8.46700 47.95300
O  40.54400 7.97600 49.09000
O  39.78200 9.42800 47.41800
C  38.65500 9.93800 48.20300
H  41.22600 1.18800 47.14100
H  47.79100 1.06400 47.53700
H  48.17000 7.19500 47.27200
H  39.64400 5.60400 47.66600
H  39.87100 2.91600 46.52700
H  40.23300 2.77600 49.31200
H  38.58200 2.68400 48.65200
H  39.19200 4.16000 49.21100
H  39.03200 4.37700 45.26300
H  40.24000 5.51500 44.78200
H  38.93000 7.17700 46.15800
H  37.52900 6.15300 45.60700
H  41.87100 -0.85200 47.46300
H  43.01200 -1.69300 48.64100
H  42.96800 -1.94800 46.83700
H  48.03300 -1.00100 46.93200
H  48.01500 -2.41600 48.01600
H  48.00700 -0.76800 48.71200
H  49.44300 2.81500 46.42400
H  49.59100 5.02600 48.19800
H  49.33300 1.96900 49.06000
H  50.39800 3.37300 49.08800
H  50.81100 2.10000 48.03100
H  49.31000 5.91800 45.39100
H  50.17900 4.43000 45.23200
H  51.24000 6.36000 47.31300
H  51.42000 6.83500 45.61000
H  52.00300 5.27400 46.33500
H  46.79100 9.65800 45.76500
H  47.08200 9.80600 47.44600
H  45.66600 10.63700 46.73400
H  41.31800 7.92100 45.87800
H  38.39700 10.96800 47.95700
H  38.91800 9.90300 49.26100
H  37.75600 9.33600 48.07400

