158

Mg 42.83600 41.30100 26.24800
C  41.76600 43.57900 28.68600
C  44.03900 39.27000 28.58200
C  43.50300 39.29300 23.77300
C  41.51500 43.63300 23.80100
N  42.93600 41.46100 28.32300
C  42.31800 42.38300 29.16700
C  42.39700 42.01300 30.61200
C  43.39600 40.76200 30.49700
C  43.46800 40.42300 29.05200
C  44.78600 41.00000 31.08800
C  41.09200 41.81400 31.41900
C  40.91600 42.57400 32.69100
H  40.70500 41.75500 33.97100
N  43.87200 39.67000 26.14300
C  44.23400 38.89400 27.24100
C  44.80600 37.66400 26.83400
C  44.51100 37.53000 25.43400
C  43.95800 38.84400 25.01500
C  45.39800 36.72000 27.77700
C  44.64200 36.28500 24.48600
O  44.52600 36.35800 23.26600
C  45.18800 35.00400 25.09400
N  42.52500 41.49700 24.12000
C  42.89000 40.41300 23.34800
C  42.35200 40.45600 21.92800
C  41.78800 41.93300 21.93200
C  41.91300 42.39200 23.40000
C  43.34500 40.17600 20.83500
C  40.31000 41.99800 21.39300
C  40.16000 42.59600 19.94700
N  41.83700 43.21800 26.21800
C  41.54400 44.07100 25.11300
C  41.05100 45.38800 25.62700
C  41.07000 45.19000 27.04300
C  41.66600 43.93900 27.34000
C  40.54700 46.56900 24.97800
C  40.70500 45.87900 28.33900
O  40.24500 47.01500 28.58700
C  41.20900 44.82700 29.47000
C  42.26400 45.40700 30.34600
O  43.46700 45.41600 30.14500
O  41.62400 45.80800 31.51600
C  42.51400 46.41800 32.52000
H  44.16800 38.46300 29.30500
H  43.50500 38.46200 23.06500
H  41.10600 44.33400 23.07000
H  43.00700 42.76600 31.11100
H  43.03800 39.96000 31.14200
H  44.95800 40.66400 32.11000
H  45.04700 42.04800 30.94200
H  45.52400 40.50800 30.45500
H  41.16500 40.75700 31.67400
H  40.21800 41.92200 30.77600
H  40.14500 43.34400 32.68200
H  41.87000 43.02800 32.96000
H  44.69700 35.91900 28.01100
H  45.72300 37.18500 28.70800
H  46.34700 36.40300 27.34500
H  44.99200 34.16500 24.42600
H  44.53400 34.73100 25.92300
H  46.25700 35.05300 25.30000
H  41.61600 39.65400 21.86900
H  42.47100 42.60800 21.41500
H  42.86300 40.53600 19.92600
H  43.45400 39.10400 20.67200
H  44.35400 40.57400 20.94000
H  39.59400 42.44500 22.08300
H  39.94500 40.97100 21.38000
H  40.23600 41.70800 19.32000
H  40.95700 43.32200 19.78800
H  39.18900 43.06600 19.79200
H  41.38000 47.27200 24.96200
H  39.70000 46.99200 25.51700
H  40.28900 46.40700 23.93100
H  40.35700 44.49400 30.06200
H  42.19000 47.37800 32.92400
H  43.53000 46.52900 32.14200
H  42.47900 45.73700 33.37000
Mg -12.60700 16.02200 42.31500
C  -9.56600 14.62800 41.55500
C  -11.68400 18.84200 40.44800
C  -15.79500 17.10900 41.93400
C  -13.82100 12.78100 42.98200
N  -10.83200 16.59000 41.13300
C  -9.67100 15.88200 40.96200
C  -8.63300 16.70800 40.21100
C  -9.29600 18.07600 39.86200
C  -10.72700 17.83600 40.48400
C  -8.39600 19.29500 40.31600
C  -8.03000 15.90600 38.95400
C  -6.43500 15.72800 38.91900
H  -5.78800 16.65800 37.78200
N  -13.54600 17.92400 41.66900
C  -12.98400 18.89900 40.93300
C  -13.90400 19.99600 40.72700
C  -15.11500 19.47500 41.08800
C  -14.81500 18.13300 41.61000
C  -13.53600 21.29900 40.14300
C  -16.50500 20.20200 41.02000
O  -16.66600 21.20000 40.34300
C  -17.65300 19.66200 41.80200
N  -14.57100 15.06900 42.25200
C  -15.76100 15.74400 42.22200
C  -16.94100 14.76400 42.43300
C  -16.22600 13.51900 43.17200
C  -14.77600 13.80400 42.78200
C  -18.13900 15.27700 43.30300
C  -16.74700 12.13900 42.69700
C  -16.66200 11.00300 43.72000
N  -11.84400 14.05900 42.42100
C  -12.44300 12.81200 42.73900
C  -11.38300 11.81200 42.95900
C  -10.21200 12.47200 42.54200
C  -10.59300 13.81300 42.11900
C  -11.58400 10.41700 43.48900
C  -8.83700 12.30400 42.30000
O  -8.07900 11.36700 42.49400
C  -8.31700 13.71300 41.65100
C  -7.44700 14.19500 42.68600
O  -7.84000 14.60800 43.77800
O  -6.16300 14.10700 42.26600
C  -5.11400 14.59400 43.21300
H  -11.30800 19.72500 39.92700
H  -16.82800 17.38400 41.71400
H  -14.13500 11.83300 43.42400
H  -7.83300 16.77900 40.94800
H  -9.49900 18.24300 38.80400
H  -8.35200 20.03300 39.51400
H  -7.40900 18.96700 40.63900
H  -8.74800 19.84100 41.19100
H  -8.36000 16.35000 38.01500
H  -8.45800 14.90400 38.97700
H  -6.18100 14.68000 38.76000
H  -5.96400 16.06100 39.84300
H  -13.93700 21.35200 39.13100
H  -12.45300 21.38300 40.05500
H  -13.87800 22.04400 40.86100
H  -18.26900 19.06500 41.12900
H  -18.26100 20.50600 42.12800
H  -17.21000 19.18100 42.67400
H  -17.40000 14.40300 41.51200
H  -16.44500 13.70500 44.22400
H  -18.99200 14.73100 42.89900
H  -18.28700 16.31800 43.01700
H  -18.05200 15.23800 44.38900
H  -16.05400 11.84900 41.90700
H  -17.72100 12.24000 42.21800
H  -15.97400 11.28600 44.51600
H  -16.28700 10.03700 43.38400
H  -17.64500 11.01600 44.19100
H  -11.95200 9.64700 42.81000
H  -12.19500 10.37800 44.39100
H  -10.56800 10.06300 43.66300
H  -7.76300 13.66300 40.71400
H  -5.04600 15.68100 43.21300
H  -4.12900 14.14300 43.09600
H  -5.33000 14.33800 44.25000

