158

Mg 7.35900 1.77700 27.75300
C  9.28200 0.60900 30.58200
C  5.81300 4.06000 29.75600
C  5.82800 2.90300 25.04700
C  8.84000 -0.77700 25.95800
N  7.40200 2.04500 30.05800
C  8.32400 1.57900 30.96600
C  8.21200 2.46400 32.25700
C  6.92200 3.35200 32.00800
C  6.65600 3.10000 30.51600
C  5.76800 2.98700 33.01100
C  9.54200 3.25600 32.48000
C  9.53800 4.17000 33.73800
H  10.42000 3.75800 34.90400
N  6.04700 3.27000 27.40400
C  5.50800 4.13200 28.33000
C  4.61300 5.10000 27.65700
C  4.73700 4.87700 26.31400
C  5.57400 3.62700 26.19100
C  3.72300 6.11700 28.40300
C  4.16900 5.71000 25.16500
O  4.46800 5.45300 23.98100
C  3.23300 6.77800 25.34400
N  7.48900 1.25700 25.67200
C  6.60100 1.74900 24.83300
C  6.66900 1.05000 23.49700
C  7.67300 -0.05200 23.77200
C  8.08300 0.14300 25.20100
C  5.35300 0.56200 23.00900
C  8.76200 -0.25500 22.76900
C  8.62100 -1.59000 22.11100
N  8.84200 0.24900 28.05500
C  9.37400 -0.71300 27.24300
C  10.42500 -1.48700 27.93300
C  10.47000 -0.90400 29.20800
C  9.42300 0.05000 29.29400
C  11.27200 -2.58300 27.29700
C  11.05100 -1.06200 30.50800
O  11.94700 -1.79500 30.92000
C  10.36600 -0.07200 31.38600
C  9.83600 -0.62600 32.63800
O  8.97400 -1.46700 32.78300
O  10.50800 -0.00900 33.67600
C  10.14800 -0.54000 35.05400
H  5.31600 4.84500 30.33000
H  5.36800 3.33600 24.15600
H  9.34500 -1.55300 25.38000
H  8.12600 1.78600 33.10600
H  7.18800 4.39500 32.17900
H  6.05400 2.11000 33.59100
H  4.97400 2.78700 32.29100
H  5.59100 3.85400 33.64800
H  9.95800 3.64100 31.54800
H  10.28300 2.50500 32.75500
H  8.52200 4.04300 34.11200
H  9.71700 5.22100 33.50800
H  3.82300 7.16800 28.13200
H  3.84600 5.96900 29.47600
H  2.81100 5.65800 28.02000
H  2.43300 6.24200 25.85500
H  2.78200 6.93300 24.36400
H  3.61500 7.70300 25.77600
H  7.00100 1.73400 22.71700
H  7.14800 -1.00500 23.83500
H  4.42000 0.72400 23.54900
H  5.40800 -0.52600 23.04400
H  5.32500 0.81000 21.94800
H  9.79700 -0.13000 23.08600
H  8.64300 0.57400 22.07100
H  7.76400 -1.77400 21.46300
H  8.74000 -2.32800 22.90400
H  9.47800 -1.74100 21.45500
H  11.84100 -2.09000 26.50900
H  10.75000 -3.36400 26.74400
H  11.94100 -3.05900 28.01300
H  11.12900 0.69400 31.52400
H  10.45500 -1.57900 35.17400
H  9.11800 -0.50400 35.40900
H  10.79700 0.04300 35.70800
Mg 25.10700 -5.25700 45.90700
C  26.95500 -2.76900 44.40200
C  22.29700 -4.22000 44.07700
C  23.59700 -8.11900 46.87000
C  28.07900 -6.47900 47.54100
N  24.66300 -3.68000 44.43600
C  25.65800 -2.80300 43.94400
C  25.06600 -1.96700 42.84700
C  23.48200 -2.08500 43.17900
C  23.43700 -3.41300 43.96600
C  22.93400 -0.99900 44.12000
C  25.52400 -2.55600 41.45300
C  26.37400 -1.62500 40.52000
H  25.95600 -1.54000 39.02000
N  23.24900 -6.01700 45.54500
C  22.21500 -5.44300 44.82300
C  21.13000 -6.32700 44.80700
C  21.34700 -7.45500 45.56500
C  22.79500 -7.24000 46.04400
C  19.81800 -5.92700 44.18200
C  20.50800 -8.65800 45.75800
O  19.34200 -8.63800 45.35300
C  20.82500 -9.73700 46.66300
N  25.75600 -7.16700 46.94600
C  24.87100 -8.10200 47.26700
C  25.48800 -9.04000 48.30300
C  26.87800 -8.44300 48.62400
C  26.97500 -7.27500 47.62500
C  24.65800 -9.58400 49.58400
C  28.10800 -9.42000 48.63600
C  28.76900 -9.50500 49.97800
N  27.07500 -4.78600 46.03100
C  28.14900 -5.34700 46.72200
C  29.35400 -4.49300 46.48700
C  28.87300 -3.61800 45.48900
C  27.52800 -3.72800 45.35100
C  30.67800 -4.61100 46.99300
C  29.38000 -2.63100 44.57500
O  30.44100 -2.22000 44.43600
C  28.12000 -1.99600 43.83500
C  28.06900 -0.58400 44.16200
O  27.85600 -0.13300 45.27500
O  28.35400 0.20600 43.08700
C  28.85000 1.50600 43.41100
H  21.42100 -3.78800 43.58900
H  23.12300 -9.00000 47.30900
H  28.92600 -6.74500 48.17700
H  25.42600 -0.95800 43.05200
H  22.78700 -2.29400 42.36600
H  22.40600 -0.28100 43.49200
H  23.73500 -0.42200 44.58200
H  22.32500 -1.37800 44.94000
H  24.65000 -2.92000 40.91100
H  26.02100 -3.51900 41.56900
H  27.41800 -1.93300 40.55500
H  26.28600 -0.58700 40.83900
H  19.16300 -6.78900 44.05100
H  19.95400 -5.60300 43.15000
H  19.27600 -5.17600 44.75700
H  19.89700 -10.28300 46.83600
H  21.09600 -9.28600 47.61700
H  21.65000 -10.36000 46.31800
H  25.61900 -9.96700 47.74300
H  26.79800 -8.01100 49.62200
H  25.21300 -9.62200 50.52100
H  24.24200 -10.58200 49.44500
H  23.84700 -8.85600 49.58700
H  28.82300 -9.11300 47.87200
H  27.90100 -10.45800 48.37500
H  28.02200 -9.57800 50.76900
H  29.27000 -8.56300 50.20000
H  29.51700 -10.29700 50.00000
H  31.36400 -3.85400 46.61300
H  30.92500 -5.63000 46.69600
H  30.62600 -4.55400 48.08100
H  28.30200 -2.12600 42.76800
H  28.99800 2.12000 42.52200
H  29.87000 1.37600 43.77400
H  28.27100 2.17200 44.05000

