158

Mg 46.10700 25.06600 28.11800
C  46.78200 27.23400 30.88000
C  45.15600 22.71500 30.38800
C  46.02100 22.84600 25.57800
C  47.82500 27.20900 26.09000
N  45.90300 25.08800 30.33800
C  46.11700 26.09300 31.27700
C  45.66700 25.74500 32.75300
C  45.37200 24.21300 32.55000
C  45.51500 23.97700 31.00200
C  46.31200 23.35200 33.32800
C  44.47400 26.57000 33.32400
C  44.63300 27.26700 34.68200
H  43.61600 27.13600 35.84500
N  45.55700 23.05300 27.99300
C  45.06600 22.25800 28.99900
C  44.67700 20.88100 28.52700
C  45.11200 20.86700 27.09200
C  45.62600 22.28500 26.83600
C  44.18500 19.80800 29.32600
C  45.09700 19.70900 26.15200
O  45.53800 19.77300 25.01500
C  44.67800 18.35300 26.63500
N  46.78800 25.04000 26.16200
C  46.47800 24.09100 25.23800
C  46.87600 24.57800 23.82900
C  47.14400 26.09900 24.02300
C  47.18300 26.18200 25.49600
C  48.09300 23.83500 23.20300
C  45.96500 27.02700 23.50500
C  46.32300 28.00200 22.33700
N  47.25900 26.77500 28.34800
C  47.87700 27.58600 27.39300
C  48.38300 28.82700 28.01900
C  47.94800 28.69100 29.37900
C  47.27000 27.51000 29.56900
C  49.04900 29.92400 27.30600
C  47.93700 29.30600 30.66200
O  48.48800 30.38900 30.94100
C  47.23700 28.36200 31.77400
C  48.19800 27.83500 32.85200
O  49.01100 26.98600 32.58400
O  48.11900 28.54300 34.05700
C  48.85800 28.06800 35.24900
H  44.76800 22.07900 31.18600
H  46.00600 22.07100 24.80900
H  48.22100 27.91000 25.35300
H  46.56800 25.91000 33.34300
H  44.36800 23.89100 32.82700
H  47.05400 22.87000 32.69200
H  45.75100 22.58700 33.86500
H  46.89900 23.87600 34.08200
H  43.58100 25.95000 33.40200
H  44.21200 27.29300 32.55200
H  44.77400 28.31100 34.40200
H  45.62900 26.96800 35.00900
H  43.36700 19.33600 28.78200
H  44.07200 20.19600 30.33800
H  44.97800 19.08300 29.50600
H  45.45000 18.03200 27.33500
H  44.53000 17.77500 25.72300
H  43.69900 18.38600 27.11200
H  46.09100 24.56000 23.07200
H  48.09900 26.48200 23.66200
H  48.32100 22.92900 23.76400
H  49.01200 24.41400 23.10800
H  47.77800 23.47200 22.22500
H  45.70200 27.64600 24.36300
H  45.03200 26.50100 23.30100
H  46.31300 28.99600 22.78300
H  45.47000 27.94800 21.66000
H  47.26200 27.76900 21.83400
H  48.38600 30.74100 27.02300
H  49.56900 29.52700 26.43400
H  49.86500 30.30300 27.92100
H  46.36100 28.83900 32.21200
H  48.49200 27.04600 35.35000
H  48.71400 28.58000 36.20000
H  49.91700 28.09200 34.99300
Mg 31.05000 59.56100 38.45000
C  28.01200 58.07800 37.42900
C  32.73900 57.09100 36.97800
C  33.80700 61.48700 38.70400
C  29.05800 62.66000 38.78900
N  30.42100 57.77500 37.36900
C  29.20100 57.37900 37.02800
C  29.18800 56.04600 36.32500
C  30.69200 55.62600 36.41300
C  31.37900 56.82500 37.04900
C  30.95300 54.26800 37.21700
C  28.62800 56.18700 34.87000
C  27.41300 55.28100 34.49100
H  26.28300 55.98200 33.72700
N  33.06400 59.14800 38.09000
C  33.55400 58.10500 37.46900
C  35.02600 58.24800 37.26900
C  35.41400 59.57200 37.75200
C  34.07100 60.17000 38.22100
C  35.87500 57.17300 36.60300
C  36.78300 60.07100 37.76500
O  37.68000 59.45600 37.22800
C  37.10900 61.37400 38.39900
N  31.37700 61.68700 38.61600
C  32.65200 62.20200 38.75900
C  32.62800 63.74300 38.93800
C  31.17700 64.12800 38.62300
C  30.47300 62.75000 38.77200
C  33.32700 64.32700 40.15600
C  30.80800 64.80100 37.29100
C  30.01200 66.05200 37.46200
N  28.95400 60.19800 38.40600
C  28.39300 61.44700 38.61100
C  26.92500 61.26800 38.46800
C  26.78600 59.91900 38.12000
C  28.02800 59.29400 38.01600
C  25.93800 62.36000 38.68500
C  25.70900 59.02400 37.69700
O  24.50800 59.28200 37.54600
C  26.48800 57.71800 37.27800
C  26.10300 56.58800 38.18300
O  26.69800 56.42200 39.24800
O  25.07000 55.70800 37.77400
C  24.81600 54.56600 38.65700
H  33.26100 56.20200 36.61800
H  34.68100 62.14100 38.68900
H  28.51500 63.60800 38.78700
H  28.54300 55.39400 36.91300
H  31.11500 55.44700 35.42500
H  30.14200 53.56500 37.02900
H  30.98100 54.45600 38.29000
H  31.82200 53.71300 36.86300
H  29.38400 55.92000 34.13000
H  28.46200 57.26400 34.82600
H  26.96900 54.83800 35.38300
H  27.80900 54.46200 33.89000
H  35.25800 56.29500 36.40800
H  36.55800 56.94100 37.42100
H  36.37300 57.39400 35.65900
H  38.18200 61.43100 38.58200
H  36.65700 61.43700 39.38900
H  36.84800 62.19500 37.73200
H  33.16700 63.93200 38.01000
H  30.79600 64.68600 39.47900
H  33.75300 65.28800 39.86800
H  34.11900 63.69700 40.56000
H  32.65200 64.52600 40.98800
H  30.26300 64.10300 36.65500
H  31.67300 65.13300 36.71700
H  28.97300 65.92800 37.15600
H  30.29700 66.82400 36.74800
H  29.95400 66.45800 38.47200
H  26.33600 63.33300 38.97400
H  25.20600 61.99900 39.40800
H  25.43300 62.59200 37.74700
H  26.12700 57.53600 36.26600
H  24.04900 54.73300 39.41300
H  25.67400 54.21300 39.23000
H  24.42100 53.75000 38.05200

