158

Mg 35.23100 2.86900 29.93900
C  32.90400 3.78000 32.55800
C  37.69200 2.97800 32.28100
C  37.37300 2.12600 27.51700
C  32.62600 3.02300 27.67400
N  35.31200 3.45000 32.14900
C  34.26200 3.72600 32.99500
C  34.76900 3.83200 34.47800
C  36.32000 3.98700 34.27800
C  36.49100 3.48600 32.82100
C  36.83300 5.51500 34.38200
C  34.39800 2.69500 35.44300
C  34.04400 3.17500 36.91200
H  35.01900 4.03100 37.65400
N  37.22500 2.63300 29.92200
C  38.07600 2.57100 30.99700
C  39.38500 2.14700 30.57900
C  39.35400 2.09200 29.17700
C  37.92100 2.34700 28.80300
C  40.53900 1.90900 31.57000
C  40.50300 1.77000 28.18100
O  40.35500 1.77300 26.97900
C  41.87300 1.50400 28.79800
N  34.98100 2.44900 27.96700
C  36.04500 2.17700 27.14500
C  35.62200 1.98000 25.63400
C  34.09100 2.21700 25.79600
C  33.85600 2.60400 27.26400
C  36.37400 2.98800 24.63300
C  33.25900 1.01400 25.42700
C  32.62800 1.01200 23.98400
N  33.15300 3.41900 30.04500
C  32.20600 3.48600 28.99500
C  30.93000 3.92500 29.56500
C  31.19900 4.09700 30.91600
C  32.55200 3.72500 31.16800
C  29.59500 3.95600 28.78600
C  30.55400 4.29400 32.20400
O  29.36700 4.41000 32.36500
C  31.65200 4.08500 33.31400
C  31.83000 5.41000 34.01700
O  32.31300 6.38700 33.42100
O  31.45700 5.30700 35.31700
C  31.64900 6.52700 36.16900
H  38.46500 3.05100 33.04900
H  38.00000 1.84900 26.66700
H  31.68100 2.93200 27.13400
H  34.42600 4.75300 34.95100
H  36.84500 3.31200 34.95500
H  37.54300 5.53600 35.20900
H  36.12800 6.32200 34.58100
H  37.40300 5.79400 33.49600
H  35.29100 2.09500 35.61900
H  33.59300 2.21000 34.89100
H  34.03500 2.26900 37.51800
H  33.08100 3.67700 36.82000
H  41.36600 2.59400 31.38300
H  40.95500 0.91100 31.43900
H  40.31600 1.89200 32.63700
H  42.13900 2.36100 29.41700
H  42.59900 1.42000 27.98900
H  41.92200 0.56400 29.34800
H  36.00700 0.98200 25.42300
H  33.74100 3.05900 25.19900
H  36.40000 3.95600 25.13400
H  35.73600 2.94400 23.75000
H  37.34300 2.53500 24.42100
H  32.47000 0.70400 26.11300
H  33.94100 0.16500 25.38900
H  31.58300 0.70700 24.03600
H  33.24600 0.32000 23.41200
H  32.55000 1.97800 23.48400
H  29.17800 2.94900 28.80500
H  29.72800 4.33300 27.77200
H  28.97300 4.64500 29.35700
H  31.39400 3.29800 34.02300
H  32.27600 7.30100 35.72600
H  32.15700 6.22500 37.08600
H  30.74000 7.01200 36.52400
Mg 46.90800 16.30100 27.66900
C  45.11700 15.99700 30.68400
C  49.49500 17.88000 29.44600
C  48.55900 16.57700 24.84700
C  44.05900 14.94100 26.04600
N  47.28100 16.85800 29.86900
C  46.41700 16.60500 30.87100
C  46.98500 17.16200 32.17300
C  48.22200 18.00200 31.77600
C  48.33400 17.58600 30.28100
C  47.97300 19.53300 32.04300
C  47.17600 15.99900 33.20800
C  47.35100 16.44300 34.65300
H  47.23200 17.94900 35.08900
N  48.76200 17.06000 27.24500
C  49.67600 17.63600 28.04100
C  50.93200 17.83600 27.35600
C  50.68000 17.55800 26.02700
C  49.24300 17.07900 25.99300
C  52.16300 18.31600 28.05800
C  51.66800 17.49100 24.77300
O  51.33600 17.15900 23.65200
C  53.01100 18.02400 24.94300
N  46.30400 15.94500 25.70800
C  47.20400 16.12200 24.66700
C  46.60100 15.70800 23.31200
C  45.25300 14.99400 23.83100
C  45.21300 15.23500 25.29100
C  46.54500 16.93100 22.35900
C  45.31600 13.46700 23.49200
C  44.50200 13.17500 22.22300
N  45.02100 15.51700 28.18400
C  43.94800 15.08100 27.42600
C  42.80100 14.82800 28.23800
C  43.20900 15.13200 29.55300
C  44.54000 15.62200 29.45400
C  41.45200 14.27100 27.79000
C  42.83100 15.11800 30.84500
O  41.81000 14.56100 31.31100
C  43.98400 15.76300 31.74600
C  43.46100 16.95700 32.39900
O  43.26700 18.05600 31.88600
O  43.17400 16.62900 33.73400
C  42.81400 17.71900 34.63600
H  50.15200 18.49700 30.06400
H  49.17100 16.40200 23.95900
H  43.26700 14.49600 25.44000
H  46.16800 17.77400 32.55500
H  49.06900 17.79800 32.43100
H  48.87900 20.09500 32.27100
H  47.28200 19.66100 32.87600
H  47.52500 19.93100 31.13200
H  48.09500 15.49300 32.91300
H  46.32100 15.32400 33.16700
H  48.39000 16.23100 34.90700
H  46.64600 15.83400 35.21800
H  51.91900 19.37800 28.02400
H  53.11200 17.95600 27.66000
H  52.19100 18.14600 29.13400
H  53.46700 17.28300 25.60000
H  53.02700 19.04100 25.33500
H  53.61400 17.94000 24.03900
H  47.22500 14.94100 22.85300
H  44.55000 15.58100 23.24000
H  47.20200 17.69900 22.76700
H  45.52700 17.30600 22.25400
H  46.87900 16.71700 21.34400
H  44.87700 12.95100 24.34500
H  46.30700 13.01400 23.48500
H  45.15000 12.56600 21.59200
H  44.31600 14.09700 21.67200
H  43.54800 12.67000 22.37200
H  40.64200 14.64900 28.41300
H  41.42800 13.19200 27.93800
H  41.14500 14.38300 26.75000
H  44.09500 14.99800 32.51500
H  41.86900 18.10600 34.25400
H  43.59500 18.46700 34.49500
H  42.82400 17.53700 35.71000

