158

Mg 48.29000 16.32100 28.19900
C  46.09700 16.04000 30.94500
C  50.42900 18.18600 30.20900
C  50.23000 16.53100 25.68900
C  45.57800 15.24600 26.12100
N  48.21000 17.03400 30.29900
C  47.29400 16.75300 31.24500
C  47.67300 17.35200 32.63500
C  48.89600 18.23100 32.30100
C  49.21500 17.81200 30.85000
C  48.76000 19.73800 32.47900
C  48.03100 16.17400 33.63100
C  47.58900 16.35500 35.01900
H  47.67300 17.81600 35.61100
N  50.13700 17.10100 28.01400
C  50.94200 17.73700 28.93700
C  52.22500 18.01500 28.34500
C  52.15400 17.52000 27.03800
C  50.80600 17.05700 26.81300
C  53.36800 18.48200 29.23400
C  53.28900 17.49700 25.95800
O  53.10900 16.94000 24.91600
C  54.64700 18.23700 26.05500
N  47.89500 16.11600 26.15800
C  48.97400 16.06400 25.34400
C  48.69100 15.33100 23.96400
C  47.10200 15.10200 24.08100
C  46.81600 15.53000 25.52900
C  49.10100 15.95200 22.55800
C  46.53300 13.67100 23.73300
C  46.79100 12.60500 24.73200
N  46.21800 15.76800 28.42700
C  45.28100 15.28500 27.49500
C  44.09700 14.82700 28.19000
C  44.37600 15.13700 29.52900
C  45.66300 15.73600 29.62600
C  42.80300 14.23800 27.69700
C  43.78200 15.15400 30.85200
O  42.63400 14.86600 31.22100
C  44.85500 15.78700 31.86400
C  44.28700 17.08300 32.32900
O  44.20800 18.10500 31.68700
O  43.94500 16.87900 33.67900
C  43.12700 18.02700 34.18500
H  51.05300 18.90100 30.74900
H  50.77400 16.45300 24.74600
H  44.85900 14.88900 25.38200
H  46.79100 17.86200 33.02200
H  49.77300 17.99600 32.90400
H  48.97500 20.29500 31.56800
H  49.41900 20.07300 33.28000
H  47.72100 19.95600 32.72900
H  49.06800 15.83900 33.60500
H  47.42200 15.33400 33.29700
H  48.20900 15.65000 35.57300
H  46.54600 16.04100 35.02100
H  53.79600 19.41800 28.87500
H  54.26400 17.87400 29.10700
H  53.08200 18.61900 30.27700
H  55.40300 17.75600 25.43400
H  55.15500 18.15600 27.01500
H  54.45900 19.28200 25.80700
H  49.08600 14.31500 23.98600
H  46.57400 15.80700 23.43900
H  48.23700 16.06800 21.90400
H  49.85500 15.32600 22.08100
H  49.55400 16.93300 22.69900
H  46.90000 13.32000 22.76900
H  45.47000 13.79900 23.52900
H  47.37200 11.76200 24.35700
H  45.90700 12.17300 25.20100
H  47.40000 12.95700 25.56500
H  42.27400 13.71000 28.49100
H  43.05400 13.49600 26.93900
H  42.01700 14.85100 27.25600
H  44.98800 15.04900 32.65600
H  42.76700 18.68600 33.39500
H  43.72800 18.57800 34.90900
H  42.21300 17.83000 34.74600
Mg 48.51900 34.62500 26.32500
C  46.47200 33.55800 28.95400
C  49.07800 37.49500 28.13000
C  50.04500 35.99900 23.67600
C  47.42400 32.06600 24.30800
N  47.77300 35.46300 28.34800
C  47.10000 34.76800 29.35200
C  47.42400 35.44500 30.73700
C  47.83700 36.86900 30.24600
C  48.36500 36.53700 28.81500
C  46.69900 37.99500 30.13500
C  48.53500 34.64700 31.52400
C  48.38800 34.42200 33.07200
H  47.42300 35.50200 33.71100
N  49.49300 36.42800 26.00000
C  49.67500 37.43500 26.89000
C  50.46600 38.53300 26.30200
C  50.73800 38.11300 24.99600
C  50.00500 36.84000 24.85400
C  50.77900 39.80400 27.09500
C  51.52000 38.81900 23.95900
O  51.39900 38.64300 22.77200
C  52.30800 40.00800 24.36900
N  48.85700 34.00400 24.35600
C  49.46200 34.70000 23.42100
C  49.44100 34.05200 22.06300
C  48.82200 32.62300 22.37600
C  48.40100 32.90600 23.77300
C  48.75500 34.92400 21.01100
C  49.76800 31.36700 22.20900
C  49.39200 30.33300 21.15700
N  47.24000 33.09100 26.54900
C  46.91000 32.08100 25.65600
C  45.96800 31.21600 26.32600
C  45.80900 31.74300 27.59600
C  46.50100 32.95000 27.68100
C  45.41800 29.89700 25.68600
C  45.10500 31.49200 28.86700
O  44.32900 30.58400 29.22300
C  45.58700 32.58600 29.85500
C  46.35000 31.87500 30.87100
O  47.44900 31.42100 30.69300
O  45.63500 31.81200 32.02600
C  46.32700 30.98700 33.01300
H  49.33900 38.38200 28.71200
H  50.46800 36.46800 22.78600
H  47.15000 31.16200 23.76000
H  46.47900 35.50400 31.27600
H  48.59500 37.33300 30.87600
H  46.27200 38.10400 29.13800
H  47.12600 38.95600 30.42300
H  46.02000 37.68800 30.93100
H  49.50300 35.05400 31.23200
H  48.52600 33.63500 31.11900
H  49.35700 34.57200 33.55000
H  48.01300 33.43100 33.32800
H  51.76700 39.71800 27.54600
H  50.07900 40.02300 27.90200
H  50.63200 40.66600 26.44500
H  51.66800 40.88500 24.46600
H  53.10300 40.13300 23.63400
H  52.69500 39.76200 25.35900
H  50.48800 33.92100 21.78900
H  47.92500 32.49500 21.77100
H  48.02100 34.36100 20.43500
H  49.30000 35.55800 20.31200
H  48.21500 35.67700 21.58500
H  49.78200 30.89200 23.19000
H  50.78000 31.71300 21.99600
H  50.22300 30.47700 20.46700
H  48.44700 30.51100 20.64300
H  49.46800 29.32700 21.56900
H  44.86200 29.43200 26.50000
H  46.30100 29.27700 25.53400
H  44.80300 30.01300 24.79300
H  44.79900 33.09500 30.41000
H  45.81200 31.05600 33.97100
H  47.34700 31.29300 33.24400
H  46.29100 29.94000 32.71200

