158

Mg 17.22700 52.41700 26.60700
C  19.14500 50.42800 28.88500
C  15.12900 53.25100 29.15700
C  15.39600 53.68700 24.39800
C  19.33700 50.90200 24.00100
N  17.08900 51.74300 28.73000
C  18.10000 51.19000 29.48300
C  17.83700 51.41200 31.00400
C  16.41000 51.95500 31.03900
C  16.18500 52.37600 29.54900
C  15.38900 50.84700 31.46700
C  18.89400 52.39000 31.62900
C  19.30200 52.00600 33.05600
H  18.20500 51.43200 33.97600
N  15.51200 53.46600 26.77900
C  14.77500 53.71700 27.89900
C  13.76300 54.65800 27.52400
C  13.83900 54.93500 26.14800
C  14.92000 54.01500 25.71500
C  12.80000 55.20300 28.54900
C  13.09400 55.89300 25.32700
O  13.21300 56.00900 24.07200
C  12.29300 56.96900 26.13400
N  17.33200 52.20400 24.54000
C  16.43800 52.93400 23.86800
C  16.79000 52.99300 22.36800
C  18.00600 52.06500 22.23100
C  18.27600 51.67700 23.67200
C  15.53200 52.84600 21.44600
C  19.24400 52.66900 21.47800
C  20.21200 53.62200 22.16200
N  18.96200 51.04200 26.42800
C  19.66900 50.51200 25.32900
C  20.67000 49.54900 25.77700
C  20.52000 49.59600 27.12800
C  19.46800 50.46500 27.49700
C  21.64600 48.81800 24.88100
C  21.08700 49.04300 28.32400
O  21.96700 48.19300 28.47000
C  20.30500 49.68100 29.50900
C  19.89300 48.62000 30.47100
O  19.03700 47.77300 30.33900
O  20.49200 48.92100 31.68500
C  20.27300 48.09800 32.93200
H  14.45500 53.45500 29.99200
H  14.68300 54.19500 23.74600
H  19.90100 50.44700 23.18400
H  17.78300 50.45700 31.52700
H  16.28400 52.78200 31.73800
H  14.93300 50.40800 30.57900
H  14.55300 51.26400 32.02900
H  15.91000 50.10800 32.07500
H  18.54500 53.42300 31.64200
H  19.77700 52.37500 30.99000
H  19.75400 52.81700 33.62800
H  20.03500 51.20000 33.02600
H  11.76200 54.93400 28.35200
H  12.81400 56.29300 28.56100
H  13.01700 54.89700 29.57200
H  13.10700 57.37100 26.73700
H  11.40100 56.51500 26.56400
H  11.93900 57.76900 25.48400
H  17.13400 53.97400 22.03900
H  17.66600 51.22200 21.62900
H  14.75500 52.35700 22.03400
H  15.75600 52.11000 20.67400
H  15.16600 53.79800 21.06100
H  18.87500 53.09500 20.54400
H  19.83300 51.82800 21.11300
H  21.10500 52.99800 22.16400
H  19.75400 53.90100 23.11100
H  20.23500 54.42400 21.42500
H  22.55000 49.36900 24.62400
H  21.11100 48.57000 23.96500
H  21.93500 47.89100 25.37700
H  20.93500 50.43200 29.98400
H  20.92900 48.30500 33.77700
H  20.31900 47.03000 32.71700
H  19.23700 48.29100 33.21000
Mg -5.99000 25.29600 26.42800
C  -4.51500 26.41500 29.33300
C  -7.90400 23.12400 28.35100
C  -6.83300 23.57600 23.66400
C  -3.56200 27.03500 24.62600
N  -6.26400 24.89100 28.56400
C  -5.58900 25.53300 29.61600
C  -6.14700 25.08400 30.99900
C  -6.98400 23.81200 30.65700
C  -7.13500 23.90700 29.11900
C  -6.38900 22.44100 31.21000
C  -6.83900 26.19900 31.80400
C  -6.59400 26.21100 33.32900
H  -5.82400 24.97500 33.91300
N  -7.28400 23.63200 26.04900
C  -7.93200 22.89300 26.97400
C  -8.79800 21.95200 26.29200
C  -8.60900 22.07300 24.87700
C  -7.51400 23.10500 24.81200
C  -9.72100 21.05700 27.00000
C  -9.26200 21.31800 23.77100
O  -8.97900 21.70300 22.62400
C  -10.32600 20.28600 23.96600
N  -5.29000 25.30000 24.45000
C  -5.89100 24.56600 23.44400
C  -5.18600 24.77900 22.15200
C  -4.33700 26.07600 22.37300
C  -4.36100 26.17600 23.90900
C  -4.24600 23.63400 21.72000
C  -5.01800 27.39700 21.84700
C  -4.35100 27.96100 20.60300
N  -4.45300 26.61800 26.82800
C  -3.64900 27.34500 26.00200
C  -2.75700 28.16300 26.79800
C  -3.12900 27.89200 28.11800
C  -4.10000 26.87300 28.05600
C  -1.75300 29.08100 26.27100
C  -2.76000 28.16800 29.48200
O  -1.84200 28.81600 29.97100
C  -3.62500 27.20400 30.32500
C  -2.57500 26.33000 30.95400
O  -1.81100 25.47600 30.49000
O  -2.55300 26.72700 32.30200
C  -1.33200 26.25200 32.97000
H  -8.65100 22.55800 28.91200
H  -7.06200 23.06600 22.72600
H  -2.81200 27.64700 24.12000
H  -5.19400 24.87300 31.48400
H  -7.98500 23.88800 31.08100
H  -7.08500 21.91700 31.86600
H  -5.44600 22.60200 31.73300
H  -6.17300 21.82300 30.33800
H  -7.91300 26.12000 31.63900
H  -6.35800 27.09500 31.40900
H  -7.53200 26.40700 33.84900
H  -5.99700 27.10400 33.51100
H  -9.47100 20.02900 26.74000
H  -10.76300 21.32200 26.81800
H  -9.70000 20.99200 28.08700
H  -10.61100 19.86600 24.93100
H  -10.15000 19.60400 23.13500
H  -11.28200 20.75400 23.73000
H  -5.91900 24.87400 21.35100
H  -3.34700 26.06000 21.91600
H  -3.19800 23.91700 21.81900
H  -4.32500 23.46500 20.64600
H  -4.27100 22.68900 22.26300
H  -5.02100 28.20600 22.57800
H  -6.09900 27.31200 21.73700
H  -4.15800 29.03100 20.67800
H  -4.92400 27.66000 19.72500
H  -3.35100 27.53500 20.51200
H  -1.02700 28.76600 25.52100
H  -1.05500 29.14200 27.10600
H  -1.90900 30.13800 26.05300
H  -4.04800 27.88000 31.06800
H  -1.56200 25.24400 33.31600
H  -1.10800 26.89600 33.82000
H  -0.47100 26.27700 32.30200

