158

Mg 34.45400 3.05600 29.71000
C  32.32100 4.01800 32.28900
C  36.99800 2.98900 31.95500
C  36.55000 2.50500 27.09400
C  31.79900 3.75000 27.54800
N  34.60600 3.33000 31.87200
C  33.60500 3.75500 32.63900
C  34.12100 3.82200 34.10800
C  35.63300 3.70800 33.96100
C  35.79000 3.35700 32.49500
C  36.50200 4.98400 34.38800
C  33.51400 2.57200 34.85700
C  33.10700 2.80900 36.31800
H  33.96000 3.77700 37.13200
N  36.45500 2.75400 29.52500
C  37.33100 2.72700 30.59600
C  38.66700 2.53000 30.09200
C  38.51900 2.31900 28.67800
C  37.13700 2.56400 28.37300
C  39.77100 2.19800 31.13900
C  39.62300 1.98700 27.62700
O  39.43300 1.97200 26.40600
C  41.05400 1.74700 28.13400
N  34.18400 3.16300 27.58500
C  35.28500 2.97100 26.74700
C  34.78100 2.95500 25.28200
C  33.21700 3.17500 25.38800
C  33.01500 3.35000 26.94300
C  35.51000 3.98300 24.32200
C  32.37000 1.98800 24.85900
C  32.36100 0.73900 25.81000
N  32.51000 3.75400 29.78500
C  31.51600 3.87100 28.88400
C  30.26700 4.33300 29.45900
C  30.49200 4.24400 30.81800
C  31.85900 3.95600 30.93200
C  29.03900 4.55200 28.81600
C  29.94000 4.52900 32.09600
O  28.80700 4.88400 32.31000
C  31.11400 4.40700 33.09300
C  31.38700 5.76300 33.70200
O  31.69600 6.78100 33.04600
O  31.03000 5.64700 35.00800
C  31.21700 6.92300 35.78200
H  37.84800 3.15400 32.62000
H  37.15900 2.29400 26.21300
H  31.13500 3.88600 26.69200
H  33.94600 4.78400 34.59000
H  36.07000 2.90800 34.55800
H  37.06500 4.83900 35.31000
H  35.96800 5.93400 34.41500
H  37.28600 5.06200 33.63500
H  34.25700 1.77800 34.92500
H  32.57000 2.20400 34.45500
H  33.22900 1.85900 36.83900
H  32.06700 3.08100 36.13900
H  40.78300 1.99300 30.79000
H  39.60100 1.34600 31.79800
H  39.88300 3.06400 31.79100
H  41.56200 2.67600 28.39400
H  41.51200 1.24600 27.28100
H  41.03300 0.98700 28.91400
H  34.99300 1.92500 24.99500
H  32.90500 4.13800 24.98300
H  36.05500 4.74300 24.88200
H  34.80500 4.56000 23.72300
H  36.31700 3.54800 23.73200
H  32.88000 1.72400 23.93200
H  31.35400 2.25200 24.56700
H  32.48400 1.04400 26.84900
H  33.24000 0.10800 25.67400
H  31.36100 0.32600 25.67600
H  28.70100 3.59500 28.41900
H  29.14800 5.19200 27.94100
H  28.29700 5.11700 29.38000
H  30.97200 3.60300 33.81500
H  31.42400 6.64400 36.81500
H  30.33700 7.56200 35.69800
H  32.10100 7.36500 35.32300
Mg 49.33500 46.75500 43.68000
C  46.07500 47.01500 42.63600
C  49.61100 43.92000 41.81000
C  52.47100 46.90700 44.48500
C  48.94300 50.07500 45.04300
N  47.96700 45.65400 42.30200
C  46.64600 45.84900 42.09900
C  45.98500 44.78200 41.16300
C  47.04300 43.68600 41.23300
C  48.31500 44.51600 41.76500
C  46.67200 42.55500 42.29200
C  45.78900 45.44700 39.73700
C  44.43400 45.10400 39.07600
H  44.31100 44.77900 37.57200
N  50.82600 45.52700 43.14300
C  50.77600 44.38500 42.42100
C  52.11700 43.80500 42.43700
C  52.94500 44.57200 43.22000
C  52.10000 45.78900 43.60500
C  52.41400 42.59400 41.47200
C  54.38000 44.23500 43.65000
O  54.89100 43.20700 43.27700
C  55.15700 44.99200 44.77900
N  50.56200 48.35900 44.54700
C  51.79800 48.05500 44.81500
C  52.51800 49.29700 45.53200
C  51.38700 50.42800 45.58300
C  50.22100 49.63400 44.98600
C  53.33900 49.10000 46.78100
C  51.55900 51.62300 44.63100
C  52.85700 52.45000 44.77800
N  47.84800 48.20300 43.91200
C  47.81900 49.50400 44.51400
C  46.51200 50.11800 44.33000
C  45.80800 49.17300 43.58400
C  46.67800 48.00100 43.41200
C  46.24900 51.47100 44.67800
C  44.54900 48.91700 42.97300
O  43.56600 49.62000 42.94500
C  44.62600 47.44500 42.31100
C  43.56800 46.57700 43.00900
O  43.42400 46.47700 44.23200
O  42.82200 45.92400 42.05500
C  41.82800 45.07200 42.60300
H  49.57700 42.93600 41.33800
H  53.50100 46.93500 44.84500
H  48.73000 51.00200 45.58000
H  44.98400 44.49900 41.48900
H  47.34800 43.27900 40.26900
H  47.34200 42.52200 43.15100
H  46.86800 41.59200 41.82200
H  45.66700 42.72300 42.67900
H  46.56600 45.10700 39.05300
H  45.90200 46.52900 39.80300
H  43.72400 45.92500 39.17600
H  43.97300 44.25700 39.58500
H  51.66300 42.28100 40.74600
H  52.71700 41.77400 42.12300
H  53.36600 42.80500 40.98400
H  55.88700 44.29400 45.18800
H  54.46400 44.98100 45.62100
H  55.50600 46.00000 44.55700
H  53.27100 49.67100 44.83700
H  51.22200 50.81300 46.58900
H  54.39600 49.30600 46.61600
H  53.37100 48.11400 47.24500
H  53.08400 49.80200 47.57500
H  50.79800 52.34100 44.93700
H  51.51100 51.37700 43.57000
H  53.44100 52.35000 43.86200
H  53.53100 52.33700 45.62700
H  52.68900 53.52300 44.85900
H  47.12100 52.08000 44.43800
H  46.11800 51.51600 45.75900
H  45.32900 51.92700 44.31300
H  44.39500 47.49700 41.24700
H  42.13300 44.32700 43.33700
H  41.31300 44.45700 41.86400
H  41.05200 45.74100 42.97600

