158

Mg 24.09100 -5.79100 45.10800
C  26.38500 -3.52000 43.74300
C  21.78900 -4.38000 43.05600
C  22.26200 -8.53100 45.45700
C  26.79800 -7.34700 46.70900
N  24.09700 -4.06200 43.65900
C  25.13800 -3.32700 43.20800
C  24.75200 -2.50100 41.99800
C  23.20100 -2.51500 42.14800
C  23.02900 -3.77700 42.95900
C  22.44300 -1.22700 42.63000
C  25.32800 -2.94300 40.64100
C  26.10000 -1.92800 39.77600
H  25.78900 -1.89500 38.22600
N  22.17600 -6.31800 44.60500
C  21.35600 -5.56700 43.72800
C  20.09400 -6.31400 43.52500
C  20.21100 -7.52800 44.25400
C  21.52500 -7.47000 44.85900
C  19.02900 -5.87300 42.53200
C  19.07400 -8.55200 44.38300
O  18.09100 -8.40800 43.65800
C  19.10300 -9.71900 45.28300
N  24.49600 -7.59800 45.91000
C  23.58500 -8.60800 45.97200
C  24.11400 -9.86100 46.60100
C  25.46800 -9.41200 46.99800
C  25.65100 -8.05500 46.54500
C  23.26700 -10.56300 47.78700
C  26.66200 -10.36900 46.68400
C  27.43800 -10.87900 47.91500
N  26.15100 -5.45300 45.31800
C  27.09400 -6.14100 46.05900
C  28.29100 -5.40900 45.98600
C  28.04100 -4.41700 45.10200
C  26.76000 -4.50000 44.61700
C  29.60900 -5.75000 46.56800
C  28.72100 -3.28500 44.54300
O  29.82800 -2.84800 44.64300
C  27.63100 -2.70800 43.48000
C  27.40100 -1.26300 43.73600
O  26.63500 -0.76500 44.64100
O  28.16900 -0.52300 42.85600
C  28.11800 0.93800 42.91000
H  21.04800 -3.99500 42.35200
H  21.75600 -9.49400 45.55200
H  27.53600 -7.97300 47.21600
H  25.17600 -1.50700 42.14300
H  22.75600 -2.61700 41.15800
H  21.61800 -0.96700 41.96700
H  23.18600 -0.43300 42.71200
H  21.95300 -1.44600 43.57800
H  24.46900 -3.32000 40.08600
H  25.85400 -3.88700 40.78500
H  27.15700 -2.11400 39.96300
H  25.92200 -0.92500 40.16600
H  18.04600 -5.90400 43.00300
H  18.98200 -6.52900 41.66300
H  19.17800 -4.87000 42.13200
H  18.10500 -10.09600 45.50400
H  19.72500 -9.48000 46.14500
H  19.56400 -10.57400 44.78800
H  24.09900 -10.67100 45.87100
H  25.30100 -9.27800 48.06600
H  23.09400 -11.62100 47.58900
H  22.27200 -10.13000 47.89300
H  23.76700 -10.37400 48.73600
H  27.42400 -9.89600 46.06600
H  26.30500 -11.28400 46.21000
H  27.35000 -10.17900 48.74700
H  28.48600 -10.75700 47.64400
H  27.16800 -11.87800 48.25800
H  29.37400 -6.40600 47.40600
H  30.23600 -4.89100 46.80800
H  30.19700 -6.34500 45.86900
H  27.98300 -2.81800 42.45400
H  27.15000 1.27400 42.54000
H  28.85800 1.39200 42.25100
H  28.29800 1.16600 43.96100
Mg 48.73600 45.42600 43.78400
C  45.57100 45.83600 42.59100
C  48.79600 42.26700 42.19700
C  51.97700 45.18100 44.70100
C  48.76000 48.84400 44.83500
N  47.40600 44.31400 42.33300
C  46.12800 44.64600 42.13300
C  45.51800 43.64200 41.09700
C  46.47100 42.37300 41.18700
C  47.63900 43.03500 41.99100
C  45.84300 41.15200 41.99800
C  45.47500 44.32600 39.68700
C  44.04500 44.39800 39.02800
H  43.70300 43.52700 37.83000
N  50.21500 43.93000 43.38400
C  50.02700 42.67700 42.80100
C  51.25100 41.95600 42.92400
C  52.14700 42.70500 43.78600
C  51.47900 43.97600 44.02700
C  51.33800 40.56300 42.37600
C  53.53000 42.23700 44.19100
O  53.89000 41.06500 43.89100
C  54.42600 42.94300 45.02200
N  50.22700 46.91400 44.55500
C  51.46700 46.51000 44.89000
C  52.30300 47.67600 45.48600
C  51.23400 48.77600 45.69300
C  49.95800 48.17800 45.03000
C  53.12800 47.30600 46.73600
C  51.60800 50.15200 45.19000
C  52.00500 51.23600 46.20100
N  47.42500 47.00000 43.95500
C  47.52600 48.32200 44.37400
C  46.33600 49.02400 44.03100
C  45.46300 48.02800 43.51600
C  46.24200 46.89300 43.32600
C  46.23600 50.56800 44.13700
C  44.14100 47.78600 42.86500
O  43.20300 48.45300 42.61000
C  44.13400 46.34700 42.32500
C  43.14900 45.56500 43.08200
O  43.33000 44.66700 43.83200
O  41.90600 46.06900 42.69900
C  40.79300 45.43400 43.40800
H  48.77800 41.28700 41.71700
H  52.99900 45.07600 45.07000
H  48.77700 49.84000 45.28300
H  44.58900 43.30800 41.55900
H  46.74900 42.15000 40.15700
H  45.96400 41.36700 43.05900
H  46.40600 40.22500 41.88700
H  44.77900 41.05100 41.78300
H  46.19900 43.80400 39.06200
H  45.82000 45.35200 39.81800
H  43.86600 45.46200 38.87100
H  43.25500 43.98200 39.65300
H  52.40100 40.38100 42.21400
H  50.83500 40.53400 41.41000
H  50.83900 39.88600 43.06900
H  53.98200 43.44400 45.88200
H  54.80000 43.68600 44.31800
H  55.33600 42.37200 45.20800
H  52.94100 47.88400 44.62700
H  51.09300 48.84700 46.77200
H  52.96300 46.26900 47.02900
H  52.92400 47.95100 47.59100
H  54.18000 47.39200 46.46300
H  50.78800 50.50300 44.56300
H  52.53500 49.95500 44.65100
H  51.39100 52.13200 46.11200
H  53.03200 51.57600 46.06800
H  52.03000 50.91800 47.24300
H  46.24500 51.01500 45.13100
H  45.29100 50.82900 43.66100
H  47.09100 50.86000 43.52600
H  43.92400 46.37100 41.25600
H  40.47400 44.54900 42.85700
H  39.98700 46.16600 43.37000
H  41.03000 45.16400 44.43700

