158

Mg -2.72600 16.99300 26.15900
C  -3.17200 14.88700 28.85600
C  -2.99500 19.67400 28.31100
C  -2.40000 19.03600 23.47500
C  -2.52600 14.31900 23.97200
N  -3.09900 17.19000 28.28700
C  -3.24200 16.17000 29.23500
C  -3.27900 16.79600 30.65900
C  -3.57800 18.31100 30.37900
C  -3.12000 18.42500 28.91200
C  -5.03900 18.65700 30.66000
C  -2.03200 16.36400 31.62100
C  -1.68100 17.28800 32.77600
H  -1.04800 16.67200 34.06800
N  -2.66900 19.07600 25.96400
C  -2.75600 20.05000 26.97200
C  -2.85200 21.34400 26.31600
C  -2.49200 21.13800 24.95300
C  -2.49400 19.68500 24.74600
C  -3.06200 22.57800 27.21200
C  -2.19200 22.23000 23.95100
O  -1.70800 21.92400 22.87600
C  -2.38600 23.71300 24.34600
N  -2.48500 16.64800 24.07400
C  -2.41200 17.72000 23.20900
C  -2.37700 17.23700 21.72300
C  -2.55300 15.72800 21.86300
C  -2.38600 15.49900 23.39500
C  -3.34800 17.99200 20.83100
C  -1.82300 14.82700 20.83800
C  -2.74800 14.35100 19.64100
N  -2.85100 14.96800 26.29600
C  -2.69600 14.01900 25.34800
C  -2.87100 12.73900 25.95400
C  -3.07000 13.01300 27.32400
C  -3.02300 14.39200 27.47200
C  -2.68300 11.45100 25.24600
C  -3.24800 12.34400 28.59200
O  -3.38600 11.16600 28.81500
C  -3.34700 13.57700 29.65300
C  -2.22400 13.33900 30.64500
O  -1.04900 13.59600 30.50100
O  -2.76400 12.76500 31.76500
C  -1.86100 12.53600 32.95600
H  -2.90600 20.41400 29.10900
H  -2.44400 19.71500 22.62200
H  -2.58500 13.43500 23.33400
H  -4.08400 16.20300 31.09400
H  -2.92000 18.90300 31.01600
H  -5.56400 17.86200 31.18900
H  -5.50100 18.82300 29.68700
H  -5.26100 19.59600 31.16700
H  -1.07900 16.26500 31.10000
H  -2.33700 15.43100 32.09400
H  -2.67300 17.62100 33.08200
H  -1.11600 18.13600 32.39000
H  -2.15700 23.16700 27.36200
H  -3.43900 22.34100 28.20700
H  -3.79000 23.25000 26.76000
H  -2.37400 24.27700 23.41300
H  -1.53300 24.08600 24.91200
H  -3.30300 24.01900 24.85100
H  -1.36600 17.42000 21.35900
H  -3.60700 15.56700 21.63500
H  -3.98900 18.76300 21.26200
H  -3.83300 17.27700 20.16600
H  -2.82000 18.67500 20.16700
H  -1.26000 14.03400 21.33200
H  -1.06700 15.33500 20.24000
H  -2.54600 15.05700 18.83600
H  -3.76900 14.41700 20.01700
H  -2.53500 13.32800 19.33100
H  -3.34100 11.34200 24.38400
H  -2.87300 10.62700 25.93300
H  -1.62400 11.50700 24.99500
H  -4.35300 13.62900 30.06900
H  -1.37700 11.56700 32.83000
H  -2.40800 12.41500 33.89100
H  -1.01500 13.22200 32.97400
Mg 8.31400 3.66600 27.62100
C  9.54500 2.00500 30.51700
C  6.34900 5.52200 29.68800
C  7.03000 4.90600 24.90700
C  9.78700 1.03600 25.74300
N  7.89200 3.63300 29.85400
C  8.65800 3.06100 30.82800
C  8.21700 3.51600 32.23700
C  6.97300 4.44900 31.96700
C  7.08800 4.59600 30.37300
C  5.49700 4.10200 32.40000
C  9.35900 4.16900 33.14900
C  8.90800 4.93500 34.37600
H  9.78400 4.79000 35.63000
N  6.99000 5.19200 27.29900
C  6.26500 5.85100 28.26600
C  5.41200 6.78200 27.64200
C  5.67700 6.61800 26.25000
C  6.60000 5.56000 26.10800
C  4.54100 7.74700 28.41200
C  5.03600 7.43100 25.11400
O  5.24100 7.27600 23.96000
C  4.09600 8.60600 25.39000
N  8.31800 2.92400 25.63500
C  7.84600 3.75000 24.69600
C  8.13100 3.15600 23.27900
C  9.07600 1.96900 23.57200
C  9.11900 2.00800 25.08200
C  6.78900 2.64500 22.60900
C  10.48700 2.10000 22.90200
C  10.96400 0.87400 22.05100
N  9.42900 1.85300 28.01500
C  9.92300 0.87200 27.16600
C  10.68700 -0.08800 27.87300
C  10.56000 0.28200 29.18400
C  9.75800 1.48100 29.21500
C  11.43800 -1.30400 27.23500
C  10.97200 -0.12600 30.56600
O  11.67400 -1.04100 31.03000
C  10.34000 1.02000 31.46200
C  9.44500 0.31800 32.43700
O  8.44800 -0.35300 32.16100
O  9.90500 0.50000 33.73700
C  9.24600 -0.17700 34.81500
H  5.81000 6.28800 30.25000
H  6.65100 5.27100 23.95100
H  10.31800 0.28100 25.16000
H  7.84100 2.57800 32.64300
H  7.10300 5.50500 32.20600
H  4.74300 4.45000 31.69400
H  5.31700 4.67500 33.31000
H  5.30100 3.03000 32.37600
H  9.96800 4.84600 32.55000
H  9.96300 3.40700 33.64000
H  7.97100 4.45100 34.64900
H  8.82800 6.00900 34.20900
H  3.54200 7.68500 27.98100
H  5.00300 8.71400 28.61300
H  4.38000 7.26100 29.37400
H  3.12600 8.39800 25.84300
H  3.78800 9.00100 24.42200
H  4.73300 9.31500 25.91800
H  8.64500 3.86400 22.62800
H  8.56100 1.05100 23.28700
H  5.94700 2.85800 23.26700
H  6.78200 1.60400 22.28500
H  6.83100 3.15200 21.64500
H  11.29300 2.06700 23.63500
H  10.65100 3.01700 22.33500
H  10.13700 0.17500 21.93000
H  11.79900 0.39300 22.56100
H  11.34900 1.21200 21.08900
H  12.10900 -1.75200 27.96800
H  12.17400 -1.01700 26.48500
H  10.80300 -2.03500 26.73300
H  11.10600 1.46200 32.09900
H  9.98000 -0.80400 35.32100
H  8.41100 -0.74700 34.40800
H  8.86900 0.51300 35.57000

