158

Mg 1.53500 -1.59600 43.86100
C  4.87100 -0.44300 43.61000
C  0.51700 1.04600 42.11900
C  -1.61400 -2.92100 44.05500
C  2.84300 -4.68000 44.86800
N  2.61900 0.04900 42.81700
C  3.95000 0.46200 43.05400
C  4.22000 1.93100 42.62000
C  2.81100 2.39200 42.03200
C  1.92700 1.07600 42.27600
C  2.26100 3.68900 42.54500
C  5.42200 2.34800 41.68700
C  5.78700 1.33500 40.58800
H  5.74700 1.90800 39.16900
N  -0.30800 -0.98800 43.18600
C  -0.48000 0.15900 42.50100
C  -1.94100 0.38100 42.30400
C  -2.55600 -0.77000 42.97400
C  -1.47600 -1.61000 43.43200
C  -2.61900 1.62800 41.74600
C  -4.06000 -0.93300 43.17700
O  -4.89900 -0.27000 42.48200
C  -4.61200 -1.91200 44.20900
N  0.72900 -3.52400 44.40000
C  -0.58000 -3.77900 44.53200
C  -0.86100 -5.17500 45.00000
C  0.58500 -5.83000 45.00200
C  1.48800 -4.59800 44.70200
C  -1.54900 -5.20900 46.36100
C  0.80900 -6.93400 43.88400
C  1.28300 -8.28500 44.50400
N  3.43600 -2.46900 44.25100
C  3.80900 -3.66500 44.75900
C  5.24700 -3.67500 45.00700
C  5.68000 -2.44800 44.56800
C  4.55400 -1.71600 44.07900
C  5.98100 -4.75900 45.55400
C  6.85700 -1.56200 44.46700
O  8.04600 -1.74200 44.74800
C  6.33500 -0.18800 43.92700
C  6.51400 0.84900 44.89600
O  5.76600 1.03000 45.88200
O  7.51000 1.65400 44.45300
C  7.63200 2.90500 45.29100
H  0.05100 1.93200 41.68400
H  -2.60800 -3.35500 44.17700
H  3.24200 -5.56700 45.36400
H  4.42300 2.49600 43.52900
H  2.91900 2.52000 40.95500
H  3.15300 4.24500 42.83400
H  1.64300 3.57000 43.43400
H  1.61000 4.19900 41.83500
H  6.29700 2.55900 42.30100
H  5.03100 3.26200 41.24000
H  5.17200 0.43800 40.65300
H  6.78000 0.95700 40.83200
H  -2.59300 1.47900 40.66600
H  -2.09800 2.53600 42.05000
H  -3.62200 1.83700 42.11800
H  -5.62100 -1.60200 44.48200
H  -4.01800 -1.98100 45.12000
H  -4.65500 -2.91700 43.78900
H  -1.45600 -5.69600 44.25100
H  0.82600 -6.24100 45.98200
H  -2.18300 -4.32800 46.46600
H  -0.88800 -5.33200 47.21900
H  -2.27000 -6.02300 46.28400
H  1.53200 -6.52400 43.17900
H  -0.08100 -7.22600 43.32600
H  0.57900 -9.06800 44.22200
H  1.47200 -8.34000 45.57600
H  2.22700 -8.54100 44.02300
H  6.70700 -4.44100 46.30200
H  6.53500 -5.27000 44.76600
H  5.28100 -5.47800 45.98100
H  6.90300 -0.09400 43.00100
H  6.63700 3.26700 45.54700
H  8.14600 3.61900 44.64800
H  8.27800 2.75000 46.15600
Mg 7.77700 2.67600 27.22000
C  9.31400 1.54600 30.21200
C  5.86700 4.85800 29.07400
C  6.79000 4.14600 24.31800
C  9.81500 0.50500 25.50300
N  7.66100 3.14600 29.35000
C  8.37300 2.57600 30.41300
C  8.15800 3.37400 31.70200
C  6.79700 4.14100 31.38800
C  6.73700 4.03400 29.79700
C  5.48400 3.67100 32.16100
C  9.39400 4.17500 32.16100
C  9.22200 4.75700 33.58700
H  10.12700 4.26700 34.76700
N  6.33100 4.19100 26.70200
C  5.68800 4.93000 27.65900
C  4.75600 5.81800 27.03100
C  5.09100 5.77400 25.58900
C  6.06900 4.65500 25.45000
C  3.84400 6.74200 27.75300
C  4.66700 6.68500 24.40400
O  5.10200 6.60500 23.27200
C  3.65600 7.72900 24.80500
N  8.17300 2.30000 25.23900
C  7.72100 3.12900 24.24500
C  8.11200 2.57900 22.85800
C  9.07900 1.42200 23.22400
C  8.98000 1.39100 24.71000
C  6.97100 2.19000 21.84000
C  10.49700 1.75900 22.80700
C  11.30900 2.66100 23.74400
N  9.19700 1.21600 27.69200
C  9.97500 0.42200 26.88800
C  10.84900 -0.39900 27.71200
C  10.60300 0.03400 29.00300
C  9.55500 0.92400 29.02700
C  11.79400 -1.44100 27.20700
C  11.00400 -0.17600 30.34900
O  11.90600 -0.96000 30.70900
C  10.32800 0.85600 31.19100
C  9.68300 0.17300 32.30000
O  8.59300 -0.37600 32.29200
O  10.44900 0.37700 33.42100
C  9.81700 0.04400 34.68000
H  5.26100 5.42300 29.78500
H  6.67300 4.53600 23.30500
H  10.41300 -0.22600 24.95500
H  7.92900 2.61700 32.45200
H  6.82500 5.17600 31.72700
H  5.75800 2.74200 32.66000
H  4.73600 3.47000 31.39400
H  5.11300 4.44800 32.83000
H  9.42700 5.05500 31.52000
H  10.36800 3.68500 32.13700
H  8.18600 4.51100 33.81900
H  9.30300 5.82600 33.38600
H  4.13200 7.79300 27.76800
H  3.67000 6.32500 28.74500
H  2.85200 6.57500 27.33500
H  2.81300 7.14300 25.17100
H  3.42600 8.41500 23.99000
H  4.07800 8.28400 25.64200
H  8.68200 3.32000 22.29800
H  8.88800 0.43500 22.80300
H  5.95100 2.35800 22.18500
H  7.18500 1.14400 21.62100
H  7.12700 2.74200 20.91300
H  10.40000 2.17300 21.80300
H  10.99700 0.79000 22.79100
H  10.73700 3.06300 24.58000
H  11.51900 3.57100 23.18300
H  12.19500 2.13300 24.09700
H  11.97000 -1.30600 26.14000
H  11.50300 -2.48300 27.33900
H  12.70300 -1.32700 27.79700
H  11.08000 1.59400 31.47200
H  8.79000 -0.32000 34.65500
H  9.71400 0.93800 35.29400
H  10.46500 -0.74300 35.06600

