158

Mg 42.42500 40.91100 26.36500
C  41.68000 43.06100 29.03200
C  43.62700 38.60000 28.58100
C  43.15000 38.90900 23.76800
C  41.61300 43.44000 24.13300
N  42.77000 40.97800 28.53100
C  42.31600 41.88400 29.42200
C  42.47500 41.42400 30.96400
C  43.17300 40.07600 30.73900
C  43.15300 39.84700 29.12800
C  44.57100 39.88700 31.43300
C  41.14200 41.33200 31.73800
C  41.16700 41.94100 33.13900
H  40.54200 41.12100 34.21100
N  43.21300 38.95100 26.21900
C  43.68000 38.17800 27.20100
C  44.06800 36.91100 26.73100
C  43.81200 36.87800 25.32300
C  43.44200 38.25700 25.03500
C  44.56700 35.84300 27.66800
C  44.08600 35.84300 24.29300
O  43.88100 35.95600 23.09300
C  44.58900 34.61500 24.85700
N  42.41100 41.08000 24.26900
C  42.74500 40.18900 23.40400
C  42.62800 40.64400 21.94700
C  42.00700 42.06700 21.97800
C  41.98600 42.21500 23.56100
C  43.95400 40.70300 21.20300
C  40.64300 42.18800 21.30700
C  40.48600 43.43500 20.45200
N  41.86400 42.91000 26.47900
C  41.49700 43.82700 25.50500
C  41.05900 45.02300 26.07500
C  40.94000 44.66700 27.46100
C  41.59200 43.44600 27.66000
C  40.73500 46.30300 25.37000
C  40.47300 45.17700 28.75600
O  39.91200 46.23600 29.00100
C  41.15700 44.20400 29.81300
C  42.23400 44.97200 30.50100
O  43.35900 45.07000 30.15000
O  41.74800 45.12400 31.75900
C  42.77100 45.62300 32.72800
H  43.74100 37.83400 29.35200
H  43.30100 38.25800 22.90400
H  41.33700 44.21500 23.41400
H  43.05600 42.22900 31.41400
H  42.54200 39.27100 31.11700
H  45.37300 40.27700 30.80700
H  44.67400 38.84900 31.74800
H  44.44500 40.43500 32.36700
H  40.90600 40.27200 31.83000
H  40.40600 41.83400 31.10900
H  40.76300 42.95100 33.06200
H  42.20000 42.09900 33.44900
H  44.01700 34.91700 27.50000
H  44.58200 36.10600 28.72600
H  45.60600 35.63000 27.41800
H  43.82400 34.32800 25.57900
H  45.58300 34.85500 25.23500
H  44.78800 33.94100 24.02400
H  41.95500 39.98900 21.39400
H  42.71500 42.73400 21.48700
H  44.77500 40.59700 21.91100
H  44.08100 41.63800 20.65700
H  43.90400 39.86500 20.50700
H  39.88800 42.30500 22.08500
H  40.56100 41.26600 20.73100
H  39.41400 43.61900 20.38800
H  40.82200 43.29800 19.42400
H  41.01100 44.28900 20.88000
H  41.26200 46.26000 24.41700
H  40.97700 47.19000 25.95500
H  39.68200 46.10700 25.16500
H  40.35300 43.86100 30.46400
H  42.74400 46.70000 32.56200
H  43.75600 45.23800 32.46300
H  42.53900 45.50400 33.78600
Mg 0.29400 43.85700 26.16500
C  2.73500 43.35500 28.72800
C  -2.17300 43.53400 28.43500
C  -1.71100 43.15300 23.60000
C  3.11100 43.79300 23.92000
N  0.36800 43.43600 28.29600
C  1.41600 43.40300 29.17300
C  0.91900 43.50100 30.66300
C  -0.62300 43.38200 30.56800
C  -0.88600 43.47500 28.97700
C  -1.32400 42.15200 31.18800
C  1.29600 44.83700 31.37000
C  1.51400 44.97800 32.86100
H  1.12600 43.70600 33.67300
N  -1.71400 43.51300 26.03000
C  -2.57400 43.43900 27.06400
C  -3.84600 43.27900 26.56600
C  -3.70900 43.07000 25.14100
C  -2.35300 43.17800 24.88600
C  -5.08300 43.27700 27.33700
C  -4.86900 42.75400 24.11100
O  -4.58900 42.72100 22.89100
C  -6.24000 42.39900 24.59600
N  0.67300 43.29200 24.03800
C  -0.39600 43.34300 23.22700
C  -0.13200 43.52800 21.73900
C  1.39000 44.06300 21.89200
C  1.81200 43.71000 23.34000
C  -0.35800 42.38700 20.67600
C  1.66600 45.56300 21.61300
C  2.95000 45.85700 20.80700
N  2.43200 43.66500 26.24900
C  3.37500 43.69500 25.32200
C  4.67200 43.61000 25.83000
C  4.53000 43.50500 27.16700
C  3.07600 43.54900 27.37100
C  5.95100 43.73800 25.06200
C  5.17700 43.37000 28.52700
O  6.34900 43.23000 28.82800
C  4.00000 43.41600 29.51200
C  4.11100 42.47200 30.68000
O  3.83700 41.31800 30.68400
O  4.69200 43.15500 31.72800
C  5.20200 42.26800 32.75500
H  -3.03500 43.55200 29.10600
H  -2.37900 43.08100 22.73900
H  3.91000 43.94900 23.19300
H  1.23500 42.72800 31.36400
H  -1.08600 44.20300 31.11500
H  -1.76200 42.48400 32.12900
H  -0.57300 41.48000 31.60200
H  -1.99500 41.68200 30.47000
H  0.45000 45.48100 31.12900
H  2.20200 45.24700 30.92300
H  1.01800 45.87900 33.22200
H  2.58400 45.11200 33.01800
H  -5.89900 43.83100 26.87400
H  -4.87600 43.89400 28.21200
H  -5.32100 42.23200 27.53500
H  -6.20300 41.55900 25.29000
H  -6.91100 42.20200 23.76000
H  -6.56200 43.32100 25.08200
H  -0.75400 44.36700 21.42700
H  1.96300 43.41800 21.22600
H  0.22700 42.65100 19.79500
H  -1.42300 42.41300 20.44600
H  -0.10200 41.47100 21.21000
H  1.83800 46.04200 22.57700
H  0.76300 45.99400 21.18100
H  2.55700 46.07500 19.81400
H  3.59700 44.98000 20.83100
H  3.33400 46.68500 21.40200
H  5.85600 44.28600 24.12500
H  6.42500 42.85700 24.63000
H  6.69700 44.20800 25.70200
H  4.17500 44.42000 29.90100
H  4.34900 41.84200 33.28500
H  5.97000 42.70500 33.39400
H  5.74600 41.39000 32.40500

