158

Mg 24.56800 -5.77300 46.14300
C  26.67200 -3.64400 44.54400
C  22.02900 -4.64500 44.20800
C  22.79500 -8.60700 46.98600
C  27.35900 -7.14200 47.95100
N  24.43400 -4.20500 44.56600
C  25.41800 -3.47600 44.06000
C  24.91600 -2.44600 43.05700
C  23.30700 -2.67100 43.15800
C  23.24600 -3.95000 44.02200
C  22.46800 -1.50200 43.67100
C  25.56300 -2.61500 41.67000
C  25.70900 -1.28600 40.92900
H  25.10800 -1.21800 39.44800
N  22.59400 -6.47800 45.71900
C  21.69200 -5.83400 44.87600
C  20.51300 -6.63100 44.78600
C  20.73700 -7.82000 45.53300
C  22.08300 -7.73900 46.09900
C  19.30100 -6.27300 43.96800
C  19.68300 -8.90600 45.72800
O  18.64900 -8.84700 45.10000
C  19.86100 -10.05900 46.64900
N  24.96400 -7.62400 47.24700
C  24.12200 -8.61700 47.47600
C  24.69700 -9.75000 48.37300
C  26.10200 -9.20200 48.75000
C  26.17400 -7.89300 47.86100
C  23.78000 -10.02000 49.58800
C  27.39800 -10.11900 48.70200
C  28.14800 -10.20200 49.95200
N  26.61400 -5.36700 46.32800
C  27.61100 -5.95800 47.16700
C  28.83700 -5.25500 46.96900
C  28.57700 -4.30700 45.88000
C  27.15400 -4.50900 45.51800
C  30.13100 -5.54200 47.71800
C  29.16200 -3.28600 45.02000
O  30.27600 -2.76100 45.14600
C  27.96300 -2.85900 44.06200
C  27.85800 -1.35200 44.24500
O  27.23700 -0.70300 45.07600
O  28.81800 -0.82900 43.37200
C  28.68900 0.68500 43.18100
H  21.16600 -4.19700 43.71100
H  22.27800 -9.49700 47.35200
H  28.17300 -7.60400 48.51300
H  25.29800 -1.49600 43.43000
H  22.84100 -2.83100 42.18600
H  21.89000 -1.19600 42.79900
H  23.08500 -0.75700 44.17300
H  21.72500 -1.87000 44.37800
H  24.79900 -3.07900 41.04500
H  26.41400 -3.29600 41.69900
H  26.75900 -0.99400 40.91800
H  25.08200 -0.53800 41.41400
H  19.05700 -7.06100 43.25600
H  19.37900 -5.28600 43.51300
H  18.35400 -6.16600 44.49700
H  19.81900 -9.80000 47.70700
H  20.76600 -10.60100 46.37300
H  18.94500 -10.61200 46.44300
H  24.79100 -10.72700 47.89800
H  26.07300 -8.74400 49.73900
H  24.25600 -9.64200 50.49300
H  23.65900 -11.10300 49.59100
H  22.89700 -9.41700 49.37500
H  28.07100 -9.78400 47.91200
H  27.06600 -11.07800 48.30500
H  29.07300 -9.66900 49.73500
H  28.22400 -11.24900 50.24400
H  27.62300 -9.68800 50.75700
H  30.83200 -4.73400 47.50700
H  30.52800 -6.46100 47.28800
H  29.91000 -5.61300 48.78300
H  28.17000 -2.94000 42.99500
H  27.60900 0.82300 43.13100
H  28.96300 1.02600 42.18200
H  29.04100 1.26300 44.03500
Mg 15.92800 51.88800 25.96500
C  17.68300 50.68800 28.84800
C  13.55000 53.09500 28.12500
C  14.39400 53.26000 23.37700
C  18.46600 50.58100 24.11000
N  15.55600 51.68200 28.18200
C  16.39600 51.22600 29.09300
C  15.89500 51.60100 30.58800
C  14.43300 51.99800 30.24900
C  14.49100 52.27400 28.76200
C  13.27600 51.00200 30.55700
C  16.70600 52.61100 31.36600
C  16.78800 52.23500 32.88200
H  15.62400 52.82000 33.79100
N  14.14300 53.04000 25.78200
C  13.32500 53.44000 26.84000
C  12.34300 54.37000 26.22600
C  12.50800 54.32600 24.78600
C  13.72700 53.51600 24.56500
C  11.18000 54.96000 27.06800
C  11.64900 54.96700 23.64900
O  11.89900 54.80400 22.44000
C  10.44100 55.81900 23.98900
N  16.24700 51.74000 24.02100
C  15.55700 52.48100 23.13700
C  16.31600 52.60400 21.79400
C  17.64000 51.79400 22.07300
C  17.43100 51.29000 23.49600
C  15.49000 52.19600 20.54600
C  18.97800 52.55100 21.90500
C  20.22800 51.91300 21.28600
N  17.63300 50.55800 26.37800
C  18.60800 50.18700 25.50300
C  19.67900 49.51700 26.26800
C  19.36900 49.76400 27.57500
C  18.11100 50.37500 27.56600
C  20.95500 48.90100 25.77500
C  19.76900 49.42700 28.87800
O  20.74100 48.77100 29.24000
C  18.69200 50.15400 29.77000
C  18.14000 49.23000 30.78400
O  17.35200 48.31200 30.56900
O  18.68500 49.43100 32.05500
C  18.24500 48.45100 33.08500
H  12.77400 53.34400 28.85200
H  14.07200 53.77700 22.47100
H  19.23200 50.30000 23.38400
H  15.80400 50.72800 31.23500
H  14.03800 52.90200 30.71200
H  12.44900 51.11500 29.85700
H  12.98800 50.89700 31.60300
H  13.60900 49.97500 30.41000
H  16.03800 53.47000 31.42500
H  17.67600 52.84700 30.92800
H  17.71400 52.64200 33.28700
H  16.85300 51.17800 33.14100
H  11.22800 54.55600 28.08000
H  10.18800 54.72000 26.68500
H  11.25700 56.04700 27.09100
H  9.99900 56.31000 23.12200
H  10.70700 56.49900 24.79900
H  9.74500 55.06300 24.35300
H  16.55800 53.66300 21.70800
H  17.66200 50.89000 21.46600
H  16.08500 51.48100 19.97700
H  15.21100 53.06200 19.94600
H  14.59400 51.65200 20.84200
H  19.29000 52.83600 22.91000
H  18.73500 53.53700 21.50900
H  20.50700 52.60800 20.49400
H  20.05400 50.90700 20.90300
H  21.11600 51.73700 21.89200
H  21.16500 49.37900 24.81800
H  20.81100 47.83100 25.62900
H  21.79200 49.13300 26.43400
H  19.12100 50.97600 30.34300
H  17.22300 48.12600 32.89000
H  18.24300 49.01100 34.02000
H  18.93800 47.61500 33.18000

