158

Mg 9.38300 5.10500 27.73500
C  10.33600 3.13100 30.58200
C  7.10200 6.72400 29.73900
C  7.94100 6.39800 24.88600
C  11.10500 2.66000 25.83700
N  8.83600 4.97400 29.83900
C  9.51600 4.24600 30.87700
C  9.07500 4.82000 32.23800
C  7.83500 5.68200 31.92700
C  7.97000 5.84700 30.41600
C  6.41000 5.16000 32.37000
C  10.28000 5.52300 32.91200
C  10.73500 4.74300 34.24900
H  10.97400 5.64100 35.42200
N  7.85100 6.54300 27.37000
C  6.99100 7.01800 28.35100
C  6.16900 8.05900 27.76400
C  6.49000 8.05400 26.30000
C  7.41900 6.93900 26.11200
C  5.25300 8.83700 28.59800
C  5.98800 8.96400 25.18600
O  6.23500 8.75400 23.97900
C  5.09900 10.14900 25.40000
N  9.44000 4.47300 25.73800
C  8.78200 5.25600 24.75300
C  9.18700 4.78500 23.31200
C  10.32000 3.76100 23.59200
C  10.32500 3.59800 25.12300
C  8.05200 4.19300 22.55700
C  11.71400 4.09800 23.06100
C  12.04500 3.60600 21.71800
N  10.67000 3.45000 28.11100
C  11.19300 2.54200 27.22300
C  11.90100 1.46600 27.87300
C  11.68200 1.78600 29.21300
C  10.85300 2.88700 29.30100
C  12.38500 0.26100 27.21500
C  11.88500 1.28000 30.62700
O  12.55600 0.34600 31.03500
C  11.20400 2.24800 31.57200
C  10.33700 1.48000 32.48900
O  9.16700 1.17900 32.34600
O  11.06800 1.25700 33.60900
C  10.36100 0.65400 34.76900
H  6.54700 7.30800 30.47600
H  7.63900 6.94100 23.98800
H  11.46700 1.84100 25.21200
H  8.77500 3.90600 32.75000
H  7.89600 6.70700 32.29400
H  5.82400 5.88500 32.93500
H  6.45800 4.23000 32.93600
H  5.78500 4.97500 31.49600
H  10.04100 6.56300 33.13100
H  11.04900 5.56600 32.14000
H  11.56700 4.07100 34.03800
H  9.81800 4.26500 34.59300
H  5.84300 9.06500 29.48600
H  4.47000 8.16900 28.95800
H  4.71800 9.62400 28.06800
H  5.54700 10.70200 26.22500
H  4.11700 9.85500 25.77000
H  4.93600 10.81600 24.55400
H  9.60000 5.65000 22.79300
H  10.10700 2.75200 23.24000
H  7.15300 4.77400 22.76100
H  7.82600 3.17300 22.87100
H  8.12500 4.27600 21.47300
H  12.49600 3.86900 23.78400
H  11.66300 5.17600 22.90700
H  12.88900 2.93800 21.89100
H  12.27900 4.39600 21.00500
H  11.25100 3.02800 21.24400
H  11.55000 -0.15700 26.65300
H  12.69000 -0.52800 27.90300
H  13.19700 0.66600 26.61100
H  11.80200 2.93300 32.17300
H  11.06800 -0.08600 35.14200
H  9.35600 0.29600 34.54600
H  10.11700 1.42300 35.50200
Mg 35.48700 49.12000 26.47500
C  35.83200 46.77100 29.05800
C  34.34200 51.41500 28.70300
C  34.47200 50.98500 23.82900
C  36.03800 46.49900 24.28700
N  35.06500 49.01500 28.67400
C  35.48200 48.03500 29.51900
C  35.41400 48.52100 30.94300
C  34.61700 49.91700 30.84400
C  34.61800 50.13900 29.30500
C  33.23200 50.09000 31.43000
C  36.79700 48.70600 31.63600
C  36.80300 48.30800 33.15800
H  36.69200 49.43100 34.24600
N  34.67700 50.98900 26.31000
C  34.35000 51.79400 27.29500
C  33.85000 53.06800 26.75800
C  33.96400 53.01500 25.34100
C  34.43300 51.65300 25.08700
C  33.12300 54.15700 27.60800
C  33.54600 54.12500 24.29600
O  33.36600 53.90000 23.10400
C  33.18000 55.48000 24.81900
N  35.40200 48.78000 24.42600
C  34.83500 49.70400 23.53400
C  34.84400 49.18000 22.04700
C  35.57000 47.80100 22.23800
C  35.72000 47.68500 23.74600
C  33.44200 49.14100 21.28100
C  36.88700 47.54200 21.47200
C  36.78000 46.64300 20.17000
N  35.89200 47.09300 26.56800
C  36.14900 46.10400 25.59200
C  36.58100 44.83800 26.16500
C  36.48000 45.03900 27.55100
C  36.05900 46.43300 27.70100
C  36.89200 43.61700 25.36000
C  36.62100 44.52100 28.93400
O  36.89900 43.40600 29.34200
C  36.33900 45.68800 29.90000
C  35.28700 45.30900 30.92200
O  34.08100 45.22100 30.87700
O  35.96400 44.95100 32.07200
C  35.18700 44.69400 33.24400
H  34.05600 52.25000 29.34600
H  33.92900 51.62600 23.13100
H  36.18900 45.58300 23.71100
H  34.83500 47.81200 31.53400
H  35.25300 50.62700 31.37400
H  33.16000 50.95700 32.08600
H  32.85700 49.18400 31.90400
H  32.52300 50.38600 30.65600
H  37.01900 49.77200 31.57600
H  37.56100 48.22700 31.02200
H  37.72300 47.73900 33.29100
H  35.92900 47.67000 33.29000
H  33.62900 55.12200 27.62400
H  33.06400 53.83300 28.64700
H  32.09800 54.28900 27.26000
H  33.02200 56.15800 23.98100
H  34.15000 55.78700 25.21000
H  32.39700 55.49700 25.57700
H  35.49100 49.86100 21.49400
H  34.87700 47.01100 21.94700
H  32.69200 49.69500 21.84700
H  33.00200 48.16900 21.06000
H  33.56500 49.79400 20.41700
H  37.58000 47.20900 22.24500
H  37.32100 48.46600 21.09100
H  37.85700 46.52500 20.05000
H  36.35800 47.10600 19.27800
H  36.43300 45.61000 20.19400
H  37.77200 43.85600 24.76300
H  36.12400 43.22100 24.69700
H  37.20100 42.72700 25.90900
H  37.25400 46.01500 30.39400
H  34.35900 45.39300 33.36300
H  35.82100 44.57200 34.12200
H  34.74500 43.70000 33.17800

