158

Mg 47.62700 25.38300 27.97100
C  48.19500 27.75100 30.32400
C  46.47000 23.24900 30.29500
C  46.66700 23.50700 25.43800
C  49.03500 27.62200 25.48200
N  47.40700 25.51700 30.06600
C  47.62900 26.59900 30.89000
C  47.26300 26.32500 32.32700
C  46.73300 24.88000 32.31600
C  46.85100 24.52200 30.78700
C  47.26100 23.87300 33.31300
C  46.19600 27.29300 32.79700
C  45.46800 27.11100 34.13700
H  45.34000 28.34200 35.07100
N  46.82100 23.60700 27.85900
C  46.46700 22.82500 28.91700
C  45.97000 21.58100 28.38900
C  45.72800 21.78400 27.00900
C  46.40200 23.00100 26.74900
C  45.56200 20.42200 29.25300
C  44.85800 21.02900 26.06700
O  44.80400 21.30600 24.86100
C  44.07700 19.77500 26.38100
N  47.95600 25.55500 25.73400
C  47.36600 24.60200 24.94600
C  47.84700 24.81800 23.48000
C  48.43600 26.17200 23.48000
C  48.42500 26.51800 24.94700
C  48.89400 23.75200 23.03200
C  47.79800 27.33900 22.66000
C  48.75200 28.11900 21.67400
N  48.42900 27.25300 27.83500
C  49.01000 28.02700 26.81200
C  49.45800 29.27800 27.42500
C  49.17300 29.15400 28.78400
C  48.53200 27.96100 28.96000
C  50.11900 30.37100 26.75500
C  49.30800 29.89800 29.99900
O  49.84500 30.96900 30.28300
C  48.55400 29.00200 31.01500
C  49.60900 28.69600 32.08500
O  50.46500 27.82000 32.07200
O  49.50700 29.61700 33.04200
C  50.26500 29.24100 34.28600
H  46.10400 22.52000 31.02100
H  46.44100 22.88900 24.56700
H  49.46700 28.42000 24.87500
H  48.16700 26.32300 32.93700
H  45.65900 24.89900 32.50300
H  47.78500 23.11100 32.73500
H  46.41200 23.38700 33.79300
H  47.76600 24.42000 34.10900
H  45.39500 27.43600 32.07300
H  46.62800 28.29200 32.85500
H  45.96200 26.37500 34.77100
H  44.55200 26.63400 33.78700
H  44.47400 20.39700 29.30100
H  45.96200 20.56200 30.25800
H  46.00700 19.63200 28.64800
H  43.42500 19.95500 27.23700
H  44.70600 18.89300 26.50200
H  43.30200 19.57300 25.64200
H  46.98000 24.72200 22.82800
H  49.48800 26.13400 23.20000
H  49.87700 23.92900 23.46900
H  48.82500 23.50700 21.97200
H  48.51800 22.86100 23.53500
H  47.32600 28.00300 23.38400
H  47.02900 26.92500 22.00800
H  48.45700 29.16300 21.77800
H  48.64800 27.80500 20.63600
H  49.80000 27.90100 21.88000
H  51.17600 30.11300 26.68000
H  49.97700 31.32000 27.27100
H  49.74100 30.48500 25.73900
H  47.76700 29.59900 31.47500
H  51.28000 28.86100 34.17000
H  49.58200 28.52300 34.74000
H  50.32300 30.09100 34.96600
Mg 9.96900 47.78400 26.05000
C  8.20900 47.67400 28.88500
C  12.48400 49.30700 27.76400
C  11.85000 47.74500 23.21100
C  7.30800 46.49300 24.27500
N  10.17000 48.46600 28.04200
C  9.42500 48.21800 29.09200
C  9.92800 48.77200 30.38700
C  11.06500 49.65200 29.87600
C  11.29200 49.08000 28.45000
C  10.82000 51.21100 29.86200
C  10.36700 47.74500 31.49500
C  9.79100 47.72400 32.90900
H  9.77200 46.36800 33.65100
N  11.89500 48.37500 25.55700
C  12.83500 48.85600 26.42500
C  14.07600 48.94500 25.77000
C  13.98000 48.35700 24.45300
C  12.53000 48.13400 24.34700
C  15.38900 49.46800 26.43900
C  15.03300 48.06300 23.28000
O  14.71700 47.74600 22.15100
C  16.45900 48.29400 23.51900
N  9.50400 47.59600 23.96100
C  10.47300 47.46800 23.04700
C  9.94100 47.28400 21.59700
C  8.59600 46.51200 21.93400
C  8.42500 46.82700 23.47700
C  9.77800 48.61500 20.87600
C  8.75400 45.06500 21.50200
C  9.94200 44.34500 22.21100
N  8.07700 47.33700 26.44200
C  7.09400 46.82300 25.64000
C  5.87400 46.66000 26.29700
C  6.24400 46.93300 27.65500
C  7.60300 47.30300 27.65400
C  4.51400 46.24800 25.84400
C  5.79500 47.05300 29.03100
O  4.67100 46.94500 29.53400
C  7.11400 47.35000 29.89200
C  7.39800 46.06100 30.59600
O  8.12600 45.19000 30.16500
O  6.75600 46.01200 31.83700
C  6.89500 44.77300 32.57000
H  13.21500 49.81200 28.39800
H  12.42000 47.69900 22.28100
H  6.50800 45.99800 23.72000
H  9.13700 49.39200 30.81000
H  12.00200 49.44700 30.39300
H  9.89000 51.39600 30.40000
H  10.76900 51.61000 28.84900
H  11.64400 51.72200 30.36000
H  11.45300 47.76200 31.58300
H  10.17000 46.82300 30.94700
H  8.83600 48.25000 32.92700
H  10.48800 48.32200 33.49600
H  15.10600 49.67500 27.47100
H  15.85200 50.31200 25.92800
H  16.11100 48.65200 26.47900
H  17.07100 48.36900 22.62000
H  16.85400 47.54200 24.20200
H  16.47900 49.26800 24.00800
H  10.60300 46.68800 20.97000
H  7.68800 46.93300 21.50100
H  10.29700 49.36700 21.47000
H  8.76000 48.96600 20.70600
H  10.22900 48.52100 19.88800
H  8.98900 45.00300 20.43900
H  7.81900 44.56500 21.75500
H  10.42100 43.62300 21.55000
H  9.50100 43.79200 23.04000
H  10.75000 44.97900 22.57700
H  3.73900 46.76000 26.41400
H  4.37100 45.18100 26.02000
H  4.38000 46.50400 24.79300
H  6.89200 48.14400 30.60600
H  7.01600 45.04100 33.61900
H  7.67000 44.08400 32.23200
H  5.92700 44.32000 32.35500

