158

Mg 41.95300 41.28200 26.27200
C  41.25500 43.62100 28.73600
C  43.38000 39.27100 28.56700
C  42.80700 39.27300 23.64500
C  41.15900 43.85400 23.93500
N  42.30800 41.49200 28.38200
C  41.68200 42.43200 29.21600
C  41.81000 42.04200 30.69200
C  42.75400 40.79300 30.61400
C  42.88100 40.49100 29.09900
C  44.13600 41.06300 31.30400
C  40.43700 41.76400 31.40200
C  40.17900 42.59500 32.68300
H  39.85700 41.88200 33.96800
N  42.85700 39.46600 26.11500
C  43.39100 38.79300 27.20700
C  44.00800 37.54400 26.68700
C  43.82400 37.50400 25.28300
C  43.13700 38.80400 24.89500
C  44.84300 36.68100 27.60500
C  44.21200 36.47800 24.34200
O  44.08100 36.65900 23.12100
C  44.77800 35.14300 24.84500
N  41.84600 41.53400 24.15000
C  42.21800 40.50100 23.25100
C  42.01800 40.89600 21.74500
C  41.41600 42.39700 21.89300
C  41.42200 42.60500 23.41000
C  43.25800 40.76200 20.78600
C  40.03100 42.63400 21.28900
C  39.97700 43.45300 20.05700
N  41.33700 43.33200 26.29200
C  41.01000 44.22200 25.29500
C  40.54400 45.46100 25.81100
C  40.62600 45.31400 27.20600
C  41.13100 44.01700 27.45400
C  40.03300 46.64700 24.98800
C  40.32800 45.90300 28.41700
O  39.76200 47.00700 28.64700
C  40.69800 44.84000 29.50800
C  41.70800 45.47100 30.38400
O  42.91300 45.48600 30.18100
O  41.12400 46.10600 31.46400
C  42.06700 46.48700 32.45200
H  43.78200 38.66300 29.38100
H  42.98900 38.60300 22.80200
H  40.92300 44.56400 23.13900
H  42.30600 42.87800 31.18400
H  42.24900 39.98000 31.13500
H  44.84400 41.57300 30.65000
H  44.41800 40.04600 31.58000
H  44.07400 41.65100 32.21900
H  40.38100 40.69100 31.58500
H  39.58200 41.96700 30.75700
H  39.35500 43.29100 32.52700
H  41.01400 43.26900 32.87400
H  45.82200 36.52700 27.15000
H  44.44000 35.67900 27.75300
H  45.00400 37.10400 28.59700
H  44.73200 34.34100 24.10800
H  44.13500 34.90500 25.69200
H  45.81300 35.26300 25.16600
H  41.24300 40.26600 21.30900
H  42.08400 43.19800 21.57700
H  43.47800 41.73500 20.34700
H  43.26300 39.97200 20.03500
H  44.16700 40.69000 21.38200
H  39.33300 42.93600 22.07000
H  39.57400 41.68500 21.00800
H  39.40800 42.84300 19.35700
H  41.01800 43.60900 19.77400
H  39.50600 44.40700 20.29600
H  40.11100 46.53400 23.90700
H  40.59700 47.53100 25.28500
H  38.98500 46.81000 25.23700
H  39.83300 44.64300 30.14200
H  42.61800 47.37600 32.14600
H  42.79100 45.74800 32.79300
H  41.52900 46.94700 33.28100
Mg 0.53100 43.52000 25.97200
C  2.50300 43.32400 28.66600
C  -2.26000 42.92900 27.84800
C  -1.45400 43.16100 23.11600
C  3.35400 43.72500 23.89500
N  0.23800 42.96400 27.95400
C  1.15400 43.22500 28.95900
C  0.52800 43.25700 30.37700
C  -0.92500 42.76500 30.13400
C  -1.00100 42.92500 28.53800
C  -1.30600 41.30900 30.53600
C  0.52700 44.65600 31.03200
C  0.76100 44.72400 32.58900
H  0.44100 43.42200 33.38600
N  -1.65400 43.24000 25.53900
C  -2.59300 43.03200 26.50300
C  -3.90900 42.92600 25.93200
C  -3.65500 43.00900 24.53800
C  -2.21900 43.17300 24.31400
C  -5.23200 42.71300 26.64500
C  -4.72800 42.99300 23.34400
O  -4.51100 42.85000 22.15300
C  -6.14100 43.04000 23.65600
N  0.89500 43.30000 23.72700
C  -0.04000 43.18200 22.79200
C  0.54200 42.87200 21.42500
C  2.02500 43.33500 21.67400
C  2.12000 43.53700 23.22900
C  0.29700 41.41400 20.95500
C  2.34000 44.60000 20.81400
C  1.65400 45.93400 21.19000
N  2.68300 43.52800 26.15800
C  3.67800 43.68100 25.24300
C  4.89800 43.67700 25.93700
C  4.49200 43.58600 27.33100
C  3.13600 43.44000 27.37900
C  6.34300 43.80900 25.49700
C  4.94900 43.57100 28.71600
O  6.03100 43.48700 29.16000
C  3.65700 43.54900 29.56000
C  3.91800 42.48200 30.51500
O  3.64200 41.28500 30.34000
O  4.50800 42.96300 31.67000
C  4.72600 42.06400 32.81200
H  -3.06500 42.84600 28.58100
H  -2.16100 43.01600 22.29700
H  4.18800 44.04900 23.27000
H  1.03900 42.55400 31.03500
H  -1.67300 43.47900 30.47700
H  -2.11200 41.47200 31.25200
H  -0.45400 40.80400 30.99100
H  -1.74200 40.76100 29.70100
H  -0.35300 45.21500 30.71500
H  1.42200 45.13900 30.64100
H  0.08000 45.44800 33.03600
H  1.76400 45.07100 32.83800
H  -4.99400 42.74900 27.70800
H  -5.52400 41.75800 26.20800
H  -5.87400 43.55300 26.37600
H  -6.45400 42.17700 24.24300
H  -6.61300 42.93200 22.68000
H  -6.49100 43.95000 24.14300
H  -0.06500 43.51400 20.78600
H  2.74700 42.58400 21.35100
H  -0.23200 41.28000 20.01100
H  -0.44100 40.96600 21.62000
H  1.22300 40.84500 20.87400
H  1.97500 44.39400 19.80800
H  3.40400 44.77900 20.65900
H  2.31500 46.71200 20.80800
H  1.65800 45.97200 22.27900
H  0.61700 45.95500 20.85400
H  6.53900 43.22700 24.59600
H  6.89600 43.38400 26.33400
H  6.51500 44.85800 25.25600
H  3.51000 44.44900 30.15600
H  5.77500 42.06900 33.10800
H  4.32000 41.06400 32.66000
H  4.11400 42.46900 33.61900

