158

Mg 9.25500 4.12100 27.94400
C  10.28400 2.45100 30.89400
C  7.46300 6.29700 29.91600
C  8.06500 5.34800 25.20300
C  11.16100 1.75600 26.09900
N  8.75400 4.19300 30.09700
C  9.41100 3.51400 31.15700
C  9.00700 4.08000 32.58800
C  8.06000 5.26800 32.17100
C  8.06500 5.27000 30.61300
C  6.60000 5.35200 32.76700
C  10.29700 4.38300 33.38500
C  10.12800 5.26500 34.63400
H  10.70600 4.78600 35.93700
N  8.04100 5.70700 27.57400
C  7.34800 6.49700 28.47800
C  6.42600 7.38900 27.83700
C  6.66200 7.16000 26.43100
C  7.62200 6.02100 26.32400
C  5.37300 8.29000 28.56400
C  6.13200 7.89600 25.28100
O  6.23800 7.62700 24.08900
C  5.39900 9.19700 25.63100
N  9.56500 3.54700 25.97600
C  8.94400 4.32400 25.08600
C  9.29600 3.82300 23.66000
C  10.53300 2.84500 23.90400
C  10.43700 2.71100 25.39300
C  8.05600 3.09800 23.03500
C  11.86400 3.54000 23.51000
C  12.84200 2.60600 22.79100
N  10.41100 2.36500 28.35700
C  11.08900 1.51200 27.45700
C  11.61600 0.47000 28.23300
C  11.42100 0.83100 29.55000
C  10.67400 1.98400 29.63100
C  12.34800 -0.68700 27.59200
C  11.80800 0.47400 30.88700
O  12.47000 -0.47200 31.29000
C  11.07500 1.55100 31.81500
C  10.22100 0.90100 32.81000
O  9.08600 0.46400 32.62500
O  10.91700 0.77800 33.99200
C  10.31000 -0.05300 34.98300
H  6.97200 7.11200 30.45200
H  7.66500 5.77000 24.27900
H  11.71500 0.97700 25.57300
H  8.44400 3.23400 32.98500
H  8.43900 6.23800 32.49300
H  6.21500 4.34100 32.63400
H  5.97400 6.16600 32.40300
H  6.59200 5.37700 33.85600
H  10.82900 4.98300 32.64600
H  10.76400 3.43900 33.66500
H  9.08300 5.53700 34.77900
H  10.65700 6.19800 34.44000
H  5.40500 7.93500 29.59400
H  4.39700 8.08600 28.12200
H  5.54100 9.36500 28.51300
H  4.37200 8.96200 25.91100
H  5.45600 9.78300 24.71400
H  5.88500 9.62000 26.51000
H  9.61700 4.62700 22.99900
H  10.41600 1.86800 23.43500
H  7.16200 3.15300 23.65600
H  8.38300 2.08200 22.81300
H  7.79000 3.56900 22.08900
H  12.47700 4.00100 24.28500
H  11.59300 4.35700 22.84100
H  13.54600 2.45100 23.60900
H  13.40500 2.99200 21.94100
H  12.37700 1.69500 22.41500
H  12.22100 -1.50600 28.29900
H  13.43300 -0.61600 27.66300
H  11.87100 -0.87100 26.62900
H  11.87100 2.10600 32.31200
H  9.74300 0.64000 35.60600
H  11.09100 -0.49600 35.60000
H  9.68200 -0.87800 34.64700
Mg 1.28000 43.58100 25.98900
C  3.50000 43.80800 28.67700
C  -1.25900 42.94800 27.97500
C  -0.50200 42.93400 23.25900
C  4.19100 43.92900 23.83200
N  1.15500 43.40400 27.98100
C  2.13100 43.74800 28.92400
C  1.58100 43.81800 30.39200
C  0.23000 43.13100 30.20100
C  -0.01400 43.20200 28.64700
C  -0.03300 41.75700 30.80200
C  1.52900 45.27900 30.81500
C  1.47500 45.57200 32.37500
H  1.22000 44.45600 33.40000
N  -0.63400 43.12300 25.65400
C  -1.59500 42.99700 26.60400
C  -2.88000 42.72400 26.07200
C  -2.71700 42.62200 24.68000
C  -1.23200 42.88200 24.44100
C  -4.13900 42.50600 26.91300
C  -3.71800 42.37600 23.60500
O  -3.44300 42.21000 22.41000
C  -5.14700 42.28800 23.96200
N  1.77500 43.58500 23.85500
C  0.84700 43.15800 22.98900
C  1.43500 42.98100 21.58200
C  2.85500 43.53000 21.74200
C  2.97400 43.61600 23.26700
C  1.41300 41.49400 21.12100
C  3.00900 44.96800 20.92600
C  4.36800 45.57200 20.97100
N  3.40800 43.87300 26.16000
C  4.37900 44.03000 25.16700
C  5.62400 44.22500 25.85100
C  5.40400 44.13500 27.24300
C  4.00100 43.88200 27.35700
C  6.94300 44.61400 25.16900
C  5.92000 44.19500 28.56000
O  7.09200 44.37200 28.90300
C  4.74700 44.04400 29.53500
C  5.05700 43.06400 30.58000
O  4.84900 41.84800 30.50700
O  5.65700 43.63800 31.69200
C  5.68900 42.76700 32.98400
H  -2.02500 42.62100 28.68200
H  -1.12100 42.68000 22.39500
H  5.03600 43.96900 23.14200
H  2.12300 43.20300 31.11000
H  -0.60700 43.72500 30.56700
H  -0.87100 41.75400 31.49800
H  0.93000 41.48000 31.23200
H  -0.08900 40.99200 30.02700
H  0.61600 45.69600 30.39000
H  2.43800 45.80100 30.51600
H  0.58600 46.17800 32.55200
H  2.35000 46.03900 32.82800
H  -4.53300 41.52800 26.63600
H  -4.81900 43.28100 26.56100
H  -4.05900 42.62800 27.99300
H  -5.51400 43.21600 24.40100
H  -5.36900 41.38200 24.52600
H  -5.76400 42.35600 23.06600
H  0.82800 43.68900 21.01800
H  3.51700 42.76600 21.33400
H  1.36100 40.79200 21.95200
H  2.34600 41.35300 20.57600
H  0.57700 41.35500 20.43500
H  2.27200 45.75500 21.09100
H  2.78700 44.79500 19.87300
H  4.42400 46.22800 21.84000
H  4.61400 46.23400 20.14100
H  5.12500 44.80800 21.14800
H  6.86500 45.23100 24.27400
H  7.45100 43.68800 24.90200
H  7.57600 45.02500 25.95600
H  4.63700 45.01300 30.02200
H  4.98400 43.18500 33.70400
H  6.70000 42.55500 33.33000
H  5.20400 41.82200 32.74100

