158

Mg 26.47300 -0.20500 28.81500
C  28.13800 -0.38400 31.87700
C  23.53800 0.53700 30.64200
C  24.67900 -0.26200 25.99000
C  29.32600 -0.83300 27.15700
N  25.91300 -0.01600 31.05200
C  26.81400 -0.05000 32.09600
C  26.14200 0.35900 33.35900
C  24.65400 0.67300 33.01300
C  24.67500 0.34400 31.47700
C  23.61300 -0.15300 33.84700
C  26.80400 1.58000 34.10900
C  26.98300 1.42000 35.63400
H  25.96900 0.61900 36.50300
N  24.39600 0.15200 28.36400
C  23.35800 0.36100 29.25000
C  22.16200 0.51600 28.49300
C  22.43500 0.15300 27.16900
C  23.87600 -0.04100 27.11400
C  20.86200 0.85900 29.13200
C  21.56000 -0.04700 25.98700
O  21.98000 -0.50100 24.95600
C  20.04300 0.28900 26.12400
N  26.96400 -0.48600 26.89000
C  26.08200 -0.41800 25.82900
C  26.75100 -0.59500 24.50100
C  28.28800 -0.53600 24.80300
C  28.21200 -0.65100 26.38200
C  26.37100 -1.83100 23.65900
C  28.86100 0.79600 24.29400
C  30.14800 0.72800 23.48600
N  28.29900 -0.79400 29.39500
C  29.40500 -0.96700 28.56100
C  30.60400 -1.11000 29.39700
C  30.12300 -0.98400 30.74600
C  28.74300 -0.71100 30.67400
C  32.02700 -1.32300 28.91900
C  30.47300 -1.03400 32.16500
O  31.51700 -1.18500 32.75300
C  29.20300 -0.60100 32.99800
C  28.79600 -1.61400 33.97400
O  28.17000 -2.62000 33.74000
O  29.42500 -1.34300 35.22500
C  29.41500 -2.42400 36.26400
H  22.66100 0.88700 31.19100
H  24.24500 -0.50600 25.01800
H  30.29800 -0.75300 26.66600
H  26.23300 -0.44900 34.08500
H  24.51500 1.75300 33.05900
H  23.91100 -0.76100 34.70100
H  23.04600 -0.79800 33.17500
H  22.98000 0.66000 34.20100
H  26.24200 2.51100 34.03700
H  27.79300 1.71600 33.67300
H  27.10100 2.42500 36.03700
H  27.92700 0.90700 35.81500
H  20.93500 1.21100 30.16100
H  20.24100 -0.03600 29.14000
H  20.25500 1.58300 28.58800
H  19.66800 0.19700 25.10500
H  19.96200 1.32000 26.47100
H  19.74500 -0.38400 26.92800
H  26.43200 0.21800 23.85000
H  28.83800 -1.37900 24.38500
H  27.21400 -2.41900 23.29600
H  25.81400 -1.60900 22.74900
H  25.70200 -2.46600 24.24000
H  29.10900 1.35700 25.19500
H  28.11500 1.24300 23.63600
H  31.08800 1.21600 23.74400
H  29.95000 1.13500 22.49400
H  30.40700 -0.30200 23.24500
H  32.71300 -0.93800 29.67400
H  32.15300 -0.94800 27.90300
H  32.22700 -2.39300 28.87500
H  29.56000 0.24400 33.58700
H  29.43600 -3.42900 35.84300
H  28.53800 -2.36900 36.90900
H  30.30000 -2.30500 36.88900
Mg -11.75200 17.16000 42.03700
C  -8.56100 15.73200 41.65900
C  -10.54500 20.15500 40.78400
C  -14.85300 18.04200 41.49600
C  -12.88300 13.76700 42.44800
N  -9.74900 17.85100 41.32100
C  -8.60100 17.13800 41.29400
C  -7.43200 18.01400 40.77800
C  -8.09400 19.46800 41.05300
C  -9.57100 19.10800 40.97200
C  -7.75000 20.21600 42.31500
C  -7.13100 17.69200 39.32000
C  -5.71300 17.35800 38.99700
H  -5.01200 18.12100 37.89500
N  -12.56500 18.90900 41.36100
C  -11.91500 20.07200 41.01600
C  -12.86700 21.16000 40.85500
C  -14.14400 20.57200 40.97900
C  -13.87000 19.10500 41.27800
C  -12.48400 22.53900 40.39900
C  -15.49900 21.26900 40.90300
O  -15.62000 22.52000 40.78000
C  -16.79400 20.53900 40.92300
N  -13.58000 16.06500 41.99400
C  -14.72000 16.70400 41.80300
C  -15.96800 15.84800 41.98100
C  -15.40200 14.44200 42.28900
C  -13.86600 14.74600 42.33400
C  -16.97000 16.45300 42.98900
C  -15.86300 13.35200 41.26600
C  -16.79300 12.27100 41.78900
N  -10.87500 15.17500 42.22900
C  -11.50600 13.94000 42.49900
C  -10.41000 12.90800 42.67600
C  -9.23200 13.60000 42.37400
C  -9.59500 14.91700 42.10900
C  -10.61400 11.49100 42.96500
C  -7.81500 13.37700 42.27500
O  -7.05800 12.39800 42.42000
C  -7.32400 14.76700 41.73800
C  -6.36800 15.33900 42.65500
O  -6.68300 15.80400 43.72800
O  -5.08400 15.28100 42.20300
C  -4.03000 15.86400 43.16100
H  -10.09500 21.12700 40.57100
H  -15.89700 18.22800 41.23200
H  -13.03100 12.68700 42.38100
H  -6.60400 17.94200 41.48300
H  -7.76900 20.13700 40.25500
H  -6.81000 20.71600 42.08300
H  -7.53900 19.56800 43.16600
H  -8.52200 20.95600 42.52700
H  -7.43700 18.52600 38.68800
H  -7.76400 16.86600 38.99400
H  -5.65500 16.27300 38.91900
H  -5.09900 17.54800 39.87800
H  -12.41700 22.38300 39.32300
H  -11.48400 22.72700 40.79000
H  -13.18200 23.28000 40.78800
H  -17.54900 21.32100 41.01100
H  -16.80300 19.93800 41.83200
H  -16.88400 20.08100 39.93800
H  -16.49500 15.87800 41.02700
H  -15.64900 14.17800 43.31700
H  -17.99200 16.46300 42.61000
H  -16.71600 17.48600 43.22800
H  -16.99000 15.94500 43.95400
H  -14.99900 12.84800 40.83200
H  -16.39000 13.82400 40.43700
H  -17.06800 12.46000 42.82600
H  -16.31200 11.30000 41.90900
H  -17.75300 12.24400 41.27300
H  -9.89700 11.18500 43.72700
H  -10.69500 10.91800 42.04100
H  -11.61000 11.43400 43.40400
H  -6.80700 14.66700 40.78400
H  -4.00600 16.95000 43.25000
H  -3.11300 15.36000 42.85400
H  -4.29000 15.51100 44.15900

