158

Mg 53.68100 22.59700 45.12400
C  51.49400 25.12400 43.98800
C  51.52500 20.32200 43.52700
C  56.03500 20.28600 45.53000
C  55.85700 25.06100 46.15900
N  51.76900 22.68600 44.06300
C  51.15500 23.84000 43.63600
C  49.95800 23.54200 42.76900
C  49.61700 22.07700 43.22300
C  51.03400 21.60500 43.61000
C  48.61700 21.99900 44.41400
C  50.23700 23.65800 41.23900
C  49.04900 24.15100 40.38800
H  48.49700 23.14100 39.32600
N  53.87600 20.69200 44.42600
C  52.85600 19.94400 43.93400
C  53.29300 18.52100 43.87600
C  54.60500 18.48800 44.41800
C  54.92000 19.84800 44.78800
C  52.36700 17.44500 43.35000
C  55.49900 17.21900 44.53200
O  55.01300 16.09400 44.24000
C  56.96700 17.39700 44.62400
N  55.76400 22.71200 45.72000
C  56.51400 21.56300 45.85400
C  57.84800 21.86800 46.41400
C  57.73800 23.34400 46.80000
C  56.41700 23.77500 46.11000
C  58.32100 20.95400 47.69200
C  58.91900 24.26200 46.25900
C  59.71000 25.13100 47.24700
N  53.70600 24.68100 45.18700
C  54.62000 25.51100 45.66900
C  54.22700 26.86800 45.73900
C  52.97500 26.80800 45.01400
C  52.71800 25.48000 44.67300
C  54.87900 28.08400 46.33400
C  51.82400 27.56800 44.57700
O  51.61300 28.78100 44.71100
C  50.83000 26.53600 43.84100
C  50.39500 26.90800 42.44800
O  51.17900 27.06600 41.54600
O  49.00100 27.00200 42.41200
C  48.59400 27.38100 41.04900
H  50.71000 19.71900 43.12100
H  56.71100 19.48500 45.83600
H  56.65900 25.74000 46.45600
H  49.13000 24.18600 43.06500
H  49.15600 21.46100 42.45100
H  47.76300 21.39800 44.10200
H  48.14900 22.96000 44.62700
H  49.01300 21.64800 45.36600
H  50.45900 22.64700 40.89700
H  51.09100 24.30300 41.03400
H  49.44600 24.98700 39.81300
H  48.23000 24.48300 41.02700
H  52.55400 16.38400 43.51400
H  52.37700 17.52000 42.26200
H  51.32700 17.68900 43.56900
H  57.39600 18.25100 44.09900
H  57.47200 16.53500 44.18800
H  57.18900 17.48700 45.68700
H  58.48600 21.71400 45.54400
H  57.57200 23.46000 47.87100
H  59.01900 20.20500 47.31700
H  57.41500 20.52100 48.11400
H  58.78500 21.57600 48.45800
H  58.68400 24.96300 45.45800
H  59.72300 23.59300 45.95300
H  60.79300 25.25700 47.21400
H  59.48200 24.75000 48.24300
H  59.42400 26.18200 47.23100
H  55.80300 27.86300 46.86800
H  54.18900 28.56000 47.03100
H  55.07000 28.81000 45.54400
H  49.93800 26.56600 44.46700
H  49.18800 26.91600 40.26300
H  48.51800 28.46900 41.02800
H  47.64200 26.86600 40.92200
Mg 8.51100 47.81200 29.20100
C  6.68900 47.12800 32.15000
C  11.36100 47.63000 31.09600
C  10.34000 48.65400 26.54800
C  5.55100 48.45000 27.49600
N  8.95300 47.50700 31.39900
C  8.09200 47.19000 32.42300
C  8.78900 47.16000 33.82400
C  10.23400 47.44900 33.42700
C  10.22500 47.41700 31.86100
C  10.84800 48.73600 34.12100
C  8.53400 45.82200 34.47600
C  9.55200 45.42500 35.64200
H  8.95400 44.77900 36.88500
N  10.57600 47.83000 28.79700
C  11.55500 47.73400 29.72500
C  12.88000 47.76900 29.08400
C  12.56200 47.92600 27.65100
C  11.11800 48.13200 27.58500
C  14.17900 47.52800 29.79400
C  13.53400 48.03100 26.46900
O  13.13000 48.21300 25.34900
C  15.12500 47.88900 26.69400
N  7.96700 48.63200 27.33600
C  8.93100 48.92100 26.42800
C  8.31600 49.54700 25.17900
C  6.77100 49.32900 25.33600
C  6.70400 48.76000 26.78400
C  8.86000 51.00100 24.93300
C  6.13500 48.35200 24.26300
C  5.71500 48.99700 22.90400
N  6.46800 47.76400 29.60700
C  5.37700 47.98200 28.83800
C  4.18900 47.76400 29.61700
C  4.63300 47.42200 30.91300
C  6.04900 47.47000 30.87800
C  2.79700 47.80400 29.02300
C  4.21800 47.12300 32.26900
O  3.09900 47.06900 32.82300
C  5.51400 46.84400 33.05600
C  5.46700 45.38500 33.44400
O  5.84600 44.40400 32.77600
O  5.01700 45.29600 34.76700
C  5.14600 43.96500 35.36400
H  12.27200 47.67100 31.69700
H  10.88600 48.81100 25.61600
H  4.65400 48.60200 26.89200
H  8.46900 47.94600 34.50900
H  10.79200 46.55400 33.70200
H  11.93300 48.63000 34.09500
H  10.53400 48.65000 35.16100
H  10.44100 49.66600 33.72500
H  8.66100 45.05600 33.71100
H  7.53600 45.63600 34.87100
H  10.18000 46.20900 36.06700
H  10.20400 44.62100 35.30000
H  14.81000 46.70600 29.45800
H  14.05400 47.30000 30.85200
H  14.68100 48.48500 29.93900
H  15.38500 48.38500 27.62900
H  15.74600 48.14600 25.83500
H  15.36500 46.84300 26.88300
H  8.55800 49.07000 24.23000
H  6.30000 50.29900 25.17800
H  8.17300 51.70000 24.45500
H  9.67100 51.04100 24.20600
H  9.40900 51.31500 25.82100
H  5.20700 47.97000 24.68900
H  6.83000 47.61200 23.86800
H  6.34200 48.67800 22.07100
H  5.76500 50.08000 23.01000
H  4.72300 48.63100 22.64100
H  2.84600 47.55100 27.96400
H  2.29500 48.74500 29.25100
H  2.26700 47.01700 29.55900
H  5.67000 47.45000 33.94900
H  6.15700 43.55700 35.35100
H  4.59000 43.36000 34.64800
H  4.68000 43.93800 36.34900

