158

Mg -2.23500 16.36500 26.60500
C  -2.52900 13.76900 29.08300
C  -2.80400 18.65600 28.91200
C  -2.71100 18.58400 24.14800
C  -2.50600 13.66000 24.27200
N  -2.64200 16.16100 28.75400
C  -2.69800 15.10600 29.60500
C  -2.96500 15.55300 31.08200
C  -3.00200 17.11700 30.99300
C  -2.84600 17.38000 29.42900
C  -4.28000 17.85800 31.58800
C  -2.01500 14.90000 32.17700
C  -1.56500 15.76800 33.33300
H  -0.75400 15.16100 34.49300
N  -2.47000 18.34300 26.51900
C  -2.64500 19.14200 27.61200
C  -2.70000 20.56100 27.16600
C  -2.62600 20.57600 25.76000
C  -2.57500 19.11300 25.37600
C  -2.85400 21.66600 28.09800
C  -2.44600 21.76000 24.77800
O  -2.25300 21.60400 23.59800
C  -2.48300 23.13500 25.34200
N  -2.70700 16.12200 24.56100
C  -2.85700 17.23800 23.74000
C  -3.20100 16.87700 22.28900
C  -2.95900 15.29400 22.29900
C  -2.73500 14.99000 23.80400
C  -4.62800 17.43100 21.91200
C  -1.97200 14.75300 21.28600
C  -0.51100 15.13000 21.49200
N  -2.28400 14.13500 26.61400
C  -2.38600 13.24100 25.59900
C  -2.38200 11.89400 26.13200
C  -2.41200 12.05200 27.52600
C  -2.44300 13.46900 27.74300
C  -2.70400 10.66900 25.37500
C  -2.57900 11.35800 28.73700
O  -2.71400 10.15900 28.96100
C  -2.74500 12.44000 29.76500
C  -1.84400 12.04800 30.95500
O  -0.58600 12.06300 30.99200
O  -2.69300 11.65500 31.91900
C  -2.07600 11.22600 33.25800
H  -2.79600 19.43400 29.67800
H  -2.93200 19.34500 23.39700
H  -2.58100 12.93700 23.45700
H  -3.95300 15.15400 31.31300
H  -2.14200 17.58300 31.47500
H  -5.01100 17.14400 31.96800
H  -4.76600 18.54000 30.89000
H  -4.00500 18.46100 32.45300
H  -1.14800 14.40100 31.74400
H  -2.63400 14.15900 32.68300
H  -2.43300 16.20900 33.82200
H  -0.91800 16.53100 32.90000
H  -3.83500 22.02300 27.78600
H  -1.99500 22.28000 27.82600
H  -2.71700 21.40100 29.14700
H  -3.38200 23.34100 25.92200
H  -2.54900 23.83100 24.50500
H  -1.63900 23.15300 26.03100
H  -2.52900 17.31500 21.55000
H  -3.90600 14.80700 22.06700
H  -5.05900 17.68900 22.88000
H  -5.22600 16.62200 21.49200
H  -4.60300 18.30200 21.25700
H  -2.33100 15.19000 20.35400
H  -2.04100 13.66600 21.31600
H  -0.17300 15.75500 20.66600
H  -0.01000 14.18400 21.69800
H  -0.45900 15.70600 22.41600
H  -3.24100 10.83000 24.44000
H  -3.32100 10.08500 26.05700
H  -1.75800 10.19000 25.12400
H  -3.79700 12.41500 30.04800
H  -2.01100 10.13900 33.29300
H  -2.73200 11.57200 34.05700
H  -1.13000 11.74000 33.43000
Mg 1.66600 -2.00500 44.15900
C  5.02700 -1.69500 43.67300
C  1.30900 1.02700 42.35600
C  -1.62900 -2.53600 43.92800
C  2.11600 -5.16400 45.45400
N  3.01500 -0.55300 43.02700
C  4.38500 -0.63700 43.16100
C  5.03100 0.58300 42.45200
C  3.78200 1.62700 42.42700
C  2.57900 0.67600 42.65800
C  3.85400 2.66600 43.52300
C  5.73200 0.23600 41.07700
C  4.80700 0.15200 39.82900
H  4.82700 1.22700 38.76600
N  0.03900 -0.93300 43.34700
C  0.14500 0.29500 42.70400
C  -1.19900 0.73900 42.32400
C  -2.11000 -0.19100 42.74700
C  -1.27500 -1.28900 43.43100
C  -1.45900 2.15100 41.76700
C  -3.59100 -0.03800 42.69300
O  -4.09800 0.97300 42.21000
C  -4.50400 -1.07200 43.28900
N  0.43400 -3.79700 44.38000
C  -0.90800 -3.64200 44.40700
C  -1.56900 -4.94900 44.77100
C  -0.33000 -5.85600 45.20500
C  0.81500 -4.92800 44.91500
C  -2.70400 -4.94300 45.90900
C  -0.12000 -7.16600 44.37700
C  -1.38500 -8.03300 44.41400
N  3.24500 -3.20000 44.63200
C  3.34100 -4.40200 45.28900
C  4.74000 -4.65500 45.68100
C  5.45100 -3.59400 45.01500
C  4.52500 -2.78000 44.38700
C  5.22600 -5.89500 46.41400
C  6.76100 -3.07700 44.74000
O  7.91300 -3.42000 45.03200
C  6.49300 -1.83700 43.76800
C  7.14200 -0.70200 44.40800
O  6.76000 -0.03400 45.38200
O  8.20800 -0.30300 43.63300
C  8.63700 1.12700 43.73000
H  1.18800 1.95400 41.79100
H  -2.68100 -2.82200 43.97700
H  2.27400 -6.11200 45.97300
H  5.82800 1.03500 43.04300
H  3.64900 2.08700 41.44700
H  4.87500 2.76600 43.89000
H  3.16800 2.28800 44.28200
H  3.56700 3.65200 43.15800
H  6.09600 -0.78000 41.23200
H  6.59100 0.90700 41.06800
H  3.78800 0.17800 40.21600
H  5.08700 -0.78700 39.35100
H  -2.49600 2.47200 41.66600
H  -0.91300 2.30900 40.83700
H  -0.89200 2.72200 42.50200
H  -4.23100 -1.97400 42.74100
H  -5.58100 -0.98500 43.14800
H  -4.36900 -1.15900 44.36700
H  -2.00500 -5.43100 43.89600
H  -0.33800 -6.13000 46.26000
H  -3.67900 -5.19300 45.49200
H  -2.76500 -3.90300 46.22900
H  -2.64500 -5.52300 46.83000
H  0.70700 -7.70100 44.84300
H  0.24800 -6.93100 43.37900
H  -2.13400 -7.62800 45.09400
H  -1.13800 -9.00200 44.84800
H  -1.75500 -8.31300 43.42800
H  5.60700 -6.48400 45.58000
H  4.35600 -6.34700 46.88900
H  5.94800 -5.61500 47.18100
H  6.99700 -2.02800 42.82100
H  9.53400 1.24800 44.33800
H  7.87700 1.76100 44.18700
H  8.81600 1.48200 42.71600

