158

Mg -9.73800 38.67900 41.56700
C  -8.09200 35.75800 40.57100
C  -7.64400 40.47200 39.76600
C  -12.05900 41.16700 41.52500
C  -12.25300 36.53100 42.80700
N  -8.09500 38.09300 40.21500
C  -7.46500 36.90500 40.02900
C  -6.29400 36.96300 39.06200
C  -6.04000 38.57500 39.08300
C  -7.31500 39.12200 39.77700
C  -4.77600 38.93000 39.96000
C  -6.65800 36.25500 37.70800
C  -5.76400 35.14100 37.20800
H  -5.01300 35.30900 35.92900
N  -9.71600 40.69500 40.99700
C  -8.71900 41.25200 40.27000
C  -8.90000 42.63700 40.19900
C  -10.24900 42.84800 40.58400
C  -10.76100 41.49900 41.04800
C  -7.85700 43.64800 39.78200
C  -10.91000 44.20900 40.73300
O  -10.33000 45.25100 40.35400
C  -12.29100 44.35300 41.33600
N  -11.91200 38.90700 42.22200
C  -12.59300 40.03700 42.13200
C  -14.01900 39.87100 42.59700
C  -14.02800 38.30100 43.10600
C  -12.62800 37.83800 42.64200
C  -14.46100 40.83500 43.71200
C  -15.31200 37.60200 42.62200
C  -15.88000 36.59400 43.60500
N  -10.12800 36.55400 41.76100
C  -11.13700 35.86200 42.35800
C  -10.91100 34.45200 42.34900
C  -9.71600 34.28200 41.56600
C  -9.26500 35.64800 41.31900
C  -11.72000 33.41000 43.08800
C  -8.70700 33.41300 41.00300
O  -8.65600 32.18800 41.06000
C  -7.70300 34.37800 40.22800
C  -6.30400 34.07400 40.61300
O  -5.64600 33.18100 39.99900
O  -5.99700 34.62600 41.82800
C  -4.77000 34.15200 42.40100
H  -6.98200 40.91800 39.02000
H  -12.86000 41.88600 41.34100
H  -13.04500 35.94300 43.27500
H  -5.45300 36.44200 39.52000
H  -5.96300 39.05700 38.10800
H  -4.86000 39.73900 40.68600
H  -3.86700 39.21000 39.42700
H  -4.55900 38.04900 40.56300
H  -6.71200 37.08000 36.99800
H  -7.65900 35.89200 37.94400
H  -6.34100 34.22800 37.06300
H  -5.03000 34.82700 37.95000
H  -6.98800 43.17300 39.32600
H  -7.61500 44.31300 40.61100
H  -8.21300 44.25900 38.95300
H  -12.49800 43.68900 42.17500
H  -13.02700 44.06600 40.58500
H  -12.44500 45.40600 41.57000
H  -14.67600 40.01700 41.74000
H  -13.89000 38.30400 44.18800
H  -15.05300 40.28100 44.44100
H  -15.08500 41.53800 43.16000
H  -13.61700 41.39800 44.11100
H  -14.92400 37.10500 41.73300
H  -16.07600 38.32500 42.33700
H  -15.83700 35.56200 43.25500
H  -16.89900 36.86900 43.87900
H  -15.29900 36.62700 44.52700
H  -11.77200 33.54700 44.16800
H  -11.15900 32.48700 42.94300
H  -12.73800 33.36400 42.70000
H  -7.74100 34.21900 39.15000
H  -3.84900 34.44200 41.89500
H  -4.72700 33.06600 42.49200
H  -4.73600 34.67600 43.35600
Mg -11.05700 17.47200 41.35700
C  -7.85600 16.01300 40.97100
C  -9.81300 20.51700 40.86800
C  -14.28600 18.66500 41.29200
C  -12.29100 14.19300 41.24100
N  -9.04600 18.15000 41.08300
C  -7.91000 17.39500 40.95200
C  -6.67800 18.32000 40.92900
C  -7.35000 19.79100 41.08800
C  -8.84500 19.43900 41.04000
C  -6.86500 20.54500 42.40600
C  -5.95200 18.22300 39.52300
C  -4.46900 17.71700 39.54200
H  -4.08100 16.53100 38.62000
N  -11.93400 19.32800 41.24200
C  -11.22800 20.44400 40.92800
C  -12.14300 21.55500 40.72000
C  -13.45600 21.07500 40.95600
C  -13.27000 19.60900 41.18600
C  -11.71900 22.94700 40.23500
C  -14.72000 21.85500 40.84900
O  -14.71900 23.02600 40.51100
C  -16.08600 21.22800 41.22000
N  -12.98200 16.55800 41.25800
C  -14.14000 17.26600 41.37400
C  -15.36200 16.35600 41.23400
C  -14.72400 14.98100 41.53400
C  -13.17800 15.21300 41.35100
C  -16.59900 16.66700 42.17900
C  -15.31000 13.70300 40.83300
C  -15.39700 12.44900 41.58400
N  -10.25600 15.44700 41.07500
C  -10.85000 14.22000 41.12000
C  -9.89100 13.12100 40.91500
C  -8.68400 13.84600 40.99900
C  -8.97900 15.23800 41.04000
C  -10.19600 11.66000 40.75600
C  -7.21500 13.64500 41.24000
O  -6.55700 12.63100 41.24000
C  -6.65300 15.12000 41.22400
C  -5.82400 15.36300 42.48400
O  -4.56200 15.34900 42.49200
O  -6.53600 15.42800 43.63300
C  -5.70700 15.68300 44.79000
H  -9.42000 21.53400 40.80300
H  -15.31600 18.95500 41.07300
H  -12.64900 13.16200 41.26000
H  -6.16600 18.01200 41.84100
H  -7.16200 20.38900 40.19600
H  -7.63800 20.54600 43.17500
H  -6.54200 21.54500 42.11500
H  -6.01000 19.95100 42.72800
H  -6.07700 19.14300 38.95200
H  -6.51700 17.43700 39.02200
H  -4.18200 17.31200 40.51300
H  -3.79700 18.56900 39.44400
H  -10.82900 22.66300 39.67200
H  -11.55200 23.64300 41.05700
H  -12.50200 23.49300 39.70900
H  -16.31600 20.53200 40.41400
H  -16.85300 22.00200 41.21600
H  -15.99400 20.70300 42.17100
H  -15.64400 16.37700 40.18100
H  -14.96900 14.81900 42.58300
H  -17.04800 15.77400 42.61400
H  -17.28800 17.20200 41.52600
H  -16.29700 17.26900 43.03600
H  -14.73500 13.41000 39.95500
H  -16.24100 14.01800 40.36300
H  -14.38900 12.13700 41.85700
H  -15.82900 11.63700 41.00000
H  -15.95100 12.57200 42.51500
H  -10.52600 11.28600 41.72500
H  -9.29700 11.26200 40.28400
H  -11.03100 11.46200 40.08400
H  -6.03500 15.25800 40.33700
H  -5.03000 16.49300 44.51800
H  -5.22800 14.74600 45.07400
H  -6.18000 16.17100 45.64300

