158

Mg 2.77700 -0.51000 43.32700
C  6.15000 -0.15400 42.21500
C  2.13400 2.51600 41.75700
C  -0.56400 -1.33000 43.22600
C  3.52800 -3.39000 44.69000
N  3.99900 0.91300 41.93100
C  5.36600 0.90100 41.71800
C  5.76200 2.06200 40.82500
C  4.66800 3.11000 41.23400
C  3.49700 2.13600 41.66300
C  5.02100 4.14000 42.32600
C  5.80900 1.69500 39.30800
C  6.98800 2.21600 38.40100
H  6.50800 2.49900 36.98200
N  0.97200 0.54500 42.71100
C  0.93400 1.76200 42.11200
C  -0.44900 2.06600 41.86500
C  -1.28500 0.96700 42.18600
C  -0.28100 -0.00800 42.77500
C  -0.78600 3.32800 41.31000
C  -2.77100 0.84300 41.95100
O  -3.45500 1.66800 41.27300
C  -3.55700 -0.32400 42.42300
N  1.62300 -2.06700 43.90000
C  0.28700 -2.13100 43.91500
C  -0.17000 -3.47100 44.56700
C  1.07600 -4.02000 45.29600
C  2.13100 -3.12700 44.61200
C  -1.36000 -3.15100 45.63400
C  1.29100 -5.58600 45.24500
C  1.34300 -6.20000 46.63000
N  4.49600 -1.68100 43.42200
C  4.64000 -2.83000 44.12600
C  6.04800 -3.19400 43.99200
C  6.71000 -2.23500 43.21700
C  5.70300 -1.29800 42.93400
C  6.80600 -4.34600 44.51600
C  7.96100 -1.73300 42.59700
O  9.12800 -2.12600 42.59000
C  7.60500 -0.38100 41.94400
C  8.57400 0.71800 42.42700
O  8.90500 0.96200 43.59200
O  9.01500 1.40700 41.35300
C  9.90900 2.58700 41.55400
H  2.07400 3.56800 41.47000
H  -1.55700 -1.75900 43.08000
H  3.85200 -4.20400 45.34200
H  6.71600 2.56200 40.98900
H  4.51000 3.67400 40.31400
H  4.18800 4.20700 43.02600
H  5.13500 5.18200 42.02600
H  5.92200 3.83000 42.85500
H  4.96800 2.13400 38.77100
H  5.63300 0.64100 39.09100
H  7.83300 1.53500 38.30800
H  7.28500 3.16200 38.85500
H  -0.60100 3.43400 40.24100
H  -0.20600 4.09900 41.81800
H  -1.80400 3.58300 41.60500
H  -4.61200 -0.05300 42.41400
H  -3.27800 -0.71200 43.40300
H  -3.33100 -1.11600 41.70900
H  -0.54800 -4.13200 43.78700
H  1.03600 -3.70600 46.33900
H  -1.05100 -3.41300 46.64600
H  -2.23500 -3.65500 45.22200
H  -1.70800 -2.11900 45.61300
H  2.19400 -5.89900 44.72100
H  0.51100 -6.14800 44.73200
H  0.83100 -7.16100 46.68800
H  1.12600 -5.52400 47.45600
H  2.38000 -6.48900 46.80200
H  7.20700 -4.87500 43.65200
H  6.14300 -4.94900 45.13600
H  7.57400 -4.00600 45.21100
H  7.80900 -0.39400 40.87400
H  9.57000 3.32300 40.82500
H  10.98200 2.43500 41.43800
H  9.75800 3.02200 42.54200
Mg 16.60800 51.64700 24.87300
C  18.37000 50.53600 27.70000
C  14.10100 52.65500 26.95500
C  14.60000 52.18300 22.29600
C  18.95600 50.06200 22.83600
N  16.31700 51.49700 27.06400
C  17.24900 51.20700 27.97800
C  16.83000 51.63300 29.40100
C  15.32100 52.09700 29.12400
C  15.23400 52.14400 27.60900
C  14.28300 51.18900 29.89500
C  17.70400 52.84000 29.93600
C  17.93300 52.87400 31.51800
H  17.20800 52.03000 32.41500
N  14.67900 52.45600 24.67100
C  13.81400 52.85800 25.63900
C  12.64500 53.41300 25.02600
C  12.74300 53.26200 23.67800
C  14.06300 52.69400 23.47300
C  11.47000 54.05200 25.77800
C  11.71200 53.57500 22.64700
O  11.89600 53.36700 21.47400
C  10.33500 53.93400 23.04300
N  16.71400 51.29600 22.88700
C  15.81500 51.60600 21.97100
C  16.24900 51.33800 20.55600
C  17.70200 50.66200 20.73500
C  17.79500 50.70500 22.27500
C  15.22000 50.59000 19.66200
C  18.92000 51.40800 20.04600
C  19.88900 50.54100 19.15100
N  18.28400 50.47700 25.19500
C  19.24300 50.03400 24.22800
C  20.34000 49.40900 24.97100
C  20.04600 49.58100 26.33800
C  18.78100 50.28200 26.38000
C  21.62000 48.79800 24.35600
C  20.54200 49.40200 27.65600
O  21.62100 48.99900 28.02200
C  19.41600 49.94900 28.58400
C  18.91500 48.71700 29.33700
O  18.11800 47.89000 28.91400
O  19.34200 48.77600 30.68100
C  18.66100 47.85400 31.63400
H  13.40400 53.16100 27.62600
H  13.94500 52.30500 21.43100
H  19.73600 49.67100 22.17900
H  16.80400 50.74400 30.03000
H  15.21200 53.10800 29.51500
H  13.79300 50.71100 29.04600
H  13.63900 51.84900 30.47700
H  14.82200 50.57200 30.61300
H  17.17500 53.77600 29.75900
H  18.59100 52.68600 29.32100
H  17.94400 53.91900 31.82500
H  18.99900 52.68900 31.65400
H  10.64700 53.35000 25.90900
H  11.04300 54.96300 25.35800
H  11.81800 54.32200 26.77500
H  10.27200 54.96000 23.40700
H  9.99500 53.16500 23.73700
H  9.68500 53.94500 22.16800
H  16.33100 52.29200 20.03600
H  17.74400 49.61400 20.44200
H  14.74200 51.37200 19.07200
H  14.40400 50.08500 20.18100
H  15.72400 49.90000 18.98500
H  19.49100 52.00600 20.75700
H  18.61500 52.06400 19.23100
H  19.87900 50.92000 18.13000
H  19.57600 49.49800 19.19100
H  20.87200 50.78800 19.55300
H  22.15000 49.52700 23.74300
H  21.26000 47.96600 23.75100
H  22.30900 48.39500 25.09900
H  19.73300 50.73600 29.26800
H  18.42100 46.90100 31.16400
H  17.89400 48.31800 32.25500
H  19.45400 47.50300 32.29500

