158

Mg 40.73200 7.58700 28.75800
C  42.52100 9.07400 31.47300
C  38.47800 6.26300 31.08800
C  39.09900 6.23400 26.14300
C  43.45100 8.45900 26.63500
N  40.60000 7.60200 31.10700
C  41.36000 8.34300 31.88500
C  40.85200 8.26000 33.35300
C  39.57500 7.28700 33.15700
C  39.45600 7.06500 31.67000
C  39.55900 6.01300 34.03700
C  40.43200 9.62300 34.01800
C  40.12300 9.66500 35.55300
H  40.94300 10.64000 36.40500
N  39.02900 6.36700 28.68800
C  38.30400 5.88200 29.75100
C  37.24200 5.17900 29.17900
C  37.27400 5.27900 27.75700
C  38.51000 5.91000 27.46900
C  36.07200 4.61000 30.02300
C  36.21700 4.86000 26.76900
O  36.45300 4.93600 25.59900
C  34.91900 4.18200 27.18100
N  41.25900 7.16700 26.65500
C  40.37300 6.70000 25.76400
C  40.89000 6.79900 24.37200
C  42.29500 7.50900 24.48700
C  42.39700 7.76000 26.05600
C  41.02300 5.31200 23.81400
C  42.28900 8.88400 23.71100
C  41.12800 9.86000 23.95500
N  42.62000 8.53500 28.94400
C  43.57100 8.85400 28.01700
C  44.62300 9.60600 28.58200
C  44.27200 9.71100 29.98900
C  43.03900 9.06800 30.12100
C  45.81000 10.10900 27.83000
C  44.64500 10.25800 31.18900
O  45.58900 10.97900 31.42400
C  43.52600 9.88700 32.25100
C  44.01900 9.36600 33.52200
O  44.15600 8.18400 33.72600
O  44.29700 10.43500 34.36300
C  44.88800 10.02900 35.66900
H  37.71300 5.83900 31.74200
H  38.51600 6.00200 25.24900
H  44.35200 8.69300 26.06300
H  41.66700 7.83000 33.93600
H  38.69400 7.92700 33.19200
H  40.23500 6.25900 34.85600
H  39.90800 5.12600 33.50800
H  38.53000 5.92300 34.38700
H  39.52100 9.96600 33.52600
H  41.33500 10.22600 33.92300
H  39.92500 8.71300 36.04600
H  39.11600 10.07600 35.47500
H  35.74800 3.59000 29.81600
H  35.11800 5.13700 30.01900
H  36.23600 4.59000 31.10000
H  34.15100 4.21100 26.40800
H  34.41700 4.58600 28.06000
H  35.05300 3.14500 27.48900
H  40.21500 7.46200 23.83000
H  43.09000 6.81500 24.21600
H  42.04800 4.94500 23.75800
H  40.49400 5.26400 22.86300
H  40.53100 4.67900 24.55300
H  42.41100 8.53000 22.68800
H  43.22900 9.38600 23.94000
H  40.83000 10.43200 23.07700
H  41.56900 10.62000 24.60000
H  40.27600 9.43900 24.49000
H  46.54600 9.30700 27.77300
H  46.07800 10.99300 28.40800
H  45.50500 10.47100 26.84800
H  43.08400 10.85600 32.48300
H  45.91700 9.67500 35.60800
H  44.32300 9.19300 36.08200
H  44.90000 10.80100 36.43900
Mg 47.77800 14.34700 27.38400
C  45.69200 14.39600 30.25300
C  50.03700 16.10000 28.97100
C  49.58300 14.41100 24.50600
C  45.03300 13.04200 25.58600
N  47.81800 15.24000 29.42100
C  46.89600 15.09500 30.47300
C  47.37500 15.70400 31.82700
C  48.67800 16.41400 31.27900
C  48.87800 15.89500 29.81600
C  48.55100 17.95400 31.33100
C  47.64500 14.63000 32.91400
C  47.51700 15.13800 34.35600
H  48.75600 14.96400 35.25800
N  49.66600 14.96800 26.89100
C  50.47200 15.64900 27.71300
C  51.79600 15.77800 27.12400
C  51.66600 15.18700 25.77700
C  50.27300 14.87400 25.65300
C  52.98000 16.25400 27.87000
C  52.71400 15.07000 24.69300
O  52.48200 14.59400 23.54400
C  54.02500 15.53400 24.89800
N  47.39200 13.76100 25.30000
C  48.28400 13.95000 24.33200
C  47.75900 13.26200 22.98000
C  46.39200 12.73000 23.39100
C  46.21900 13.21500 24.86200
C  47.81800 14.18000 21.78700
C  46.18200 11.15500 23.20100
C  46.97200 10.38500 24.28500
N  45.80900 13.78300 27.82600
C  44.74500 13.31200 26.94800
C  43.49300 13.13500 27.73100
C  43.89200 13.46900 29.00300
C  45.24000 13.94800 29.03200
C  42.23000 12.36500 27.27300
C  43.39100 13.58300 30.33600
O  42.29500 13.37900 30.76400
C  44.53600 14.23600 31.18800
C  43.99000 15.51800 31.81800
O  43.61000 16.48000 31.18200
O  44.05700 15.46800 33.18800
C  43.71100 16.72700 33.91600
H  50.88500 16.56300 29.48000
H  50.17500 14.35300 23.59000
H  44.21500 12.53800 25.06600
H  46.56800 16.39000 32.08700
H  49.52000 16.11200 31.90300
H  48.67700 18.28400 30.30000
H  49.30700 18.46900 31.92400
H  47.50700 18.20500 31.51400
H  48.67500 14.29000 32.80400
H  47.03200 13.74100 32.76500
H  46.86100 14.46400 34.90600
H  47.04900 16.12100 34.39500
H  53.61300 15.37300 27.97700
H  52.75100 16.37800 28.92900
H  53.42500 17.12400 27.38700
H  54.38800 15.10100 25.83000
H  54.07700 16.61700 25.00500
H  54.72800 15.25900 24.11100
H  48.47400 12.47700 22.73500
H  45.55500 13.02100 22.75700
H  48.33800 15.10900 22.01900
H  46.80300 14.47900 21.52800
H  48.34400 13.69800 20.96200
H  46.71100 11.02300 22.25700
H  45.16800 10.77900 23.06500
H  47.72500 9.79600 23.76100
H  46.34900 9.65100 24.79600
H  47.49400 11.03600 24.98600
H  41.86900 11.81900 28.14500
H  42.62000 11.58100 26.62500
H  41.48600 12.96400 26.74800
H  44.64900 13.54100 32.02100
H  43.08600 17.42900 33.36400
H  44.70500 17.09500 34.17100
H  43.18900 16.58000 34.86100

