158

Mg 43.61300 4.14400 47.03700
C  41.06900 6.56500 46.99000
C  41.10300 1.79500 47.16800
C  45.91000 1.69300 47.01600
C  46.04700 6.56800 46.57300
N  41.39400 4.24200 47.11100
C  40.50900 5.29200 47.25000
C  39.02500 4.90400 47.16300
C  39.06700 3.31900 47.35300
C  40.63300 3.09400 47.28500
C  38.39100 2.91200 48.63100
C  38.38800 5.30500 45.83800
C  39.04700 4.92100 44.47900
H  39.29700 5.97700 43.41400
N  43.50900 2.05000 47.03100
C  42.40800 1.30700 47.05200
C  42.67400 -0.08300 46.90100
C  44.10200 -0.22800 46.88900
C  44.60500 1.20200 47.02800
C  41.65200 -1.20200 46.86400
C  44.89000 -1.48400 46.62400
O  44.28500 -2.58600 46.59700
C  46.36700 -1.56800 46.51200
N  45.65900 4.13900 46.62000
C  46.40200 3.02300 46.91900
C  47.91200 3.30400 46.83100
C  47.91800 4.87400 46.88100
C  46.47300 5.24900 46.68200
C  48.90000 2.60800 47.83000
C  48.97300 5.65000 46.05600
C  49.62800 6.82200 46.71400
N  43.64300 6.21000 46.78900
C  44.69800 7.02100 46.54000
C  44.13700 8.40500 46.50100
C  42.75300 8.26200 46.75700
C  42.47400 6.92900 46.85700
C  44.93500 9.67900 46.28100
C  41.55200 9.02100 46.88900
O  41.28400 10.20600 46.78100
C  40.34100 7.92900 47.06500
C  39.69300 8.09900 48.37200
O  40.17200 7.82000 49.49500
O  38.38700 8.30100 48.21100
C  37.64600 7.90400 49.47700
H  40.36400 0.99800 47.26900
H  46.71300 1.01600 47.31700
H  46.81300 7.34400 46.51900
H  38.54700 5.46900 47.96300
H  38.65900 2.74400 46.52100
H  38.01300 3.72600 49.24900
H  39.13000 2.58600 49.36300
H  37.76400 2.03300 48.48500
H  38.24400 6.38500 45.80800
H  37.42300 4.80200 45.88500
H  38.40100 4.13800 44.08000
H  40.05400 4.51500 44.56800
H  41.79100 -2.05800 47.52500
H  41.71900 -1.60900 45.85500
H  40.61700 -0.86300 46.91400
H  46.89600 -1.10700 47.34600
H  46.63100 -1.22600 45.51100
H  46.73300 -2.59100 46.61000
H  48.33300 2.97200 45.88200
H  48.17100 5.06100 47.92400
H  49.52600 1.82500 47.40300
H  48.30400 2.16600 48.62900
H  49.56400 3.32500 48.31300
H  48.43500 6.09400 45.21800
H  49.68600 5.01000 45.53700
H  50.70200 6.75700 46.54000
H  49.43800 6.96900 47.77800
H  49.27700 7.75200 46.26700
H  45.49000 9.77100 47.21400
H  44.31900 10.56100 46.10700
H  45.60500 9.44500 45.45400
H  39.65400 8.11200 46.23900
H  37.81400 8.78800 50.09300
H  38.04800 7.02600 49.98100
H  36.62200 7.62800 49.22800
Mg -11.86700 38.96800 41.22200
C  -9.88400 36.18300 40.17900
C  -9.15700 41.04500 40.20800
C  -13.82900 41.54000 41.52200
C  -14.48200 36.80900 42.03000
N  -9.79700 38.68400 40.36800
C  -9.28300 37.44600 40.01800
C  -7.87600 37.57600 39.36600
C  -7.56900 39.07500 39.75900
C  -8.94900 39.68800 40.05100
C  -6.54900 39.24800 40.96300
C  -7.90000 37.36400 37.84700
C  -7.06200 36.30700 37.12900
H  -5.79900 36.74000 36.35400
N  -11.55700 41.03900 40.85600
C  -10.40000 41.69900 40.49600
C  -10.58600 43.17200 40.47100
C  -11.93700 43.34000 41.00300
C  -12.52200 41.95000 41.12900
C  -9.55600 44.13100 39.92300
C  -12.58900 44.72800 41.22700
O  -11.94000 45.76600 41.01100
C  -13.89900 44.84800 41.89500
N  -13.92500 39.06600 41.62200
C  -14.42700 40.27500 41.78700
C  -15.87600 40.27000 42.55300
C  -16.01000 38.69800 42.79800
C  -14.73700 38.13500 42.07800
C  -15.95100 41.21900 43.79400
C  -17.36700 38.27000 42.26900
C  -17.95600 36.96900 42.97300
N  -12.18300 36.85400 41.19600
C  -13.30200 36.09000 41.55800
C  -12.92700 34.66300 41.44400
C  -11.62800 34.67900 40.87800
C  -11.21100 36.01000 40.73500
C  -13.74900 33.49400 41.99900
C  -10.48000 33.84200 40.56300
O  -10.40200 32.63900 40.60600
C  -9.37300 34.80000 39.92100
C  -8.03400 34.46100 40.40000
O  -7.65800 34.75300 41.51200
O  -7.30300 33.76200 39.43700
C  -5.93700 33.46400 39.89700
H  -8.23300 41.62500 40.15900
H  -14.54300 42.36300 41.60600
H  -15.25700 36.11600 42.36500
H  -7.21200 36.84700 39.83200
H  -7.08200 39.58900 38.93000
H  -5.56200 39.01200 40.56600
H  -6.79900 38.53300 41.74700
H  -6.60100 40.22900 41.43600
H  -7.82400 38.35100 37.39100
H  -8.92200 37.05000 37.63700
H  -7.68200 35.74600 36.43000
H  -6.64000 35.66100 37.89900
H  -8.57100 43.72300 39.69400
H  -9.35500 44.93500 40.63000
H  -10.00300 44.65500 39.07900
H  -14.74000 44.42700 41.34300
H  -14.11800 45.85400 42.25400
H  -13.71100 44.17900 42.73400
H  -16.62200 40.56500 41.81600
H  -15.88200 38.45800 43.85400
H  -15.01100 41.72500 44.01500
H  -16.32200 40.74900 44.70400
H  -16.64500 42.00000 43.48200
H  -17.17000 38.20000 41.19900
H  -18.06600 39.10200 42.35500
H  -18.98400 37.16600 43.27800
H  -17.40200 36.67900 43.86600
H  -17.89200 36.08700 42.33600
H  -14.83700 33.46200 42.05800
H  -13.45400 33.38200 43.04300
H  -13.57200 32.50100 41.58800
H  -9.34100 34.60000 38.85000
H  -5.30300 33.44900 39.01100
H  -5.74300 32.49400 40.35400
H  -5.56600 34.23400 40.57400

