158

Mg 43.35900 4.14600 47.60700
C  41.43200 7.07000 47.55300
C  40.41700 2.39300 47.22300
C  45.10200 1.49700 47.11000
C  46.24200 6.23800 47.00400
N  41.14500 4.62600 47.37100
C  40.62200 5.90300 47.45700
C  39.06000 5.81500 47.34100
C  38.75100 4.27700 47.51000
C  40.18400 3.72200 47.32800
C  38.24800 3.73800 48.83800
C  38.51700 6.50000 46.05800
C  39.47800 6.48600 44.88900
H  38.92400 6.85600 43.52400
N  42.83000 2.15700 47.44600
C  41.60200 1.62200 47.35200
C  41.62500 0.17400 47.28700
C  43.04600 -0.16300 47.24300
C  43.74100 1.16400 47.31500
C  40.45500 -0.77800 47.31200
C  43.70600 -1.57500 46.98200
O  43.02300 -2.60400 46.80800
C  45.17800 -1.74600 46.88800
N  45.32200 3.92300 47.17700
C  45.84300 2.70700 47.02500
C  47.40400 2.64100 47.11200
C  47.68200 4.14700 47.06400
C  46.35600 4.86700 47.03600
C  48.04000 1.99500 48.36800
C  48.66900 4.72400 45.96000
C  49.86800 5.36900 46.65600
N  43.80600 6.22900 47.38000
C  45.00200 6.92300 47.20800
C  44.72300 8.39900 47.15800
C  43.35700 8.43700 47.43400
C  42.87100 7.15300 47.49000
C  45.72300 9.46900 46.91300
C  42.25800 9.41700 47.62100
O  42.18300 10.62800 47.65700
C  40.98500 8.46800 47.62200
C  40.09400 8.71400 48.86000
O  40.15000 8.10200 49.88000
O  39.14300 9.66200 48.50300
C  38.16400 10.04200 49.54200
H  39.48800 1.82400 47.29300
H  45.91400 0.77000 47.18100
H  47.14100 6.85800 47.01900
H  38.59700 6.37500 48.15300
H  38.22100 3.82300 46.67300
H  39.07400 3.40800 49.46800
H  37.53400 2.94000 48.63500
H  37.80700 4.54800 49.41800
H  38.30100 7.51300 46.39900
H  37.63300 5.98400 45.68200
H  40.01700 5.53900 44.85900
H  40.26800 7.22100 45.04700
H  40.21000 -1.09000 46.29700
H  39.63700 -0.24900 47.80200
H  40.63700 -1.66900 47.91400
H  45.72700 -1.49100 47.79400
H  45.46000 -1.15800 46.01400
H  45.28800 -2.80700 46.66300
H  47.75600 2.17600 46.19100
H  48.08200 4.37600 48.05200
H  47.53700 2.17500 49.31900
H  49.07500 2.31000 48.49800
H  48.15900 0.91400 48.28800
H  48.14900 5.37000 45.25400
H  48.93200 3.85700 45.35400
H  50.16300 4.76900 47.51800
H  49.64600 6.37800 47.00200
H  50.72600 5.34700 45.98400
H  45.30100 10.30600 46.35600
H  46.59500 9.22500 46.30600
H  46.06900 9.79600 47.89400
H  40.50900 8.81500 46.70500
H  38.48400 10.10400 50.58200
H  37.37700 9.28800 49.56400
H  37.78400 10.99500 49.17300
Mg 42.33600 41.43000 26.50600
C  41.71600 43.65100 29.13800
C  43.24900 38.95900 28.79200
C  43.23900 39.53600 23.90100
C  41.37800 43.95300 24.39600
N  42.53000 41.35500 28.72400
C  42.18400 42.39900 29.63900
C  42.13100 41.84300 31.07800
C  42.85900 40.47100 30.91700
C  42.82300 40.16700 29.39300
C  44.16000 40.34800 31.60600
C  40.67300 41.71600 31.62000
C  40.36000 42.81500 32.72600
H  39.79600 42.34700 34.08000
N  43.22000 39.51900 26.40900
C  43.44200 38.60700 27.41300
C  43.98100 37.38900 26.80700
C  43.95700 37.53700 25.36900
C  43.38000 38.86800 25.15300
C  44.38900 36.08700 27.63300
C  44.43000 36.66100 24.29000
O  44.36200 36.94200 23.10300
C  45.18800 35.42000 24.63500
N  42.50800 41.73500 24.41900
C  42.78300 40.78400 23.53400
C  42.56700 41.25400 22.06300
C  41.86600 42.59700 22.25900
C  41.94000 42.74900 23.74800
C  43.81300 41.15900 21.18400
C  40.41000 42.66200 21.75500
C  39.29900 42.06900 22.62000
N  41.64500 43.37000 26.69700
C  41.39900 44.32300 25.72200
C  40.97100 45.59100 26.31700
C  41.06500 45.36100 27.68300
C  41.52900 44.03400 27.83600
C  40.39300 46.81400 25.58500
C  40.75100 45.91500 28.92400
O  40.19900 46.94500 29.29800
C  41.16300 44.82100 29.97400
C  42.15900 45.38600 30.98000
O  43.37200 45.36900 30.87400
O  41.49300 45.75300 32.17200
C  42.30400 46.29800 33.22500
H  43.42000 38.17800 29.53500
H  43.47400 39.01300 22.97100
H  41.16500 44.76100 23.69300
H  42.64800 42.56100 31.71600
H  42.25300 39.72800 31.43500
H  44.50300 41.37200 31.75100
H  44.86900 39.91200 30.90300
H  44.11600 39.86500 32.58300
H  40.54100 40.75600 32.11800
H  39.96100 41.89300 30.81300
H  39.55500 43.38000 32.25600
H  41.18100 43.50200 32.92800
H  43.65700 35.29700 27.46300
H  44.25200 36.46800 28.64500
H  45.45100 35.86800 27.52100
H  44.50900 34.63400 24.96500
H  45.99800 35.67000 25.32000
H  45.70100 35.09300 23.73100
H  41.85300 40.52500 21.68000
H  42.43900 43.35300 21.72300
H  43.85200 42.13900 20.70800
H  43.67500 40.27600 20.55900
H  44.73100 41.07900 21.76700
H  40.39600 42.18400 20.77600
H  40.25800 43.73700 21.65900
H  39.09700 42.76900 23.43100
H  39.62200 41.19400 23.18400
H  38.42100 41.63300 22.14200
H  40.70000 46.79500 24.53900
H  40.81900 47.64800 26.14300
H  39.30600 46.88900 25.57100
H  40.34700 44.41100 30.56800
H  43.19300 46.85700 32.93100
H  42.61900 45.63200 34.02800
H  41.71200 47.11000 33.64700

