158

Mg 41.24700 8.89700 29.96700
C  43.01200 10.34400 32.62100
C  38.82400 7.89100 32.12700
C  39.73500 7.34000 27.27800
C  43.87100 9.89100 27.81500
N  41.00200 9.06400 32.14700
C  41.78200 9.78900 33.01400
C  41.15600 9.91700 34.40000
C  39.74700 9.22100 34.18800
C  39.79000 8.72200 32.70400
C  39.33900 8.17100 35.26700
C  40.99400 11.37100 34.85400
C  40.17200 11.56500 36.18400
H  40.89300 12.29600 37.31300
N  39.63600 7.72900 29.77100
C  38.67400 7.47700 30.76400
C  37.49800 6.83800 30.18100
C  37.71000 6.82800 28.78300
C  39.10800 7.30900 28.55600
C  36.25100 6.44300 30.93100
C  36.71000 6.41400 27.60600
O  36.96600 6.69800 26.41500
C  35.26000 6.02600 27.99800
N  41.72000 8.57800 27.79900
C  40.91900 7.96600 26.92300
C  41.46000 8.02700 25.44800
C  42.74600 8.87500 25.68100
C  42.80500 9.17600 27.19000
C  41.67800 6.67200 24.68600
C  42.79500 10.05100 24.81700
C  42.30400 11.43700 25.33500
N  43.10000 9.90900 30.16800
C  44.00000 10.25300 29.19400
C  45.11500 10.92100 29.80500
C  44.81200 10.92600 31.21100
C  43.52400 10.39900 31.34700
C  46.40700 11.35700 29.11700
C  45.30100 11.20700 32.50000
O  46.43500 11.47900 32.93800
C  44.08900 10.96300 33.44000
C  44.51500 10.21700 34.70100
O  44.95300 9.05000 34.65900
O  44.49700 11.11900 35.78000
C  44.94800 10.57300 37.07900
H  37.94400 7.77000 32.76200
H  39.21400 6.92500 26.41200
H  44.72800 10.02300 27.15100
H  41.67800 9.29900 35.13000
H  39.00700 10.01800 34.26400
H  39.91100 8.42600 36.15900
H  39.58300 7.18000 34.88400
H  38.28000 8.18500 35.52600
H  40.68900 12.00500 34.02200
H  42.01800 11.64600 35.11000
H  39.70500 10.64700 36.54200
H  39.23200 12.09100 36.01400
H  36.10400 5.36300 30.90400
H  35.33300 6.78700 30.45500
H  36.21700 6.80800 31.95700
H  35.20700 5.20000 28.70800
H  34.90500 5.58000 27.06900
H  34.72600 6.94800 28.22900
H  40.70300 8.71400 25.06900
H  43.63100 8.28500 25.44000
H  41.82900 5.78900 25.30600
H  42.54400 6.64600 24.02500
H  40.76800 6.52800 24.10400
H  42.22300 9.79300 23.92600
H  43.80300 10.17800 24.42200
H  41.64800 11.80400 24.54600
H  43.10300 12.16800 25.45400
H  41.60000 11.39000 26.16600
H  46.49400 12.38500 29.46700
H  46.19400 11.19800 28.05900
H  47.25800 10.75800 29.44300
H  43.72800 11.94300 33.75100
H  44.17200 10.78800 37.81400
H  45.84300 11.12300 37.37000
H  45.22500 9.52000 37.12600
Mg 41.92900 40.93200 26.18100
C  40.95800 43.28600 28.71300
C  43.15700 38.87900 28.55300
C  43.05200 39.00400 23.67500
C  40.96400 43.39900 23.78300
N  41.86700 41.09600 28.35400
C  41.39100 42.06900 29.24400
C  41.48700 41.57100 30.71400
C  42.21100 40.19800 30.59200
C  42.43400 39.99900 29.04400
C  43.55900 39.88800 31.38300
C  39.95700 41.52000 31.23800
C  39.77800 40.92700 32.67500
H  38.96700 41.83100 33.63700
N  43.02300 39.23800 26.12900
C  43.36500 38.47800 27.25600
C  44.04100 37.29600 26.83500
C  44.04500 37.35700 25.41000
C  43.38100 38.55400 24.98500
C  44.65900 36.29000 27.83800
C  44.62100 36.39900 24.42400
O  44.80600 36.72500 23.25400
C  45.13800 35.01300 24.86600
N  42.09500 41.20500 24.05600
C  42.47900 40.21100 23.19700
C  42.38700 40.57000 21.70400
C  41.84500 42.03300 21.76200
C  41.63500 42.26100 23.32500
C  43.70500 40.32200 20.97000
C  40.57000 42.37300 20.93300
C  40.71200 43.29600 19.72400
N  41.09300 42.94300 26.13400
C  40.75100 43.77800 25.12700
C  40.26500 45.03700 25.62300
C  40.24300 44.82800 27.07900
C  40.79600 43.54800 27.31200
C  39.62000 46.14300 24.76200
C  39.89600 45.46200 28.32700
O  39.37200 46.54700 28.45400
C  40.22500 44.45000 29.47700
C  41.00300 44.95400 30.60200
O  42.20700 45.24700 30.51500
O  40.26900 45.01200 31.71000
C  41.03100 45.43500 32.87700
H  43.49000 38.17300 29.31600
H  43.27300 38.31200 22.86100
H  40.79000 44.19600 23.05700
H  41.95600 42.35500 31.30900
H  41.57800 39.35800 30.87900
H  44.36300 39.62900 30.69400
H  43.35300 39.02300 32.01300
H  43.96500 40.82600 31.76300
H  39.49700 40.86600 30.49800
H  39.43700 42.47700 31.29500
H  40.77400 40.84700 33.11000
H  39.27200 39.96200 32.65300
H  44.71400 35.30000 27.38700
H  44.22500 36.33600 28.83600
H  45.66300 36.71200 27.79400
H  45.95100 35.20700 25.56600
H  45.46800 34.44500 23.99600
H  44.34200 34.37900 25.25800
H  41.63800 39.88500 21.30700
H  42.63600 42.69800 21.41500
H  44.28200 41.23800 21.09700
H  43.58800 40.04500 19.92200
H  44.35000 39.65500 21.54200
H  39.85200 42.72000 21.67600
H  40.30000 41.38100 20.57000
H  40.56100 42.67900 18.83800
H  41.64400 43.86100 19.70700
H  39.88800 44.00800 19.77600
H  40.42400 46.69100 24.27100
H  39.01200 46.76400 25.42100
H  38.93300 45.64700 24.07700
H  39.29000 44.01200 29.82700
H  40.38200 45.65900 33.72300
H  41.61600 46.35200 32.80600
H  41.70200 44.61500 33.13600

