158

Mg 24.96700 0.53300 30.47100
C  26.93700 0.59900 33.42000
C  22.17500 0.54800 32.42900
C  23.05100 0.09900 27.65500
C  27.77100 -0.15800 28.67300
N  24.61200 0.78900 32.67400
C  25.54900 0.78300 33.68500
C  24.88900 1.08100 35.08500
C  23.38000 0.85900 34.66700
C  23.31700 0.67000 33.12200
C  22.70200 -0.39500 35.40500
C  25.13100 2.52200 35.63100
C  26.14200 2.71500 36.71500
H  25.64200 3.46700 37.97400
N  22.88000 0.33600 30.13400
C  21.90200 0.42600 31.02500
C  20.62900 0.19800 30.44300
C  20.80300 0.11600 29.03600
C  22.30200 0.19900 28.88600
C  19.32300 0.33000 31.19100
C  19.79500 0.02500 27.89700
O  20.16300 -0.12800 26.77900
C  18.27700 -0.04300 28.21600
N  25.35300 -0.00100 28.42900
C  24.42600 0.02100 27.45600
C  25.08500 -0.01700 26.08200
C  26.61900 -0.03100 26.42100
C  26.59500 0.00200 27.93600
C  24.59400 -1.15700 25.26000
C  27.37500 1.21100 25.78500
C  28.70000 0.88600 25.00000
N  27.01100 0.35100 30.85100
C  27.98100 0.03100 30.00600
C  29.19900 0.04800 30.74600
C  28.89900 0.25200 32.09200
C  27.51600 0.37400 32.13500
C  30.52500 -0.38400 30.18900
C  29.43800 0.39300 33.48200
O  30.56800 0.32500 33.98800
C  28.17100 0.65400 34.38200
C  28.06800 -0.45600 35.44000
O  27.44200 -1.53200 35.34900
O  28.88700 -0.17200 36.49500
C  28.68200 -0.96900 37.67900
H  21.29500 0.53200 33.07500
H  22.46500 -0.01700 26.74200
H  28.68400 -0.33500 28.10100
H  25.14600 0.24400 35.73400
H  22.70500 1.68600 34.88800
H  22.48600 -1.10400 34.60500
H  21.72500 -0.12100 35.80400
H  23.26900 -0.78000 36.25200
H  24.13900 2.90100 35.87700
H  25.50400 3.09300 34.78100
H  26.90300 3.39600 36.33700
H  26.65400 1.77500 36.92100
H  18.73100 1.11900 30.72800
H  19.42700 0.47300 32.26700
H  18.76500 -0.58700 31.00100
H  17.95600 0.92600 28.59800
H  18.07000 -0.88100 28.88200
H  17.69200 -0.30200 27.33300
H  24.73300 0.88600 25.58400
H  27.16100 -0.91500 26.08600
H  25.47900 -1.65200 24.86100
H  23.96200 -0.83400 24.43300
H  24.05300 -1.89800 25.84800
H  27.76500 1.81600 26.60400
H  26.73600 1.95700 25.31300
H  28.75400 1.47700 24.08600
H  28.51500 -0.12200 24.63100
H  29.56000 1.00200 25.66000
H  31.04900 0.52400 29.88900
H  30.46800 -1.00800 29.29700
H  31.10000 -0.97100 30.90500
H  28.25100 1.68000 34.74200
H  27.74100 -0.70700 38.16200
H  29.53400 -0.87500 38.35300
H  28.63400 -2.03700 37.46800
Mg 34.80700 2.68700 30.56200
C  32.48600 3.60800 32.90200
C  37.37900 3.05300 32.71500
C  36.93400 1.68700 28.11600
C  32.10500 2.77900 28.21400
N  34.87400 3.16700 32.50700
C  33.82700 3.52100 33.34100
C  34.24600 3.64800 34.76100
C  35.81500 3.70700 34.65100
C  36.08600 3.32600 33.15100
C  36.35900 5.21400 35.02400
C  33.68100 2.43200 35.60900
C  33.76900 2.63500 37.09900
H  34.17400 4.00400 37.67600
N  36.86300 2.41900 30.39800
C  37.78900 2.63300 31.41000
C  39.11600 2.16600 31.03600
C  39.00300 1.89200 29.65900
C  37.58800 2.04000 29.34000
C  40.26100 2.02300 32.00900
C  40.12700 1.58900 28.68000
O  39.84800 1.41200 27.46800
C  41.63100 1.59600 29.14600
N  34.57900 2.35300 28.49700
C  35.63700 1.92600 27.74600
C  35.21300 1.94200 26.22200
C  33.70300 2.08000 26.36900
C  33.44700 2.49400 27.86000
C  35.84000 3.11100 25.45800
C  32.91400 0.82000 25.99500
C  32.60800 0.67600 24.51500
N  32.75300 3.19200 30.47300
C  31.80200 3.13700 29.48200
C  30.48400 3.47400 30.00200
C  30.72200 3.65300 31.36600
C  32.10900 3.55800 31.57600
C  29.20000 3.56300 29.32100
C  30.01800 4.03300 32.54300
O  28.81100 4.10700 32.71600
C  31.14200 3.92400 33.64000
C  31.11000 5.07100 34.52100
O  31.76700 6.09800 34.37100
O  30.22900 4.88200 35.60100
C  30.25500 5.89300 36.63600
H  38.20400 3.27700 33.39500
H  37.54700 1.20900 27.34900
H  31.33200 2.79300 27.44200
H  33.93600 4.59700 35.19900
H  36.26400 3.00600 35.35400
H  36.94200 5.03700 35.92800
H  35.64600 5.98200 35.32600
H  37.05200 5.64800 34.30300
H  34.35900 1.63900 35.29400
H  32.66800 2.08800 35.40300
H  34.45000 1.92600 37.56900
H  32.78300 2.35000 37.46600
H  41.09800 2.64000 31.68100
H  40.49000 0.95700 32.01800
H  39.99600 2.31900 33.02400
H  41.87000 0.86900 29.92200
H  41.73300 2.63300 29.46700
H  42.26700 1.40700 28.28200
H  35.47400 1.05800 25.64100
H  33.34000 2.95900 25.83600
H  36.48900 2.62000 24.73300
H  36.27500 3.83400 26.14800
H  35.19900 3.65200 24.76200
H  31.97400 0.81700 26.54700
H  33.46300 -0.08500 26.25700
H  33.39900 1.06600 23.87400
H  31.70600 1.18000 24.16800
H  32.53600 -0.40800 24.43400
H  29.34800 3.16900 28.31600
H  28.84100 4.59200 29.34300
H  28.52400 2.89200 29.85100
H  30.80700 3.13600 34.31400
H  29.61800 6.69600 36.26500
H  31.25600 6.28700 36.81200
H  29.85500 5.59100 37.60500

