158

Mg 2.40100 -3.04100 45.67300
C  5.78400 -2.20100 45.23700
C  1.58600 -0.53800 43.42600
C  -0.79800 -4.35400 45.45800
C  3.42500 -5.77700 47.60100
N  3.55400 -1.58000 44.49300
C  4.95600 -1.38300 44.51200
C  5.36800 -0.25800 43.55300
C  3.97400 0.43100 43.22800
C  2.95000 -0.66300 43.78000
C  3.74300 1.81200 44.04300
C  6.03500 -0.74800 42.27100
C  7.47400 -0.17000 42.00700
H  7.44400 0.69700 40.77700
N  0.67800 -2.49900 44.61500
C  0.49700 -1.37100 43.84000
C  -0.87100 -1.23400 43.41700
C  -1.59800 -2.33800 43.97200
C  -0.55500 -3.11900 44.73400
C  -1.25600 -0.02300 42.53200
C  -3.12000 -2.63900 43.80800
O  -3.81400 -1.87200 43.16200
C  -3.93700 -3.55400 44.66100
N  1.45400 -4.77100 46.40600
C  0.12300 -5.02000 46.27400
C  -0.44700 -6.24800 47.05400
C  0.97800 -6.76600 47.65500
C  2.02900 -5.73700 47.22300
C  -1.56700 -5.86000 48.09700
C  1.47300 -8.01300 47.02300
C  1.87900 -9.08600 48.17600
N  4.22100 -3.87500 46.40400
C  4.45900 -4.91100 47.20300
C  5.85700 -5.02400 47.43100
C  6.41100 -4.01900 46.60900
C  5.35500 -3.34500 46.02800
C  6.61100 -6.06900 48.28700
C  7.64700 -3.42200 46.13200
O  8.78300 -3.82700 46.47200
C  7.29200 -2.17000 45.26200
C  7.68400 -0.99000 45.93300
O  7.07300 -0.44300 46.82400
O  8.75900 -0.42300 45.23700
C  8.70600 1.06100 45.27300
H  1.36100 0.27600 42.73300
H  -1.76800 -4.81400 45.25600
H  3.76700 -6.70800 48.05700
H  6.07300 0.35000 44.12000
H  3.76900 0.66000 42.18200
H  4.56500 2.45600 43.73000
H  3.79600 1.64700 45.11900
H  2.82200 2.29800 43.72200
H  5.45700 -0.40900 41.41200
H  5.95700 -1.83300 42.34800
H  8.19100 -0.95300 41.76100
H  7.87300 0.42900 42.82600
H  -2.32400 0.16700 42.64400
H  -1.16300 -0.32600 41.49000
H  -0.65700 0.85800 42.76400
H  -3.46900 -3.71800 45.63200
H  -4.09800 -4.53500 44.21300
H  -4.92800 -3.11400 44.76800
H  -0.96800 -7.03100 46.50200
H  0.87700 -6.80500 48.73900
H  -2.15200 -5.02000 47.72200
H  -1.16400 -5.59700 49.07500
H  -2.31100 -6.62800 48.30800
H  2.29400 -7.83000 46.32900
H  0.66100 -8.48800 46.47200
H  1.42100 -9.99500 47.78700
H  1.38200 -8.92100 49.13200
H  2.93000 -9.37200 48.21700
H  5.91300 -6.50100 49.00500
H  7.48100 -5.51000 48.63100
H  6.97600 -6.92200 47.71500
H  7.73300 -2.27600 44.27100
H  9.45900 1.42900 44.57600
H  9.03100 1.47800 46.22600
H  7.76500 1.48400 44.92100
Mg 35.59200 1.53000 30.06500
C  33.54100 2.93000 32.64600
C  38.25800 2.03200 32.35300
C  37.73900 0.92300 27.56100
C  32.94900 1.93500 27.89500
N  35.80400 2.12400 32.33700
C  34.80300 2.57600 33.14500
C  35.29300 2.64700 34.60500
C  36.85400 2.74600 34.39200
C  37.02000 2.28000 32.89600
C  37.47400 4.11700 34.70400
C  34.71700 1.53600 35.53500
C  34.75900 1.79200 37.07300
H  35.47700 3.04300 37.47900
N  37.67400 1.28300 30.01400
C  38.56300 1.61400 30.95900
C  39.88000 1.42200 30.37500
C  39.79500 1.07500 28.99900
C  38.33900 1.10100 28.78100
C  41.15600 1.50800 31.11100
C  40.86700 0.94600 27.91100
O  40.52600 0.46800 26.80700
C  42.39000 1.19100 28.04300
N  35.35500 1.35200 28.07500
C  36.38700 0.97600 27.18700
C  35.87700 0.81900 25.71700
C  34.30300 0.95300 25.92200
C  34.14800 1.44900 27.41300
C  36.54700 1.92800 24.89700
C  33.46800 -0.37200 25.71200
C  32.35800 -0.29500 24.71500
N  33.65700 2.22500 30.20300
C  32.64900 2.32400 29.21700
C  31.42400 2.84200 29.72800
C  31.72100 3.17400 31.09800
C  33.06300 2.80900 31.28700
C  30.20700 3.24900 28.97000
C  31.18200 3.64900 32.35600
O  30.13700 4.19900 32.56200
C  32.34100 3.46700 33.41300
C  32.64500 4.75100 34.09600
O  33.13800 5.66000 33.46600
O  32.36600 4.84700 35.41700
C  32.69200 6.14700 36.06300
H  39.12800 2.33700 32.94000
H  38.29300 0.83800 26.62400
H  32.08000 1.96100 27.23400
H  34.86500 3.60000 34.91800
H  37.36500 2.06900 35.07700
H  37.49900 4.61900 33.73700
H  38.52800 3.93200 34.91000
H  36.86000 4.65500 35.42700
H  35.34900 0.66700 35.35000
H  33.72000 1.36900 35.12700
H  35.18100 0.90200 37.53900
H  33.73600 1.83700 37.44900
H  41.61200 0.52600 30.98700
H  41.02500 1.78700 32.15700
H  41.80000 2.20400 30.57200
H  42.86600 0.90100 27.10700
H  42.79700 0.72100 28.93800
H  42.51800 2.26700 27.92400
H  36.13500 -0.16200 25.32000
H  33.89200 1.69900 25.24200
H  36.75000 2.81900 25.49200
H  35.86700 2.28300 24.12300
H  37.47300 1.65000 24.39500
H  33.01100 -0.72500 26.63700
H  34.23200 -1.11000 25.46800
H  32.08400 0.73500 24.48700
H  31.41300 -0.67400 25.10500
H  32.51400 -0.78100 23.75200
H  29.53300 2.40500 28.82600
H  30.48600 3.72400 28.03000
H  29.70800 4.05100 29.51500
H  31.86800 2.82800 34.15800
H  31.78200 6.71100 36.27100
H  33.48200 6.58500 35.45500
H  33.15600 5.80500 36.98800

