158

Mg 43.35900 4.14600 47.60700
C  41.43200 7.07000 47.55300
C  40.41700 2.39300 47.22300
C  45.10200 1.49700 47.11000
C  46.24200 6.23800 47.00400
N  41.14500 4.62600 47.37100
C  40.62200 5.90300 47.45700
C  39.06000 5.81500 47.34100
C  38.75100 4.27700 47.51000
C  40.18400 3.72200 47.32800
C  38.24800 3.73800 48.83800
C  38.51700 6.50000 46.05800
C  39.47800 6.48600 44.88900
H  38.92400 6.85600 43.52400
N  42.83000 2.15700 47.44600
C  41.60200 1.62200 47.35200
C  41.62500 0.17400 47.28700
C  43.04600 -0.16300 47.24300
C  43.74100 1.16400 47.31500
C  40.45500 -0.77800 47.31200
C  43.70600 -1.57500 46.98200
O  43.02300 -2.60400 46.80800
C  45.17800 -1.74600 46.88800
N  45.32200 3.92300 47.17700
C  45.84300 2.70700 47.02500
C  47.40400 2.64100 47.11200
C  47.68200 4.14700 47.06400
C  46.35600 4.86700 47.03600
C  48.04000 1.99500 48.36800
C  48.66900 4.72400 45.96000
C  49.86800 5.36900 46.65600
N  43.80600 6.22900 47.38000
C  45.00200 6.92300 47.20800
C  44.72300 8.39900 47.15800
C  43.35700 8.43700 47.43400
C  42.87100 7.15300 47.49000
C  45.72300 9.46900 46.91300
C  42.25800 9.41700 47.62100
O  42.18300 10.62800 47.65700
C  40.98500 8.46800 47.62200
C  40.09400 8.71400 48.86000
O  40.15000 8.10200 49.88000
O  39.14300 9.66200 48.50300
C  38.16400 10.04200 49.54200
H  39.48800 1.82400 47.29300
H  45.91400 0.77000 47.18100
H  47.14100 6.85800 47.01900
H  38.59700 6.37500 48.15300
H  38.22100 3.82300 46.67300
H  39.07400 3.40800 49.46800
H  37.53400 2.94000 48.63500
H  37.80700 4.54800 49.41800
H  38.30100 7.51300 46.39900
H  37.63300 5.98400 45.68200
H  40.01700 5.53900 44.85900
H  40.26800 7.22100 45.04700
H  40.21000 -1.09000 46.29700
H  39.63700 -0.24900 47.80200
H  40.63700 -1.66900 47.91400
H  45.72700 -1.49100 47.79400
H  45.46000 -1.15800 46.01400
H  45.28800 -2.80700 46.66300
H  47.75600 2.17600 46.19100
H  48.08200 4.37600 48.05200
H  47.53700 2.17500 49.31900
H  49.07500 2.31000 48.49800
H  48.15900 0.91400 48.28800
H  48.14900 5.37000 45.25400
H  48.93200 3.85700 45.35400
H  50.16300 4.76900 47.51800
H  49.64600 6.37800 47.00200
H  50.72600 5.34700 45.98400
H  45.30100 10.30600 46.35600
H  46.59500 9.22500 46.30600
H  46.06900 9.79600 47.89400
H  40.50900 8.81500 46.70500
H  38.48400 10.10400 50.58200
H  37.37700 9.28800 49.56400
H  37.78400 10.99500 49.17300
Mg -6.27700 25.88900 26.25000
C  -5.00200 27.36100 29.08700
C  -8.08900 23.61900 28.35800
C  -7.29700 23.97300 23.58200
C  -4.41100 27.88100 24.29900
N  -6.45100 25.47000 28.46000
C  -5.98700 26.32900 29.43100
C  -6.51300 26.01600 30.77900
C  -7.28600 24.63400 30.47700
C  -7.23700 24.55200 28.98000
C  -6.89800 23.39100 31.22200
C  -7.44600 27.22100 31.41500
C  -7.15000 27.48400 32.87200
H  -6.87200 26.36100 33.91400
N  -7.52800 24.08400 25.99600
C  -8.09800 23.33100 26.96500
C  -8.72600 22.18500 26.44500
C  -8.52800 22.22800 25.01000
C  -7.77500 23.43100 24.80500
C  -9.38100 21.15600 27.34500
C  -9.02200 21.35800 23.83400
O  -8.74100 21.41700 22.66000
C  -10.12700 20.39000 24.18800
N  -5.91300 25.92900 24.19800
C  -6.49200 25.08700 23.20400
C  -5.95700 25.46800 21.82000
C  -5.18900 26.82300 22.09300
C  -5.14600 26.88800 23.61900
C  -5.15200 24.30500 21.10100
C  -5.75600 28.12500 21.52100
C  -4.87000 28.71800 20.49300
N  -4.85500 27.24900 26.56100
C  -4.21000 28.05100 25.70500
C  -3.44500 29.07300 26.42700
C  -3.73300 28.77900 27.74500
C  -4.57300 27.68200 27.75800
C  -2.65800 30.19800 25.83800
C  -3.46800 29.26600 29.08200
O  -2.79200 30.22100 29.45100
C  -4.31200 28.38000 29.98600
C  -3.30900 27.77300 30.85500
O  -2.57400 26.85500 30.44900
O  -3.37700 28.37900 32.03700
C  -2.42200 27.83300 33.00400
H  -8.72900 23.01800 29.00700
H  -7.59600 23.43700 22.67800
H  -3.94800 28.72800 23.78800
H  -5.72600 25.70000 31.46400
H  -8.35500 24.75300 30.65200
H  -6.70200 23.72800 32.24000
H  -6.08200 22.77400 30.84500
H  -7.75600 22.72000 31.21300
H  -8.50000 26.95500 31.32700
H  -7.28200 28.09500 30.78500
H  -8.08000 27.86100 33.29700
H  -6.29600 28.14700 33.00600
H  -10.14400 20.60700 26.79200
H  -9.93500 21.59300 28.17600
H  -8.69000 20.37900 27.67100
H  -10.51300 19.85800 23.31900
H  -10.91000 20.85300 24.79000
H  -9.63400 19.69000 24.86200
H  -6.85400 25.74300 21.26600
H  -4.12700 26.79600 21.85100
H  -4.18000 24.73700 20.86500
H  -5.84200 23.93000 20.34600
H  -5.02700 23.44600 21.76000
H  -5.82400 28.84000 22.34100
H  -6.74500 27.81800 21.18100
H  -4.31100 27.99300 19.90200
H  -4.15900 29.36100 21.01100
H  -5.52800 29.30000 19.84700
H  -1.67100 29.94500 26.22400
H  -3.14600 31.16100 25.99100
H  -2.49700 30.13600 24.76200
H  -4.95000 28.91500 30.68900
H  -1.91800 28.68400 33.46200
H  -1.67100 27.15100 32.60500
H  -2.93300 27.21300 33.74100

