158

Mg 46.45500 25.04300 28.45000
C  46.74600 27.21100 31.09800
C  45.49300 22.58100 30.81300
C  46.44000 23.01200 26.00300
C  47.45100 27.58700 26.19800
N  46.11700 24.98900 30.78500
C  46.29200 25.98200 31.65300
C  46.05200 25.58100 33.13900
C  45.79400 24.04700 32.96300
C  45.71900 23.81300 31.41900
C  46.94800 23.09300 33.53400
C  44.83500 26.34800 33.76200
C  45.07800 27.05800 35.10900
H  43.88500 27.16800 36.14800
N  45.98000 23.14300 28.40100
C  45.48200 22.33900 29.39800
C  45.13200 21.08200 28.78400
C  45.37600 21.18700 27.43500
C  46.01500 22.49300 27.20700
C  44.45400 19.90500 29.50500
C  45.24000 20.08800 26.37200
O  45.73000 20.15600 25.24600
C  44.74900 18.77000 26.67900
N  47.27800 25.18300 26.40900
C  47.04000 24.18300 25.58100
C  47.09000 24.60900 24.11400
C  47.18700 26.12500 24.19000
C  47.35500 26.32600 25.69300
C  48.19500 23.92200 23.25300
C  45.92400 26.77600 23.65100
C  44.68700 26.65100 24.50600
N  46.95400 26.98100 28.54700
C  47.39100 27.89200 27.61800
C  47.80800 29.13800 28.25800
C  47.55700 28.90500 29.61000
C  47.05900 27.58400 29.71800
C  48.64000 30.25200 27.64600
C  47.75600 29.42100 30.93200
O  48.22100 30.49500 31.32600
C  47.20400 28.40800 31.87500
C  48.33700 28.13200 32.76100
O  49.40800 27.72300 32.38600
O  47.93000 28.34400 34.07400
C  48.95000 28.02200 35.09200
H  45.17200 21.73700 31.42600
H  46.08400 22.39700 25.17400
H  47.52200 28.41800 25.49300
H  46.94700 25.81200 33.71500
H  44.87600 23.75000 33.47000
H  47.84200 23.68000 33.74200
H  47.30000 22.37900 32.78900
H  46.54200 22.70700 34.46900
H  44.04400 25.63500 33.99600
H  44.39700 27.08100 33.08500
H  45.28900 28.10600 34.89500
H  45.92900 26.59600 35.61100
H  43.53700 19.73300 28.94200
H  44.19600 20.18700 30.52600
H  44.99700 18.96000 29.51900
H  44.72200 18.18800 25.75700
H  43.71400 19.00400 26.92900
H  45.21700 18.19700 27.47900
H  46.05300 24.37100 23.87500
H  48.08100 26.59800 23.78600
H  48.47200 24.58900 22.43600
H  47.83000 22.98600 22.83000
H  49.09700 23.66900 23.80900
H  45.62500 26.43200 22.66100
H  46.01000 27.85900 23.56100
H  43.87000 26.36800 23.84300
H  44.40100 27.50300 25.12100
H  44.93500 25.92100 25.27700
H  48.03500 31.13500 27.44000
H  49.09800 30.00100 26.68900
H  49.43100 30.52000 28.34700
H  46.41800 28.82900 32.50200
H  48.82100 27.11800 35.68800
H  49.06500 28.88700 35.74500
H  49.98300 27.92500 34.75500
Mg 7.08800 56.84700 41.81700
C  5.91400 53.63500 41.43200
C  10.18500 55.63800 40.73300
C  8.11900 60.04600 41.20600
C  3.82300 57.96700 42.39100
N  7.88000 54.89900 41.14500
C  7.20700 53.71300 40.99700
C  8.04500 52.59000 40.50400
C  9.48100 53.19700 40.72200
C  9.20000 54.69800 40.94400
C  10.30000 52.44900 41.82800
C  7.79100 52.22200 39.04800
C  8.28800 50.85100 38.59500
H  7.53000 50.07600 37.48600
N  8.83500 57.76800 41.03600
C  10.01000 57.07400 40.63900
C  10.90000 58.01100 39.93100
C  10.33300 59.32200 39.98700
C  9.02800 59.11100 40.76000
C  12.10300 57.52800 39.26300
C  10.86100 60.55300 39.33700
O  11.92500 60.56200 38.77300
C  10.08000 61.82600 39.22500
N  6.06900 58.69700 41.72200
C  6.76800 59.84700 41.64400
C  5.91300 61.08600 42.00700
C  4.50900 60.42200 42.42700
C  4.79000 58.95800 42.07100
C  6.51300 61.98800 43.17000
C  3.27700 61.00400 41.68300
C  2.01600 61.04500 42.59400
N  5.21400 55.97500 42.07600
C  3.96600 56.57500 42.33700
C  3.01100 55.43200 42.50900
C  3.75600 54.32100 42.15500
C  5.11400 54.66700 41.91900
C  1.56400 55.57300 42.68100
C  3.61300 52.92400 42.03700
O  2.61400 52.26800 42.30200
C  4.98900 52.33400 41.57000
C  4.82200 51.51000 40.38100
O  4.30300 51.90800 39.36500
O  5.17400 50.19100 40.62300
C  4.66200 49.33900 39.51400
H  11.13500 55.16300 40.48000
H  8.30800 61.11800 41.11100
H  2.78600 58.22700 42.61200
H  7.87900 51.70200 41.11500
H  10.11300 53.14400 39.83500
H  10.68900 53.25000 42.45800
H  11.16000 51.87600 41.48200
H  9.56300 51.79800 42.29800
H  8.40500 52.91100 38.46800
H  6.77800 52.44100 38.71000
H  8.46400 50.22700 39.47200
H  9.26800 50.98000 38.13600
H  12.00600 57.75500 38.20200
H  12.27700 56.45400 39.33000
H  13.06900 57.76500 39.70800
H  9.71900 62.14300 40.20300
H  9.34600 61.84000 38.42000
H  10.87500 62.53300 38.98600
H  5.90800 61.44300 40.97600
H  4.32300 60.46900 43.50000
H  5.66100 62.33400 43.75600
H  7.12200 62.83400 42.85200
H  7.18600 61.37000 43.76400
H  3.09800 60.28800 40.88200
H  3.51100 61.99600 41.29600
H  1.61500 60.04500 42.42900
H  1.25500 61.72700 42.21400
H  2.14900 61.18400 43.66700
H  1.17600 55.75100 41.67800
H  1.13700 56.39400 43.25700
H  1.11800 54.63300 43.00500
H  5.48000 51.69000 42.29900
H  3.57700 49.35800 39.61200
H  5.07600 48.33900 39.63900
H  5.02800 49.71500 38.55900

