158

Mg 1.05400 8.17500 26.23100
C  1.92500 9.91700 29.18300
C  1.42200 5.20500 28.19800
C  0.63100 6.42100 23.46800
C  1.29100 11.11700 24.45000
N  1.57800 7.67000 28.37700
C  1.78800 8.56200 29.39600
C  1.75500 7.86300 30.77100
C  2.00200 6.37600 30.40200
C  1.61900 6.37600 28.93000
C  3.44000 5.96500 30.69000
C  0.34700 8.19500 31.47900
C  0.27500 8.03500 32.99200
H  1.48300 7.54800 33.80900
N  0.84000 6.13000 25.94100
C  0.99500 5.06900 26.79400
C  0.69000 3.84300 26.13300
C  0.25300 4.16400 24.83100
C  0.56300 5.61000 24.68100
C  0.67800 2.54000 26.73100
C  -0.26400 3.21300 23.64400
O  -0.42000 3.54400 22.47800
C  -0.66000 1.78500 23.98100
N  1.11600 8.69700 24.21100
C  0.81800 7.82000 23.26200
C  0.86700 8.54900 21.87000
C  0.63600 10.06500 22.29900
C  0.95800 9.95600 23.76600
C  2.21300 8.38400 21.08100
C  -0.85800 10.46600 22.14800
C  -1.28600 11.56700 21.14200
N  1.48600 10.17000 26.66100
C  1.45800 11.29700 25.80400
C  1.63400 12.51600 26.58800
C  1.85400 12.02000 27.91700
C  1.82900 10.57700 27.90200
C  1.36200 13.94400 26.14300
C  2.19500 12.36600 29.21700
O  2.48100 13.46600 29.56700
C  2.01400 11.09100 30.13600
C  3.09400 10.92800 31.09300
O  4.27100 10.96000 30.71900
O  2.66600 10.90100 32.35300
C  3.78400 11.18400 33.25000
H  1.62200 4.30200 28.77900
H  0.37000 5.89800 22.54600
H  1.16400 12.04800 23.89200
H  2.64000 8.24700 31.28000
H  1.34800 5.64600 30.87900
H  4.05600 6.63100 31.29500
H  3.86900 5.81600 29.70000
H  3.41600 4.95900 31.10800
H  -0.47300 7.79200 30.88500
H  0.19600 9.24600 31.23400
H  -0.59700 7.42400 33.22600
H  0.02700 8.96700 33.50000
H  1.25200 2.44900 27.65300
H  1.15700 1.80500 26.08500
H  -0.36400 2.22500 26.79800
H  -1.34200 1.72000 24.83000
H  0.25300 1.22900 24.19700
H  -1.14000 1.34300 23.10800
H  0.07300 8.18300 21.21800
H  1.29800 10.71200 21.72400
H  2.92600 8.03900 21.83000
H  2.60600 9.34700 20.75400
H  2.10500 7.60000 20.33100
H  -1.24200 10.50600 23.16700
H  -1.36300 9.59700 21.72600
H  -0.46900 11.95800 20.53600
H  -1.68200 12.38100 21.74800
H  -1.96600 11.03200 20.47900
H  1.31200 14.12300 25.06900
H  2.28400 14.42100 26.47500
H  0.54600 14.42600 26.68200
H  1.05100 11.37900 30.55700
H  4.57300 10.43400 33.19700
H  3.39300 11.12800 34.26600
H  4.13600 12.17900 32.98100
Mg -5.89900 25.17400 26.38400
C  -4.61100 26.64500 29.38700
C  -7.66500 23.08200 28.55800
C  -6.60700 23.49400 23.65400
C  -3.93400 27.42300 24.55800
N  -6.14000 24.96200 28.75800
C  -5.53200 25.69500 29.71400
C  -6.02500 25.28200 31.12000
C  -6.70200 23.94300 30.77100
C  -6.97800 24.00400 29.31600
C  -5.85900 22.65000 31.14300
C  -6.88900 26.40200 31.68600
C  -7.27700 26.51300 33.17600
H  -6.81000 25.52700 34.26400
N  -7.16200 23.62100 26.08700
C  -7.78900 22.86400 27.06100
C  -8.73200 21.95000 26.33200
C  -8.34700 21.96000 25.02900
C  -7.31600 23.04900 24.87400
C  -9.78200 21.00200 27.06200
C  -8.86200 21.12500 23.89900
O  -8.45500 21.33400 22.78900
C  -9.94000 20.07500 24.03700
N  -5.20100 25.30400 24.45600
C  -5.67800 24.47100 23.45900
C  -5.05000 24.89300 22.08700
C  -4.50300 26.26200 22.37600
C  -4.51300 26.32900 23.92400
C  -4.27700 23.72000 21.39300
C  -5.46100 27.37800 21.76200
C  -5.21100 27.81800 20.27600
N  -4.50300 26.75700 26.86400
C  -3.79100 27.56100 25.98200
C  -2.89000 28.45300 26.72700
C  -3.20400 28.17800 28.08200
C  -4.17100 27.11300 28.09300
C  -1.82500 29.44300 26.15500
C  -2.81700 28.48100 29.46800
O  -1.91300 29.20300 29.93800
C  -3.82400 27.64100 30.37500
C  -3.00900 26.97400 31.39900
O  -2.16400 26.09100 31.26700
O  -3.42400 27.42100 32.62100
C  -2.96700 26.78800 33.78700
H  -8.19000 22.28700 29.09200
H  -6.73000 22.84900 22.78200
H  -3.38700 28.19600 24.01500
H  -5.13400 25.14300 31.73200
H  -7.64400 23.82700 31.30600
H  -5.65000 22.13800 30.20400
H  -6.48300 22.13700 31.87500
H  -4.91800 22.87400 31.64400
H  -7.76200 26.33800 31.03700
H  -6.38100 27.34700 31.49200
H  -8.36100 26.45100 33.27000
H  -6.97000 27.51900 33.46200
H  -10.80100 21.29600 26.81000
H  -9.74500 21.08900 28.14800
H  -9.69800 19.94300 26.81900
H  -9.47300 19.37000 24.72500
H  -10.13700 19.52400 23.11800
H  -10.81500 20.59300 24.43100
H  -5.91400 24.99200 21.43000
H  -3.49700 26.36600 21.97000
H  -3.21300 23.95700 21.40300
H  -4.68800 23.45300 20.42000
H  -4.37800 22.85000 22.04100
H  -5.41000 28.31700 22.31300
H  -6.50000 27.05800 21.84900
H  -4.67400 27.01400 19.77200
H  -4.49700 28.63200 20.39500
H  -6.10400 28.03400 19.68900
H  -1.43600 28.86200 25.31900
H  -1.01800 29.63000 26.86400
H  -2.25000 30.39600 25.83900
H  -4.43700 28.40400 30.85400
H  -1.90400 27.02700 33.79300
H  -3.08400 25.70800 33.69500
H  -3.38300 27.18000 34.71500

