158

Mg 7.64800 2.73400 28.49000
C  9.45500 1.82000 31.29200
C  5.73400 4.91700 30.42200
C  6.01500 3.68700 25.71100
C  9.26500 0.21400 26.65100
N  7.67100 3.31600 30.65700
C  8.43800 2.76900 31.59100
C  8.09600 3.40900 33.01100
C  6.79700 4.25100 32.67800
C  6.68600 4.19000 31.14300
C  5.52000 3.82400 33.49600
C  9.29700 4.33900 33.34500
C  9.22100 4.73300 34.85400
H  10.02100 3.97700 35.84100
N  6.21800 4.15800 28.14600
C  5.49900 4.86000 29.08100
C  4.43100 5.65700 28.43700
C  4.55600 5.37800 27.02100
C  5.60100 4.37300 26.90500
C  3.44900 6.53800 29.15100
C  3.77900 5.98200 25.91800
O  3.98200 5.74600 24.72800
C  2.70800 6.96200 26.19000
N  7.68800 2.08600 26.48500
C  6.94800 2.70100 25.46500
C  7.29900 2.13800 24.10900
C  8.28500 0.96900 24.43000
C  8.52300 1.11200 25.97800
C  6.06900 1.63600 23.30400
C  9.64400 1.05600 23.63900
C  10.95600 1.82800 24.23400
N  9.06600 1.28000 28.84400
C  9.62900 0.34600 27.99600
C  10.68100 -0.35700 28.65900
C  10.60600 0.12900 29.99000
C  9.63600 1.20100 30.03300
C  11.57900 -1.51000 28.23400
C  11.09500 -0.01500 31.31000
O  11.94000 -0.84800 31.71500
C  10.45900 1.14000 32.24300
C  9.70700 0.29600 33.25900
O  8.74300 -0.43800 33.10600
O  10.45200 0.37700 34.45300
C  10.13900 -0.61200 35.46900
H  5.15300 5.57400 31.07400
H  5.53600 4.01800 24.78700
H  9.91400 -0.44400 26.06900
H  7.94800 2.66700 33.79600
H  7.08500 5.25800 32.98200
H  4.80600 3.25600 32.90000
H  4.93300 4.67300 33.84400
H  5.92300 3.17800 34.27600
H  9.37500 5.12700 32.59600
H  10.20500 3.74200 33.25600
H  8.19100 4.63700 35.19700
H  9.54500 5.76700 34.97000
H  3.73700 7.56600 28.93300
H  3.51700 6.45000 30.23500
H  2.41400 6.33400 28.87600
H  1.92100 6.52700 26.80600
H  2.34800 7.33200 25.23100
H  3.09300 7.87500 26.64600
H  7.69700 2.96300 23.51900
H  7.83800 0.02200 24.12800
H  5.08800 1.74900 23.76500
H  6.19800 0.60400 22.98000
H  6.00400 2.22800 22.39000
H  9.31000 1.52800 22.71600
H  9.99100 0.05500 23.38100
H  11.27200 2.63000 23.56700
H  11.82800 1.17600 24.26700
H  10.78600 2.21500 25.23900
H  10.98700 -2.40700 28.41900
H  12.51600 -1.54800 28.79000
H  11.71800 -1.39600 27.15900
H  11.18300 1.67200 32.86100
H  9.75700 -1.57600 35.13300
H  9.39300 -0.22200 36.16200
H  11.08700 -0.74700 35.99000
Mg 2.25000 42.17900 25.25600
C  3.39200 42.18500 28.69700
C  -0.75600 41.18800 26.29400
C  1.60100 41.46300 22.05400
C  5.50300 43.08800 24.32400
N  1.46800 41.69200 27.30900
C  2.02800 41.80400 28.55100
C  1.02000 41.64200 29.66900
C  -0.28400 41.08700 28.83400
C  0.13300 41.35800 27.36800
C  -0.71900 39.64100 29.22700
C  0.85800 42.91400 30.45500
C  0.81800 42.92500 31.98300
H  0.15200 41.83300 32.78800
N  0.70200 41.36400 24.30800
C  -0.56300 41.06500 24.89700
C  -1.49100 40.75900 23.84700
C  -0.77700 40.71200 22.60400
C  0.60700 41.12900 22.97900
C  -2.96500 40.60000 24.16300
C  -1.28000 40.51500 21.12700
O  -0.54500 40.68400 20.20000
C  -2.73600 40.32700 20.91000
N  3.44200 42.20600 23.41600
C  2.85900 41.92800 22.24100
C  3.89000 42.15800 21.08400
C  4.99800 42.84500 21.79200
C  4.63400 42.78100 23.26400
C  4.24400 40.93600 20.22000
C  5.25500 44.21300 21.19200
C  4.22400 45.37200 21.48500
N  4.09000 42.69600 26.27600
C  5.29000 42.97500 25.73600
C  6.29000 43.15200 26.85600
C  5.61600 42.78800 27.99900
C  4.22100 42.53500 27.60300
C  7.70900 43.57500 26.68600
C  5.67600 42.61300 29.42500
O  6.65100 42.62500 30.13400
C  4.21300 42.21600 29.87300
C  4.25200 40.94000 30.73300
O  4.70500 39.82600 30.43800
O  3.89200 41.35100 31.92900
C  3.88100 40.30800 32.91400
H  -1.74600 40.86700 26.62400
H  1.46800 41.15300 21.01500
H  6.54700 43.26400 24.05700
H  1.29200 40.88700 30.40600
H  -1.14100 41.73800 29.00800
H  -0.95000 39.14500 28.28500
H  -1.56500 39.70000 29.91200
H  0.13400 39.14600 29.69100
H  -0.02400 43.51300 30.23000
H  1.71100 43.48800 30.09300
H  0.52400 43.95200 32.20000
H  1.81300 42.94600 32.42900
H  -3.33800 39.78800 23.53800
H  -3.46600 41.48900 23.78200
H  -3.21900 40.36300 25.19600
H  -3.26500 41.16400 21.36500
H  -3.08800 39.37300 21.30500
H  -2.90300 40.23000 19.83800
H  3.46600 42.81800 20.32700
H  5.94100 42.30300 21.71300
H  3.61900 40.11900 20.58100
H  5.26200 40.54700 20.22400
H  4.05200 41.06500 19.15500
H  5.27200 44.14100 20.10400
H  6.22400 44.60200 21.50600
H  3.34700 44.94300 21.96800
H  3.92300 45.70500 20.49200
H  4.73900 46.08100 22.13400
H  7.78500 44.55800 27.15200
H  8.01100 43.65300 25.64200
H  8.38600 42.96800 27.28700
H  4.00500 43.01200 30.58700
H  3.21900 39.52900 32.53400
H  3.37800 40.67300 33.80900
H  4.85700 39.87600 33.13400

