158

Mg 34.94800 2.28500 29.24600
C  33.03100 3.41200 32.06200
C  37.74800 2.77300 31.15800
C  36.78700 2.05000 26.43300
C  32.02800 2.57000 27.37100
N  35.29400 3.00300 31.31100
C  34.42100 3.29800 32.30600
C  35.10100 3.54800 33.63700
C  36.62100 3.52200 33.29400
C  36.57700 3.10400 31.85400
C  37.40500 4.85600 33.59900
C  34.72600 2.42700 34.71300
C  34.30000 2.95100 36.08400
H  35.30300 3.97400 36.80100
N  37.00500 2.07900 28.83700
C  38.00400 2.27000 29.78900
C  39.34500 1.96200 29.17000
C  39.06000 1.76700 27.78700
C  37.59200 1.91100 27.59900
C  40.67900 2.09600 29.89600
C  40.07400 1.52800 26.65300
O  39.83400 1.58700 25.44800
C  41.45700 1.26300 26.97500
N  34.46200 2.39400 27.26700
C  35.42800 2.16100 26.32400
C  34.83400 1.97400 24.95100
C  33.32100 1.88100 25.31200
C  33.24500 2.27300 26.76600
C  35.14600 3.21200 24.10000
C  32.74100 0.49500 25.18900
C  31.45000 0.43500 24.30700
N  32.90700 2.85400 29.58100
C  31.85400 2.90400 28.72400
C  30.67200 3.30900 29.44900
C  31.08400 3.54200 30.79700
C  32.45800 3.19800 30.78300
C  29.35500 3.37200 28.85800
C  30.61400 3.83700 32.20400
O  29.54600 4.11500 32.75200
C  31.95600 3.83400 33.01000
C  32.14000 5.16300 33.63200
O  32.41200 6.19200 33.13200
O  31.71600 5.02000 34.94900
C  31.70900 6.23000 35.75200
H  38.67100 2.75000 31.74000
H  37.27000 2.22300 25.46900
H  31.19200 2.47700 26.67500
H  34.86000 4.52900 34.04500
H  37.12000 2.69800 33.80500
H  38.15800 4.68500 34.36800
H  36.71200 5.62300 33.94500
H  37.84700 5.19100 32.66100
H  35.58100 1.90400 35.14200
H  33.97700 1.73300 34.33100
H  34.20300 2.06600 36.71400
H  33.26300 3.25200 35.94200
H  41.14500 3.06200 29.70400
H  41.29100 1.26100 29.55600
H  40.45100 1.96200 30.95400
H  41.96200 0.89600 26.08100
H  41.43200 0.42500 27.67200
H  41.87700 2.12000 27.50100
H  35.12700 1.16500 24.28100
H  32.74100 2.68600 24.86200
H  35.74100 3.90200 24.69900
H  34.23900 3.65900 23.69500
H  35.71800 2.94700 23.21100
H  32.40900 0.15000 26.16800
H  33.48500 -0.25800 24.92700
H  30.58800 0.14700 24.90900
H  31.67100 -0.38800 23.62800
H  31.29400 1.38200 23.78900
H  28.75000 4.10400 29.39300
H  28.92400 2.37100 28.89300
H  29.48500 3.75200 27.84500
H  31.91600 3.12800 33.84000
H  30.86600 6.33400 36.43600
H  31.70700 7.15100 35.17000
H  32.58200 6.15400 36.40000
Mg -11.87500 38.95200 41.82200
C  -9.92100 35.98000 41.28600
C  -9.58900 40.59900 39.68300
C  -13.92900 41.43600 41.63800
C  -14.40200 36.88900 43.22200
N  -10.03800 38.27900 40.59900
C  -9.43900 37.08100 40.55300
C  -8.18300 37.02500 39.66100
C  -8.03600 38.54400 39.18800
C  -9.27700 39.19100 39.86700
C  -6.71900 39.44800 39.34800
C  -8.40300 35.99100 38.49600
C  -7.42900 34.75600 38.42400
H  -6.29200 34.83600 37.32900
N  -11.61800 40.93200 41.05200
C  -10.62900 41.42900 40.23500
C  -10.84000 42.88600 40.21000
C  -12.07900 43.14800 40.85000
C  -12.59400 41.79400 41.17700
C  -9.86800 43.88500 39.55600
C  -12.74200 44.49400 41.05000
O  -12.18000 45.48900 40.55100
C  -14.01100 44.73900 41.67800
N  -13.93100 39.10900 42.18800
C  -14.58000 40.31000 42.07400
C  -15.97800 40.33100 42.68700
C  -16.09500 38.92200 43.26900
C  -14.72000 38.21000 42.84100
C  -16.46600 41.54400 43.59200
C  -17.41300 38.09900 42.88200
C  -18.21400 37.35100 43.98100
N  -12.12900 36.88200 42.27500
C  -13.15500 36.24300 42.91900
C  -12.73300 34.90500 43.21800
C  -11.44700 34.78900 42.61200
C  -11.14300 35.98500 42.02400
C  -13.49500 33.94600 44.13600
C  -10.40200 33.84900 42.35500
O  -10.21700 32.67200 42.65300
C  -9.28600 34.59700 41.43800
C  -7.94900 34.60100 42.09800
O  -7.04500 33.77700 42.04100
O  -7.77400 35.75200 42.85100
C  -6.48600 36.05500 43.47200
H  -8.85600 41.07500 39.02900
H  -14.59400 42.30200 41.65400
H  -15.09300 36.32100 43.84900
H  -7.36000 36.81100 40.34200
H  -8.33400 38.70100 38.15200
H  -5.83300 38.82300 39.23900
H  -6.70100 39.90200 40.33800
H  -6.64000 40.24400 38.60800
H  -8.32500 36.45000 37.51000
H  -9.37100 35.51200 38.64500
H  -8.01400 33.86400 38.19900
H  -7.06000 34.51800 39.42100
H  -9.36300 44.52700 40.27700
H  -10.51800 44.48800 38.92300
H  -9.18400 43.37000 38.88100
H  -14.71400 44.44500 40.89900
H  -14.27700 45.78900 41.79900
H  -13.97400 44.18600 42.61700
H  -16.63600 40.39600 41.82000
H  -16.13400 39.04400 44.35100
H  -17.20700 41.10400 44.26000
H  -16.88800 42.36600 43.01400
H  -15.60700 41.84400 44.19200
H  -17.33000 37.34300 42.10200
H  -18.07400 38.85700 42.46000
H  -19.10000 37.98100 44.07000
H  -17.72800 37.42900 44.95400
H  -18.31500 36.30200 43.70300
H  -13.31300 32.93300 43.77700
H  -14.56900 34.08700 44.01300
H  -13.25700 34.06900 45.19300
H  -9.25900 34.16400 40.43800
H  -6.42900 36.95600 44.08300
H  -5.85400 36.01100 42.58500
H  -6.35300 35.12500 44.02500

