158

Mg 17.23700 -1.88500 27.60600
C  16.42000 0.01600 30.38100
C  19.02400 -3.99600 29.60100
C  18.32000 -3.34900 24.83000
C  15.66100 0.61000 25.63300
N  17.62500 -2.01500 29.74700
C  17.31500 -1.03100 30.68100
C  17.95300 -1.36400 32.04600
C  18.93800 -2.49600 31.64100
C  18.44600 -2.93600 30.28200
C  20.41700 -2.01700 31.68600
C  16.91400 -1.87800 33.08900
C  17.40300 -1.76800 34.68100
H  18.88400 -1.33000 34.88700
N  18.39200 -3.62100 27.25500
C  18.91600 -4.37300 28.21400
C  19.60600 -5.46300 27.57000
C  19.51100 -5.20800 26.14600
C  18.71400 -4.02700 26.02100
C  20.45900 -6.40300 28.40100
C  20.10100 -6.00000 25.05000
O  19.94300 -5.77800 23.86300
C  20.76000 -7.29000 25.45400
N  17.10100 -1.36500 25.53500
C  17.62600 -2.17200 24.60200
C  17.56300 -1.55000 23.18600
C  16.53600 -0.43300 23.37400
C  16.36900 -0.42500 24.94500
C  18.91800 -1.08700 22.63000
C  15.22400 -0.61700 22.68000
C  14.96900 0.47000 21.63800
N  16.15500 -0.10200 27.91900
C  15.49100 0.81000 27.06100
C  14.75100 1.75000 27.77800
C  15.11800 1.53400 29.14500
C  15.89600 0.33100 29.14900
C  13.90600 2.83000 27.20400
C  14.92200 1.93100 30.49000
O  14.22800 2.86200 30.92200
C  15.88400 1.09900 31.35100
C  16.92800 1.96500 31.87700
O  17.75700 2.55200 31.16700
O  16.99900 1.93600 33.21900
C  17.99200 2.89000 33.79700
H  19.62700 -4.63200 30.25200
H  18.66200 -3.80200 23.89700
H  15.08300 1.34800 25.07300
H  18.40100 -0.46300 32.46700
H  18.86200 -3.40000 32.24600
H  20.53300 -1.04900 32.17400
H  21.05800 -2.10400 30.80900
H  20.87000 -2.74700 32.35600
H  16.66500 -2.89900 32.80100
H  15.99100 -1.30400 33.00500
H  17.26500 -2.70000 35.22900
H  16.78100 -0.95200 35.05000
H  20.24300 -6.26200 29.46000
H  21.53100 -6.27700 28.24700
H  20.07100 -7.38900 28.14700
H  21.68200 -7.10700 26.00700
H  21.01600 -7.82300 24.53800
H  20.07000 -7.98600 25.93100
H  17.16900 -2.30900 22.51000
H  17.04600 0.48800 23.08900
H  19.50800 -0.89400 23.52600
H  18.81800 -0.12200 22.13300
H  19.40100 -1.73400 21.89700
H  14.37100 -0.66600 23.35600
H  15.21800 -1.53300 22.09000
H  14.17400 -0.00700 21.06500
H  15.80100 0.69900 20.97300
H  14.64400 1.40000 22.10500
H  12.90200 2.42100 27.09100
H  14.14000 3.17000 26.19500
H  13.81400 3.67300 27.89000
H  15.27700 0.86500 32.22600
H  18.92900 2.37600 34.00900
H  17.58300 3.19300 34.76000
H  18.19500 3.74700 33.15500
Mg 9.04300 47.55900 26.85200
C  7.08800 47.14200 29.63300
C  11.70500 47.95700 28.99900
C  10.84800 48.65400 24.17000
C  6.13600 47.65000 24.84200
N  9.38100 47.62100 29.14300
C  8.41700 47.35000 30.06000
C  9.01600 47.38700 31.49200
C  10.53000 47.70700 31.25100
C  10.53100 47.77500 29.72100
C  11.21800 48.89100 31.98500
C  8.67700 46.25200 32.55400
C  9.79400 45.90200 33.53000
H  9.43700 45.15500 34.80800
N  11.04500 48.08100 26.60100
C  11.99700 48.13600 27.58900
C  13.24900 48.39400 26.97400
C  13.02100 48.54600 25.58500
C  11.59000 48.48000 25.39500
C  14.55900 48.30900 27.81700
C  14.02000 48.80400 24.50000
O  13.77300 49.01200 23.30500
C  15.46000 49.01900 24.92000
N  8.55100 48.17900 24.80500
C  9.47400 48.66100 23.92400
C  8.86200 48.94000 22.60400
C  7.38200 48.39800 22.75900
C  7.34400 48.00500 24.24100
C  8.87300 50.45600 22.24600
C  7.01200 47.12500 21.77900
C  6.20700 47.45400 20.45000
N  7.01800 47.41700 27.11300
C  5.94600 47.31200 26.18400
C  4.68500 47.10600 26.89000
C  5.06300 47.06900 28.25000
C  6.50100 47.22100 28.33100
C  3.34600 47.07600 26.19600
C  4.59300 46.82900 29.62000
O  3.46100 46.69600 30.06300
C  5.92900 46.73100 30.52600
C  6.01000 45.34700 31.12000
O  6.63700 44.42300 30.63000
O  5.44300 45.35800 32.39300
C  5.70300 44.28600 33.28600
H  12.56200 48.03500 29.67100
H  11.42700 48.85000 23.26500
H  5.27800 47.64800 24.16700
H  8.62700 48.23400 32.05600
H  11.11500 46.81600 31.47800
H  11.74300 49.52900 31.27300
H  12.02600 48.41700 32.54300
H  10.52300 49.47000 32.59400
H  8.56300 45.28200 32.07000
H  7.81300 46.58200 33.13100
H  10.15300 46.88300 33.84000
H  10.61100 45.36100 33.05300
H  14.95600 49.32200 27.74800
H  15.35500 47.65100 27.46900
H  14.37400 48.13100 28.87600
H  15.67400 49.69400 25.74900
H  15.91600 49.33600 23.98200
H  15.85400 48.00800 25.02800
H  9.44900 48.37800 21.87800
H  6.58900 49.14200 22.67900
H  9.41200 50.57400 21.30600
H  9.51300 50.87900 23.02100
H  7.86800 50.87600 22.27300
H  6.50300 46.36400 22.37000
H  8.02500 46.88500 21.45700
H  5.30600 46.84100 20.46700
H  6.72300 47.23100 19.51500
H  5.77700 48.45400 20.39600
H  3.15700 46.32500 25.42800
H  3.19200 48.06600 25.76800
H  2.46200 46.94100 26.81900
H  5.86500 47.51800 31.27700
H  6.41200 43.58200 32.85000
H  4.76700 43.82500 33.60000
H  6.26100 44.61300 34.16400

