158

Mg 35.43100 3.34500 29.17400
C  33.36600 4.19800 31.77600
C  38.09400 3.34600 31.26400
C  37.34800 3.04300 26.44600
C  32.70500 3.75200 26.89300
N  35.76000 3.45600 31.36600
C  34.67900 3.85300 32.24400
C  35.20200 3.78700 33.67800
C  36.77500 3.71900 33.45900
C  36.94700 3.42900 31.96100
C  37.50900 4.98300 33.88600
C  34.51000 2.51500 34.27900
C  34.14200 2.54000 35.77200
H  34.86900 3.63900 36.56700
N  37.43100 3.05400 28.94900
C  38.40800 3.12800 29.91600
C  39.71200 2.88000 29.30300
C  39.50200 2.77400 27.88700
C  38.04000 2.97000 27.70800
C  40.98100 2.87500 30.09700
C  40.45000 2.38800 26.73900
O  40.10600 2.27000 25.56100
C  41.82200 1.86700 27.10800
N  34.99100 3.08400 26.90800
C  36.03600 3.13000 26.07300
C  35.51400 2.98000 24.60800
C  33.96000 3.18800 24.76400
C  33.87200 3.44700 26.25400
C  36.20200 3.89100 23.51400
C  33.01100 2.09300 24.25300
C  31.92900 2.68400 23.34400
N  33.45900 3.80900 29.31300
C  32.47600 3.95400 28.28400
C  31.21000 4.32900 28.91300
C  31.51900 4.47700 30.28200
C  32.89600 4.17900 30.46100
C  29.96300 4.63600 28.13400
C  30.97500 4.78000 31.60500
O  29.86000 5.15500 31.89900
C  32.13700 4.42500 32.59300
C  32.31000 5.56900 33.53100
O  32.89700 6.63700 33.32100
O  31.80200 5.22200 34.76900
C  31.51800 6.26500 35.70500
H  38.99500 3.42300 31.87700
H  37.91700 3.00000 25.51500
H  31.89700 3.93200 26.18100
H  34.84900 4.72800 34.10000
H  37.19500 2.80300 33.87500
H  38.17700 5.43300 33.15200
H  38.21300 4.60000 34.62400
H  36.97100 5.74300 34.45400
H  35.04200 1.60300 34.00900
H  33.50000 2.34400 33.90600
H  34.59300 1.62600 36.15800
H  33.06200 2.60300 35.90100
H  40.89400 3.42100 31.03600
H  41.79100 3.31400 29.51400
H  41.23200 1.82400 30.24500
H  42.12100 1.14100 26.35200
H  41.88800 1.27000 28.01800
H  42.49200 2.72700 27.09500
H  35.70100 1.97700 24.22500
H  33.75100 4.11000 24.22000
H  36.49600 3.23700 22.69200
H  37.02200 4.44700 23.96800
H  35.59200 4.71000 23.13300
H  32.49800 1.70600 25.13400
H  33.62200 1.32100 23.78400
H  31.73500 1.94000 22.57200
H  32.15600 3.68600 22.97900
H  31.00300 2.80900 23.90600
H  29.85000 4.36300 27.08500
H  29.71500 5.69200 28.23700
H  29.19800 4.11300 28.70900
H  31.84900 3.49500 33.08300
H  32.20900 6.17700 36.54300
H  30.50100 6.03000 36.01900
H  31.43300 7.26400 35.27700
Mg -12.30100 16.79800 41.45100
C  -9.37300 14.95200 41.15300
C  -10.63200 19.54900 40.02500
C  -15.27600 18.16800 40.89100
C  -13.96100 13.77700 42.32200
N  -10.17400 17.14000 40.57600
C  -9.15600 16.25900 40.64200
C  -7.84200 16.83500 40.05400
C  -8.24700 18.36400 39.81100
C  -9.76600 18.37600 40.19000
C  -7.41400 19.37800 40.55200
C  -7.23900 16.08600 38.76200
C  -5.74600 16.28500 38.45400
H  -5.35500 16.95600 37.15900
N  -12.91700 18.63400 40.66600
C  -12.05600 19.62400 40.09800
C  -12.89800 20.70500 39.65200
C  -14.22900 20.43400 40.01100
C  -14.18400 19.02300 40.51800
C  -12.30200 21.92700 38.90400
C  -15.47100 21.37500 39.78800
O  -15.29200 22.44200 39.14400
C  -16.84400 21.12000 40.48900
N  -14.30900 16.10900 41.67800
C  -15.37300 16.90900 41.49500
C  -16.73200 16.16300 41.65900
C  -16.21700 14.83000 42.18800
C  -14.71000 14.88700 42.04800
C  -17.85400 16.83200 42.42600
C  -16.77600 13.53000 41.56000
C  -17.17100 12.35900 42.48200
N  -11.79100 14.74500 41.78200
C  -12.61700 13.64800 42.03200
C  -11.77200 12.49900 42.09200
C  -10.52300 12.94100 41.71500
C  -10.60800 14.30700 41.46400
C  -12.13800 11.15000 42.68000
C  -9.09600 12.53400 41.66200
O  -8.58400 11.46100 41.71200
C  -8.30100 13.83300 41.23400
C  -7.09400 14.13900 42.18500
O  -7.20900 14.17200 43.42800
O  -5.94000 14.37200 41.49600
C  -4.75900 14.80000 42.26100
H  -10.19100 20.48700 39.68400
H  -16.21500 18.66700 40.64300
H  -14.38400 12.84200 42.69500
H  -7.10300 16.81500 40.85500
H  -8.02200 18.65400 38.78500
H  -6.96500 18.88300 41.41300
H  -7.94400 20.28400 40.84400
H  -6.63200 19.78500 39.91100
H  -7.85000 16.43000 37.92800
H  -7.48200 15.06000 39.04100
H  -5.20700 15.35100 38.61100
H  -5.29600 16.88900 39.24200
H  -12.71800 21.89200 37.89700
H  -11.23200 22.13100 38.86500
H  -12.72000 22.82600 39.35700
H  -17.39200 22.06200 40.52000
H  -16.55000 20.85200 41.50400
H  -17.52700 20.42500 40.00100
H  -17.07500 16.01900 40.63500
H  -16.40100 14.81800 43.26200
H  -18.68800 17.13200 41.79100
H  -17.52100 17.75100 42.90800
H  -18.18300 16.19000 43.24400
H  -16.20800 13.27400 40.66600
H  -17.70600 13.98900 41.22300
H  -16.53200 11.51100 42.23400
H  -18.21400 12.15400 42.24200
H  -17.11000 12.60200 43.54300
H  -12.89100 11.19700 43.46700
H  -11.15300 10.80400 42.99300
H  -12.51000 10.38400 42.00000
H  -7.91700 13.52000 40.26300
H  -4.19200 14.02500 42.77700
H  -4.99500 15.44900 43.10500
H  -4.16600 15.40200 41.57300

