158

Mg 34.53400 2.06900 29.29000
C  32.42000 3.02200 31.86100
C  37.12200 1.87600 31.65100
C  36.76400 1.94200 26.77000
C  32.12700 3.06600 26.85600
N  34.72600 2.57000 31.48800
C  33.71400 2.71800 32.36700
C  34.18400 2.67000 33.83300
C  35.69100 2.38400 33.63700
C  35.89100 2.32400 32.12400
C  36.63300 3.31100 34.43900
C  33.38900 1.67500 34.67600
C  32.89100 1.98500 36.13800
H  33.61600 3.10700 36.87400
N  36.62000 1.75000 29.16700
C  37.44200 1.74700 30.23400
C  38.78300 1.53700 29.74700
C  38.81400 1.41100 28.34200
C  37.37300 1.73900 28.01500
C  40.09400 1.30600 30.61700
C  39.95800 1.15500 27.39500
O  39.75800 1.16200 26.18000
C  41.41700 0.99500 27.67400
N  34.38200 2.27600 27.13400
C  35.46600 2.14900 26.31600
C  35.10600 2.41300 24.83900
C  33.60800 2.60900 24.81900
C  33.36300 2.73700 26.35300
C  35.84700 3.57600 24.03600
C  32.78800 1.44700 24.07700
C  32.64700 -0.02500 24.71300
N  32.65400 2.81900 29.29600
C  31.77000 3.08300 28.24500
C  30.56300 3.57900 28.83800
C  30.68500 3.56000 30.25400
C  32.01700 3.11700 30.45900
C  29.30400 3.86100 28.09800
C  30.05200 3.77800 31.49500
O  28.95000 4.14600 31.79300
C  31.17800 3.51600 32.57000
C  31.29800 4.83400 33.27900
O  31.71400 5.88100 32.80500
O  30.83000 4.68500 34.59500
C  30.94100 5.89500 35.46700
H  37.99800 1.76800 32.29500
H  37.50000 2.00000 25.96500
H  31.39400 3.34100 26.09600
H  33.97900 3.56400 34.42200
H  35.89700 1.36000 33.94900
H  36.06600 4.14700 34.85000
H  37.26500 3.87700 33.75500
H  37.22500 2.85000 35.22900
H  34.03200 0.80500 34.81400
H  32.62000 1.26100 34.02300
H  32.86300 1.12000 36.80000
H  31.88200 2.36800 35.98500
H  40.91100 1.79100 30.08300
H  40.20400 0.22200 30.63100
H  40.07700 1.74300 31.61500
H  41.82000 1.98000 27.91300
H  41.89000 0.70300 26.73600
H  41.58600 0.26400 28.46400
H  35.34800 1.49400 24.30500
H  33.29900 3.54100 24.34300
H  35.12100 4.29500 23.65900
H  36.50600 3.13900 23.28500
H  36.52400 4.17100 24.64900
H  33.26300 1.42500 23.09600
H  31.77100 1.73400 23.81100
H  33.64400 -0.38200 24.97200
H  32.35200 -0.78700 23.99200
H  32.00300 0.03100 25.59100
H  29.35900 4.17200 27.05500
H  28.71400 4.70300 28.46200
H  28.71700 2.94500 28.16400
H  30.81100 2.73700 33.23900
H  31.44300 6.74500 35.00500
H  31.43200 5.62300 36.40100
H  29.93200 6.26800 35.64000
Mg 47.82100 25.33300 28.93500
C  48.81100 27.54200 31.50800
C  46.69100 23.05000 31.36700
C  47.16600 23.07100 26.47500
C  49.32600 27.35600 26.59800
N  48.03200 25.24200 31.32600
C  48.27800 26.36800 32.09000
C  47.95400 26.00900 33.58100
C  47.24700 24.60700 33.43300
C  47.38400 24.21100 31.90400
C  47.74000 23.54500 34.40500
C  46.98900 27.06300 34.31700
C  47.40400 27.37900 35.82000
H  46.31300 27.68300 36.85100
N  46.87200 23.39400 28.92700
C  46.49600 22.66500 30.02400
C  45.84500 21.45200 29.54300
C  45.98900 21.45800 28.07000
C  46.71400 22.72600 27.73200
C  45.16200 20.29700 30.38600
C  45.45300 20.47900 27.09500
O  45.43600 20.68100 25.88200
C  44.73900 19.14900 27.57800
N  48.21700 25.26500 26.88800
C  47.99500 24.13600 26.13100
C  48.45100 24.46700 24.68000
C  48.80800 25.96200 24.67500
C  48.80200 26.16800 26.16600
C  49.50800 23.38600 24.20100
C  47.82200 26.98100 23.99300
C  48.30600 28.39800 23.65300
N  48.93900 27.06500 28.98600
C  49.38700 27.85600 27.95400
C  49.87000 29.12500 28.48900
C  49.62200 28.97800 29.84500
C  49.12800 27.69200 30.08500
C  50.42600 30.27200 27.71200
C  49.71400 29.74900 31.10700
O  50.07900 30.90100 31.23500
C  49.27400 28.75600 32.23800
C  50.49600 28.55400 33.05500
O  51.52000 27.91900 32.75400
O  50.34700 29.15800 34.30900
C  51.36000 28.80700 35.25900
H  46.30700 22.30900 32.07100
H  47.04600 22.29100 25.72000
H  49.79900 28.03300 25.88200
H  48.83000 25.71200 34.15800
H  46.18200 24.69500 33.64900
H  48.00600 22.71100 33.75600
H  46.95500 23.20200 35.07900
H  48.70700 23.74000 34.86800
H  45.97000 26.75100 34.09000
H  47.06500 28.01700 33.79600
H  48.01300 28.27100 35.67000
H  48.11500 26.63400 36.17800
H  45.71300 19.36800 30.24100
H  44.09700 20.27700 30.15600
H  45.08400 20.53200 31.44700
H  43.85700 19.17400 28.21800
H  45.51700 18.62200 28.13200
H  44.49200 18.57000 26.68900
H  47.59100 24.27600 24.03900
H  49.83200 26.03500 24.30900
H  49.07200 22.65500 23.51900
H  49.83000 22.92500 25.13400
H  50.36000 23.83200 23.68700
H  47.02600 27.21000 24.70100
H  47.48100 26.48600 23.08300
H  47.82800 28.75800 22.74200
H  49.39100 28.34400 23.56700
H  47.98500 29.08800 24.43300
H  51.48000 30.47100 27.90500
H  49.80600 31.14500 27.91600
H  50.15000 30.05400 26.68000
H  48.44200 29.26000 32.73100
H  52.35500 28.51500 34.92200
H  51.06700 28.02100 35.95600
H  51.42600 29.71900 35.85200

