158

Mg 2.13500 -0.25400 42.89600
C  5.66100 -0.03800 42.61400
C  1.82700 2.53400 40.93200
C  -1.08100 -0.98800 42.41800
C  2.67400 -3.46000 44.23600
N  3.55700 1.09500 41.87800
C  4.98300 1.03200 41.91800
C  5.57300 2.12700 41.06500
C  4.36800 3.12300 40.89700
C  3.20100 2.20100 41.18200
C  4.39500 4.37100 41.90500
C  6.04200 1.58500 39.67200
C  7.46300 2.06200 39.23800
H  7.55500 2.52200 37.77500
N  0.54200 0.69500 41.97000
C  0.64800 1.85000 41.23400
C  -0.70900 2.20000 40.83600
C  -1.59900 1.32600 41.38900
C  -0.74500 0.25900 41.93500
C  -1.04200 3.57100 40.03200
C  -3.21900 1.46400 41.41200
O  -3.75200 2.38100 40.87200
C  -4.07500 0.39500 42.00600
N  0.96200 -2.07400 43.14200
C  -0.36700 -2.04300 43.00100
C  -0.98000 -3.32400 43.52500
C  0.11700 -4.02200 44.31700
C  1.34800 -3.18100 43.85700
C  -2.26200 -3.08400 44.42200
C  0.41800 -5.54100 43.97500
C  -0.28200 -6.57300 44.87400
N  3.77600 -1.47300 43.47200
C  3.78000 -2.73200 43.96500
C  5.21400 -3.22800 44.06700
C  5.98100 -2.13800 43.58800
C  5.04500 -1.13700 43.26200
C  5.71500 -4.58700 44.61200
C  7.28300 -1.68700 43.35400
O  8.34000 -2.31900 43.52900
C  7.14100 -0.29200 42.67900
C  7.80100 0.76500 43.54800
O  7.71500 0.82600 44.76300
O  8.59000 1.65000 42.77700
C  9.11400 2.85800 43.42400
H  1.71000 3.43000 40.31800
H  -2.14000 -1.23300 42.31600
H  2.84500 -4.39000 44.78200
H  6.33400 2.70100 41.59300
H  4.22800 3.50500 39.88600
H  5.44900 4.64200 41.95500
H  3.97200 3.96100 42.82300
H  3.83800 5.23900 41.55300
H  5.28400 1.80500 38.92000
H  5.99200 0.49800 39.73300
H  8.25800 1.34100 39.42900
H  7.75900 2.91800 39.84600
H  -0.17500 4.04600 39.57300
H  -1.44600 4.22200 40.80700
H  -1.79400 3.55100 39.24300
H  -5.13900 0.54100 41.82200
H  -3.86500 0.29200 43.07100
H  -3.91600 -0.58200 41.55100
H  -1.33600 -3.84100 42.63400
H  0.13000 -3.73000 45.36700
H  -2.29500 -2.01400 44.62600
H  -2.15400 -3.63800 45.35500
H  -3.13900 -3.42200 43.87100
H  1.46800 -5.83300 43.96900
H  0.05100 -5.72200 42.96500
H  -1.06900 -5.97600 45.33600
H  0.31900 -7.05300 45.64700
H  -0.80500 -7.29500 44.24800
H  4.98500 -5.29600 45.00200
H  6.44400 -4.42300 45.40600
H  6.26800 -5.08000 43.81200
H  7.69100 -0.33200 41.73900
H  8.61200 3.72000 42.98400
H  10.15600 2.95500 43.11800
H  9.10700 2.78200 44.51100
Mg 47.66100 34.42400 27.00600
C  46.05800 33.33800 30.00400
C  48.54900 37.19900 28.57500
C  49.03800 35.22800 24.12700
C  46.43800 31.43100 25.50600
N  47.34800 35.07300 29.09600
C  46.75100 34.55500 30.17200
C  46.96800 35.45500 31.44200
C  47.35500 36.82000 30.74300
C  47.81600 36.34100 29.39300
C  46.19000 37.88300 30.51800
C  48.12900 34.86600 32.37200
C  47.72700 34.56600 33.88900
H  48.52800 35.40500 34.90700
N  48.58200 36.08200 26.40000
C  48.92200 37.15600 27.19900
C  49.58800 38.15900 26.32600
C  49.65900 37.61400 25.05500
C  49.05500 36.26200 25.12900
C  50.00600 39.46500 26.82800
C  50.12600 38.24300 23.85900
O  50.07000 37.73000 22.75400
C  50.63000 39.63200 23.90100
N  47.67100 33.41300 25.02000
C  48.43400 33.99200 24.04200
C  48.50800 33.01700 22.85500
C  47.64800 31.83200 23.24200
C  47.26700 32.18400 24.68200
C  48.09800 33.72000 21.49600
C  48.36300 30.48900 22.97500
C  49.46300 29.99800 24.02700
N  46.48700 32.75900 27.53700
C  46.15800 31.63700 26.85400
C  45.34200 30.77000 27.75500
C  45.24400 31.46700 28.91700
C  46.07700 32.58600 28.78100
C  44.73000 29.46000 27.50500
C  44.65200 31.34200 30.25300
O  43.98600 30.44400 30.74300
C  45.00400 32.68200 30.88900
C  45.18200 32.55800 32.33600
O  46.19400 32.20800 32.85300
O  43.91600 32.78500 32.92000
C  43.64300 32.34500 34.25000
H  48.89400 38.11300 29.06300
H  49.69500 35.40000 23.27200
H  46.14900 30.49300 25.02700
H  45.98900 35.44400 31.91900
H  48.14800 37.33600 31.28500
H  45.89700 38.02300 29.47700
H  46.60100 38.83900 30.84100
H  45.29000 37.81100 31.12900
H  48.93900 35.59000 32.46100
H  48.53400 33.96200 31.91900
H  47.98000 33.56300 34.23100
H  46.65400 34.71500 34.00700
H  50.95900 39.81100 26.42700
H  50.08400 39.30800 27.90400
H  49.20600 40.19000 26.67500
H  51.65500 39.61500 24.27100
H  49.87000 40.22400 24.41100
H  50.60200 40.01500 22.88100
H  49.54600 32.70000 22.75400
H  46.74400 31.82400 22.63300
H  47.31100 33.09700 21.07200
H  48.96600 33.67500 20.83800
H  47.81100 34.74000 21.75100
H  48.87400 30.55000 22.01400
H  47.62800 29.68400 22.98000
H  49.72000 30.72200 24.79900
H  50.32200 29.53100 23.54300
H  48.99300 29.20600 24.61000
H  43.68100 29.45000 27.80300
H  45.32000 28.61500 27.86100
H  44.69300 29.32500 26.42400
H  44.12000 33.31600 30.83200
H  43.02200 31.45100 34.29500
H  43.18400 33.15000 34.82400
H  44.58800 32.04000 34.70100

