158

Mg 1.14500 -1.64500 43.11000
C  4.61100 -0.86600 42.67600
C  0.26700 1.02700 41.33700
C  -1.86300 -2.87000 43.14400
C  2.36800 -4.89300 44.48800
N  2.32000 -0.24700 41.94600
C  3.69500 -0.00100 42.03500
C  4.02700 1.28300 41.31900
C  2.64400 1.96900 41.17800
C  1.66000 0.84100 41.49400
C  2.50300 3.27200 42.02400
C  4.77500 1.01100 39.95900
C  6.10200 1.86900 39.81000
H  6.01500 2.76200 38.59000
N  -0.62300 -0.92700 42.32800
C  -0.80500 0.20000 41.63300
C  -2.13700 0.47500 41.45900
C  -2.82700 -0.67800 41.98200
C  -1.80700 -1.62000 42.50900
C  -2.56700 1.77800 40.83400
C  -4.30800 -0.81800 41.96700
O  -5.02600 -0.05900 41.39700
C  -4.94600 -2.02000 42.60100
N  0.36200 -3.72300 43.47900
C  -0.97200 -3.91200 43.56300
C  -1.35500 -5.33300 44.03800
C  -0.00500 -5.88200 44.62800
C  0.99500 -4.79200 44.12200
C  -2.41300 -5.29100 45.18700
C  0.32900 -7.29400 44.11700
C  0.36200 -8.35000 45.26700
N  3.08100 -2.75000 43.53900
C  3.36400 -4.00300 44.07000
C  4.84600 -4.14200 44.22900
C  5.40500 -2.97500 43.64000
C  4.29400 -2.14300 43.24800
C  5.65500 -5.27300 44.78500
C  6.68600 -2.23600 43.24300
O  7.84000 -2.54900 43.41000
C  6.16300 -0.91500 42.53100
C  6.67800 0.32600 43.24200
O  6.43500 0.59900 44.38500
O  7.57200 1.13900 42.53300
C  7.82500 2.41100 43.26200
H  0.07200 1.92700 40.75100
H  -2.87300 -3.27600 43.23600
H  2.78000 -5.80000 44.93800
H  4.70200 1.91600 41.89600
H  2.53800 2.23900 40.12800
H  2.20200 4.13100 41.42300
H  3.49000 3.51400 42.42000
H  1.76700 3.17500 42.82200
H  4.17200 1.37300 39.12600
H  4.95600 -0.06100 39.89100
H  6.95500 1.19100 39.83600
H  6.26800 2.55400 40.64100
H  -3.59600 2.13400 40.87200
H  -2.37200 1.86400 39.76500
H  -2.03700 2.60600 41.30500
H  -4.54400 -2.95300 42.20500
H  -6.01200 -2.04800 42.37600
H  -4.87500 -1.96000 43.68700
H  -1.72700 -5.91600 43.19500
H  0.00300 -5.83500 45.71700
H  -2.58900 -4.27300 45.53300
H  -2.03300 -5.80500 46.07100
H  -3.31100 -5.81300 44.85700
H  1.31100 -7.21500 43.65200
H  -0.48900 -7.64600 43.48900
H  1.08600 -9.14700 45.10400
H  -0.58800 -8.86800 45.40000
H  0.61400 -7.81900 46.18500
H  6.69100 -4.93300 44.78500
H  5.64000 -6.11100 44.08800
H  5.26600 -5.49300 45.77900
H  6.55700 -0.84900 41.51700
H  8.53900 2.20900 44.06100
H  6.98800 2.90900 43.75200
H  8.22300 3.13000 42.54700
Mg 49.47600 35.64500 27.40800
C  47.58400 34.02400 29.90000
C  49.88700 38.27400 29.52300
C  50.88100 37.35100 24.84100
C  48.47400 33.10500 25.23300
N  48.81000 36.03300 29.48200
C  48.21600 35.21700 30.36700
C  48.26400 35.78500 31.77500
C  48.68600 37.24800 31.47900
C  49.20900 37.19300 30.11100
C  47.61600 38.31100 31.78500
C  49.30800 35.04900 32.66700
C  49.03100 34.97100 34.15900
H  48.01400 35.91100 34.82300
N  50.37400 37.45000 27.23900
C  50.41100 38.46500 28.23000
C  51.04200 39.64300 27.67400
C  51.41800 39.39400 26.36000
C  50.88000 38.03600 26.09900
C  51.15500 40.82900 28.56300
C  52.09400 40.21300 25.37900
O  52.42400 39.90300 24.19800
C  52.42700 41.65000 25.81500
N  49.66400 35.28400 25.37000
C  50.24700 36.14800 24.50100
C  50.17800 35.65400 23.05200
C  49.51300 34.27500 23.18100
C  49.27300 34.15200 24.73600
C  49.35900 36.67400 22.15300
C  50.36800 33.09800 22.63300
C  51.87600 33.05400 23.04000
N  48.38500 33.81500 27.56100
C  48.06500 32.94800 26.57900
C  47.11200 31.94200 27.07900
C  46.80500 32.42400 28.34600
C  47.68800 33.44400 28.61900
C  46.34900 30.95700 26.23000
C  45.93100 32.13400 29.45500
O  45.00300 31.28800 29.62200
C  46.47600 33.23200 30.57000
C  46.92600 32.35100 31.63100
O  48.03200 31.91200 31.75900
O  45.84000 32.12500 32.44300
C  46.10000 31.23000 33.56800
H  50.12800 39.08600 30.21200
H  51.39500 37.73900 23.95900
H  47.99600 32.43800 24.51200
H  47.28600 35.67500 32.24500
H  49.54100 37.53100 32.09200
H  46.68500 37.74500 31.82800
H  47.45000 38.90900 30.88900
H  47.77800 38.94200 32.65900
H  50.27200 35.53200 32.50600
H  49.45600 34.00100 32.40800
H  49.93000 35.17000 34.74300
H  48.87500 33.92800 34.43400
H  52.04400 40.84000 29.19300
H  50.37700 40.90900 29.32300
H  51.02100 41.74300 27.98400
H  53.00700 41.51100 26.72700
H  51.59800 42.34400 25.95500
H  52.95600 42.04800 24.94900
H  51.18000 35.55600 22.63300
H  48.50800 34.24800 22.76000
H  50.09700 36.94000 21.39600
H  49.08900 37.56700 22.71600
H  48.45800 36.29000 21.67600
H  50.36100 33.15800 21.54400
H  49.80100 32.19500 22.85600
H  52.04900 33.54400 23.99800
H  52.53200 33.63900 22.39600
H  52.32600 32.06200 23.01100
H  45.39400 30.63900 26.64700
H  46.96600 30.21200 25.72900
H  45.93000 31.59000 25.44700
H  45.75700 33.97600 30.91300
H  46.48300 30.28700 33.17800
H  45.21700 31.20400 34.20600
H  46.86300 31.65200 34.22200

