158

Mg 29.09300 57.67300 41.06900
C  26.23600 56.01300 39.91700
C  31.13500 55.49400 39.30800
C  31.85700 59.62200 41.72300
C  26.96100 60.35700 42.01800
N  28.68900 55.97600 39.75900
C  27.47300 55.44500 39.43100
C  27.74000 54.02600 38.72500
C  29.31700 53.79800 38.75400
C  29.75500 55.20800 39.30100
C  29.76100 52.57600 39.58600
C  26.91300 53.75900 37.34400
C  26.77700 54.96700 36.39700
H  27.41700 54.79900 34.98700
N  31.19900 57.52800 40.69900
C  31.85300 56.48400 39.98900
C  33.27500 56.77200 39.88600
C  33.54400 58.05200 40.62200
C  32.19400 58.46000 41.07100
C  34.20500 55.73200 39.25600
C  34.85900 58.68800 40.79000
O  35.89100 58.09800 40.45000
C  35.10900 59.99800 41.56500
N  29.39300 59.77700 41.50000
C  30.60200 60.26400 41.85200
C  30.50000 61.72000 42.48100
C  28.99300 61.90600 42.66300
C  28.35000 60.63300 42.00400
C  31.32800 62.06500 43.75700
C  28.48300 63.27000 42.02400
C  27.23300 63.89300 42.76200
N  27.07100 58.03400 41.24400
C  26.32800 59.15300 41.59500
C  24.89200 58.84200 41.55700
C  24.86100 57.62700 40.87600
C  26.16800 57.22300 40.65600
C  23.83000 59.71700 42.00500
C  23.91400 56.66600 40.37400
O  22.66300 56.56100 40.44800
C  24.81800 55.56000 39.78200
C  24.56500 54.20900 40.35800
O  25.04500 53.66800 41.34900
O  23.60800 53.67200 39.48400
C  23.37800 52.26400 39.78200
H  31.72000 54.72900 38.79300
H  32.75300 60.06300 42.16300
H  26.32500 61.16400 42.38800
H  27.27800 53.30500 39.40000
H  29.69000 53.88500 37.73400
H  30.68800 52.77900 40.12200
H  29.95600 51.78000 38.86600
H  29.07300 52.25300 40.36700
H  25.91700 53.36500 37.54300
H  27.49200 52.92500 36.94500
H  27.12600 55.88800 36.86500
H  25.71700 55.19600 36.28800
H  35.08000 56.23300 38.84200
H  33.76100 55.28600 38.36600
H  34.51300 54.95100 39.95100
H  34.50900 60.86100 41.27800
H  36.10000 60.40800 41.37100
H  35.05600 59.73300 42.62100
H  30.77300 62.47300 41.74200
H  28.64700 61.96500 43.69500
H  32.08000 61.32500 44.03100
H  30.68800 62.08400 44.63900
H  31.73800 63.06500 43.61500
H  28.07500 63.02300 41.04400
H  29.23300 64.05500 41.93400
H  27.51500 64.92400 42.97700
H  26.99700 63.41900 43.71500
H  26.31500 63.82600 42.17700
H  22.82700 59.29300 41.96000
H  23.93900 60.70000 41.54700
H  23.92300 59.87900 43.07900
H  24.58500 55.50100 38.71900
H  23.82200 51.64600 39.00100
H  22.31600 52.11800 39.58500
H  23.61700 51.87200 40.77000
Mg 17.53600 51.21500 25.80600
C  19.35700 50.06000 28.62900
C  15.17300 52.41300 28.10700
C  15.47600 51.97900 23.25700
C  19.73700 49.51700 23.75000
N  17.22500 51.13300 28.10400
C  18.11700 50.67300 29.03300
C  17.62800 50.95200 30.47200
C  16.21200 51.55500 30.24400
C  16.20300 51.69900 28.72400
C  14.95900 50.66400 30.74900
C  18.57100 51.91000 31.15400
C  18.31500 52.22400 32.65000
H  17.27200 51.49500 33.39500
N  15.64500 52.13900 25.70300
C  14.87100 52.59100 26.73100
C  13.63500 53.20100 26.13100
C  13.75900 53.16400 24.69200
C  14.99300 52.40200 24.45900
C  12.51000 53.76100 26.87500
C  12.89400 53.74200 23.59800
O  13.23200 53.74400 22.45700
C  11.62500 54.41200 24.02400
N  17.58200 50.75800 23.85100
C  16.63900 51.22600 22.97500
C  16.99700 50.77600 21.54400
C  18.36700 50.07100 21.66200
C  18.54400 50.08800 23.14700
C  15.89300 49.94300 20.84100
C  19.61200 50.68900 20.85200
C  20.51100 49.61700 20.26300
N  19.27300 50.07700 26.08400
C  20.12100 49.50400 25.12800
C  21.23100 48.81800 25.81000
C  20.95600 49.08100 27.18900
C  19.73400 49.75000 27.29700
C  22.33200 48.16000 25.06100
C  21.45400 48.67700 28.53200
O  22.45600 48.10400 28.90000
C  20.41700 49.41000 29.46400
C  19.82900 48.31600 30.36200
O  19.22800 47.27900 30.00700
O  20.07600 48.67100 31.66200
C  19.66900 47.77600 32.77800
H  14.40500 52.94900 28.66900
H  14.88700 52.31200 22.40000
H  20.41900 49.07500 23.02100
H  17.52100 50.07700 31.11300
H  16.07100 52.50000 30.76800
H  14.64700 50.11700 29.86000
H  14.19100 51.30200 31.18700
H  15.22100 49.91100 31.49200
H  18.54900 52.77700 30.49400
H  19.58600 51.54000 31.00900
H  18.22300 53.30900 32.60800
H  19.20400 52.07600 33.26400
H  12.63300 53.94000 27.94400
H  11.65700 53.18000 26.52500
H  12.34100 54.76000 26.47300
H  11.91900 55.29700 24.58700
H  10.90800 53.79200 24.56200
H  11.23000 54.75000 23.06600
H  17.04700 51.72700 21.01300
H  18.12700 49.05000 21.36700
H  15.28300 49.61200 21.68200
H  16.35100 49.08900 20.34300
H  15.32200 50.57800 20.16300
H  20.09900 51.29400 21.61600
H  19.19200 51.34600 20.09100
H  19.82000 48.80500 20.04000
H  21.29600 49.22200 20.90800
H  20.95800 50.04300 19.36500
H  23.04800 47.78000 25.79000
H  22.78600 48.93600 24.44400
H  22.08300 47.31500 24.41900
H  20.83200 50.10100 30.19800
H  18.63700 47.98400 33.05800
H  20.26200 47.95600 33.67500
H  19.75900 46.73700 32.46000

