158

Mg 0.16800 7.99800 26.55900
C  0.81900 10.16700 29.32900
C  0.20900 5.30400 29.08600
C  -0.05200 5.71200 24.23600
C  0.63300 10.53400 24.36000
N  0.55400 7.78600 28.94900
C  0.60800 8.85200 29.76300
C  0.38600 8.46100 31.23600
C  0.35200 6.85400 31.16500
C  0.44000 6.59600 29.62600
C  1.36400 6.11500 32.02300
C  -0.92400 9.04800 31.92000
C  -0.77500 9.20000 33.49000
H  -1.46400 8.14900 34.35700
N  0.03300 5.86300 26.65800
C  0.05600 4.96600 27.68400
C  -0.10500 3.68500 27.16900
C  -0.14000 3.70800 25.76700
C  -0.08400 5.15300 25.51100
C  -0.23700 2.44100 27.99300
C  -0.15900 2.57500 24.68700
O  -0.08200 2.78400 23.47000
C  -0.29500 1.23700 25.13300
N  0.40000 8.11400 24.55900
C  0.07200 7.04200 23.85300
C  -0.00400 7.45700 22.32700
C  -0.14400 8.99700 22.41300
C  0.30300 9.29300 23.86600
C  1.27800 6.99800 21.55200
C  -1.49400 9.61800 22.14400
C  -1.53600 10.43100 20.87800
N  0.80400 9.91100 26.69400
C  0.88700 10.83600 25.70200
C  1.24900 12.16600 26.25600
C  1.12500 11.92500 27.65000
C  0.86100 10.55500 27.90500
C  1.46600 13.41600 25.55500
C  1.11400 12.58300 28.90300
O  1.27800 13.76100 29.21900
C  0.89800 11.50400 30.02800
C  2.00400 11.56500 31.05200
O  3.12800 11.20600 30.86500
O  1.48300 11.94300 32.22600
C  2.48300 12.37100 33.28500
H  0.24400 4.47600 29.79700
H  0.01200 5.02700 23.38700
H  0.65100 11.33900 23.62200
H  1.34300 8.75500 31.66700
H  -0.63600 6.66000 31.58200
H  1.67800 6.74300 32.85600
H  2.20700 5.85500 31.38400
H  0.79800 5.27200 32.42000
H  -1.73800 8.35600 31.70900
H  -1.12000 9.98200 31.39300
H  -1.20400 10.15100 33.80500
H  0.29600 9.10800 33.67300
H  -1.08400 1.83700 27.66700
H  -0.60100 2.69200 28.98900
H  0.68700 1.86400 27.95700
H  0.65200 0.95700 25.59400
H  -0.42700 0.64300 24.22900
H  -1.25400 1.07800 25.62500
H  -0.83700 6.94800 21.84300
H  0.54900 9.41900 21.68500
H  1.11700 6.15900 20.87400
H  2.17500 6.82300 22.14600
H  1.48500 7.78200 20.82400
H  -1.76900 10.18000 23.03700
H  -2.27700 8.87900 21.97800
H  -1.26700 9.93100 19.94800
H  -1.01000 11.37900 20.99300
H  -2.55800 10.73300 20.64800
H  2.30800 13.93400 26.01500
H  0.52500 13.94900 25.68600
H  1.69500 13.32100 24.49400
H  -0.01100 11.75400 30.57500
H  2.94000 11.54300 33.82700
H  2.17000 12.97400 34.13800
H  3.28400 12.83900 32.71300
Mg 49.03300 34.93400 27.33600
C  46.78200 33.47300 29.66900
C  49.57300 37.28700 29.37000
C  50.18600 36.58400 24.62600
C  48.21200 32.24600 25.14500
N  48.26900 35.27100 29.26600
C  47.43100 34.60500 30.08800
C  47.54600 35.12800 31.52300
C  48.09000 36.52600 31.39700
C  48.78500 36.34600 29.97800
C  47.08700 37.62700 31.37400
C  48.50000 34.24100 32.36600
C  48.19000 34.22400 33.87700
H  49.18500 34.89900 34.83200
N  49.80400 36.75200 27.06400
C  50.01300 37.59000 28.03000
C  50.60200 38.80400 27.51100
C  50.76800 38.65300 26.10400
C  50.22600 37.27900 25.86000
C  51.02400 39.91400 28.42600
C  51.34800 39.58700 25.03300
O  51.35900 39.35400 23.84500
C  51.91600 40.90600 25.46700
N  49.14700 34.47400 25.13800
C  49.70500 35.34700 24.27800
C  49.57900 34.68200 22.88600
C  49.37500 33.18800 23.15900
C  48.86400 33.26500 24.58200
C  48.44200 35.44900 22.08300
C  50.66800 32.29000 23.11900
C  50.62400 31.04600 22.22000
N  47.84500 33.10100 27.36800
C  47.68100 32.13400 26.41400
C  46.73800 31.16100 26.91800
C  46.36800 31.69000 28.23300
C  47.04100 32.87500 28.37000
C  46.40700 29.88700 26.16700
C  45.45900 31.43900 29.36500
O  44.82000 30.41800 29.61600
C  45.70100 32.63400 30.40600
C  46.00300 32.06800 31.73200
O  46.89200 31.28100 32.05900
O  45.09600 32.62500 32.57600
C  45.15400 32.26500 33.91400
H  49.78300 38.12600 30.03800
H  50.59200 37.11500 23.76300
H  47.98600 31.48400 24.39600
H  46.49800 35.09500 31.82300
H  48.73200 36.86000 32.21300
H  47.12300 38.20100 32.30000
H  46.04900 37.30200 31.30300
H  47.22500 38.22600 30.47400
H  49.48600 34.70600 32.35200
H  48.54800 33.27100 31.87200
H  48.30700 33.17700 34.15500
H  47.15500 34.51100 34.06400
H  50.33800 40.75800 28.50300
H  51.97400 40.31900 28.07500
H  51.27700 39.46700 29.38700
H  51.23000 41.61900 25.92500
H  52.25200 41.44300 24.58000
H  52.69100 40.74600 26.21700
H  50.52400 34.68800 22.34100
H  48.57600 32.88700 22.48100
H  47.55700 34.81400 22.03600
H  48.77900 35.53900 21.05100
H  48.30800 36.42800 22.54400
H  50.82700 31.86800 24.11200
H  51.59900 32.84800 23.01800
H  51.58500 30.79400 21.77100
H  49.82500 31.13900 21.48500
H  50.36800 30.21400 22.87500
H  46.26300 30.18900 25.12900
H  45.35500 29.65800 26.33800
H  47.18500 29.16400 26.41100
H  44.80900 33.25800 30.46700
H  45.06400 33.22800 34.41500
H  46.16100 31.96200 34.19800
H  44.48700 31.48700 34.28600

