158

Mg 0.62700 8.84000 26.23700
C  1.65700 10.40700 29.08600
C  0.09100 5.91200 28.11400
C  0.02200 7.09000 23.39900
C  1.75200 11.45100 24.27900
N  1.06500 8.10600 28.33500
C  1.20200 9.13000 29.33900
C  1.04800 8.53500 30.70900
C  0.85000 6.98100 30.42100
C  0.55700 6.98200 28.84700
C  2.02300 6.03600 30.82200
C  -0.15600 9.08200 31.45900
C  -0.05500 9.26700 32.98700
H  1.24400 8.97100 33.73000
N  0.05400 6.77200 25.79000
C  -0.12200 5.78900 26.73900
C  -0.72000 4.66900 26.07900
C  -0.84700 4.91300 24.68500
C  -0.22000 6.32100 24.57100
C  -1.06700 3.42200 26.85200
C  -1.52300 4.07400 23.61200
O  -1.61500 4.53500 22.46500
C  -1.91100 2.69800 23.86600
N  0.98500 9.13500 24.18400
C  0.62700 8.28500 23.14700
C  1.01100 8.76200 21.72600
C  1.35700 10.26200 22.04300
C  1.39100 10.28900 23.56700
C  2.26900 8.06600 21.21200
C  0.35900 11.34100 21.37800
C  -0.78300 11.77600 22.33700
N  1.50600 10.65400 26.53300
C  1.86900 11.67600 25.69000
C  2.30700 12.81800 26.43600
C  2.31700 12.35500 27.77200
C  1.81500 11.01300 27.78400
C  2.63800 14.15400 25.92500
C  2.57900 12.71700 29.13600
O  3.02700 13.77800 29.61400
C  2.23000 11.47200 30.06100
C  3.50800 11.05900 30.68500
O  4.34600 10.36900 30.17600
O  3.49100 11.49000 32.00300
C  4.53100 10.97300 32.95400
H  -0.21800 5.11800 28.79700
H  -0.32200 6.43800 22.59400
H  2.15800 12.22200 23.62000
H  1.94300 8.63000 31.32300
H  -0.04200 6.60900 30.92500
H  1.65800 5.35900 31.59500
H  2.87900 6.58100 31.21900
H  2.39400 5.58700 29.90100
H  -1.03600 8.46300 31.28400
H  -0.39500 10.03400 30.98400
H  -0.87900 8.73400 33.46000
H  -0.26600 10.28100 33.32600
H  -0.57600 2.57800 26.36800
H  -2.14500 3.26500 26.82300
H  -0.77800 3.57500 27.89200
H  -2.72500 2.33900 23.23600
H  -2.24600 2.45200 24.87400
H  -1.00300 2.10100 23.78300
H  0.08900 8.57900 21.17400
H  2.37900 10.46800 21.72700
H  2.29400 8.24800 20.13800
H  2.05600 7.01000 21.38100
H  3.20900 8.29500 21.71500
H  -0.03200 10.93400 20.44600
H  1.04600 12.12100 21.04900
H  -0.82400 11.17700 23.24700
H  -1.72000 11.71400 21.78200
H  -0.61800 12.77900 22.73100
H  1.73500 14.69900 25.65000
H  3.28500 14.06300 25.05300
H  3.10400 14.84200 26.63000
H  1.50600 11.77000 30.81900
H  5.47700 11.24700 32.48600
H  4.47500 9.89800 33.12600
H  4.59500 11.42000 33.94600
Mg 30.53300 58.82100 38.88300
C  27.92300 56.72100 37.60700
C  32.63300 56.26900 38.01400
C  33.01000 61.02000 39.10800
C  28.13100 61.42000 38.96400
N  30.28200 56.74500 37.70700
C  29.15600 56.13500 37.40400
C  29.41100 54.74900 36.81700
C  31.02700 54.60400 37.04900
C  31.32100 55.89300 37.77200
C  31.42500 53.35000 37.83100
C  29.00300 54.54600 35.36200
C  29.31700 55.66800 34.32200
H  28.31600 56.18300 33.26500
N  32.60900 58.59000 38.74500
C  33.24400 57.42500 38.36000
C  34.67900 57.64000 38.51100
C  34.79800 59.07900 38.88800
C  33.43000 59.65000 38.87600
C  35.76000 56.62200 38.27700
C  36.00800 59.79800 39.29500
O  37.03900 59.23500 39.12900
C  36.06400 61.12800 39.80100
N  30.52300 60.92400 39.12500
C  31.69300 61.54100 39.22800
C  31.48800 63.03600 39.56900
C  29.92000 63.20600 39.23400
C  29.45900 61.77500 39.17000
C  31.89700 63.47600 41.03200
C  29.68800 64.07700 37.92600
C  29.82600 65.62900 37.81500
N  28.42300 59.04700 38.54100
C  27.63200 60.13700 38.68300
C  26.25400 59.81300 38.39400
C  26.30900 58.48000 37.97000
C  27.67300 58.08400 38.01100
C  25.04400 60.75600 38.40000
C  25.58600 57.34500 37.48000
O  24.39400 57.17000 37.30700
C  26.55400 56.16100 37.31500
C  26.07400 54.91400 38.07700
O  26.24300 54.69400 39.28000
O  25.25000 54.14400 37.24100
C  24.49100 53.07700 37.96100
H  33.35800 55.48300 37.79600
H  33.73600 61.83200 39.18700
H  27.43500 62.26100 38.99500
H  28.79300 54.05100 37.38200
H  31.64500 54.55700 36.15200
H  31.70400 53.63700 38.84500
H  32.18700 52.72900 37.36100
H  30.65400 52.58000 37.87000
H  27.92700 54.37400 35.32200
H  29.56400 53.66800 35.04100
H  30.23200 55.36600 33.81300
H  29.61200 56.59900 34.80700
H  36.41600 56.63500 39.14700
H  36.20800 56.66400 37.28500
H  35.29100 55.63900 38.32500
H  37.08600 61.25700 40.15700
H  35.42000 61.24600 40.67200
H  35.80200 61.79500 38.97900
H  32.07600 63.69800 38.93300
H  29.42300 63.68100 40.08000
H  32.76800 64.12400 40.94100
H  32.25500 62.59300 41.56100
H  31.20500 63.95100 41.72700
H  28.60900 63.97500 37.81100
H  30.20000 63.63900 37.06900
H  30.26300 66.02400 38.73200
H  28.87500 66.09500 37.55800
H  30.53200 65.86300 37.01800
H  24.16900 60.10600 38.41900
H  24.91900 61.42100 37.54500
H  25.10500 61.38100 39.29100
H  26.61400 56.02700 36.23400
H  24.03000 53.32200 38.91700
H  25.13500 52.21900 38.15300
H  23.69000 52.83600 37.26200

