158

Mg 1.50300 -1.70000 43.47600
C  4.99000 -0.92600 43.30000
C  0.92000 1.39000 41.97800
C  -1.56800 -2.76000 42.80400
C  2.31900 -4.80800 44.74800
N  2.87300 0.11900 42.69200
C  4.26000 0.14400 42.69000
C  4.80400 1.31000 41.89300
C  3.44500 2.15000 41.63800
C  2.32200 1.24200 42.20000
C  3.41500 3.57500 42.23700
C  5.58400 0.87900 40.63100
C  6.72000 1.88200 40.30300
H  6.42100 2.74500 39.01800
N  -0.09400 -0.77400 42.52000
C  -0.19500 0.48900 42.08800
C  -1.53000 0.65100 41.61600
C  -2.23900 -0.54700 41.84100
C  -1.27600 -1.46200 42.40700
C  -2.10800 2.03700 41.20100
C  -3.68900 -0.75400 41.53300
O  -4.31900 0.24800 41.17700
C  -4.42500 -2.13800 41.67300
N  0.51000 -3.56800 43.80700
C  -0.80800 -3.72000 43.47600
C  -1.42100 -5.01300 44.03500
C  -0.12400 -5.69100 44.58700
C  0.95700 -4.66900 44.39100
C  -2.47300 -4.79400 45.15000
C  0.22800 -7.09600 44.03500
C  0.27100 -8.29400 45.07300
N  3.26300 -2.70200 43.91300
C  3.43300 -3.97200 44.43500
C  4.84600 -4.26600 44.60600
C  5.39700 -3.08200 44.21400
C  4.47900 -2.16500 43.73000
C  5.35700 -5.50100 45.29700
C  6.71900 -2.39600 44.23900
O  7.73400 -2.73700 44.78800
C  6.48000 -1.01400 43.50800
C  6.98900 0.18100 44.18400
O  6.84900 0.49400 45.35900
O  7.78900 0.97500 43.35200
C  8.33200 2.20200 43.95300
H  0.59800 2.27100 41.41900
H  -2.61700 -3.04200 42.91200
H  2.55600 -5.82700 45.06100
H  5.37800 1.95000 42.56300
H  3.29200 2.20100 40.56000
H  4.42400 3.96700 42.36400
H  2.83900 3.45300 43.15400
H  2.85200 4.27100 41.61600
H  4.87800 0.80100 39.80300
H  5.89200 -0.15300 40.79600
H  7.59400 1.23900 40.20000
H  6.87600 2.50600 41.18200
H  -2.87300 1.93900 40.43100
H  -1.42600 2.85400 40.96700
H  -2.56000 2.37500 42.13300
H  -3.81800 -2.92100 41.21900
H  -5.38000 -2.08300 41.15200
H  -4.55900 -2.30400 42.74200
H  -1.91300 -5.51300 43.20100
H  -0.25000 -5.86800 45.65500
H  -3.49700 -4.79600 44.77500
H  -2.27800 -3.79900 45.54900
H  -2.33400 -5.46800 45.99500
H  1.18100 -7.03600 43.51100
H  -0.53200 -7.43200 43.33000
H  0.69500 -7.90200 45.99800
H  1.03300 -8.91100 44.59700
H  -0.72700 -8.73100 45.11600
H  6.38400 -5.25700 45.56800
H  5.29200 -6.32200 44.58400
H  4.78700 -5.76800 46.18700
H  7.00600 -1.15200 42.56400
H  8.85100 1.94400 44.87600
H  7.51400 2.86200 44.24100
H  9.07900 2.66200 43.30800
Mg 6.61800 53.26000 41.21900
C  5.81800 49.75200 40.69300
C  9.57300 52.66800 39.72900
C  6.97800 56.68600 41.13200
C  3.36200 53.65700 42.38000
N  7.42600 51.48400 40.01900
C  7.04100 50.16200 40.09000
C  8.16000 49.19100 39.50800
C  9.37200 50.18300 39.37900
C  8.71700 51.53400 39.61200
C  10.44100 49.77500 40.38600
C  7.73100 48.56400 38.09700
C  6.85600 49.42200 37.14600
H  6.48900 48.73000 35.78400
N  8.08700 54.53600 40.52100
C  9.29400 54.03600 39.96200
C  10.10900 55.21100 39.76600
C  9.34600 56.41800 40.04200
C  8.02400 55.96000 40.53500
C  11.49800 55.15400 39.21900
C  9.86100 57.82900 40.00200
O  10.97700 58.03500 39.57700
C  9.09800 59.03400 40.41100
N  5.35300 54.92500 41.56900
C  5.68700 56.23300 41.55800
C  4.58000 57.19000 41.99300
C  3.46100 56.22500 42.39000
C  4.07700 54.83200 42.07900
C  5.05100 58.15800 43.09600
C  2.12100 56.38400 41.59900
C  0.82900 56.44800 42.41800
N  4.87500 51.94400 41.59200
C  3.66300 52.28200 42.17200
C  2.88000 51.08000 42.32300
C  3.72800 49.99800 41.81100
C  4.87100 50.63100 41.32600
C  1.44900 50.86600 42.72300
C  3.83400 48.51200 41.65500
O  3.06300 47.57200 41.94400
C  5.19500 48.29600 40.90200
C  5.03700 47.62100 39.61800
O  4.24900 47.94300 38.77900
O  5.67800 46.31100 39.65200
C  5.28600 45.31500 38.64900
H  10.57900 52.54000 39.32400
H  6.96700 57.76400 40.95800
H  2.35800 53.83700 42.76800
H  8.20700 48.34300 40.19100
H  9.86300 50.09800 38.40900
H  10.23400 48.97800 41.10000
H  10.77600 50.65700 40.93200
H  11.29800 49.47200 39.78300
H  7.27300 47.58800 38.25800
H  8.53800 48.46900 37.37000
H  7.45100 50.30900 36.93000
H  5.92500 49.64700 37.66500
H  11.90000 54.14100 39.22700
H  12.18300 55.70700 39.86200
H  11.57600 55.54200 38.20400
H  9.76400 59.89700 40.42500
H  8.85100 58.82300 41.45200
H  8.28600 59.22000 39.70900
H  4.39500 57.75100 41.07700
H  3.27800 56.34700 43.45800
H  5.21400 59.09700 42.56700
H  5.97000 57.69500 43.45700
H  4.34000 58.33100 43.90400
H  2.01700 55.61600 40.83200
H  2.18300 57.31200 41.03000
H  0.05900 55.83800 41.94600
H  0.33700 57.41900 42.37400
H  0.98600 55.98500 43.39200
H  1.31100 51.49500 43.60200
H  1.23000 49.83700 43.00900
H  0.75500 51.23400 41.96700
H  5.76000 47.64900 41.57300
H  5.65400 45.72700 37.70900
H  4.20400 45.21900 38.74300
H  5.88800 44.42500 38.83100

