158

Mg 34.95200 2.86400 30.11000
C  32.89200 3.89000 32.47000
C  37.49100 2.72500 32.24500
C  36.88500 2.04900 27.44600
C  32.36000 3.51100 27.64700
N  35.21000 3.34400 32.12200
C  34.18300 3.62800 32.96500
C  34.65800 3.71300 34.41200
C  36.19500 3.48100 34.32200
C  36.36400 3.23800 32.80800
C  37.10100 4.70700 34.70100
C  33.89600 2.79400 35.47400
C  33.22000 3.67200 36.64400
H  33.97700 4.78900 37.14700
N  36.91000 2.41900 29.92300
C  37.82300 2.33100 30.93300
C  39.14700 2.07800 30.33500
C  38.85500 1.80700 28.95500
C  37.46300 2.09400 28.71900
C  40.39700 2.00300 31.12800
C  39.94700 1.37200 27.93200
O  39.69000 1.19600 26.74400
C  41.39800 1.08500 28.37200
N  34.69900 2.88800 27.77700
C  35.58000 2.32600 26.95700
C  35.13100 2.27300 25.49300
C  33.66700 2.69700 25.62700
C  33.53400 3.07800 27.11800
C  36.08300 3.13000 24.64400
C  32.48600 1.83400 25.13500
C  32.35900 0.47900 25.86300
N  33.04300 3.58600 30.01800
C  32.07000 3.76600 29.02600
C  30.81300 3.95400 29.63900
C  31.03200 4.08900 30.97400
C  32.45800 3.83100 31.15400
C  29.55300 4.04700 28.87300
C  30.40300 4.40400 32.26900
O  29.24400 4.58600 32.54400
C  31.59700 4.36500 33.23800
C  31.63700 5.70200 33.85500
O  32.29800 6.61700 33.47400
O  30.79700 5.87300 34.93400
C  30.94700 7.07500 35.80700
H  38.28500 2.72400 32.99500
H  37.51300 1.77100 26.59800
H  31.56900 3.68900 26.91500
H  34.46500 4.74200 34.71900
H  36.48600 2.58200 34.86500
H  37.53700 4.46900 35.67100
H  36.48200 5.58400 34.88800
H  37.81300 4.81400 33.88300
H  34.54100 2.11300 36.03000
H  33.06700 2.23500 35.04200
H  32.99700 2.95000 37.42900
H  32.28700 4.01500 36.19700
H  41.23900 2.34600 30.52600
H  40.60200 0.95300 31.33500
H  40.36200 2.58900 32.04700
H  42.00700 1.95100 28.63300
H  41.88000 0.74500 27.45600
H  41.40800 0.28400 29.11100
H  35.19300 1.24300 25.14100
H  33.50300 3.57000 24.99600
H  37.01200 3.51500 25.06600
H  35.53100 3.98400 24.25100
H  36.37500 2.42700 23.86400
H  32.63500 1.61700 24.07700
H  31.54800 2.39000 25.15300
H  31.32500 0.14000 25.79600
H  32.69800 0.46300 26.89900
H  32.91300 -0.24000 25.25900
H  29.60900 4.85800 28.14700
H  28.68600 4.21600 29.51100
H  29.51700 3.06100 28.40900
H  31.40600 3.62300 34.01300
H  30.79800 6.74700 36.83600
H  30.27000 7.89100 35.55300
H  31.94700 7.50700 35.81100
Mg -12.03000 15.88000 42.70500
C  -8.84000 14.56000 41.76900
C  -11.08000 18.89300 41.49800
C  -15.35700 16.75800 42.75300
C  -12.97900 12.45200 43.53700
N  -10.19700 16.57900 41.78600
C  -8.94700 15.93600 41.72600
C  -7.77900 16.94200 41.39000
C  -8.55000 18.33700 41.62200
C  -10.03100 17.94500 41.49900
C  -8.26800 18.97800 43.01400
C  -7.16900 16.75300 39.98900
C  -5.65800 16.72800 39.71500
H  -5.33800 15.51800 38.76200
N  -13.07100 17.58900 42.23700
C  -12.44800 18.70900 41.68500
C  -13.41100 19.64300 41.36400
C  -14.73700 19.06800 41.69500
C  -14.43500 17.77300 42.25400
C  -13.15200 20.94900 40.72700
C  -16.13000 19.68500 41.53900
O  -16.20100 20.86200 41.13900
C  -17.36400 18.92800 41.84100
N  -13.83600 14.85500 43.35500
C  -15.10400 15.46800 43.23900
C  -16.17500 14.54200 43.67400
C  -15.43400 13.16000 43.91100
C  -13.96700 13.49300 43.62500
C  -17.19400 15.08000 44.77100
C  -16.04800 11.92500 43.20000
C  -15.65300 11.76500 41.74900
N  -11.13800 13.92000 42.74600
C  -11.69100 12.67200 43.06500
C  -10.69800 11.67900 42.94000
C  -9.54300 12.35000 42.46100
C  -9.89600 13.67900 42.27000
C  -10.92900 10.23900 43.33500
C  -8.14100 12.23400 42.10600
O  -7.40300 11.32300 42.12300
C  -7.65200 13.62400 41.65200
C  -6.56300 13.87000 42.56500
O  -6.66700 13.90500 43.79600
O  -5.33000 13.99800 41.92000
C  -4.16300 14.14900 42.85300
H  -10.85600 19.96100 41.45100
H  -16.37300 17.11200 42.94200
H  -13.29800 11.45600 43.85200
H  -7.05000 16.80700 42.18900
H  -8.22100 19.01100 40.83100
H  -7.29900 18.71100 43.43700
H  -9.02300 18.84700 43.78900
H  -8.21000 20.06100 42.91000
H  -7.58600 17.39600 39.21300
H  -7.48500 15.73600 39.75800
H  -5.08300 16.58600 40.63000
H  -5.33600 17.63400 39.20100
H  -13.93200 21.17800 40.00100
H  -12.29200 21.01800 40.06100
H  -13.17000 21.84800 41.34200
H  -17.32200 18.03800 41.21300
H  -18.07800 19.68900 41.52400
H  -17.41300 18.84700 42.92700
H  -16.73700 14.32500 42.76600
H  -15.40200 12.94400 44.97900
H  -18.16700 14.66500 44.50800
H  -17.35300 16.15300 44.87300
H  -16.98000 14.73100 45.78200
H  -17.11500 11.88800 43.42200
H  -15.59500 11.07400 43.70900
H  -15.22100 12.73300 41.49300
H  -16.46800 11.47400 41.08600
H  -14.83800 11.04900 41.65100
H  -10.06400 9.58100 43.25400
H  -11.77300 9.82900 42.78000
H  -11.28700 10.16000 44.36200
H  -7.28800 13.57500 40.62600
H  -4.36100 13.47100 43.68300
H  -4.13100 15.18200 43.19900
H  -3.25600 13.92900 42.28900

