158

Mg -2.88100 16.54200 27.75000
C  -3.49700 14.35300 30.43100
C  -3.57700 19.12400 29.98100
C  -2.95700 18.66400 25.25600
C  -3.23600 13.82600 25.61700
N  -3.43800 16.68300 29.94800
C  -3.52800 15.66600 30.83400
C  -3.78900 16.15100 32.22800
C  -4.02000 17.69200 32.03300
C  -3.72200 17.82300 30.55300
C  -5.34600 18.30000 32.50200
C  -2.69700 15.97300 33.25200
C  -3.23500 15.78200 34.76000
H  -2.18700 16.04600 35.81600
N  -2.96100 18.64900 27.63500
C  -3.20300 19.52700 28.66300
C  -3.15200 20.83000 28.08900
C  -2.95600 20.74900 26.75200
C  -2.88900 19.30500 26.46700
C  -3.36600 22.12700 28.85400
C  -2.75900 21.89000 25.67000
O  -2.73100 21.72400 24.43100
C  -2.66000 23.33600 26.16600
N  -3.14600 16.32300 25.81100
C  -3.20300 17.33300 24.88000
C  -3.24700 16.96100 23.39600
C  -3.29500 15.37700 23.60500
C  -3.17600 15.10900 25.14000
C  -4.43800 17.44800 22.56300
C  -2.13600 14.75400 22.77600
C  -0.76000 14.59600 23.44800
N  -3.24400 14.49000 27.86900
C  -3.29000 13.48500 26.98600
C  -3.58200 12.22300 27.60400
C  -3.61800 12.45200 28.98100
C  -3.49400 13.86800 29.13400
C  -3.74100 10.93500 26.90600
C  -3.77100 11.84800 30.28300
O  -3.89800 10.69500 30.69900
C  -3.64100 13.12000 31.20800
C  -2.52500 12.75100 32.05200
O  -1.33000 12.89800 31.76200
O  -2.95800 12.24700 33.24800
C  -1.97200 11.87000 34.23100
H  -3.60000 20.00400 30.62700
H  -3.08600 19.32800 24.39800
H  -3.29000 12.98700 24.92100
H  -4.76500 15.75200 32.50400
H  -3.27400 18.32000 32.52000
H  -6.22400 17.65800 32.58600
H  -5.50600 19.16000 31.85200
H  -5.14200 18.74400 33.47700
H  -1.93300 16.74900 33.18700
H  -2.10800 15.07800 33.05300
H  -3.66700 14.78200 34.81700
H  -4.06900 16.45800 34.94800
H  -4.15300 22.75300 28.43500
H  -2.44600 22.71200 28.87000
H  -3.60900 21.83400 29.87600
H  -3.55400 23.66400 26.69500
H  -2.52800 23.93000 25.26100
H  -1.76800 23.38300 26.79000
H  -2.26100 17.21200 23.00500
H  -4.26100 15.00100 23.26900
H  -5.21900 16.70600 22.39800
H  -4.21800 17.86200 21.57900
H  -4.97200 18.18500 23.16300
H  -1.96200 15.39200 21.91000
H  -2.47700 13.77100 22.45000
H  -0.79000 14.55600 24.53700
H  -0.26900 15.51200 23.12300
H  -0.26800 13.77000 22.93400
H  -2.76400 10.50500 26.68400
H  -4.30000 11.04800 25.97700
H  -4.32600 10.25300 27.52300
H  -4.57900 13.23400 31.75100
H  -1.14600 11.28200 33.83100
H  -2.51100 11.28200 34.97400
H  -1.62700 12.79800 34.68800
Mg -0.55400 6.98800 26.95400
C  0.09100 9.11700 29.63500
C  -1.06400 4.44700 29.19500
C  -1.31700 5.08300 24.29800
C  -0.21300 9.74400 24.78400
N  -0.48700 6.76500 29.24500
C  -0.18000 7.83000 30.11100
C  -0.11300 7.27400 31.52100
C  -0.27000 5.70400 31.37300
C  -0.67600 5.63300 29.88300
C  1.14000 4.97700 31.55500
C  -1.19300 7.90400 32.46700
C  -0.90500 7.82000 33.99000
H  0.40600 7.08700 34.50000
N  -1.07100 5.07500 26.76300
C  -1.24700 4.17300 27.77600
C  -1.67700 2.93200 27.17800
C  -1.68000 3.04000 25.78100
C  -1.36500 4.39700 25.53900
C  -2.14700 1.76400 28.08200
C  -2.01500 2.03300 24.69900
O  -2.13700 2.33700 23.51300
C  -2.44200 0.58400 25.09500
N  -0.89300 7.40400 24.81000
C  -1.13800 6.41400 23.96700
C  -1.20500 7.00300 22.52100
C  -1.39400 8.58400 22.75600
C  -0.74100 8.59000 24.17900
C  0.07800 6.71300 21.67600
C  -2.86300 9.15700 22.73000
C  -2.93800 10.34800 21.82200
N  0.00200 8.90300 27.13900
C  0.21700 9.87600 26.17100
C  0.56300 11.15100 26.78600
C  0.58400 10.88200 28.15500
C  0.24500 9.49900 28.28600
C  0.67000 12.56300 26.16100
C  0.76400 11.47800 29.38700
O  1.03300 12.61600 29.65100
C  0.32100 10.35600 30.43600
C  1.48900 10.20400 31.33600
O  2.53100 9.65300 31.11000
O  1.11500 10.74100 32.56300
C  2.15200 10.81100 33.60300
H  -0.95900 3.53200 29.78100
H  -1.26900 4.46600 23.39900
H  -0.20200 10.62100 24.13200
H  0.89100 7.56000 31.83500
H  -0.93800 5.19900 32.07000
H  1.86500 5.73400 31.25400
H  1.13200 4.26400 30.73100
H  1.29000 4.38000 32.45400
H  -2.16000 7.42800 32.30800
H  -1.33800 8.94400 32.17400
H  -1.76700 7.33700 34.45100
H  -0.89500 8.85600 34.32600
H  -1.36200 1.04200 28.30900
H  -2.92000 1.15800 27.60900
H  -2.56800 2.10800 29.02700
H  -1.66300 0.05400 25.64300
H  -2.59800 -0.00900 24.19400
H  -3.41600 0.65400 25.57900
H  -2.11400 6.71200 21.99400
H  -0.76900 9.26000 22.17200
H  0.59100 7.67300 21.74100
H  -0.28300 6.46300 20.67800
H  0.64600 5.88400 22.09900
H  -2.90200 9.64300 23.70500
H  -3.59900 8.35600 22.65500
H  -2.16800 10.43900 21.05600
H  -3.02400 11.23200 22.45400
H  -3.86000 10.19600 21.26100
H  0.27500 13.22900 26.92800
H  0.09000 12.60700 25.24000
H  1.72700 12.76200 25.98300
H  -0.54800 10.68100 31.00800
H  2.74200 11.69300 33.35500
H  2.68400 9.87200 33.75600
H  1.53400 11.06200 34.46500

