158

Mg 54.41100 23.93100 45.23400
C  52.26700 26.63800 44.13300
C  52.23100 21.68800 43.81300
C  56.88800 21.68500 45.33100
C  56.66000 26.42700 46.23800
N  52.49700 24.21200 44.05600
C  51.77400 25.36600 43.77300
C  50.45400 24.96800 43.09700
C  50.33000 23.42500 43.44100
C  51.78900 23.07900 43.80200
C  49.39100 23.15900 44.70600
C  50.28200 25.28400 41.60600
C  48.87500 25.38300 41.07900
H  48.46800 24.40300 39.98500
N  54.49800 21.86700 44.84100
C  53.44700 21.12800 44.23500
C  53.95500 19.81900 44.16400
C  55.24600 19.76700 44.76600
C  55.60600 21.12500 44.96600
C  53.10200 18.64300 43.70400
C  56.12200 18.57700 44.98700
O  55.80800 17.45400 44.58200
C  57.45500 18.53800 45.80500
N  56.59000 24.04300 45.63400
C  57.34500 22.96100 45.62900
C  58.77700 23.28600 46.00700
C  58.71200 24.85600 46.37700
C  57.23000 25.13800 46.08400
C  59.40400 22.29800 47.02800
C  59.81700 25.63100 45.51800
C  61.17900 25.47700 46.23000
N  54.40800 26.04900 45.42000
C  55.42600 26.91200 45.82900
C  55.04900 28.28800 45.78900
C  53.79000 28.20900 45.08800
C  53.46500 26.82300 44.89800
C  55.91000 29.45100 46.31100
C  52.70900 28.97200 44.53300
O  52.56500 30.20200 44.45500
C  51.68900 27.98900 43.90100
C  51.64300 28.16500 42.43100
O  52.55300 27.87700 41.61200
O  50.46100 28.80000 42.12200
C  50.08800 28.86700 40.68800
H  51.51500 21.07300 43.26400
H  57.77300 21.04500 45.34600
H  57.31700 27.25300 46.52200
H  49.73100 25.51900 43.69800
H  49.98300 22.84700 42.58400
H  49.81700 22.46500 45.43100
H  48.46500 22.62400 44.49700
H  49.09000 24.10900 45.14800
H  50.67200 24.44200 41.03500
H  50.84500 26.14900 41.25600
H  48.70300 26.37300 40.65600
H  48.17100 25.30000 41.90700
H  52.56300 18.97000 42.81500
H  52.54300 18.31600 44.58100
H  53.82200 17.87800 43.41600
H  58.25800 19.00600 45.23600
H  57.67000 17.54500 46.20000
H  57.28200 19.13600 46.70000
H  59.34300 23.08200 45.09800
H  58.95400 25.03900 47.42300
H  59.64300 22.90300 47.90300
H  60.20700 21.74500 46.54100
H  58.71500 21.47900 47.23700
H  59.58800 26.69700 45.52000
H  59.74600 25.21300 44.51400
H  61.57900 26.45700 46.49200
H  61.98000 25.00000 45.66600
H  61.06700 24.91100 47.15500
H  56.45700 29.13000 47.19700
H  55.17700 30.17300 46.67100
H  56.55900 29.81900 45.51600
H  50.70400 28.13500 44.34400
H  49.96800 29.93700 40.51700
H  49.18400 28.33600 40.38900
H  50.88400 28.49100 40.04600
Mg 31.01700 58.67200 38.97800
C  28.20000 56.76900 38.15700
C  33.10000 56.05400 38.44900
C  33.65300 60.72300 39.35100
C  28.90700 61.46500 39.03600
N  30.64700 56.65500 38.16400
C  29.39500 56.08500 38.07500
C  29.60500 54.54200 37.72000
C  31.19400 54.36600 37.82700
C  31.70800 55.76400 38.20500
C  31.66300 53.10100 38.70700
C  29.02900 54.04000 36.35400
C  29.45300 54.71800 35.04600
H  28.33300 55.33900 34.14900
N  33.06200 58.43300 39.00700
C  33.77100 57.29700 38.76900
C  35.21400 57.56200 38.92300
C  35.35700 58.93200 39.23000
C  33.97100 59.44600 39.15000
C  36.22500 56.48700 38.66100
C  36.68900 59.53500 39.59600
O  37.72400 58.82000 39.56000
C  36.91200 61.06200 39.90800
N  31.32000 60.84400 39.01400
C  32.45600 61.40400 39.25100
C  32.37400 62.94300 39.23100
C  30.89800 63.13600 39.60800
C  30.29200 61.73000 39.29900
C  33.32900 63.72000 40.14000
C  30.21200 64.33100 38.81700
C  29.11300 65.09500 39.45000
N  28.98300 59.12900 38.67300
C  28.26500 60.27600 38.78200
C  26.81900 60.05300 38.52500
C  26.74500 58.65200 38.30200
C  28.13500 58.15000 38.34700
C  25.69600 61.08500 38.62500
C  25.82000 57.56400 38.13700
O  24.59900 57.53600 38.09800
C  26.74500 56.24000 38.00000
C  26.35600 55.19800 39.08900
O  26.90800 55.09500 40.18600
O  25.34700 54.40200 38.60300
C  24.73800 53.33100 39.39900
H  33.75900 55.19800 38.28800
H  34.48000 61.38900 39.09400
H  28.30600 62.37100 39.13200
H  29.22900 54.02500 38.60300
H  31.55400 54.09300 36.83500
H  32.35900 52.43800 38.19300
H  30.89000 52.46300 39.13600
H  32.17200 53.44700 39.60700
H  27.98800 54.35800 36.40900
H  29.03600 52.95100 36.31500
H  29.93500 53.99800 34.38500
H  30.22200 55.45000 35.29200
H  37.11600 56.87200 38.16500
H  35.81100 55.71300 38.01500
H  36.53700 55.98800 39.57900
H  36.11100 61.36700 40.58000
H  36.90700 61.59700 38.95800
H  37.90800 61.03900 40.35100
H  32.65700 63.10100 38.19000
H  30.81000 63.24200 40.68900
H  34.37400 63.56800 39.86900
H  33.08600 63.50000 41.18000
H  33.13000 64.77900 39.97700
H  29.89900 64.00300 37.82600
H  31.00000 65.04400 38.57100
H  29.13000 65.15200 40.53900
H  28.19600 64.59700 39.13400
H  29.50300 66.07000 39.15900
H  25.05700 61.11000 37.74300
H  26.19800 62.03500 38.81000
H  25.03500 60.81800 39.44900
H  26.58600 55.73200 37.04900
H  24.90000 52.30200 39.07700
H  23.68400 53.49500 39.62100
H  25.19400 53.39200 40.38800

