158

Mg 46.66500 24.36900 28.33200
C  47.56300 26.75700 30.90300
C  46.08800 22.19100 30.87200
C  46.48900 22.10400 26.13800
C  47.82400 26.72700 26.02000
N  46.58900 24.57700 30.67600
C  46.99300 25.60300 31.47800
C  46.78100 25.23800 32.94500
C  46.38900 23.78400 32.94100
C  46.35000 23.48500 31.39800
C  47.32000 22.89200 33.70900
C  45.86700 26.17900 33.76600
C  46.52500 26.77900 35.09600
H  45.54300 27.19300 36.12800
N  46.17300 22.44100 28.40300
C  45.99300 21.73800 29.53900
C  45.48700 20.41100 29.17200
C  45.69300 20.30800 27.76600
C  46.09100 21.63100 27.35700
C  44.98600 19.34100 30.14000
C  45.37100 19.19600 26.81900
O  45.20400 19.32500 25.59900
C  45.03500 17.81500 27.47200
N  47.14300 24.38100 26.31500
C  46.75800 23.31200 25.58900
C  47.01200 23.54800 24.11300
C  47.14000 25.09700 24.07800
C  47.42400 25.48300 25.60600
C  48.30900 22.94000 23.50100
C  45.97000 25.92800 23.52600
C  44.76700 26.23100 24.40300
N  47.50000 26.35400 28.36500
C  47.91300 27.15400 27.37000
C  48.56300 28.32400 27.82700
C  48.39900 28.25500 29.21500
C  47.78600 26.99000 29.50400
C  49.17900 29.42500 26.97100
C  48.61300 28.91700 30.43900
O  49.06200 30.02700 30.62600
C  48.16300 27.97400 31.62100
C  49.29900 27.46400 32.46300
O  49.83700 26.37700 32.48000
O  49.72000 28.45000 33.33500
C  50.52600 28.08300 34.48200
H  45.87100 21.47700 31.66900
H  46.52100 21.31700 25.38100
H  48.01900 27.54000 25.31700
H  47.73600 25.26700 33.46900
H  45.34200 23.81300 33.24300
H  46.70600 22.06800 34.07200
H  47.75100 23.39800 34.57200
H  48.11900 22.48000 33.09200
H  45.00100 25.57500 34.03600
H  45.47700 27.01800 33.19000
H  47.14300 27.62600 34.79800
H  47.23400 26.03600 35.46100
H  44.00900 19.00300 29.79500
H  44.64900 19.81500 31.06200
H  45.72400 18.55300 30.28800
H  45.91000 17.31000 27.88100
H  44.82900 17.10500 26.67100
H  44.14300 17.69700 28.08800
H  46.11000 23.33700 23.53900
H  47.92200 25.40100 23.38200
H  49.10100 23.61900 23.18700
H  48.04400 22.28100 22.67400
H  48.72200 22.26400 24.25000
H  45.65600 25.36900 22.64400
H  46.43400 26.86500 23.21800
H  44.83900 25.72200 25.36500
H  43.82000 25.81700 24.05700
H  44.79000 27.31800 24.47600
H  49.59600 28.96800 26.07300
H  49.95700 29.96100 27.51300
H  48.45400 30.14500 26.59100
H  47.42200 28.44500 32.26600
H  50.47400 28.88900 35.21500
H  51.51500 27.76400 34.15500
H  50.16700 27.18600 34.98600
Mg 35.41800 49.82100 25.36500
C  35.51600 48.00800 28.41400
C  33.90300 52.33400 27.11700
C  34.78300 51.39900 22.40600
C  36.14700 46.85300 23.71300
N  34.71600 50.07900 27.61300
C  35.03600 49.28400 28.66200
C  34.79000 50.03700 30.00200
C  34.16200 51.39900 29.51800
C  34.15700 51.27300 28.00100
C  32.65700 51.62400 29.90100
C  36.11100 50.28100 30.84300
C  36.06800 50.02200 32.35300
H  34.79400 49.68400 33.08300
N  34.56300 51.62100 24.81900
C  34.04900 52.52200 25.68900
C  33.79600 53.76300 25.02200
C  34.09300 53.58400 23.60400
C  34.47100 52.13200 23.52200
C  33.22500 54.95600 25.79700
C  33.94900 54.46400 22.42100
O  34.27100 54.14800 21.29100
C  33.42200 55.83600 22.58500
N  35.25100 49.17000 23.31200
C  35.15300 50.04200 22.25300
C  35.58800 49.34900 20.95100
C  36.05700 47.95000 21.42200
C  35.80000 47.98500 22.90900
C  34.54900 49.32900 19.78100
C  37.59200 47.63900 21.19600
C  37.93100 46.29000 20.40000
N  35.76600 47.89200 25.92500
C  36.02600 46.78900 25.11200
C  36.17000 45.62000 25.90500
C  36.00700 46.07000 27.16000
C  35.77800 47.46800 27.18600
C  36.52000 44.25700 25.42700
C  36.11700 45.62200 28.49100
O  36.46100 44.53700 28.96700
C  35.74600 46.84800 29.36800
C  34.61000 46.42000 30.17900
O  33.45100 46.64500 29.86300
O  34.97600 45.96300 31.38800
C  33.91200 45.71800 32.34900
H  33.51700 53.19300 27.67000
H  34.79100 51.97200 21.47600
H  36.45000 45.99900 23.10400
H  34.14200 49.46400 30.66500
H  34.75500 52.28300 29.75500
H  32.28600 50.87600 30.60100
H  32.00700 51.41200 29.05200
H  32.46500 52.62800 30.27900
H  36.55600 51.26400 30.68800
H  36.76300 49.51900 30.41500
H  36.62700 50.83300 32.82000
H  36.77900 49.19900 32.42600
H  32.32100 54.52400 26.22600
H  32.92700 55.89100 25.32300
H  33.87600 55.23500 26.62600
H  32.35300 55.88200 22.79500
H  33.65000 56.47300 21.73100
H  33.87200 56.33500 23.44300
H  36.48000 49.88100 20.62000
H  35.44100 47.15300 21.00600
H  33.59100 49.58000 20.23500
H  34.45200 48.32600 19.36600
H  34.61400 49.97400 18.90400
H  38.13800 47.49100 22.12700
H  38.09500 48.44500 20.66200
H  38.12100 45.53900 21.16600
H  38.69400 46.36400 19.62500
H  37.01500 46.10500 19.83900
H  35.56300 44.10900 24.92700
H  36.67800 43.56300 26.25100
H  37.40100 44.35900 24.79200
H  36.59700 47.06200 30.01400
H  33.56200 44.68900 32.26400
H  33.14100 46.48700 32.30200
H  34.33600 45.70700 33.35300

