158

Mg 34.71100 2.43300 29.61700
C  32.52700 3.42500 32.12600
C  37.27900 2.43300 31.80000
C  36.73400 1.46000 27.05500
C  32.11300 2.96800 27.31900
N  34.90600 2.92000 31.63300
C  33.85300 3.23200 32.51100
C  34.32600 3.13000 33.99100
C  35.90200 3.25300 33.79100
C  36.05400 2.81300 32.32200
C  36.46300 4.67700 34.07700
C  33.86700 1.84600 34.72400
C  33.13000 2.09200 36.09900
H  33.72000 3.09000 37.02900
N  36.71700 1.96000 29.47500
C  37.58600 1.95700 30.49000
C  38.85800 1.47600 29.98500
C  38.76100 1.23500 28.64200
C  37.35600 1.49400 28.30900
C  40.01700 1.28200 30.91100
C  39.80500 0.76700 27.66300
O  39.62400 0.68600 26.48200
C  41.18500 0.48700 28.13800
N  34.46300 2.17100 27.54300
C  35.44400 1.80100 26.69100
C  34.98500 1.75600 25.28600
C  33.42300 1.95700 25.44700
C  33.30900 2.43100 26.89800
C  35.58500 2.79600 24.29800
C  32.57000 0.65400 25.27200
C  31.43700 0.71800 24.17200
N  32.80600 3.11900 29.59000
C  31.82500 3.26500 28.67700
C  30.54500 3.71400 29.25500
C  30.79700 3.65800 30.62500
C  32.14600 3.34000 30.78000
C  29.24200 3.92900 28.47900
C  30.18100 3.72000 31.92200
O  29.04000 3.86800 32.34600
C  31.38900 3.66700 32.92400
C  31.51800 5.07700 33.45300
O  31.87400 6.09100 32.84800
O  31.02500 5.15700 34.76100
C  31.21600 6.45400 35.40200
H  38.12000 2.60100 32.47600
H  37.32000 1.07700 26.21700
H  31.28600 3.04500 26.61000
H  33.76800 3.99700 34.34300
H  36.49100 2.56000 34.39200
H  37.37800 4.68000 34.67000
H  35.70400 5.23700 34.62300
H  36.78900 5.27700 33.22800
H  34.74900 1.21800 34.84600
H  33.10400 1.27600 34.19300
H  33.25300 1.20500 36.72000
H  32.05300 2.08400 35.92900
H  40.48100 0.30400 30.78300
H  39.78400 1.37600 31.97100
H  40.78200 2.00900 30.63700
H  41.89800 0.38600 27.32100
H  41.17500 -0.33800 28.85000
H  41.40900 1.42400 28.64800
H  35.23000 0.74900 24.94900
H  33.09700 2.80500 24.84400
H  36.21100 2.21100 23.62400
H  36.13000 3.54100 24.87600
H  34.78500 3.28400 23.74100
H  32.01800 0.51300 26.20200
H  33.17300 -0.24000 25.11600
H  30.46800 0.38400 24.54500
H  31.77000 0.05000 23.37800
H  31.33300 1.73000 23.78100
H  29.55200 4.45300 27.57400
H  28.69700 4.74400 28.95500
H  28.69000 2.99800 28.35100
H  31.15800 2.97900 33.73800
H  30.85100 7.25400 34.75800
H  32.27300 6.49700 35.66400
H  30.65100 6.34700 36.32900
Mg 35.45600 49.71400 26.24100
C  35.81600 47.72700 29.05600
C  34.19100 52.23800 28.09400
C  35.34200 51.78700 23.46600
C  36.51400 47.09000 24.22300
N  34.97600 49.89400 28.35100
C  35.23000 48.99500 29.32900
C  34.86200 49.53500 30.65900
C  34.24100 50.90300 30.38700
C  34.44300 51.08200 28.81900
C  32.74000 51.17900 30.89000
C  36.20000 49.67800 31.37500
C  36.30300 49.22400 32.88500
H  35.16200 49.51800 33.85400
N  34.98700 51.77700 25.88200
C  34.46600 52.60000 26.80000
C  34.25300 53.92100 26.22300
C  34.49400 53.80100 24.79000
C  35.02900 52.44800 24.67400
C  33.72300 55.03500 27.10700
C  34.21700 54.82300 23.71500
O  34.22400 54.48100 22.55300
C  33.66300 56.18300 24.02900
N  35.89200 49.44900 24.14700
C  35.64900 50.41000 23.20300
C  36.08400 49.90900 21.78500
C  36.46600 48.38800 22.02300
C  36.27400 48.27900 23.57100
C  35.04300 49.98900 20.62600
C  37.84600 47.98600 21.41000
C  39.14000 48.34300 22.27900
N  35.93700 47.73200 26.54300
C  36.51400 46.86000 25.62000
C  36.93300 45.65300 26.39600
C  36.67300 45.94600 27.73400
C  36.09200 47.25700 27.78000
C  37.55900 44.50100 25.75700
C  36.83600 45.52600 29.12600
O  37.25700 44.49700 29.58700
C  36.14900 46.57400 30.03300
C  34.98900 45.97600 30.70600
O  33.89900 45.65600 30.21300
O  35.38200 45.75000 31.96900
C  34.35800 45.10300 32.83800
H  33.75200 53.02700 28.70700
H  35.29200 52.40500 22.56800
H  37.00300 46.33200 23.60800
H  34.23300 48.95000 31.32900
H  34.80700 51.72000 30.83500
H  32.17000 51.39000 29.98500
H  32.70900 52.06200 31.52800
H  32.25700 50.34100 31.39100
H  36.44200 50.74000 31.41400
H  37.06100 49.24700 30.86500
H  37.20100 49.73100 33.23700
H  36.40200 48.14500 33.00900
H  32.63900 55.10100 27.01900
H  34.09800 56.01300 26.80600
H  34.13000 54.92100 28.11200
H  34.29200 56.96800 24.44700
H  32.75000 56.01500 24.60100
H  33.29400 56.42100 23.03100
H  36.91500 50.47000 21.35800
H  35.70300 47.77400 21.54500
H  34.17500 50.51900 21.01800
H  34.85500 48.98600 20.24200
H  35.43900 50.64600 19.85100
H  37.94800 48.52900 20.47000
H  37.92000 46.90700 21.27500
H  39.92400 48.78300 21.66300
H  39.46300 47.35300 22.60200
H  38.77600 48.88100 23.15400
H  36.78100 43.82900 25.39300
H  38.04700 43.91200 26.53300
H  38.28200 44.79300 24.99600
H  36.82800 47.01600 30.76200
H  34.70200 44.79500 33.82600
H  34.06800 44.20100 32.29900
H  33.54600 45.79600 33.06100

