158

Mg -2.73900 16.61900 26.15400
C  -3.32000 14.45800 28.91600
C  -3.63800 19.22900 28.19900
C  -2.42600 18.64000 23.53000
C  -2.58600 13.78800 24.12300
N  -3.15200 16.85700 28.36600
C  -3.40700 15.79800 29.24000
C  -3.78900 16.39500 30.64700
C  -3.91000 17.94200 30.36400
C  -3.61400 18.03400 28.87400
C  -5.31400 18.55600 30.73500
C  -2.89900 16.06100 31.91500
C  -2.92600 16.88900 33.17600
H  -2.64500 16.22000 34.51000
N  -2.98600 18.66000 25.83600
C  -3.29700 19.57300 26.81200
C  -3.22100 20.92800 26.24700
C  -2.82200 20.74800 24.82200
C  -2.79700 19.31100 24.64300
C  -3.67300 22.19200 26.91900
C  -2.62300 21.70600 23.77000
O  -2.36800 21.38700 22.63400
C  -2.52400 23.17300 24.09400
N  -2.80200 16.32100 24.08400
C  -2.36900 17.26400 23.23800
C  -2.03200 16.73300 21.83500
C  -1.94800 15.15800 22.07800
C  -2.46300 15.07900 23.55400
C  -3.06100 17.22700 20.74500
C  -0.59400 14.46400 21.94700
C  -0.48200 13.01600 21.44200
N  -2.82900 14.54100 26.44300
C  -2.75000 13.56100 25.51200
C  -2.88500 12.30500 26.19300
C  -3.02600 12.55600 27.55100
C  -3.05900 13.96900 27.56700
C  -2.81200 10.94900 25.46700
C  -3.10200 11.99500 28.85800
O  -3.10700 10.85200 29.25700
C  -3.35100 13.20400 29.79200
C  -2.15800 13.15800 30.61200
O  -1.08400 13.59700 30.35300
O  -2.45800 12.53100 31.79000
C  -1.48700 12.63200 32.85800
H  -3.79400 20.19500 28.68300
H  -2.02500 19.17700 22.66800
H  -2.50600 12.89000 23.50700
H  -4.77000 16.03500 30.95800
H  -3.20100 18.64800 30.79900
H  -5.49400 18.71100 31.79800
H  -6.11200 17.89500 30.39600
H  -5.42900 19.47800 30.16500
H  -1.84600 15.99700 31.64200
H  -3.26900 15.09300 32.25400
H  -3.83800 17.47400 33.05800
H  -2.12800 17.62100 33.05400
H  -4.40100 22.66800 26.26200
H  -2.76500 22.78700 27.02000
H  -4.01100 22.09800 27.95100
H  -3.50600 23.54300 24.38600
H  -2.21600 23.67200 23.17500
H  -1.69200 23.30400 24.78600
H  -1.04700 17.10900 21.55900
H  -2.64400 14.58700 21.46300
H  -2.73600 16.68100 19.85900
H  -2.80700 18.28400 20.67100
H  -4.06500 17.08500 21.14400
H  -0.17700 14.35000 22.94700
H  0.21500 14.98200 21.43200
H  0.33900 12.48500 21.92300
H  -0.14200 13.08200 20.40800
H  -1.46100 12.54300 21.51600
H  -2.68100 10.17800 26.22700
H  -1.87400 10.99700 24.91300
H  -3.67400 10.64300 24.87500
H  -4.17000 13.12600 30.50700
H  -0.71400 11.86300 32.85900
H  -2.08100 12.57100 33.77000
H  -0.97200 13.59100 32.88900
Mg 9.72000 47.45200 27.23500
C  7.59100 46.73800 29.96000
C  12.32800 47.66200 29.47700
C  11.67000 48.19800 24.67500
C  6.87300 47.43900 25.21200
N  9.93000 47.03100 29.48500
C  8.93300 46.85700 30.35800
C  9.52100 46.92300 31.78700
C  11.00300 47.41000 31.63100
C  11.12700 47.32700 30.10400
C  11.26700 48.83400 32.24500
C  9.12200 45.80300 32.86000
C  10.18000 45.52200 34.02900
H  9.81300 44.89600 35.31900
N  11.73800 47.74400 27.06900
C  12.65800 47.75100 28.10200
C  14.01400 47.96300 27.57300
C  13.77800 48.20600 26.17500
C  12.39500 48.00400 25.93100
C  15.27800 48.05800 28.43600
C  14.77800 48.56500 25.14600
O  14.52500 48.75700 23.93200
C  16.30800 48.49900 25.40900
N  9.36700 47.89900 25.23800
C  10.31000 48.18900 24.33000
C  9.80200 48.25300 22.87300
C  8.29500 47.97100 23.08700
C  8.16500 47.80500 24.62300
C  10.09300 49.68400 22.30400
C  7.96000 46.62700 22.43900
C  7.28500 46.60500 21.05500
N  7.61200 47.29600 27.46500
C  6.60900 47.21300 26.56200
C  5.28900 47.06900 27.21400
C  5.58400 46.82400 28.58000
C  7.03800 47.03100 28.65700
C  3.89100 47.14200 26.62800
C  5.07400 46.64200 29.96000
O  3.93600 46.66900 30.43400
C  6.35400 46.55200 30.84800
C  6.35100 45.22700 31.44500
O  6.86100 44.20800 30.93200
O  5.59300 45.26600 32.63300
C  5.62600 43.97300 33.32100
H  13.20800 47.84100 30.09800
H  12.17500 48.42800 23.73500
H  6.01000 47.43300 24.54300
H  8.88100 47.74000 32.11900
H  11.75200 46.68200 31.94500
H  10.48200 49.06900 32.96400
H  11.16800 49.50200 31.38900
H  12.27900 48.97400 32.62800
H  8.89500 44.84100 32.40100
H  8.25900 46.11000 33.45000
H  10.64100 46.44400 34.38300
H  11.03200 44.91300 33.72700
H  15.88200 47.33600 27.88700
H  15.05400 47.78400 29.46700
H  15.79900 49.01500 28.41100
H  16.86400 48.73200 24.50100
H  16.52900 47.52900 25.85500
H  16.41600 49.34700 26.08600
H  10.33100 47.48100 22.31500
H  7.63000 48.72400 22.66600
H  9.44500 50.37900 22.83700
H  9.98400 49.74500 21.22100
H  11.13400 49.93600 22.50600
H  7.18400 46.12600 23.01800
H  8.81000 45.94600 22.42700
H  7.78000 45.87100 20.41800
H  7.18000 47.60200 20.62700
H  6.24400 46.30700 21.17500
H  3.81500 46.70900 25.63100
H  3.69200 48.20800 26.51800
H  3.05300 46.72100 27.18400
H  6.32200 47.34100 31.60000
H  4.83000 43.32800 32.95100
H  5.50300 44.16600 34.38700
H  6.55400 43.40700 33.24100

