158

Mg 47.51700 24.75700 29.10200
C  48.05100 27.20200 31.62500
C  46.56000 22.55200 31.52700
C  47.18100 22.32500 26.77200
C  48.92200 26.82700 26.78200
N  47.40000 24.90100 31.31600
C  47.59700 25.98000 32.10700
C  47.19500 25.71300 33.60700
C  46.83600 24.14500 33.52500
C  46.81600 23.84700 32.00900
C  47.83900 23.17800 34.34000
C  46.05800 26.65000 34.13200
C  46.28400 27.37800 35.47200
H  45.20700 27.24500 36.53800
N  46.81600 22.79300 29.10300
C  46.51100 22.08900 30.22400
C  46.20400 20.69200 29.88400
C  46.29400 20.64800 28.46400
C  46.79200 22.00400 28.06400
C  45.72300 19.51700 30.78300
C  46.00900 19.46500 27.52200
O  45.89500 19.55800 26.27800
C  45.76100 18.07900 28.03200
N  48.09100 24.57300 27.11300
C  47.82700 23.50800 26.32200
C  48.08800 23.76100 24.85800
C  48.32300 25.27600 24.87900
C  48.41200 25.61300 26.37300
C  49.31200 23.01000 24.30600
C  47.22200 26.05300 24.13000
C  45.80900 26.16500 24.75500
N  48.37000 26.67100 29.10500
C  48.93500 27.40200 28.10600
C  49.21100 28.76300 28.60200
C  48.88700 28.72200 29.92100
C  48.41600 27.41100 30.23200
C  49.84400 29.81500 27.77800
C  48.91800 29.45400 31.12700
O  49.29900 30.57300 31.29900
C  48.45300 28.47900 32.33800
C  49.62600 28.21900 33.24500
O  50.64400 27.71900 32.87700
O  49.30200 28.74700 34.42600
C  50.15400 28.20700 35.50400
H  46.33700 21.82500 32.31100
H  47.02800 21.61000 25.96100
H  49.38800 27.55500 26.11500
H  48.00800 25.91100 34.30400
H  45.81500 23.96700 33.86300
H  48.55000 22.64700 33.70700
H  47.38100 22.38200 34.92800
H  48.51100 23.77300 34.95900
H  45.19800 25.99400 34.26800
H  45.76600 27.38400 33.38200
H  46.46300 28.41600 35.18900
H  47.26000 27.14900 35.89900
H  46.40700 18.66900 30.80000
H  44.69300 19.27000 30.52300
H  45.83400 19.87300 31.80700
H  46.62200 17.86400 28.66500
H  45.82200 17.31800 27.25400
H  44.76000 18.04500 28.46400
H  47.20700 23.61100 24.23400
H  49.26400 25.51800 24.38300
H  50.18300 23.37100 24.85300
H  49.58700 23.14500 23.26000
H  49.08400 21.96100 24.49000
H  47.10700 25.66700 23.11700
H  47.69900 27.02900 24.03600
H  46.02400 27.06500 25.33200
H  45.54000 25.40100 25.48400
H  45.03400 26.35300 24.01200
H  49.49300 30.81300 28.04300
H  49.72300 29.63600 26.71000
H  50.90900 29.85200 28.00500
H  47.61900 28.95900 32.85000
H  51.10900 28.73300 35.48900
H  50.28500 27.13500 35.36100
H  49.61600 28.29900 36.44700
Mg -5.38600 24.84900 26.64300
C  -3.60500 26.28500 29.40200
C  -6.51100 22.60700 28.97600
C  -6.55200 23.37800 24.11700
C  -3.74700 27.24000 24.49300
N  -5.31900 24.74600 29.05600
C  -4.50000 25.34900 29.87600
C  -5.01100 25.15000 31.30900
C  -5.59900 23.66800 31.12700
C  -5.86200 23.65800 29.66700
C  -4.49700 22.59200 31.45400
C  -5.98100 26.23500 31.87300
C  -5.71400 26.75600 33.22300
H  -5.45000 25.69000 34.24400
N  -6.41400 23.25900 26.55100
C  -6.72200 22.37300 27.60000
C  -7.36400 21.21600 27.07000
C  -7.38300 21.38700 25.60200
C  -6.81400 22.70600 25.33100
C  -7.83600 20.14000 27.92700
C  -7.91000 20.44500 24.52100
O  -7.88600 20.70000 23.28800
C  -8.52100 19.22600 24.98000
N  -5.30800 25.35800 24.58400
C  -5.86900 24.55300 23.70600
C  -5.71600 24.95100 22.24700
C  -4.87500 26.28700 22.41500
C  -4.67800 26.37600 23.95900
C  -5.07800 23.79900 21.38100
C  -5.33300 27.51400 21.69000
C  -4.30100 28.33500 20.80100
N  -4.10200 26.45400 26.87600
C  -3.44700 27.26100 25.88700
C  -2.44900 28.16400 26.57400
C  -2.48100 27.75900 27.89600
C  -3.47200 26.74300 28.08900
C  -1.62400 29.39300 26.06600
C  -1.89200 28.03500 29.22200
O  -0.99600 28.80800 29.57300
C  -2.74100 27.21800 30.17700
C  -1.92500 26.50800 31.23500
O  -1.08100 25.62000 30.95200
O  -2.12600 26.99600 32.43600
C  -1.25900 26.60300 33.51900
H  -6.91200 21.97600 29.77200
H  -6.99600 22.98700 23.19800
H  -3.29800 28.00400 23.85500
H  -4.15000 25.03300 31.96600
H  -6.63400 23.51400 31.43300
H  -4.84600 21.64700 31.03800
H  -4.36300 22.41700 32.52100
H  -3.52900 22.90900 31.06500
H  -6.96600 25.77500 31.79600
H  -5.88900 27.05300 31.15900
H  -6.61400 27.26800 33.56200
H  -4.89900 27.47700 33.16100
H  -7.21500 20.09600 28.82100
H  -7.69900 19.18300 27.42400
H  -8.92200 20.22700 27.89300
H  -7.69000 18.60500 25.31300
H  -9.02200 18.81400 24.10400
H  -9.22800 19.38200 25.79500
H  -6.74100 25.09500 21.90500
H  -3.87000 26.12000 22.02600
H  -4.38700 24.13000 20.60500
H  -5.98200 23.39300 20.92700
H  -4.72200 23.04700 22.08500
H  -5.58300 28.22200 22.48000
H  -6.18500 27.16400 21.10800
H  -3.30600 27.91300 20.65600
H  -4.18600 29.31300 21.26800
H  -4.64700 28.60700 19.80500
H  -1.77100 30.31800 26.62400
H  -1.78800 29.57600 25.00400
H  -0.54900 29.22000 26.10700
H  -3.39500 27.90200 30.71700
H  -0.29400 26.20100 33.21000
H  -1.75900 25.87600 34.16000
H  -1.25500 27.57600 34.01100

