158

Mg -2.16900 17.06000 26.83300
C  -2.90500 14.87100 29.57700
C  -2.68200 19.66000 29.03000
C  -1.76800 19.09600 24.33200
C  -2.35700 14.26300 24.74000
N  -2.79300 17.21000 29.06200
C  -2.86000 16.21100 30.03500
C  -2.83200 16.81800 31.41500
C  -3.01200 18.37500 31.21800
C  -2.80500 18.42300 29.64300
C  -4.38100 19.06000 31.64800
C  -1.61800 16.28300 32.20500
C  -1.13800 17.08100 33.33200
H  -0.57600 16.30700 34.51000
N  -2.17500 19.04400 26.74300
C  -2.37700 19.96200 27.69500
C  -2.13600 21.35900 27.18800
C  -1.81800 21.19100 25.82500
C  -1.90700 19.77500 25.58500
C  -2.44000 22.55800 27.98100
C  -1.56500 22.20700 24.75300
O  -1.55400 22.02400 23.51200
C  -1.32400 23.59700 25.26500
N  -2.43700 16.74000 24.75100
C  -2.01300 17.77000 23.92100
C  -1.71700 17.26700 22.47800
C  -1.87800 15.74200 22.64300
C  -2.20500 15.55200 24.16900
C  -2.76300 17.87400 21.45700
C  -0.73500 14.85700 22.13400
C  -0.71200 14.87400 20.57500
N  -2.53900 15.00000 27.01600
C  -2.50500 13.95700 26.09200
C  -2.73400 12.68100 26.74500
C  -2.92700 13.03500 28.06000
C  -2.80700 14.44600 28.23400
C  -2.77400 11.39600 25.99100
C  -3.13000 12.41300 29.34200
O  -3.25600 11.27200 29.69300
C  -3.16400 13.59800 30.42300
C  -2.04100 13.29400 31.35300
O  -0.86900 13.59800 31.14700
O  -2.43200 12.60400 32.49900
C  -1.28900 12.25200 33.38100
H  -2.73500 20.47900 29.75000
H  -1.54400 19.71200 23.45800
H  -2.33500 13.41900 24.04800
H  -3.69800 16.34500 31.87800
H  -2.20400 18.86200 31.76500
H  -5.05500 18.20600 31.58100
H  -4.80400 19.79700 30.96500
H  -4.37400 19.54400 32.62500
H  -0.79000 16.12300 31.51400
H  -1.89700 15.34500 32.68600
H  -1.79200 17.84200 33.75700
H  -0.24500 17.60500 32.99000
H  -3.38800 22.46900 28.51100
H  -2.53400 23.54500 27.52900
H  -1.60300 22.57400 28.67900
H  -0.67000 23.88400 24.44200
H  -0.83100 23.65100 26.23600
H  -2.24200 24.17900 25.18400
H  -0.71300 17.54900 22.16200
H  -2.69500 15.28800 22.08200
H  -3.29300 18.76900 21.78500
H  -3.46200 17.06600 21.24500
H  -2.27100 18.12200 20.51700
H  -0.86600 13.85900 22.55100
H  0.24400 15.13000 22.53100
H  -0.95100 13.88300 20.19000
H  0.30100 14.99000 20.19100
H  -1.28700 15.59500 19.99400
H  -1.79900 11.35200 25.50600
H  -3.57300 11.28300 25.25900
H  -2.63400 10.69900 26.81800
H  -4.09200 13.77500 30.96500
H  -0.61900 13.11100 33.43900
H  -0.72500 11.44200 32.91900
H  -1.68300 12.01300 34.36900
Mg 30.71100 58.88700 39.94200
C  27.97400 56.80400 39.11100
C  32.74900 56.44500 38.86500
C  33.36400 61.01600 40.45900
C  28.56600 61.49300 40.45800
N  30.36000 56.86900 39.13300
C  29.16100 56.19300 38.80700
C  29.50800 54.74500 38.34100
C  31.02700 54.59400 38.59900
C  31.41600 56.09900 38.74500
C  31.37400 53.79000 39.87500
C  29.11300 54.47400 36.85400
C  27.87500 53.63500 36.51900
H  27.03200 54.12300 35.32100
N  32.76400 58.76400 39.66300
C  33.37500 57.66400 39.21700
C  34.81300 57.93600 39.08200
C  35.10800 59.17700 39.67200
C  33.66900 59.73100 40.02100
C  35.82700 56.94600 38.39100
C  36.50800 59.88400 39.78600
O  37.44800 59.36000 39.18700
C  36.63300 61.27000 40.51000
N  31.01000 61.04600 40.21900
C  32.18700 61.69700 40.52900
C  31.93000 63.12700 41.05300
C  30.32100 63.29400 40.92400
C  29.94400 61.83100 40.55300
C  32.55400 63.57500 42.41300
C  29.84500 64.28600 39.87900
C  29.60500 65.67500 40.45800
N  28.65500 59.10900 39.96900
C  27.95200 60.22000 40.26000
C  26.52900 59.96200 40.13100
C  26.49700 58.63900 39.66400
C  27.84200 58.11200 39.65700
C  25.46500 61.00300 40.23600
C  25.64300 57.54700 39.13200
O  24.37700 57.46900 38.92700
C  26.61900 56.40000 38.79100
C  25.97600 55.34000 39.65100
O  26.15700 55.22700 40.84000
O  25.22800 54.54400 38.84500
C  24.60300 53.30600 39.30800
H  33.33900 55.56700 38.59400
H  34.18200 61.64200 40.82300
H  27.83600 62.27200 40.69100
H  28.83400 54.09800 38.90300
H  31.60700 54.13100 37.80000
H  30.47100 53.18400 39.94600
H  31.40400 54.46200 40.73300
H  32.28800 53.25100 39.62300
H  29.92600 54.01400 36.29300
H  29.06000 55.42100 36.31800
H  27.28100 53.60000 37.43200
H  28.12600 52.66000 36.10200
H  36.35600 57.37000 37.53700
H  35.24700 56.05400 38.15500
H  36.58900 56.69600 39.13000
H  36.29900 61.06100 41.52600
H  35.97800 61.96300 39.98100
H  37.65000 61.65800 40.56200
H  32.48700 63.81700 40.41800
H  29.94900 63.36300 41.94600
H  32.49600 64.66300 42.43600
H  33.51100 63.15800 42.72800
H  31.85900 63.24200 43.18300
H  29.01200 63.95600 39.25800
H  30.63700 64.55500 39.18000
H  30.47200 66.33400 40.49600
H  29.29800 65.52600 41.49400
H  28.78800 66.16300 39.92700
H  24.70400 60.77600 39.48900
H  25.92900 61.97200 40.05000
H  25.10700 61.02100 41.26600
H  26.43300 56.21800 37.73300
H  23.52300 53.44100 39.26000
H  24.88800 53.03500 40.32400
H  24.77700 52.46800 38.63300

