158

Mg 52.88700 24.05700 45.57600
C  50.19100 26.12900 44.55600
C  51.17100 21.38500 44.24800
C  55.81600 22.31000 45.47900
C  54.45500 26.75100 46.91300
N  50.89700 23.83800 44.46300
C  49.91900 24.76100 44.21600
C  48.78200 24.20500 43.39600
C  48.94800 22.63100 43.65600
C  50.40600 22.61100 44.18700
C  48.12700 21.95400 44.81400
C  48.66300 24.67900 41.95500
C  49.85900 25.11000 41.14300
H  51.18500 24.40400 41.47200
N  53.47200 22.18300 44.86300
C  52.59700 21.20600 44.39400
C  53.35100 20.01400 44.09200
C  54.68500 20.28000 44.34500
C  54.74600 21.63800 44.94800
C  52.71500 18.83500 43.47600
C  55.74800 19.22300 44.17500
O  55.51000 18.11200 43.60100
C  57.11000 19.38700 44.68200
N  55.02100 24.64800 45.81600
C  55.87100 23.58800 46.08400
C  57.04400 24.01800 46.83400
C  56.67700 25.51700 47.25000
C  55.28700 25.65400 46.70200
C  57.56700 23.08700 47.89500
C  57.74500 26.54600 46.61600
C  58.49300 27.40600 47.72500
N  52.44800 26.04600 45.75700
C  53.17400 27.02600 46.36800
C  52.36600 28.18300 46.58600
C  51.20000 27.90700 45.80300
C  51.32700 26.56600 45.35100
C  52.75700 29.40200 47.45900
C  49.98700 28.43900 45.32700
O  49.51700 29.58100 45.39000
C  49.36800 27.35500 44.32900
C  49.29500 27.91000 42.95300
O  50.30800 28.32100 42.34000
O  48.01300 28.00700 42.51000
C  47.88300 28.60100 41.20400
H  50.65200 20.54900 43.77400
H  56.68300 21.66600 45.63600
H  54.95200 27.42100 47.61800
H  47.90100 24.57000 43.92300
H  48.70700 22.09600 42.73700
H  48.66500 21.37000 45.56200
H  47.25300 21.43500 44.41900
H  47.81700 22.79500 45.43400
H  47.83000 25.37800 41.88700
H  48.35800 23.78700 41.40800
H  49.89900 26.17600 41.36800
H  49.75800 25.01900 40.06200
H  53.31000 17.92600 43.38600
H  52.18300 19.10100 42.56300
H  51.92700 18.59900 44.19100
H  57.68200 18.51700 44.36000
H  56.96500 19.30900 45.76000
H  57.58300 20.34300 44.46100
H  57.92800 24.05500 46.19800
H  56.60900 25.65700 48.32900
H  57.13800 22.08500 47.88900
H  57.27700 23.52300 48.85100
H  58.64700 22.96700 47.81300
H  57.23400 27.24500 45.95500
H  58.55900 26.09200 46.05200
H  58.62100 28.45200 47.44400
H  59.46700 26.97900 47.96400
H  57.90500 27.36700 48.64200
H  51.87100 29.76200 47.98100
H  53.20200 30.17400 46.83200
H  53.55400 29.25600 48.18800
H  48.38200 27.27700 44.78800
H  47.06900 28.07500 40.70400
H  48.67700 28.42200 40.47900
H  47.45900 29.60600 41.20100
Mg 37.03700 50.14500 25.46400
C  37.07000 48.06600 28.27700
C  35.09700 52.37200 27.27200
C  36.39600 51.79800 22.61300
C  37.88600 47.35300 23.52200
N  36.26000 50.17700 27.50500
C  36.63800 49.33800 28.54000
C  36.34300 49.94400 29.88700
C  35.38600 51.18600 29.51200
C  35.56400 51.26600 28.01600
C  33.93400 51.15800 30.05200
C  37.67200 50.16000 30.65100
C  37.58700 49.75600 32.07600
H  36.20300 49.64500 32.74000
N  35.97300 51.91400 25.02400
C  35.26100 52.69300 25.87300
C  34.73600 53.84400 25.24100
C  35.11400 53.69600 23.84000
C  35.91300 52.39200 23.77100
C  33.84600 54.90500 25.94500
C  34.85800 54.62200 22.69900
O  35.07900 54.27200 21.55500
C  34.38900 56.04000 22.95900
N  37.39300 49.74000 23.37500
C  36.93800 50.52400 22.36100
C  37.19800 49.98300 20.99500
C  37.91600 48.63100 21.37300
C  37.64400 48.51800 22.86300
C  35.92400 49.88500 20.11100
C  39.36100 48.43300 20.81500
C  40.39600 49.55300 21.05500
N  37.57500 48.10500 25.79300
C  37.85400 47.05500 24.90500
C  38.11500 45.83600 25.65700
C  37.81200 46.19700 27.00400
C  37.51300 47.56900 27.02400
C  38.58300 44.53000 25.06100
C  37.67100 45.62400 28.32200
O  37.74900 44.45500 28.72700
C  37.27600 46.84800 29.21500
C  36.05400 46.40800 29.92800
O  34.96800 46.26100 29.46200
O  36.35400 46.06400 31.25200
C  35.27900 45.37000 32.06100
H  34.45700 53.10100 27.77400
H  36.36300 52.45200 21.73900
H  38.08300 46.59300 22.76300
H  35.58400 49.32500 30.36700
H  35.83400 52.10000 29.90100
H  33.83700 50.21400 30.58800
H  33.27900 51.25900 29.18600
H  33.87800 51.92700 30.82200
H  38.02700 51.18000 30.50300
H  38.49900 49.55900 30.27100
H  38.08600 50.53900 32.64700
H  38.10500 48.81500 32.25800
H  34.59800 55.60600 26.30800
H  33.32300 54.43400 26.77800
H  33.08500 55.31800 25.28300
H  34.74300 56.46300 23.89900
H  33.36700 56.21300 22.62200
H  34.93800 56.59800 22.20000
H  37.97200 50.58300 20.51600
H  37.33800 47.82800 20.91600
H  35.62400 50.89900 19.84700
H  35.14900 49.46600 20.75300
H  36.07400 49.33800 19.18000
H  39.13400 48.28700 19.75900
H  39.87900 47.58500 21.26300
H  40.68300 50.05600 20.13200
H  41.36000 49.14000 21.35100
H  40.05300 50.28000 21.79200
H  38.82500 44.74100 24.02000
H  37.94600 43.67700 25.29400
H  39.59700 44.25300 25.34900
H  38.01200 46.92500 30.01600
H  35.34500 45.60800 33.12300
H  35.56000 44.31900 31.98000
H  34.28600 45.52200 31.63900

