158

Mg 28.86900 59.54900 41.40000
C  25.73700 58.26100 40.46100
C  30.39400 56.83900 40.01000
C  31.79200 61.25200 41.56300
C  27.12700 62.61300 42.21100
N  28.16500 57.81500 40.32500
C  26.88200 57.40800 40.14900
C  26.78600 56.22000 39.23000
C  28.17300 55.58200 39.41600
C  28.99400 56.75900 39.91300
C  28.23400 54.36600 40.43000
C  26.40900 56.51000 37.86200
C  25.97600 55.21700 37.11600
H  25.20200 55.57000 35.90600
N  30.85700 59.10800 40.87100
C  31.26600 57.94400 40.36500
C  32.69500 57.96800 40.26200
C  33.14400 59.16100 40.81100
C  31.94100 59.91700 41.05200
C  33.58100 56.83000 39.75400
C  34.57200 59.47700 41.04400
O  35.42900 58.61600 40.86500
C  35.14000 60.81700 41.49800
N  29.32600 61.55100 41.73700
C  30.66500 61.94200 41.85300
C  30.78400 63.42100 42.18900
C  29.35200 63.91100 42.30600
C  28.54000 62.68700 42.03300
C  31.69000 63.88500 43.42200
C  28.84800 65.20300 41.51400
C  27.94100 66.11400 42.26900
N  26.81600 60.28900 41.53100
C  26.32100 61.49000 41.81100
C  24.86800 61.51300 41.63300
C  24.59600 60.23500 41.09900
C  25.80000 59.56000 41.07500
C  23.97700 62.61900 42.01800
C  23.53400 59.36600 40.68000
O  22.34200 59.52300 40.57300
C  24.23900 57.98200 40.26800
C  23.70700 56.97000 41.20500
O  23.49300 57.16400 42.43400
O  23.46600 55.79500 40.61100
C  23.48200 54.65100 41.58800
H  30.93300 55.95500 39.66200
H  32.68500 61.83700 41.79000
H  26.67400 63.59200 42.38500
H  25.94500 55.68700 39.67400
H  28.63100 55.39900 38.44300
H  27.22500 53.95400 40.46300
H  28.80600 54.69800 41.29600
H  28.87200 53.65500 39.90500
H  27.28200 56.94500 37.37500
H  25.65200 57.27500 37.68800
H  25.57600 54.46000 37.78900
H  26.97000 54.79600 36.96600
H  33.91500 56.37900 40.68800
H  34.36600 57.17000 39.07700
H  32.97500 56.20200 39.10100
H  34.61500 61.63500 41.00500
H  36.17400 60.97600 41.19200
H  34.97700 60.87800 42.57400
H  31.21800 63.93400 41.33100
H  29.27700 64.01900 43.38800
H  32.58100 63.26800 43.54400
H  31.10900 64.01600 44.33400
H  32.11700 64.85500 43.16700
H  28.39600 64.89000 40.57400
H  29.76700 65.77600 41.38700
H  27.32600 66.73600 41.61900
H  28.60100 66.77500 42.83000
H  27.30600 65.62500 43.00800
H  23.79400 63.23300 41.13600
H  24.47100 63.21800 42.78300
H  22.97300 62.30400 42.30500
H  24.02200 57.75400 39.22500
H  22.59900 54.80200 42.20900
H  24.42300 54.56400 42.13200
H  23.35900 53.72600 41.02500
Mg -5.66300 24.99400 27.72100
C  -3.78100 26.86200 30.11200
C  -6.64800 22.84300 30.13300
C  -7.16300 23.01100 25.26300
C  -4.19900 26.83300 25.23200
N  -5.18000 24.87900 29.77300
C  -4.53500 25.78900 30.64300
C  -4.83800 25.54300 32.12900
C  -5.67100 24.15400 32.07100
C  -5.79900 23.85500 30.56700
C  -5.03200 23.03100 32.85100
C  -5.66000 26.69800 32.74100
C  -5.34100 27.00700 34.17100
H  -6.39900 26.71600 35.21100
N  -6.85700 23.17700 27.75500
C  -7.12300 22.46100 28.82800
C  -7.77100 21.24300 28.41200
C  -7.91000 21.19200 27.01300
C  -7.24100 22.45700 26.61900
C  -8.27100 20.26200 29.45600
C  -8.57700 20.12900 26.12100
O  -8.58400 20.17400 24.87000
C  -9.35100 19.02500 26.80000
N  -5.68400 24.89000 25.58100
C  -6.41200 24.04600 24.78800
C  -6.30800 24.33100 23.27500
C  -5.31300 25.61300 23.30000
C  -5.08500 25.85300 24.80100
C  -5.73900 23.14700 22.48800
C  -5.93300 26.92900 22.63200
C  -5.02400 27.73700 21.78700
N  -4.28400 26.55100 27.65900
C  -3.90800 27.22100 26.57400
C  -2.89800 28.21000 27.00700
C  -2.90800 28.20000 28.37200
C  -3.65100 27.09200 28.73500
C  -2.30000 29.21900 26.14000
C  -2.36900 28.74400 29.60200
O  -1.59100 29.68500 29.76600
C  -3.00500 27.96200 30.78800
C  -1.83100 27.50600 31.61900
O  -0.79500 26.97500 31.26200
O  -2.11800 27.90200 32.88500
C  -0.97400 27.72000 33.79800
H  -6.92100 22.12800 30.91200
H  -7.59300 22.32300 24.53300
H  -3.86800 27.55600 24.48400
H  -3.87900 25.36700 32.61700
H  -6.67300 24.21300 32.49700
H  -5.78400 22.37400 33.28800
H  -4.36300 23.33300 33.65600
H  -4.46100 22.41500 32.15700
H  -6.67500 26.30800 32.66500
H  -5.78500 27.60000 32.14300
H  -5.10200 28.06800 34.24800
H  -4.45000 26.44400 34.45100
H  -9.34500 20.09000 29.38500
H  -7.99800 20.54000 30.47400
H  -7.64000 19.38600 29.30800
H  -9.95900 18.51100 26.05500
H  -10.09900 19.38400 27.50800
H  -8.53900 18.52600 27.32900
H  -7.30600 24.51300 22.87600
H  -4.32100 25.33700 22.94200
H  -4.94600 23.46200 21.80900
H  -6.53000 22.63300 21.94100
H  -5.34800 22.39500 23.17200
H  -6.27100 27.58300 23.43600
H  -6.83700 26.67700 22.07900
H  -5.49100 27.88900 20.81400
H  -4.03300 27.28700 21.72400
H  -4.81400 28.72400 22.19800
H  -1.75800 28.62100 25.40800
H  -1.43600 29.67300 26.62600
H  -2.98500 29.96100 25.72800
H  -3.70400 28.59500 31.33400
H  -0.07800 28.13500 33.33600
H  -0.68900 26.67200 33.89100
H  -1.16800 28.13800 34.78600

