158

Mg 36.13500 1.60600 28.90000
C  34.06700 2.74900 31.48900
C  38.82200 1.80600 31.09900
C  38.20200 0.96700 26.30800
C  33.44500 2.11900 26.68200
N  36.48300 2.41400 30.92500
C  35.39900 2.58800 31.84800
C  35.91900 2.53900 33.25300
C  37.45500 2.44100 33.16000
C  37.60600 2.14700 31.64500
C  38.18900 3.71600 33.63000
C  35.25600 1.32400 33.93400
C  34.68000 1.57900 35.39200
H  35.02100 2.85800 36.20700
N  38.19500 1.37100 28.74700
C  39.15900 1.48200 29.71100
C  40.39600 1.10900 29.21100
C  40.25300 0.83400 27.81900
C  38.80400 1.03800 27.59300
C  41.67000 1.08800 30.07500
C  41.36500 0.38900 26.80100
O  41.20100 0.17100 25.63000
C  42.82700 0.29500 27.32900
N  35.89600 1.60500 26.84700
C  36.85100 1.17100 25.95100
C  36.24500 0.75000 24.56200
C  34.74400 1.12600 24.79600
C  34.68100 1.70800 26.22000
C  36.91300 1.37100 23.27200
C  33.69700 -0.01100 24.44700
C  34.15600 -1.07900 23.37400
N  34.13000 2.19700 29.01600
C  33.15900 2.33100 28.05700
C  31.91200 2.62800 28.60400
C  32.14100 2.80100 30.02600
C  33.52800 2.54800 30.21100
C  30.67200 2.76300 27.90000
C  31.54900 2.99500 31.35300
O  30.38900 3.24600 31.70700
C  32.78200 2.84000 32.32100
C  32.68000 4.21200 32.97800
O  33.22200 5.20100 32.55300
O  31.85600 4.05900 34.10800
C  31.68000 5.26700 34.92900
H  39.63200 1.60200 31.80200
H  38.76700 0.50500 25.49600
H  32.53300 2.17800 26.08400
H  35.42900 3.41000 33.68900
H  37.83900 1.68000 33.83900
H  39.13000 3.40100 34.08100
H  37.61100 4.17900 34.43000
H  38.45100 4.38800 32.81200
H  35.94200 0.48300 34.03100
H  34.42900 0.96500 33.32100
H  34.73500 0.69000 36.02000
H  33.59000 1.62200 35.38000
H  42.61100 1.48700 29.69700
H  41.79500 0.06900 30.44100
H  41.56400 1.67900 30.98500
H  43.45000 -0.03300 26.49800
H  42.98200 -0.41700 28.14000
H  43.07000 1.31900 27.61500
H  36.29800 -0.33900 24.57100
H  34.45000 2.02100 24.24800
H  36.81100 0.65200 22.45900
H  37.95500 1.66900 23.38700
H  36.35800 2.29300 23.09600
H  32.79100 0.43900 24.04300
H  33.35900 -0.60200 25.29800
H  34.72800 -1.94600 23.70400
H  34.80800 -0.69800 22.58800
H  33.21200 -1.43500 22.96100
H  30.50600 2.17400 26.99700
H  30.76000 3.78500 27.53400
H  29.81400 2.69900 28.56900
H  32.54400 2.04500 33.02800
H  30.91200 5.92600 34.52600
H  32.62000 5.81800 34.91900
H  31.37800 5.10200 35.96400
Mg 0.16900 44.05300 25.80700
C  2.51500 43.78900 28.38700
C  -2.30100 43.23400 27.89000
C  -1.74600 44.08000 23.10400
C  2.93600 44.31000 23.50600
N  0.15700 43.51400 27.90900
C  1.15800 43.61700 28.73900
C  0.66300 43.56800 30.19100
C  -0.85900 43.04700 30.03900
C  -1.04200 43.29400 28.52100
C  -1.05000 41.55300 30.56500
C  0.79000 44.94200 30.87900
C  0.49400 44.96600 32.40700
H  0.52800 43.61600 33.15600
N  -1.74800 43.69800 25.50300
C  -2.67500 43.37000 26.49700
C  -3.96000 43.07200 25.87900
C  -3.82600 43.38400 24.50000
C  -2.41300 43.76000 24.29400
C  -5.12900 42.58500 26.72800
C  -4.89300 43.33300 23.45400
O  -4.61900 43.67000 22.27900
C  -6.26100 42.89800 23.76400
N  0.56900 44.37400 23.61400
C  -0.46900 44.34900 22.73700
C  0.01500 44.91600 21.33200
C  1.48900 45.23400 21.60600
C  1.75500 44.63700 22.99600
C  -0.15600 43.93900 20.24600
C  1.96400 46.71300 21.53900
C  1.08400 47.63300 22.42200
N  2.27300 44.06400 25.88000
C  3.25200 44.16100 24.86500
C  4.58500 44.22400 25.49600
C  4.34800 44.11900 26.84100
C  2.95600 44.01000 27.06600
C  5.94400 44.33500 24.78200
C  4.94600 43.99900 28.10200
O  6.10700 43.94700 28.43300
C  3.82400 43.89300 29.16900
C  4.10900 42.77600 30.02300
O  4.22900 41.67100 29.63700
O  4.18900 43.10900 31.35900
C  4.45700 42.12700 32.34100
H  -3.13800 43.22100 28.59100
H  -2.31700 43.96900 22.18000
H  3.75900 44.50600 22.81600
H  1.29700 42.82700 30.67800
H  -1.51000 43.67100 30.65200
H  -1.36300 40.89600 29.75400
H  -1.84700 41.55900 31.30900
H  -0.10900 41.25400 31.02700
H  0.12200 45.58400 30.30500
H  1.79400 45.34900 30.75900
H  -0.43700 45.50600 32.57400
H  1.23400 45.50600 32.99700
H  -5.89400 43.35900 26.78900
H  -4.82600 42.36700 27.75200
H  -5.53800 41.65700 26.32900
H  -6.44800 41.89400 24.14500
H  -6.84300 42.94300 22.84300
H  -6.67300 43.49900 24.57600
H  -0.45700 45.86200 21.06800
H  2.18000 44.76700 20.90300
H  -1.22700 43.82700 20.07600
H  0.26400 42.96100 20.47800
H  0.23300 44.32600 19.30400
H  1.76100 46.99500 20.50600
H  3.01900 46.65500 21.80900
H  0.42200 47.02600 23.04000
H  0.51400 48.43400 21.95100
H  1.68200 48.30000 23.04300
H  5.89100 44.64200 23.73700
H  6.36900 43.34600 24.94900
H  6.57000 45.07200 25.28500
H  3.89700 44.78100 29.79800
H  4.09900 42.41700 33.32900
H  5.48900 41.78600 32.42400
H  3.75700 41.31400 32.14700

