158

Mg 54.40200 24.38100 44.53300
C  52.12500 26.88500 43.76600
C  52.11900 22.00200 43.90800
C  56.87700 22.22400 44.64300
C  56.63400 27.00200 45.46700
N  52.39000 24.52500 43.82100
C  51.58000 25.60800 43.58000
C  50.19300 25.10600 43.23100
C  50.14700 23.62600 43.73300
C  51.65600 23.34200 43.88000
C  49.44700 23.44600 45.11000
C  49.58200 25.41100 41.80600
C  48.01800 25.52300 41.78600
H  47.61200 24.51200 40.68700
N  54.45900 22.36000 44.16300
C  53.43300 21.51900 43.96400
C  53.92100 20.20900 43.97200
C  55.28100 20.23700 44.15900
C  55.61200 21.63000 44.38100
C  53.07100 18.93100 43.83400
C  56.12800 18.96000 44.35900
O  55.58500 17.81500 44.38700
C  57.64900 19.05600 44.76900
N  56.47800 24.66500 44.86200
C  57.27300 23.50000 44.83600
C  58.72200 23.89700 44.96800
C  58.61700 25.48600 45.16500
C  57.21300 25.72000 45.27900
C  59.50100 23.23600 46.10700
C  59.41500 26.23200 44.05900
C  58.61200 26.86000 42.85700
N  54.47300 26.57500 44.56800
C  55.36700 27.42000 45.11200
C  54.85800 28.72400 45.17400
C  53.51700 28.59200 44.69100
C  53.37800 27.21800 44.32400
C  55.58700 29.98600 45.54300
C  52.24900 29.28000 44.36100
O  51.93500 30.47900 44.43700
C  51.33300 28.18800 43.74400
C  50.99400 28.51900 42.34600
O  51.89200 28.44600 41.53900
O  49.75900 29.04600 42.11100
C  49.36000 29.05700 40.68100
H  51.31500 21.26400 43.86500
H  57.69300 21.49900 44.67100
H  57.39500 27.76300 45.64800
H  49.53600 25.57600 43.96300
H  49.65900 23.00700 42.98000
H  49.18400 24.37100 45.62400
H  50.14000 22.87300 45.72500
H  48.52700 22.86200 45.08500
H  49.94000 24.70300 41.05900
H  49.93200 26.34200 41.36000
H  47.64400 26.47400 41.40500
H  47.66500 25.17100 42.75500
H  53.41800 18.08800 43.23700
H  52.14500 19.08100 43.27900
H  52.86900 18.59500 44.85100
H  57.89700 18.03000 45.04300
H  57.59700 19.65700 45.67700
H  58.31100 19.46500 44.00500
H  59.23100 23.61000 44.04700
H  58.96900 25.80500 46.14600
H  60.11200 23.99900 46.59000
H  60.07300 22.42300 45.65900
H  58.73000 22.93500 46.81600
H  60.13800 25.53700 43.63100
H  59.94300 26.99300 44.63600
H  57.57000 26.54900 42.78600
H  59.07700 26.61400 41.90200
H  58.70900 27.93700 42.99900
H  56.64700 29.73400 45.53300
H  55.29400 30.31400 46.54000
H  55.42300 30.75000 44.78300
H  50.34600 28.19600 44.20700
H  49.46000 30.10600 40.40200
H  48.35100 28.68100 40.51100
H  49.97700 28.51000 39.96800
Mg 26.78800 49.86600 26.38500
C  24.81600 50.83800 28.93700
C  29.31400 49.08200 28.69300
C  29.00700 49.31600 23.79700
C  24.56100 51.12500 24.07000
N  26.99900 49.80400 28.61700
C  25.98200 50.25900 29.38900
C  26.38300 50.10400 30.90900
C  27.99200 49.83100 30.88400
C  28.10700 49.50000 29.33700
C  28.85400 51.08300 31.16300
C  25.64500 48.85700 31.56000
C  25.10200 49.01600 33.03000
H  26.07000 49.50000 34.12700
N  28.81300 49.15600 26.26100
C  29.64000 48.82500 27.34600
C  30.86000 48.32700 26.86400
C  30.82000 48.44000 25.42500
C  29.51200 49.01000 25.10900
C  31.99700 47.79500 27.71300
C  31.91200 48.16100 24.37400
O  31.82800 48.30000 23.13900
C  33.19600 47.67700 24.89400
N  26.77800 50.21000 24.18000
C  27.78200 49.77400 23.34000
C  27.34900 49.75700 21.85200
C  25.85800 50.27500 21.99700
C  25.65000 50.49800 23.50900
C  28.14500 50.69100 20.89000
C  24.75100 49.28800 21.49300
C  23.63200 49.88300 20.56100
N  25.05300 50.79800 26.46200
C  24.26600 51.38800 25.45200
C  23.08600 52.01600 25.99500
C  23.28400 51.80800 27.40200
C  24.41900 51.05900 27.61100
C  21.91600 52.50400 25.24700
C  22.64400 51.93600 28.62100
O  21.54900 52.41300 28.88600
C  23.66100 51.42300 29.73000
C  24.02100 52.46900 30.72700
O  24.85300 53.37100 30.57500
O  23.30700 52.31900 31.89400
C  23.76000 53.12400 33.10800
H  30.07600 48.83700 29.43600
H  29.59400 49.02700 22.92300
H  23.83100 51.44000 23.32200
H  26.24200 51.04300 31.44400
H  28.27300 49.00400 31.53700
H  28.29300 51.88000 31.65100
H  29.34800 51.50200 30.28700
H  29.58200 50.92700 31.95900
H  26.25500 47.95500 31.60200
H  24.74000 48.64100 30.99200
H  24.71600 48.06400 33.39400
H  24.20100 49.62800 32.98700
H  32.86200 48.45500 27.64600
H  32.28700 46.78000 27.43900
H  31.81200 47.76800 28.78700
H  33.63600 48.50600 25.44900
H  34.01500 47.66200 24.17500
H  33.04700 46.72200 25.39700
H  27.47800 48.75200 21.45000
H  25.70100 51.21300 21.46500
H  29.16900 50.83600 21.23600
H  27.73000 51.68900 21.03200
H  27.99000 50.41900 19.84600
H  24.42400 48.63500 22.30300
H  25.33700 48.64200 20.83900
H  23.80800 50.95700 20.50300
H  22.68900 49.64300 21.05300
H  23.73600 49.39200 19.59400
H  21.94500 52.39400 24.16300
H  21.77500 53.56000 25.47700
H  21.05400 51.94100 25.60400
H  23.16000 50.58400 30.21500
H  24.83100 52.95300 33.21500
H  23.18300 52.74900 33.95300
H  23.59800 54.17500 32.87100

