158

Mg 9.04500 3.73400 28.24100
C  10.56100 2.03700 30.90200
C  7.45000 5.81600 30.31900
C  7.49500 5.32800 25.58100
C  10.09800 1.19700 26.02400
N  9.14200 3.92700 30.31200
C  9.80500 3.21700 31.23600
C  9.64800 3.87900 32.70200
C  8.51300 4.83800 32.47700
C  8.38700 4.95800 30.95600
C  7.08800 4.45100 33.11600
C  10.93300 4.48200 33.33900
C  11.52800 3.78300 34.59300
H  11.83400 4.65000 35.80100
N  7.72000 5.43200 28.01600
C  7.09200 6.07200 29.00000
C  6.27700 7.14500 28.47900
C  6.26300 7.06400 27.07800
C  7.25300 5.95500 26.79400
C  5.41100 8.03800 29.32200
C  5.62900 7.92400 26.03500
O  5.84400 7.81500 24.80400
C  4.66900 9.11600 26.41200
N  8.69200 3.26500 26.10100
C  8.10700 4.09800 25.24100
C  8.17000 3.57300 23.74900
C  9.23300 2.45500 23.93400
C  9.29100 2.28400 25.44900
C  6.76600 3.20900 23.13800
C  10.68200 2.78800 23.42800
C  11.42300 1.59400 22.79100
N  10.14400 2.00100 28.39000
C  10.47900 1.04800 27.40600
C  11.27100 0.04500 28.03800
C  11.31000 0.37100 29.41600
C  10.67200 1.56000 29.54700
C  11.90200 -1.10400 27.39100
C  11.84100 0.02200 30.71200
O  12.60700 -0.88900 30.98200
C  11.30100 1.07700 31.76200
C  10.51400 0.44700 32.86500
O  9.35100 0.06100 32.77200
O  11.42800 0.28300 33.81300
C  10.93600 -0.20300 35.11700
H  6.99400 6.52300 31.01400
H  7.14200 5.85000 24.68900
H  10.35700 0.44200 25.27900
H  9.23700 3.06200 33.29400
H  8.78200 5.80600 32.90000
H  7.13800 4.67000 34.18200
H  6.81300 3.40900 32.95000
H  6.26700 5.02900 32.69000
H  10.78700 5.54700 33.51900
H  11.70600 4.49600 32.57000
H  12.52700 3.43900 34.32500
H  10.86400 2.94600 34.80900
H  5.84600 9.02800 29.17800
H  5.59900 7.91600 30.38800
H  4.32200 8.01500 29.30300
H  4.34700 9.62000 25.50100
H  5.18700 9.86600 27.01000
H  3.73800 8.78400 26.87100
H  8.43400 4.46800 23.18500
H  8.80100 1.53200 23.54700
H  5.91500 3.64000 23.66400
H  6.56500 2.13800 23.15300
H  6.62900 3.77000 22.21300
H  11.30700 3.15100 24.24400
H  10.59700 3.60900 22.71700
H  10.95000 0.64900 23.05900
H  12.46700 1.60500 23.10600
H  11.40700 1.59500 21.70100
H  12.97300 -0.90400 27.38900
H  11.56700 -1.29100 26.37100
H  11.78500 -1.93900 28.08200
H  12.11200 1.59200 32.27800
H  10.53200 0.58900 35.74700
H  11.81000 -0.63100 35.61000
H  10.20700 -1.00900 35.03100
Mg -2.93400 35.10700 26.22200
C  -4.39400 33.46000 28.80200
C  -1.30700 37.22200 28.44300
C  -1.34900 36.45400 23.60600
C  -4.98700 33.17000 23.97100
N  -2.91700 35.33600 28.27500
C  -3.55900 34.51600 29.18200
C  -3.13400 34.84400 30.61700
C  -2.19300 36.02500 30.50000
C  -2.21200 36.28300 28.98600
C  -2.50200 37.32700 31.33000
C  -2.66500 33.74100 31.51700
C  -3.43500 33.40100 32.75900
H  -2.58300 33.20100 34.06000
N  -1.58100 36.72000 26.07100
C  -1.02000 37.43700 27.08700
C  -0.03100 38.36100 26.46600
C  -0.03800 38.14700 25.09000
C  -1.01800 37.07300 24.84400
C  0.66700 39.44900 27.32700
C  0.85000 38.85300 24.03400
O  0.88500 38.50300 22.87700
C  1.79500 40.01100 24.43200
N  -3.31800 35.03600 24.13800
C  -2.43100 35.63500 23.31800
C  -2.68900 35.17800 21.88100
C  -3.68700 34.01500 22.07900
C  -4.13700 34.16800 23.50500
C  -3.24000 36.39400 20.96300
C  -3.03000 32.58100 21.77400
C  -1.72100 32.25400 22.53800
N  -4.44600 33.58400 26.25300
C  -5.17800 32.93900 25.35900
C  -5.99300 31.98100 25.97700
C  -5.72300 32.10300 27.35600
C  -4.84400 33.15700 27.47000
C  -6.77900 30.95600 25.20100
C  -6.04000 31.62400 28.74000
O  -6.89200 30.76600 29.13000
C  -5.17800 32.53100 29.77400
C  -6.39100 33.11600 30.59700
O  -7.32900 33.78800 30.11500
O  -6.36000 32.51500 31.80800
C  -7.52500 32.56200 32.65100
H  -0.71400 37.73900 29.20100
H  -0.77800 36.86000 22.76900
H  -5.50300 32.58800 23.20400
H  -4.08800 35.16600 31.03500
H  -1.22900 35.70800 30.89800
H  -2.67000 38.27600 30.82000
H  -1.74700 37.52600 32.09100
H  -3.39100 37.19500 31.94600
H  -1.63000 33.89000 31.82500
H  -2.70100 32.83900 30.90700
H  -3.98100 32.48900 32.51600
H  -4.08700 34.20800 33.09200
H  1.72800 39.27400 27.50800
H  0.25400 39.48200 28.33600
H  0.51100 40.49300 27.05700
H  2.35200 39.61100 25.27900
H  1.16600 40.84800 24.73400
H  2.49900 40.25600 23.63600
H  -1.73700 34.87100 21.44800
H  -4.60300 34.07900 21.49100
H  -2.44800 36.89200 20.40400
H  -3.83200 37.22800 21.34000
H  -3.72000 35.85000 20.15000
H  -2.78300 32.65200 20.71500
H  -3.78700 31.81300 21.93400
H  -1.69200 32.81000 23.47500
H  -0.80100 32.52200 22.01900
H  -1.61100 31.19200 22.75600
H  -6.84400 31.18000 24.13600
H  -7.74900 30.74000 25.64700
H  -6.20200 30.03700 25.30900
H  -4.55500 31.93000 30.43600
H  -7.09800 33.08000 33.51000
H  -7.76900 31.55500 32.98900
H  -8.42400 33.03600 32.25700

