158

Mg -2.20300 16.96300 27.12200
C  -2.67500 14.64400 29.74000
C  -2.62400 19.43700 29.28600
C  -1.81800 19.04800 24.50900
C  -2.16400 14.27300 24.82100
N  -2.77000 17.03400 29.34900
C  -2.75300 16.00400 30.26000
C  -2.83900 16.50600 31.78500
C  -2.74300 18.08700 31.49300
C  -2.69900 18.21900 29.93400
C  -3.85700 19.02500 32.18200
C  -1.84000 15.85800 32.66700
C  -1.49100 16.71600 33.90600
H  -1.21200 16.00400 35.25100
N  -2.27700 18.90100 26.96500
C  -2.45100 19.81200 27.93800
C  -2.30300 21.15700 27.43200
C  -2.10800 21.03400 26.03500
C  -2.07500 19.57500 25.80500
C  -2.41400 22.44800 28.35600
C  -1.95200 22.14200 24.99200
O  -2.10100 21.96000 23.77900
C  -1.66100 23.58400 25.35600
N  -2.20200 16.73300 24.93600
C  -1.88300 17.71100 24.09300
C  -1.90300 17.31100 22.60600
C  -2.10200 15.84100 22.78800
C  -2.15200 15.58100 24.30300
C  -3.02200 17.98000 21.77300
C  -1.04400 15.00300 21.96400
C  0.23200 14.46300 22.62400
N  -2.38000 14.93900 27.19200
C  -2.34600 14.01900 26.14300
C  -2.47700 12.76900 26.70400
C  -2.64100 12.94300 28.04000
C  -2.55000 14.27600 28.36800
C  -2.61000 11.48900 25.87200
C  -2.86300 12.31300 29.31200
O  -3.08600 11.15100 29.48200
C  -2.91800 13.34700 30.48600
C  -1.73800 13.07900 31.39600
O  -0.49900 13.11900 31.26200
O  -2.19800 12.75500 32.63800
C  -1.25300 12.43500 33.76900
H  -2.59900 20.24000 30.02600
H  -1.64000 19.82600 23.76400
H  -2.24400 13.50300 24.05100
H  -3.86900 16.23100 32.00900
H  -1.80100 18.47100 31.88600
H  -3.37700 19.89300 32.63300
H  -4.34700 18.50700 33.00700
H  -4.61000 19.23800 31.42300
H  -0.91700 15.58300 32.15500
H  -2.42700 15.04400 33.09300
H  -2.37400 17.33500 34.06500
H  -0.60100 17.31700 33.72100
H  -1.45900 22.97100 28.38900
H  -2.53700 22.19000 29.40800
H  -3.17300 23.15900 28.02700
H  -0.69500 23.41200 25.83000
H  -2.44600 24.00800 25.98300
H  -1.33400 24.25400 24.56100
H  -0.92400 17.52800 22.17800
H  -3.08900 15.48300 22.49800
H  -3.92100 17.38000 21.91200
H  -2.80100 18.04600 20.70700
H  -3.34600 18.96800 22.09900
H  -0.68900 15.64800 21.15900
H  -1.63700 14.17300 21.58000
H  0.32500 14.94700 23.59700
H  1.08700 14.81600 22.04800
H  0.20900 13.37500 22.55700
H  -3.55000 11.52600 25.32100
H  -2.65300 10.75400 26.67500
H  -1.79300 11.47200 25.15000
H  -3.89200 13.23300 30.96200
H  -1.62800 12.98500 34.63300
H  -0.23200 12.81100 33.69900
H  -1.20100 11.36400 33.96300
Mg 54.99600 24.91700 44.12400
C  51.93200 26.88700 43.36200
C  53.13400 22.23000 43.03600
C  57.86100 23.43600 43.89100
C  56.48900 27.93200 44.77600
N  52.84000 24.73100 43.06900
C  51.82100 25.59900 42.89800
C  50.60300 24.86200 42.29900
C  50.91000 23.41700 42.90900
C  52.37500 23.44000 43.12700
C  50.13500 23.07600 44.30100
C  50.48600 24.90600 40.71800
C  49.06900 24.49000 40.29000
H  48.65300 24.64300 38.80100
N  55.42700 23.05900 43.63300
C  54.51800 22.05200 43.18100
C  55.24800 20.79800 43.08800
C  56.61400 21.06700 43.38400
C  56.67800 22.53200 43.60900
C  54.59000 19.45700 42.66500
C  57.66400 20.03400 43.48900
O  57.39900 18.88100 43.41200
C  59.06700 20.40800 43.83200
N  56.93600 25.62400 44.12100
C  57.96400 24.76600 44.15100
C  59.22200 25.41100 44.65900
C  58.79300 26.95800 44.67300
C  57.23600 26.88400 44.52800
C  59.70900 24.90400 46.06000
C  59.43100 27.74300 43.46100
C  60.15800 29.07200 43.86400
N  54.35300 26.95700 44.21300
C  55.13200 28.02800 44.55900
C  54.31400 29.23000 44.62500
C  53.05800 28.77200 44.18200
C  53.11500 27.39500 43.91100
C  54.72800 30.64100 44.98300
C  51.75800 29.29700 43.86100
O  51.33500 30.45800 43.93200
C  50.91300 28.02000 43.36100
C  50.42000 28.27100 41.99800
O  51.16700 28.68000 41.12200
O  49.10000 27.90200 41.82400
C  48.71200 27.97400 40.42400
H  52.44500 21.39300 42.90800
H  58.78800 22.93000 44.16900
H  57.03300 28.87100 44.89800
H  49.74200 25.26800 42.83100
H  50.74400 22.68400 42.12000
H  49.37600 23.82500 44.52800
H  50.86900 23.02100 45.10500
H  49.65200 22.10400 44.20600
H  51.05000 24.02500 40.41100
H  50.85800 25.81800 40.25300
H  48.26900 24.88800 40.91500
H  48.91400 23.41600 40.38800
H  53.70700 19.70800 42.07700
H  54.19900 18.99000 43.56900
H  55.19600 18.73700 42.11600
H  59.45000 21.11300 43.09400
H  59.70000 19.53700 44.00400
H  58.89600 20.95400 44.75900
H  59.88100 25.07800 43.85600
H  59.10000 27.42500 45.60900
H  60.14800 23.90600 46.06500
H  58.93100 25.06700 46.80500
H  60.52200 25.48100 46.50100
H  58.68600 27.93400 42.68900
H  60.18100 27.08000 43.03000
H  59.82200 29.77600 43.10400
H  61.21500 28.93400 44.09100
H  59.62400 29.38400 44.76200
H  53.94400 31.28100 44.57900
H  55.71300 30.87200 44.57600
H  54.83200 30.72900 46.06400
H  50.19900 27.83200 44.16300
H  47.86200 27.33400 40.19100
H  49.51300 27.69000 39.74200
H  48.41500 28.99300 40.17300

