158

Mg 0.60100 8.25600 26.84600
C  1.19600 10.16900 29.65800
C  0.84800 5.42300 28.92300
C  0.56700 6.22600 24.14800
C  0.79500 11.01500 24.83700
N  0.99800 7.85600 29.08400
C  0.96000 8.82100 30.02800
C  0.86200 8.21500 31.39700
C  1.17100 6.65400 31.15000
C  1.01400 6.61200 29.64200
C  2.55200 6.18700 31.58600
C  -0.51500 8.49300 32.13300
C  -0.49800 8.29800 33.68800
H  0.63600 7.71600 34.50600
N  0.65400 6.09300 26.54900
C  0.64700 5.15000 27.55900
C  0.36100 3.85800 26.99500
C  0.28000 4.07600 25.60600
C  0.46200 5.48900 25.36300
C  0.29500 2.59000 27.78400
C  0.10900 3.02800 24.37100
O  -0.18400 3.42400 23.20200
C  0.32000 1.63700 24.71200
N  0.91200 8.54500 24.76200
C  0.71500 7.55400 23.83000
C  0.83900 8.10700 22.45900
C  0.62700 9.64800 22.72400
C  0.73500 9.75200 24.22300
C  2.12000 7.75500 21.57400
C  -0.75300 10.19800 22.24600
C  -0.82200 11.42700 21.28300
N  0.87000 10.17500 27.13800
C  0.88700 11.21200 26.21200
C  1.14700 12.47000 26.85000
C  1.27400 12.08800 28.19800
C  1.13700 10.70100 28.30900
C  1.27900 13.84600 26.29100
C  1.47600 12.62400 29.50000
O  1.66500 13.80800 29.90600
C  1.28800 11.44100 30.51100
C  2.23000 11.44000 31.67600
O  3.45100 11.69800 31.60500
O  1.56400 11.13900 32.81600
C  2.41600 11.02000 34.03900
H  0.76200 4.52700 29.54100
H  0.55200 5.59800 23.25500
H  0.82100 11.90600 24.20600
H  1.63400 8.72600 31.97200
H  0.38600 6.01400 31.55200
H  2.93200 5.46300 30.86500
H  2.42000 5.61700 32.50500
H  3.28000 6.98200 31.74500
H  -1.30500 7.80900 31.82400
H  -0.76600 9.46700 31.71300
H  -1.35600 7.65200 33.87200
H  -0.68900 9.28800 34.10300
H  1.27100 2.11600 27.68200
H  -0.46600 1.99300 27.28000
H  0.15100 2.78900 28.84600
H  0.63600 0.94600 23.93000
H  -0.52100 1.25800 25.29200
H  1.19000 1.68000 25.36700
H  -0.06400 7.68100 22.02200
H  1.46600 10.26200 22.39800
H  2.75300 7.16900 22.24000
H  2.65200 8.61300 21.16300
H  1.83600 7.10600 20.74500
H  -1.27500 10.55800 23.13300
H  -1.35000 9.36800 21.86900
H  0.20300 11.60300 20.95600
H  -1.30100 12.23700 21.83300
H  -1.53400 11.10100 20.52500
H  0.28800 14.13500 25.94100
H  1.95200 13.73200 25.44100
H  1.70100 14.53200 27.02500
H  0.35000 11.77200 30.95700
H  2.76800 11.96200 34.46000
H  3.36800 10.53500 33.82200
H  1.80600 10.45900 34.74700
Mg 46.91600 16.74900 28.07000
C  44.82400 16.18700 30.91200
C  49.00500 18.47900 30.32700
C  48.82200 17.85500 25.42000
C  44.75300 15.27100 26.00600
N  46.79700 17.36500 30.38000
C  45.88700 17.02500 31.33800
C  46.28400 17.43500 32.79500
C  47.52100 18.34500 32.41600
C  47.83500 18.07200 30.93700
C  47.28300 19.87400 32.78400
C  46.72200 16.21000 33.58900
C  46.54000 16.17200 35.15300
H  45.98400 17.44900 35.90500
N  48.67900 17.91300 27.89800
C  49.39000 18.45100 28.95600
C  50.60900 18.99100 28.46600
C  50.59300 18.95500 27.02600
C  49.33800 18.18000 26.71600
C  51.73200 19.56300 29.28300
C  51.67600 19.49800 26.03400
O  51.46300 19.48000 24.86000
C  52.96200 20.07700 26.48900
N  46.71600 16.76300 25.90900
C  47.65800 17.22500 25.06000
C  47.16900 16.95100 23.59200
C  45.95400 16.03700 23.82500
C  45.81000 15.95300 25.34200
C  46.85700 18.20800 22.73800
C  46.04900 14.60600 23.20100
C  44.83200 14.05200 22.42100
N  45.18400 15.86000 28.30500
C  44.37500 15.27400 27.39300
C  43.17500 14.74200 28.03200
C  43.33700 14.98500 29.44600
C  44.49000 15.79900 29.57400
C  42.00400 14.12300 27.36100
C  42.77400 14.85100 30.73100
O  41.77500 14.33600 31.09900
C  43.71100 15.64400 31.74600
C  42.85300 16.66500 32.37900
O  42.60400 17.80100 31.94600
O  42.40300 16.19200 33.60500
C  41.61600 17.07000 34.39500
H  49.81400 18.97300 30.87000
H  49.46500 18.26100 24.63700
H  44.08200 14.70000 25.36000
H  45.43700 17.96000 33.23500
H  48.37300 18.04600 33.02800
H  46.30200 20.12200 33.19000
H  47.63800 20.53600 31.99400
H  47.90900 20.14600 33.63400
H  47.78400 16.01200 33.44200
H  46.12200 15.36000 33.26400
H  47.48000 15.99900 35.67700
H  45.94400 15.31600 35.46900
H  51.98800 20.57700 28.97600
H  52.72800 19.17900 29.06200
H  51.51100 19.49500 30.34900
H  52.78900 21.03800 26.97300
H  53.47400 20.18800 25.53300
H  53.51500 19.34200 27.07400
H  47.93100 16.31500 23.14000
H  44.98600 16.39200 23.47200
H  47.19400 19.12300 23.22500
H  45.77500 18.19900 22.60700
H  47.31400 18.06700 21.75800
H  46.24800 13.94100 24.04200
H  46.87000 14.60500 22.48400
H  44.88500 12.96600 22.50100
H  45.02200 14.44700 21.42300
H  43.84300 14.42500 22.68700
H  41.93200 13.03800 27.43600
H  41.95100 14.48200 26.33300
H  41.13400 14.57900 27.83400
H  44.02600 14.94800 32.52300
H  42.01700 18.08300 34.42300
H  41.70700 16.72600 35.42600
H  40.58600 17.04800 34.03900

