158

Mg -0.19000 7.58200 25.17600
C  1.05200 9.56300 27.80600
C  0.03200 4.81900 27.21800
C  -0.98500 5.69300 22.56400
C  0.57000 10.23400 22.98500
N  0.57700 7.24100 27.27100
C  0.64400 8.21100 28.23600
C  0.63000 7.57100 29.64300
C  0.64600 6.04300 29.27800
C  0.43500 6.00800 27.77700
C  1.96100 5.24400 29.69400
C  -0.58400 8.02200 30.40800
C  -0.43400 7.94000 31.97000
H  0.88000 7.51900 32.59700
N  -0.66500 5.55100 24.99100
C  -0.56400 4.49900 25.91300
C  -1.19900 3.35700 25.46800
C  -1.37500 3.62600 24.03300
C  -0.97300 4.98300 23.79800
C  -1.41400 2.18700 26.46500
C  -1.88300 2.66500 23.02900
O  -2.19200 3.03400 21.87800
C  -2.16600 1.25800 23.39000
N  0.09800 7.78600 22.98400
C  -0.50700 6.93000 22.14600
C  -0.74000 7.59800 20.79600
C  -0.04000 8.97700 20.88300
C  0.23700 9.04500 22.39300
C  -0.19000 6.71100 19.57400
C  -0.83700 10.13600 20.38400
C  -2.10000 10.52600 21.23600
N  0.58200 9.56600 25.28000
C  0.78400 10.54500 24.35900
C  1.17500 11.79500 25.04500
C  1.33800 11.41400 26.35100
C  1.02500 10.03400 26.44600
C  1.38200 13.12300 24.35500
C  1.67700 11.92000 27.66800
O  1.99800 13.00800 28.02600
C  1.48500 10.74600 28.68500
C  2.68600 10.53400 29.58000
O  3.43100 9.62100 29.46000
O  2.69600 11.45400 30.60700
C  3.83400 11.44700 31.52200
H  -0.06100 4.04700 27.98500
H  -1.41400 5.22600 21.67500
H  0.78700 11.07900 22.32800
H  1.53700 7.83200 30.18900
H  -0.14300 5.48400 29.78100
H  2.73600 5.80800 30.21300
H  2.32500 4.83900 28.75000
H  1.68200 4.43300 30.36700
H  -1.44700 7.38800 30.20600
H  -0.86400 9.05700 30.21300
H  -1.17100 7.21500 32.31400
H  -0.62900 8.90600 32.43600
H  -0.68900 1.40300 26.24800
H  -2.45200 1.85700 26.49800
H  -1.27100 2.54500 27.48400
H  -1.40800 0.75000 23.98500
H  -2.40300 0.66400 22.50700
H  -3.11500 1.29500 23.92400
H  -1.81700 7.74500 20.72700
H  0.90600 9.02400 20.34300
H  -0.96800 6.02400 19.24000
H  0.52300 5.98200 19.96000
H  0.24300 7.28300 18.75300
H  -1.14800 10.00000 19.34800
H  -0.19100 11.00200 20.24100
H  -2.99100 10.69000 20.63000
H  -1.79600 11.50700 21.60200
H  -2.44900 10.03600 22.14400
H  0.52300 13.52300 23.81600
H  2.14400 13.07200 23.57700
H  1.80000 13.90600 24.98700
H  0.67200 10.98600 29.37000
H  4.73400 11.45700 30.90800
H  3.77800 10.53400 32.11600
H  3.78500 12.29700 32.20200
Mg 24.01000 -5.82300 45.63100
C  26.19400 -3.43700 44.30800
C  21.47800 -4.32400 43.80700
C  22.03700 -8.45400 46.39600
C  26.88900 -7.62000 46.83500
N  23.94700 -4.28200 44.07200
C  24.96700 -3.43900 43.70000
C  24.51300 -2.40800 42.71900
C  22.93200 -2.49200 42.81800
C  22.77400 -3.80000 43.54400
C  22.12700 -1.30000 43.58800
C  25.17900 -2.70400 41.29100
C  25.76300 -1.45400 40.59500
H  25.78000 -1.49100 39.00500
N  22.00400 -6.31800 45.28300
C  21.15100 -5.45600 44.58400
C  19.82300 -6.15500 44.64600
C  19.95400 -7.41200 45.29300
C  21.34200 -7.45300 45.73700
C  18.57200 -5.57100 43.97500
C  18.77200 -8.30300 45.64300
O  17.59700 -8.06500 45.37400
C  19.00400 -9.54500 46.43300
N  24.40600 -7.72800 46.57700
C  23.34700 -8.55200 46.87500
C  23.85000 -9.84300 47.47500
C  25.40000 -9.57600 47.68500
C  25.57400 -8.23000 47.02000
C  22.99500 -10.29500 48.73000
C  26.35700 -10.65100 47.05700
C  25.98000 -12.17800 47.23300
N  26.05200 -5.52300 45.83500
C  27.06900 -6.31500 46.29300
C  28.30100 -5.62900 46.05700
C  28.00600 -4.44800 45.30400
C  26.64200 -4.43700 45.15800
C  29.64600 -6.08700 46.57500
C  28.54700 -3.30000 44.58800
O  29.72700 -3.06100 44.43600
C  27.39200 -2.54600 43.96000
C  27.27900 -1.16900 44.50900
O  26.39400 -0.75900 45.26200
O  28.22500 -0.38600 43.95600
C  28.19300 1.06600 44.23300
H  20.68100 -3.81000 43.26500
H  21.49400 -9.38400 46.57500
H  27.64300 -8.31000 47.21900
H  24.76500 -1.39400 43.02700
H  22.53000 -2.60800 41.81200
H  21.91300 -1.49400 44.63900
H  21.21000 -1.31600 42.99900
H  22.63500 -0.34200 43.47900
H  24.50700 -3.16200 40.56500
H  26.00100 -3.41300 41.39400
H  26.83100 -1.51900 40.80100
H  25.30700 -0.52100 40.92600
H  18.33600 -6.20200 43.11800
H  18.80700 -4.56900 43.61600
H  17.66700 -5.47000 44.57400
H  18.12000 -10.18100 46.38000
H  19.26900 -9.14200 47.41100
H  19.72600 -10.23200 45.99300
H  23.73600 -10.54200 46.64700
H  25.72000 -9.45800 48.72100
H  22.05200 -9.75900 48.84200
H  23.51100 -10.05400 49.65900
H  22.85300 -11.37500 48.74900
H  27.38400 -10.50200 47.38800
H  26.48300 -10.46700 45.99100
H  25.89600 -12.62200 46.24100
H  25.02200 -12.29200 47.74000
H  26.67000 -12.67400 47.91500
H  29.90100 -6.93400 45.93900
H  29.63900 -6.46100 47.59800
H  30.33100 -5.24100 46.51700
H  27.58800 -2.58200 42.88800
H  28.50200 1.30500 45.25100
H  27.16700 1.43300 44.20200
H  28.73900 1.72900 43.56200

