158

Mg 47.47900 16.01900 27.54600
C  45.52200 15.62600 30.57400
C  49.75000 17.64300 29.31200
C  49.11800 16.41300 24.66300
C  44.88800 14.49500 25.86800
N  47.61500 16.51800 29.77800
C  46.78400 16.25400 30.80300
C  47.23100 16.93200 32.12100
C  48.57700 17.61600 31.65500
C  48.71300 17.27700 30.18700
C  48.56200 19.19700 31.78900
C  47.41800 15.91300 33.20800
C  46.59200 16.09300 34.48700
H  46.38800 17.44300 35.05000
N  49.22300 16.97300 27.06400
C  50.09900 17.53900 27.94800
C  51.37400 17.72900 27.27800
C  51.22900 17.29300 25.91500
C  49.78600 16.84700 25.81200
C  52.58500 18.25600 28.02300
C  52.27800 17.30500 24.79100
O  52.05600 16.75700 23.69800
C  53.60100 17.95800 25.05100
N  47.19200 15.37000 25.59800
C  47.95400 15.70100 24.53900
C  47.35000 15.36600 23.16900
C  46.02900 14.64000 23.54500
C  46.01200 14.80500 25.12900
C  47.10300 16.59900 22.17000
C  45.92600 13.11700 23.18400
C  44.65900 12.70800 22.50200
N  45.66400 15.04300 28.09500
C  44.70500 14.62800 27.26700
C  43.59600 14.11200 28.02900
C  43.88200 14.53700 29.35400
C  45.16400 15.11300 29.34100
C  42.38900 13.39300 27.56700
C  43.35900 14.56700 30.72800
O  42.26200 14.18800 31.17900
C  44.42400 15.35800 31.56200
C  43.80300 16.48700 32.30400
O  43.78500 17.65700 32.10200
O  43.18800 15.90600 33.37500
C  42.29400 16.77400 34.15600
H  50.51200 18.11900 29.93300
H  49.72900 16.59500 23.77600
H  44.09700 14.00900 25.29300
H  46.51900 17.68100 32.46800
H  49.44300 17.34200 32.25900
H  47.73900 19.51100 32.43100
H  48.42900 19.73900 30.85300
H  49.48900 19.40900 32.32300
H  48.44300 15.83900 33.57100
H  47.04500 14.95800 32.83700
H  46.99800 15.47200 35.28600
H  45.55500 15.75800 34.53300
H  53.20800 17.38300 28.21600
H  52.50000 18.72100 29.00500
H  53.16800 18.96400 27.43500
H  53.47500 19.01400 25.29100
H  54.26300 17.93300 24.18500
H  54.00200 17.35400 25.86500
H  48.01800 14.68800 22.63700
H  45.12700 15.11800 23.16300
H  47.87300 16.58800 21.39800
H  47.26900 17.55400 22.66900
H  46.12100 16.60000 21.69600
H  46.10900 12.52700 24.08200
H  46.70400 12.91600 22.44800
H  44.65900 12.79000 21.41500
H  43.87400 13.32600 22.93700
H  44.53500 11.64400 22.70400
H  42.70300 12.43300 27.15600
H  41.98400 13.85900 26.66900
H  41.68900 13.20300 28.38100
H  44.90400 14.70700 32.29300
H  41.75700 17.48100 33.52300
H  42.83400 17.38100 34.88200
H  41.68400 16.03500 34.67500
Mg 50.73400 45.12700 42.62700
C  47.61800 46.28000 41.34800
C  50.10200 42.15200 40.90100
C  53.94000 44.33000 43.18500
C  51.41400 48.51600 43.52900
N  49.12400 44.38500 41.10400
C  47.92100 44.95600 40.96800
C  46.98600 44.05200 40.11300
C  47.73200 42.66500 40.14500
C  49.03600 43.10000 40.73300
C  46.91600 41.53500 40.85300
C  46.71700 44.66200 38.73300
C  45.21400 44.93900 38.46600
H  44.65300 43.89500 37.40400
N  51.88300 43.47700 42.18700
C  51.45400 42.33100 41.42200
C  52.58100 41.42900 41.31300
C  53.63900 41.99100 42.04400
C  53.20000 43.28400 42.56500
C  52.55700 40.13000 40.58200
C  54.96500 41.25600 42.29700
O  55.20200 40.27000 41.60400
C  55.95300 41.65100 43.36700
N  52.38700 46.25500 43.38300
C  53.59100 45.68600 43.42700
C  54.62400 46.71800 43.92000
C  53.77200 48.00300 44.24300
C  52.44600 47.56700 43.63000
C  55.61700 46.33900 45.01100
C  54.41300 49.38400 43.76500
C  55.38600 50.09500 44.71300
N  49.69500 46.94900 42.63900
C  50.11400 48.18700 43.11100
C  49.00200 49.16000 42.91600
C  48.04400 48.42100 42.23600
C  48.44800 47.09500 42.16800
C  48.97500 50.66400 43.27700
C  46.69400 48.54500 41.61300
O  45.89600 49.54200 41.34000
C  46.31300 47.12100 41.02200
C  45.09400 46.59200 41.72100
O  45.01200 45.90000 42.72700
O  44.00200 46.82600 40.94400
C  42.67500 46.38600 41.33600
H  50.03300 41.14600 40.48000
H  54.98700 44.02500 43.24200
H  51.55100 49.53400 43.90000
H  46.09800 43.87700 40.72200
H  47.86400 42.33100 39.11600
H  46.55600 40.85600 40.08000
H  46.09700 41.93400 41.45200
H  47.52700 40.92900 41.52200
H  47.07900 44.08000 37.88500
H  47.29600 45.57600 38.60800
H  45.14500 45.94600 38.05400
H  44.52500 44.82000 39.30200
H  53.27100 39.94500 39.77900
H  51.56300 39.98900 40.15900
H  52.65900 39.30200 41.28300
H  55.39600 42.02900 44.22400
H  56.60900 42.42400 42.96700
H  56.54100 40.74900 43.53900
H  55.30100 46.95300 43.09800
H  53.61400 48.06300 45.32000
H  55.55000 46.72800 46.02700
H  56.60300 46.45400 44.56000
H  55.49700 45.27400 45.20600
H  53.65900 50.08000 43.39900
H  54.90200 49.37000 42.79100
H  55.86600 49.45300 45.45100
H  54.92700 50.84700 45.35500
H  56.00900 50.66900 44.02800
H  48.13300 50.99400 43.88500
H  48.83900 51.13200 42.30200
H  49.90600 51.09000 43.65400
H  46.22900 47.12300 39.93500
H  42.30700 47.02200 42.14100
H  42.72500 45.38800 41.77100
H  41.97800 46.32100 40.50000

