158

Mg 6.90500 53.90700 41.43000
C  6.53200 50.51500 40.90200
C  10.14100 53.67200 40.08200
C  6.83700 57.21600 40.86800
C  3.57700 54.04700 42.49000
N  8.05900 52.35100 40.47500
C  7.75000 50.96400 40.50300
C  9.00900 50.07700 40.19500
C  10.10600 51.09300 40.30900
C  9.39200 52.50500 40.36200
C  11.03800 50.83600 41.57100
C  8.92500 49.27800 38.85100
C  8.80500 50.22600 37.61600
H  7.37100 50.51400 37.04700
N  8.27600 55.26800 40.56700
C  9.53800 54.99300 40.12100
C  10.21600 56.22700 39.82800
C  9.30000 57.24800 40.16600
C  8.05700 56.59500 40.57400
C  11.61900 56.27200 39.19900
C  9.61200 58.76600 40.24200
O  10.69100 59.13400 39.77900
C  8.66900 59.80200 40.79300
N  5.36800 55.46700 41.71000
C  5.62000 56.79400 41.38000
C  4.35200 57.74300 41.67600
C  3.35200 56.66800 42.17800
C  4.15600 55.32200 42.15900
C  4.53600 58.92500 42.61800
C  2.09500 56.52900 41.21100
C  0.78800 56.86300 41.96500
N  5.38300 52.59000 41.79900
C  4.09900 52.78200 42.26900
C  3.48800 51.50100 42.47800
C  4.40700 50.64000 41.95500
C  5.51700 51.30400 41.48000
C  2.10300 51.17700 42.90400
C  4.66400 49.24400 41.66100
O  3.88600 48.31000 41.81000
C  6.05900 49.09700 40.95900
C  5.75600 48.47700 39.73500
O  5.10600 49.05100 38.85300
O  6.28200 47.15000 39.65700
C  5.96000 46.44500 38.39600
H  11.17700 53.50000 39.78400
H  6.71300 58.20200 40.41400
H  2.51400 54.07300 42.73800
H  9.04300 49.37300 41.02600
H  10.78400 50.86300 39.48700
H  11.49100 51.77400 41.89200
H  11.85400 50.21400 41.20300
H  10.60300 50.22500 42.36300
H  8.11400 48.55000 38.86300
H  9.84400 48.69900 38.76700
H  9.48400 49.92200 36.82000
H  9.22300 51.18600 37.91800
H  11.75800 55.44600 38.50000
H  12.39600 56.17900 39.95800
H  11.72500 57.20300 38.64300
H  7.88700 60.14700 40.11700
H  9.22000 60.72200 40.98600
H  8.13400 59.51800 41.69900
H  4.16900 58.06300 40.65100
H  3.07300 56.82900 43.22000
H  4.74000 59.79700 41.99700
H  5.31000 58.84800 43.38100
H  3.59000 59.03600 43.14800
H  1.88500 55.52100 40.85300
H  2.23800 57.29500 40.44900
H  -0.09600 56.70200 41.34800
H  0.65000 57.89900 42.27300
H  0.59200 56.23900 42.83700
H  2.04700 50.86100 43.94500
H  1.78600 50.34000 42.28200
H  1.43800 52.02300 42.72800
H  6.66200 48.55000 41.68300
H  4.95700 46.01900 38.43800
H  6.65300 45.65300 38.11200
H  6.13300 47.02800 37.49100
Mg 8.90400 47.55600 27.67700
C  7.51500 47.07500 30.87900
C  11.95500 48.14800 29.26200
C  10.22900 48.71600 24.78800
C  5.77000 47.54000 26.29800
N  9.67800 47.63100 29.86700
C  8.89400 47.36600 31.00600
C  9.75400 47.51900 32.23800
C  11.18500 48.04500 31.66400
C  10.97100 47.78900 30.15200
C  11.69900 49.44800 32.19400
C  9.77100 46.29600 33.18800
C  9.47300 46.66800 34.60400
H  9.96100 45.61800 35.59600
N  10.80900 48.18500 27.08100
C  11.90500 48.22200 27.87500
C  13.04900 48.28300 27.06400
C  12.59500 48.73900 25.78100
C  11.14600 48.66000 25.84200
C  14.39500 48.03100 27.62300
C  13.44900 49.09100 24.52100
O  12.90900 49.31200 23.46000
C  14.93600 49.04300 24.60200
N  8.14000 48.05300 25.83900
C  8.80700 48.52100 24.82200
C  8.04800 48.98100 23.61600
C  6.58500 48.39800 23.98900
C  6.82200 48.02600 25.50400
C  8.08900 50.45700 23.35900
C  6.28300 47.18300 23.19200
C  5.49800 47.50000 21.85700
N  7.00100 47.28800 28.35800
C  5.77900 47.32000 27.71000
C  4.71000 47.14000 28.64500
C  5.38200 46.95900 29.87300
C  6.73100 47.08700 29.68800
C  3.27900 47.33100 28.40400
C  5.08800 46.93400 31.30800
O  4.09700 46.84600 32.01300
C  6.51800 46.87900 32.00300
C  6.58400 45.50500 32.51600
O  6.69700 44.52300 31.80000
O  6.51600 45.52300 33.87800
C  6.79300 44.20500 34.58800
H  12.93100 48.32700 29.71900
H  10.66900 49.07700 23.85500
H  4.76900 47.52500 25.86100
H  9.28800 48.35500 32.76000
H  11.97700 47.30700 31.79200
H  11.87000 50.03800 31.29300
H  12.67900 49.42000 32.67000
H  10.99100 49.95500 32.85000
H  10.72500 45.78800 33.05000
H  9.07000 45.54300 32.82800
H  8.40400 46.81200 34.75600
H  9.82900 47.68400 34.77200
H  14.27100 47.30900 28.43000
H  14.99500 48.91200 27.85100
H  14.96700 47.51200 26.85300
H  15.28900 49.74100 25.36000
H  15.41600 49.18400 23.63300
H  15.21800 48.05700 24.97200
H  8.42000 48.46700 22.73000
H  5.80300 49.13500 23.80800
H  7.77500 50.50600 22.31600
H  9.10100 50.86100 23.38100
H  7.56800 51.17500 23.99300
H  5.63000 46.62200 23.86000
H  7.16900 46.60300 22.93300
H  5.39500 48.56000 21.62300
H  4.50100 47.12100 22.08000
H  6.04800 47.09900 21.00600
H  2.86400 46.33500 28.55500
H  3.06400 47.71200 27.40500
H  2.89600 47.93900 29.22400
H  6.54500 47.54200 32.86800
H  7.80000 43.85100 34.36400
H  6.01200 43.47700 34.37200
H  6.91900 44.52800 35.62200

