158

Mg 26.89700 49.71400 26.34600
C  24.69300 51.06100 28.96500
C  28.77600 48.38900 28.61000
C  28.81300 48.71900 23.76400
C  24.97200 51.62000 24.17000
N  26.68400 49.70600 28.51400
C  25.73900 50.24900 29.40600
C  26.09400 49.88600 30.93300
C  27.46700 49.16600 30.69800
C  27.65900 49.03100 29.20900
C  28.67900 49.87300 31.49100
C  25.03600 48.87700 31.46700
C  24.37800 49.35300 32.82400
H  24.74300 48.61500 34.18000
N  28.51600 48.55600 26.15900
C  29.20800 48.12400 27.24200
C  30.35000 47.35100 26.83100
C  30.52200 47.63200 25.44600
C  29.31200 48.36400 25.03300
C  31.31500 46.62300 27.81000
C  31.65700 47.29200 24.57800
O  31.59800 47.62400 23.39200
C  32.84800 46.52400 25.11900
N  26.87500 50.03700 24.23500
C  27.71700 49.53500 23.31400
C  27.37700 49.83000 21.84400
C  26.10700 50.61600 22.11300
C  25.95900 50.77500 23.59500
C  28.47900 50.69200 21.24900
C  24.78900 50.12200 21.46000
C  24.50400 48.67800 21.69700
N  25.09600 50.97600 26.49200
C  24.54500 51.68200 25.50100
C  23.43200 52.44200 26.01500
C  23.49200 52.24400 27.36400
C  24.52500 51.39500 27.62500
C  22.30600 53.23400 25.26800
C  22.81600 52.51200 28.67600
O  21.87800 53.22300 28.93800
C  23.67300 51.84600 29.77200
C  24.22500 52.80500 30.71200
O  25.09800 53.66200 30.55900
O  23.38300 52.74300 31.84900
C  23.71600 53.70100 32.94200
H  29.34600 47.97900 29.44600
H  29.47600 48.56600 22.91000
H  24.41100 52.26000 23.48600
H  26.16800 50.78200 31.54900
H  27.52400 48.17000 31.13800
H  28.26600 50.67000 32.10800
H  29.40400 50.37800 30.85300
H  29.18700 49.21000 32.19200
H  25.48400 47.93700 31.78800
H  24.29400 48.67300 30.69400
H  23.30600 49.48000 32.67100
H  24.81200 50.35300 32.85300
H  32.34600 46.96400 27.72000
H  31.33000 45.57600 27.50700
H  30.88400 46.73500 28.80500
H  33.47600 47.25800 25.62400
H  33.34700 46.14300 24.22800
H  32.55100 45.65000 25.69800
H  27.20700 49.03100 21.12300
H  26.31500 51.66100 21.88400
H  29.24700 50.95000 21.97800
H  28.13300 51.64400 20.84700
H  29.01300 50.20100 20.43600
H  24.79700 50.31700 20.38800
H  23.90200 50.73900 21.60100
H  23.47200 48.58600 22.03500
H  25.20600 48.25800 22.41700
H  24.57700 48.16000 20.74100
H  21.40300 53.23000 25.87900
H  22.04000 52.67700 24.36900
H  22.65400 54.22800 24.98700
H  23.24100 51.08000 30.41700
H  22.83900 53.77200 33.58500
H  23.92000 54.71800 32.60900
H  24.57000 53.43600 33.56600
Mg -2.11200 34.99500 27.38400
C  -3.79300 33.59100 30.07500
C  -1.00500 37.44100 29.56300
C  -0.58000 36.33200 24.74500
C  -3.64700 32.58200 25.18200
N  -2.47500 35.51700 29.63700
C  -3.02800 34.67400 30.54400
C  -2.72700 35.15500 31.91000
C  -2.17800 36.64000 31.69200
C  -1.82500 36.52000 30.20900
C  -3.24700 37.72400 32.02000
C  -1.85800 34.24200 32.83300
C  -1.84900 34.71000 34.30900
H  -2.62700 33.88200 35.27200
N  -0.97500 36.71700 27.16500
C  -0.54300 37.58900 28.21100
C  0.22100 38.65000 27.53700
C  0.47600 38.26900 26.20300
C  -0.38300 37.07400 25.95100
C  0.84400 39.75200 28.42200
C  1.28800 38.94200 25.10500
O  1.25200 38.60000 23.89900
C  2.00300 40.16500 25.45200
N  -2.15800 34.53700 25.25300
C  -1.35200 35.28200 24.41300
C  -1.42400 34.68700 22.98600
C  -2.29100 33.42400 23.16500
C  -2.80400 33.51900 24.62500
C  -1.91200 35.70800 21.92700
C  -1.54400 32.16400 22.83800
C  -2.16700 31.23500 21.79600
N  -3.54000 33.53200 27.47700
C  -4.10400 32.71100 26.53700
C  -5.05000 31.80500 27.12100
C  -5.00700 32.09400 28.53900
C  -4.07100 33.20800 28.68300
C  -5.75700 30.78000 26.35900
C  -5.29400 31.64600 29.88900
O  -5.90500 30.64000 30.27200
C  -4.72400 32.67100 30.92000
C  -5.78400 33.36800 31.69500
O  -6.23700 34.51100 31.68700
O  -6.07300 32.38600 32.61500
C  -7.00500 32.75700 33.65200
H  -0.53200 38.09800 30.29600
H  -0.05700 36.82800 23.92400
H  -4.12300 31.90500 24.47000
H  -3.74100 35.19900 32.30600
H  -1.23500 36.82500 32.20800
H  -4.09900 37.32700 32.57200
H  -3.57400 38.26800 31.13400
H  -2.72200 38.44500 32.64600
H  -0.82900 34.17200 32.48000
H  -2.20600 33.21000 32.77400
H  -2.27000 35.71500 34.31200
H  -0.83700 34.80500 34.70300
H  0.28400 40.67700 28.28300
H  1.88100 39.90600 28.12200
H  0.87200 39.38400 29.44700
H  1.20200 40.87500 25.65800
H  2.49200 40.49200 24.53400
H  2.71600 39.96600 26.25200
H  -0.38500 34.45100 22.75500
H  -3.06500 33.51500 22.40400
H  -2.93800 35.48700 21.63300
H  -1.26000 35.67800 21.05300
H  -1.84000 36.71100 22.34600
H  -1.28100 31.73300 23.80300
H  -0.56500 32.38400 22.41100
H  -1.47600 31.15600 20.95700
H  -3.16400 31.55600 21.49400
H  -2.30200 30.22700 22.18900
H  -6.33200 31.32000 25.60700
H  -6.40700 30.37700 27.13500
H  -5.06300 30.08200 25.89000
H  -4.06100 32.09100 31.56100
H  -6.71200 33.44800 34.44200
H  -7.41800 31.86300 34.12000
H  -7.89900 33.16300 33.17900

