158

Mg 8.98900 2.84500 27.62700
C  10.58800 1.26100 30.25700
C  7.30600 4.74100 29.80200
C  6.86300 3.68900 25.03900
C  9.94300 0.05200 25.58200
N  8.79800 2.81900 29.81400
C  9.69600 2.28600 30.67600
C  9.71400 2.89700 32.12000
C  8.58900 3.89300 31.88700
C  8.24700 3.86500 30.38400
C  7.30900 3.64300 32.74700
C  11.06200 3.57100 32.47100
C  11.70300 3.19300 33.78100
H  10.75700 2.91200 34.94100
N  7.44300 4.11900 27.41300
C  6.93100 4.85800 28.47300
C  5.98400 5.86000 27.95900
C  5.81300 5.52500 26.53200
C  6.74100 4.41500 26.26100
C  5.38400 6.94600 28.84500
C  4.97700 6.36000 25.51100
O  4.88400 6.09900 24.32000
C  4.08300 7.48300 25.99200
N  8.54100 2.00100 25.56200
C  7.69400 2.59300 24.70800
C  7.64000 1.87100 23.32500
C  8.68600 0.72100 23.55000
C  9.13600 0.95300 25.01100
C  6.31600 1.29100 22.89000
C  9.79400 0.65500 22.54700
C  10.12600 -0.68600 21.84000
N  10.21300 1.16400 27.78900
C  10.55900 0.14400 26.87500
C  11.57500 -0.73500 27.49000
C  11.64100 -0.27700 28.84000
C  10.76200 0.77800 28.94900
C  12.26900 -1.79500 26.79200
C  12.29000 -0.52900 30.09200
O  13.21500 -1.27900 30.36000
C  11.52200 0.43600 31.12400
C  10.80700 -0.39900 32.11600
O  9.74700 -0.91500 31.99600
O  11.70700 -0.52700 33.18400
C  11.12300 -1.22900 34.35800
H  6.78300 5.37200 30.52300
H  6.21000 4.12900 24.28200
H  10.19000 -0.79500 24.93900
H  9.53300 2.11900 32.86000
H  8.87900 4.91500 32.13200
H  7.41900 2.61900 33.10400
H  6.41600 3.56200 32.12700
H  7.14300 4.37200 33.54000
H  10.96700 4.65300 32.56700
H  11.73500 3.32100 31.65100
H  12.43000 3.92700 34.12900
H  12.34100 2.31800 33.65700
H  5.45000 6.82100 29.92600
H  4.31300 6.89700 28.65200
H  5.79100 7.92100 28.57400
H  3.22200 7.12300 26.55600
H  3.81400 8.10200 25.13700
H  4.65800 8.14800 26.63600
H  7.92100 2.62900 22.59500
H  8.21700 -0.25800 23.64600
H  6.16600 0.21200 22.93800
H  6.16400 1.50300 21.83200
H  5.43200 1.69700 23.38200
H  10.67400 1.02400 23.07400
H  9.73400 1.36300 21.72100
H  9.67200 -0.70200 20.84900
H  9.75700 -1.57500 22.35300
H  11.21000 -0.76500 21.76100
H  12.17600 -1.64800 25.71500
H  11.86900 -2.72900 27.18600
H  13.30500 -1.72100 27.12100
H  12.22000 1.08500 31.65300
H  11.82700 -1.08300 35.17800
H  10.99900 -2.28600 34.12200
H  10.12100 -0.89400 34.62600
Mg 26.13000 0.93900 28.80700
C  28.14200 0.42100 31.71600
C  23.55000 1.64300 30.79500
C  24.21200 0.73000 26.03800
C  28.77600 -0.37800 26.93000
N  25.89700 1.20600 31.07800
C  26.80700 0.95300 32.05200
C  26.30500 1.21300 33.46300
C  24.78600 1.53400 33.11600
C  24.73800 1.53800 31.53100
C  23.75700 0.47900 33.69000
C  27.06800 2.34400 34.24100
C  27.46500 2.06800 35.72900
H  26.68300 2.92500 36.84000
N  24.14900 1.22500 28.50200
C  23.25200 1.55400 29.42100
C  21.95300 1.46100 28.88500
C  22.05500 1.14500 27.48000
C  23.56100 1.07900 27.27300
C  20.69500 1.76500 29.62500
C  20.96700 0.92900 26.47300
O  21.20400 0.74300 25.27400
C  19.54200 1.09900 26.93600
N  26.37000 0.23000 26.82500
C  25.53000 0.44900 25.78700
C  26.07100 0.31000 24.39100
C  27.59900 0.18800 24.75100
C  27.59000 0.02500 26.28700
C  25.46500 -0.66500 23.36600
C  28.52900 1.33900 24.40800
C  29.84600 0.91100 23.85300
N  28.04200 0.15100 29.18400
C  28.93300 -0.36700 28.29800
C  30.21600 -0.60600 29.02600
C  29.98000 -0.31200 30.34600
C  28.65300 0.16000 30.38300
C  31.54100 -1.02700 28.37900
C  30.47700 -0.35000 31.79200
O  31.55000 -0.64400 32.27300
C  29.33300 0.10800 32.68400
C  28.84700 -1.05400 33.48600
O  27.88100 -1.75000 33.18200
O  29.62100 -1.13800 34.64100
C  29.02300 -2.09300 35.60100
H  22.68800 1.82700 31.44000
H  23.78100 0.83000 25.03900
H  29.68700 -0.51800 26.34500
H  26.50600 0.31000 34.03900
H  24.57500 2.51300 33.54600
H  23.77300 -0.52200 33.25900
H  22.74700 0.88400 33.62100
H  24.01000 0.23200 34.72100
H  26.50900 3.27800 34.28700
H  27.97800 2.56500 33.68300
H  28.51200 2.36700 35.74600
H  27.30300 1.00000 35.87800
H  20.06600 2.51300 29.14200
H  20.86200 2.18500 30.61600
H  20.14900 0.86400 29.90600
H  18.95000 0.79400 26.07300
H  19.30800 2.13600 27.17900
H  19.13500 0.28800 27.53900
H  25.98700 1.27600 23.89300
H  28.06400 -0.71800 24.36100
H  26.20600 -1.27900 22.85500
H  24.93000 -0.13800 22.57600
H  24.68100 -1.23100 23.87000
H  28.51800 2.08200 25.20500
H  28.05500 1.83100 23.55900
H  29.95200 1.11400 22.78700
H  30.07700 -0.14600 23.98000
H  30.60300 1.51100 24.35900
H  32.34700 -1.04900 29.11300
H  31.77800 -0.26100 27.64000
H  31.48100 -2.00400 27.90100
H  29.67400 0.88400 33.36900
H  29.14700 -3.15900 35.40700
H  27.94800 -2.02600 35.76500
H  29.31500 -1.89200 36.63100

