158

Mg 25.92500 -1.37900 29.52200
C  27.96000 -1.47400 32.39800
C  23.20100 -0.99100 31.45000
C  24.00800 -1.32200 26.76200
C  28.78300 -2.21100 27.65000
N  25.67500 -1.08700 31.70400
C  26.63800 -1.22200 32.67700
C  26.00600 -0.97300 34.07200
C  24.48100 -0.98600 33.71800
C  24.46200 -0.97900 32.18000
C  23.68600 -2.22500 34.29700
C  26.41900 0.30100 34.79200
C  26.69700 0.03700 36.24900
H  26.75200 1.23600 37.29800
N  23.86100 -1.26100 29.14400
C  22.89800 -1.09600 30.11800
C  21.57700 -1.16600 29.49100
C  21.83400 -0.96500 28.11100
C  23.28600 -1.17700 27.95100
C  20.26200 -1.24500 30.35100
C  20.82600 -0.55000 26.98100
O  21.05500 -0.50700 25.77000
C  19.40800 -0.39800 27.39300
N  26.32300 -1.83500 27.50700
C  25.36700 -1.68700 26.50500
C  26.02000 -1.67500 25.12400
C  27.52200 -2.10400 25.40300
C  27.53600 -2.15900 26.93100
C  25.31100 -2.61300 24.06900
C  28.68800 -1.23000 24.79700
C  28.67500 0.32900 25.02300
N  27.99700 -1.77100 29.85500
C  28.99800 -2.10500 29.02500
C  30.31800 -2.03000 29.72600
C  29.91500 -1.74000 31.04600
C  28.52100 -1.67100 31.11700
C  31.61900 -2.39400 29.11800
C  30.41200 -1.55000 32.44600
O  31.55200 -1.45700 32.85200
C  29.15500 -1.42100 33.34200
C  29.34000 -2.45600 34.42000
O  28.69100 -3.46600 34.31200
O  30.20300 -2.10700 35.37900
C  30.36700 -2.95600 36.53300
H  22.33300 -0.94000 32.11100
H  23.49800 -1.06000 25.83200
H  29.69500 -2.51200 27.13100
H  26.16900 -1.86200 34.68000
H  24.05600 -0.15100 34.27500
H  22.73300 -1.89100 34.70800
H  24.16200 -2.77900 35.10500
H  23.39400 -2.86600 33.46500
H  25.62200 1.03900 34.69800
H  27.25900 0.70100 34.22400
H  27.61500 -0.49000 36.50800
H  25.87600 -0.60700 36.56500
H  19.51500 -1.71500 29.71100
H  20.00200 -0.22100 30.62100
H  20.31700 -1.83000 31.26900
H  19.28100 0.21400 28.28600
H  19.04300 -1.42100 27.48000
H  18.81400 0.06200 26.60300
H  25.82600 -0.65800 24.78400
H  27.56400 -3.07800 24.91500
H  26.05300 -3.35300 23.77200
H  25.14000 -1.94600 23.22400
H  24.32300 -2.94600 24.38900
H  28.56600 -1.39100 23.72600
H  29.67700 -1.61600 25.04400
H  28.11900 0.58300 25.92500
H  28.35600 0.78700 24.08600
H  29.73400 0.56900 25.11900
H  32.31100 -1.62600 29.46400
H  31.67700 -2.49100 28.03400
H  31.99600 -3.33700 29.51300
H  29.26300 -0.48900 33.89500
H  30.33300 -4.03600 36.38800
H  29.57500 -2.70100 37.23700
H  31.37900 -2.70200 36.84800
Mg 46.86800 24.34300 27.97400
C  47.45700 26.88600 30.33000
C  46.27900 22.17100 30.36500
C  46.67600 22.15300 25.55800
C  47.91000 26.80300 25.51800
N  46.99200 24.51500 30.11000
C  47.09400 25.63400 30.88700
C  46.70700 25.33700 32.35500
C  46.62200 23.75900 32.26500
C  46.63500 23.44900 30.82200
C  47.71400 23.02700 33.13000
C  45.42300 25.98000 32.89300
C  45.03500 25.51500 34.31100
H  44.80900 26.60500 35.40000
N  46.51600 22.36300 27.97100
C  46.12100 21.62400 29.02800
C  45.96200 20.25100 28.60800
C  46.04000 20.24200 27.15700
C  46.49000 21.60500 26.84900
C  45.54800 19.12900 29.55600
C  45.73800 19.06600 26.22800
O  45.71500 19.18400 24.97400
C  45.37900 17.65600 26.78000
N  47.26100 24.45400 25.86900
C  47.08400 23.34500 25.09100
C  47.34700 23.66100 23.62700
C  47.61900 25.16100 23.57700
C  47.52100 25.51000 25.08100
C  48.69500 22.95200 23.15000
C  46.59000 25.99800 22.68400
C  45.35800 26.56200 23.39200
N  47.47900 26.42300 27.86400
C  47.89400 27.23200 26.79100
C  48.28500 28.53100 27.25100
C  48.15800 28.48500 28.63500
C  47.66700 27.21500 28.94200
C  48.84500 29.52900 26.34600
C  48.39300 29.12100 29.94300
O  48.92300 30.19100 30.10200
C  47.69200 28.21800 31.05600
C  48.47200 28.10200 32.32600
O  49.53400 27.45600 32.51200
O  47.75400 28.70900 33.36000
C  48.45200 28.57800 34.63500
H  45.99000 21.40100 31.08400
H  46.47300 21.48800 24.71600
H  48.18800 27.37300 24.62900
H  47.60300 25.67800 32.87400
H  45.61600 23.47100 32.57100
H  47.43900 22.88500 34.17400
H  48.56300 23.70700 33.20400
H  48.10800 22.10300 32.70700
H  44.51500 25.77800 32.32600
H  45.53400 27.06000 32.80100
H  45.78700 24.85300 34.74200
H  44.12200 24.92500 34.23400
H  44.62300 18.70300 29.16600
H  45.49000 19.48300 30.58500
H  46.38400 18.42900 29.54600
H  46.04100 17.39200 27.60500
H  45.51800 16.93700 25.97200
H  44.31400 17.72300 27.00100
H  46.57100 23.21400 23.00600
H  48.60400 25.47800 23.23600
H  48.95900 22.10300 23.78200
H  49.51600 23.66500 23.08300
H  48.51500 22.48200 22.18400
H  46.16700 25.29800 21.96400
H  47.16200 26.80600 22.22800
H  45.42600 26.30500 24.44900
H  44.40500 26.12400 23.09400
H  45.40800 27.64800 23.31100
H  48.69600 30.50400 26.81000
H  48.25500 29.51800 25.43000
H  49.90800 29.37200 26.16100
H  46.69200 28.55100 31.33500
H  48.23700 29.46300 35.23300
H  49.54100 28.61000 34.66800
H  48.11300 27.70600 35.19400

