158

Mg 54.95900 24.44400 44.41400
C  52.33200 26.58800 43.44800
C  53.00000 21.89100 43.30900
C  57.68100 22.62600 44.31700
C  56.77700 27.30800 45.31900
N  52.97200 24.31400 43.52700
C  51.98700 25.27300 43.22900
C  50.61000 24.69000 42.81600
C  50.84500 23.16900 43.26600
C  52.32700 23.10800 43.45500
C  50.24200 22.74700 44.61200
C  50.39900 24.81900 41.24700
C  48.95900 24.52900 40.82400
H  48.83000 24.47700 39.25600
N  55.27000 22.45800 44.06300
C  54.35500 21.54400 43.57100
C  54.96200 20.28300 43.49400
C  56.33300 20.48300 43.90500
C  56.48400 21.88100 44.09900
C  54.19800 19.08700 43.07700
C  57.27800 19.33800 44.03300
O  56.90700 18.17600 43.71500
C  58.70600 19.47400 44.42600
N  57.02400 24.98200 44.60100
C  57.91700 23.94300 44.60500
C  59.28800 24.59500 44.78300
C  58.98100 26.00600 45.39400
C  57.48300 26.11900 45.10200
C  60.28500 23.71200 45.63200
C  59.91800 27.20600 45.01700
C  60.84100 27.60500 46.29600
N  54.65100 26.53900 44.46900
C  55.42200 27.52300 45.07600
C  54.73000 28.71100 45.07800
C  53.47900 28.42200 44.48100
C  53.55000 27.12100 44.08800
C  55.23800 30.03100 45.63300
C  52.18700 28.94300 44.10900
O  51.65600 30.02300 44.22900
C  51.45000 27.73400 43.37300
C  51.09200 28.19000 41.92100
O  51.89500 28.16400 41.03000
O  49.71200 28.23700 41.82400
C  49.27300 28.61400 40.47500
H  52.32800 21.03500 43.21900
H  58.58300 22.03900 44.13800
H  57.35100 28.08600 45.82700
H  49.71900 25.11100 43.28200
H  50.46500 22.50700 42.48800
H  51.00400 22.46200 45.33700
H  49.66800 21.83800 44.42800
H  49.65000 23.54700 45.05700
H  51.09300 24.11800 40.78300
H  50.83500 25.76000 40.90900
H  48.32100 25.31700 41.22500
H  48.71100 23.60900 41.35300
H  54.77100 18.57300 42.30500
H  53.25300 19.38600 42.62500
H  54.00400 18.46100 43.94900
H  59.21900 19.98400 43.61100
H  59.19000 18.51600 44.61700
H  58.75400 20.13800 45.29000
H  59.75900 24.71800 43.80800
H  58.97000 25.91500 46.48000
H  59.89200 22.69900 45.71800
H  60.35400 24.19400 46.60700
H  61.28200 23.60200 45.20600
H  59.28600 28.04700 44.73000
H  60.48100 26.95000 44.11900
H  61.75300 27.93500 45.79800
H  60.95400 26.79100 47.01200
H  60.40100 28.46400 46.80200
H  55.56000 30.75400 44.88400
H  56.21100 29.86200 46.09400
H  54.59900 30.49900 46.38100
H  50.56600 27.52400 43.97600
H  49.58400 29.63100 40.23700
H  48.21200 28.39500 40.35400
H  49.81400 27.87200 39.89000
Mg 10.02200 48.15600 26.17000
C  7.81200 48.60300 28.82100
C  12.55000 49.80400 27.94900
C  12.01600 47.81800 23.51500
C  7.25800 47.36900 24.11300
N  10.11300 49.27700 28.12200
C  9.15300 49.05900 29.11200
C  9.77300 49.65200 30.35300
C  11.09500 50.32000 29.96800
C  11.28700 49.77100 28.53900
C  11.21700 51.88700 30.08900
C  9.87700 48.57800 31.45600
C  10.51700 49.00600 32.80800
H  9.76400 48.34200 34.02100
N  12.05600 48.64400 25.82300
C  12.86600 49.22600 26.70400
C  14.22000 49.24800 26.10600
C  14.15500 48.59400 24.84200
C  12.67200 48.30500 24.66700
C  15.44700 49.88600 26.83200
C  15.30200 48.13600 23.86000
O  15.12900 47.52400 22.79100
C  16.72800 48.40000 24.24700
N  9.66100 47.60500 24.03400
C  10.69100 47.43900 23.22200
C  10.29900 46.99600 21.85800
C  8.71400 46.73100 22.01900
C  8.50300 47.18000 23.51900
C  10.61800 47.95600 20.66300
C  8.23000 45.34900 21.78000
C  8.47100 44.27800 22.83400
N  8.00000 48.04700 26.33600
C  6.95900 47.70500 25.46200
C  5.62600 47.67000 26.08400
C  5.99400 48.03100 27.41300
C  7.39100 48.23700 27.49900
C  4.30300 47.32100 25.57800
C  5.45300 48.06500 28.74100
O  4.29300 47.92900 29.10300
C  6.60000 48.37800 29.74000
C  6.78900 47.09600 30.52000
O  7.43500 46.13900 30.14800
O  6.10500 47.17900 31.69800
C  6.47900 46.11400 32.59100
H  13.35800 50.30500 28.48700
H  12.76400 47.70600 22.72800
H  6.51500 46.97700 23.41500
H  9.13100 50.43700 30.75300
H  11.92900 49.96500 30.57300
H  10.25800 52.34200 30.33700
H  11.69500 52.31500 29.20800
H  11.91300 51.94200 30.92600
H  10.30600 47.69500 30.98200
H  8.89700 48.12900 31.61700
H  10.73400 50.07000 32.89700
H  11.48300 48.50000 32.81100
H  16.18900 50.31800 26.16100
H  15.97100 49.07100 27.33200
H  15.20800 50.75700 27.44200
H  16.89200 49.47300 24.15100
H  17.36800 47.77700 23.62100
H  16.79100 48.00300 25.26000
H  10.86100 46.06800 21.76000
H  8.27800 47.43300 21.30800
H  10.80400 48.95900 21.04800
H  9.79600 47.99700 19.94900
H  11.55500 47.62000 20.22000
H  8.64300 45.04600 20.81800
H  7.16100 45.50200 21.63300
H  7.47700 43.85000 22.96000
H  8.71200 44.73900 23.79200
H  9.24300 43.55100 22.58100
H  4.22300 46.41000 24.98400
H  3.97100 48.05600 24.84500
H  3.57600 47.40500 26.38600
H  6.21500 49.19600 30.35000
H  6.18700 45.17800 32.11500
H  5.95500 46.28400 33.53100
H  7.55800 46.21800 32.70200

