158

Mg 35.75300 49.97200 25.62800
C  35.76600 47.89600 28.50900
C  34.22100 52.30100 27.40700
C  35.78100 51.70600 22.83700
C  37.21000 47.23300 23.87000
N  35.13500 50.04200 27.77500
C  35.23000 49.11800 28.77600
C  34.91200 49.78600 30.14700
C  34.30300 51.17400 29.72100
C  34.60200 51.21000 28.16700
C  32.84900 51.52100 30.13900
C  36.15700 49.85700 31.15700
C  35.92300 49.31600 32.55700
H  34.43800 49.44700 33.08500
N  34.98500 51.66600 25.16000
C  34.37500 52.53600 26.02900
C  33.90600 53.69900 25.31100
C  34.27100 53.51500 23.96200
C  35.07700 52.29300 23.93000
C  33.09900 54.71700 25.95300
C  33.93800 54.31200 22.72600
O  34.39300 54.10100 21.63400
C  32.88500 55.35400 22.81400
N  36.40500 49.52100 23.63100
C  36.34200 50.42700 22.66100
C  36.54600 49.82500 21.24800
C  37.47200 48.59100 21.76800
C  36.99200 48.42300 23.15500
C  35.27500 49.46300 20.44400
C  38.99100 48.61300 21.34600
C  39.95600 49.04300 22.38000
N  36.34300 47.99900 26.04100
C  36.87700 47.00000 25.19900
C  36.99900 45.76800 25.94700
C  36.60000 46.13600 27.26000
C  36.17300 47.42600 27.23800
C  37.37600 44.43200 25.47400
C  36.43800 45.55800 28.54400
O  36.73800 44.42000 28.97000
C  35.86900 46.74200 29.45500
C  34.58400 46.29700 30.05800
O  33.49400 46.17300 29.55300
O  34.84900 45.88000 31.41200
C  33.63800 45.65300 32.18300
H  33.77600 53.17100 27.89500
H  35.78700 52.17800 21.85300
H  37.79300 46.52200 23.28100
H  34.13200 49.20200 30.63600
H  34.91600 51.87800 30.28300
H  32.13000 51.60900 29.32400
H  32.84200 52.40400 30.77800
H  32.47100 50.67500 30.71200
H  36.40000 50.91300 31.27400
H  37.03400 49.45000 30.65500
H  36.57200 49.85100 33.24900
H  36.36300 48.32000 32.59600
H  32.05200 54.66100 25.65500
H  33.31700 55.73000 25.61300
H  33.17400 54.77200 27.03900
H  33.21500 56.19300 23.42700
H  32.03600 54.93800 23.35700
H  32.62800 55.68000 21.80600
H  37.05900 50.60200 20.68100
H  37.14100 47.62400 21.38800
H  34.32800 49.71300 20.92300
H  35.28400 48.38300 20.30100
H  35.25800 50.04900 19.52500
H  39.12000 49.23200 20.45800
H  39.34300 47.61400 21.08900
H  40.62500 49.81200 21.99300
H  40.57800 48.24100 22.77700
H  39.46900 49.47500 23.25500
H  37.31600 44.54100 24.39100
H  36.66100 43.71400 25.87700
H  38.36000 44.27800 25.91800
H  36.61000 46.95300 30.22600
H  32.73800 46.21700 31.93800
H  33.84000 45.78200 33.24600
H  33.43100 44.58200 32.18100
Mg -10.17700 18.42500 42.75500
C  -6.77000 17.47600 42.92900
C  -9.11200 21.60400 42.18000
C  -13.29200 19.31800 42.69700
C  -11.05000 14.93500 43.06700
N  -8.11500 19.35600 42.56500
C  -6.88700 18.83300 42.73600
C  -5.78700 19.86200 42.45900
C  -6.53400 21.23000 42.53400
C  -8.04500 20.70600 42.45600
C  -6.36800 22.09400 43.85200
C  -4.80000 19.56500 41.21300
C  -5.34600 18.62600 40.08900
H  -5.23800 19.10900 38.62000
N  -11.09100 20.26500 42.38500
C  -10.47600 21.44400 42.16100
C  -11.51400 22.48300 42.05700
C  -12.80400 21.77300 42.11400
C  -12.47400 20.42600 42.43600
C  -11.10700 23.99000 41.68300
C  -14.17800 22.40600 41.74700
O  -14.36400 23.61900 41.55400
C  -15.40300 21.58500 41.60700
N  -11.94500 17.22800 42.55400
C  -13.14700 17.91000 42.76500
C  -14.28700 16.87700 42.90100
C  -13.56500 15.53000 42.73100
C  -12.09100 15.81900 42.68800
C  -15.16700 17.06200 44.25900
C  -14.08000 14.75900 41.54100
C  -15.20900 13.78500 41.86700
N  -9.17600 16.53800 42.90500
C  -9.65600 15.20800 43.06300
C  -8.52800 14.30500 43.11200
C  -7.39100 15.13300 43.03900
C  -7.79300 16.45600 42.96900
C  -8.72200 12.76300 43.31200
C  -5.94600 15.20400 43.05800
O  -5.13400 14.28100 42.93500
C  -5.49800 16.68500 43.21200
C  -5.11300 16.80300 44.61100
O  -5.94000 16.83700 45.51600
O  -3.75900 16.66500 44.79200
C  -3.18200 16.38000 46.06900
H  -8.90300 22.66800 42.04700
H  -14.36000 19.48500 42.85500
H  -11.29600 13.88500 43.23500
H  -5.16100 19.84600 43.35200
H  -6.39700 21.87100 41.66300
H  -7.07900 21.70800 44.58200
H  -6.63300 23.11900 43.59200
H  -5.37000 22.01100 44.28200
H  -3.94100 19.06300 41.65800
H  -4.37300 20.50600 40.86500
H  -6.35300 18.27900 40.32400
H  -4.65100 17.78700 40.11300
H  -11.94000 24.68100 41.81000
H  -10.46900 24.09300 40.80500
H  -10.50300 24.32300 42.52700
H  -15.93400 21.59100 42.55900
H  -15.22000 20.53900 41.35900
H  -16.09700 21.98800 40.87000
H  -14.99500 17.07000 42.09600
H  -13.81400 14.88300 43.57200
H  -14.98900 18.02200 44.74400
H  -14.96400 16.34000 45.04900
H  -16.20700 17.15600 43.94500
H  -13.29900 14.16100 41.07200
H  -14.53500 15.29600 40.70900
H  -15.95100 13.97900 41.09300
H  -15.60600 13.82100 42.88200
H  -14.86700 12.77100 41.65900
H  -9.12000 12.54400 44.30200
H  -7.73100 12.31100 43.36600
H  -9.20200 12.38300 42.41000
H  -4.68500 16.95000 42.53600
H  -2.45900 15.57100 45.96100
H  -3.95200 16.12400 46.79700
H  -2.68300 17.24800 46.49900

