158

Mg 26.05900 -0.49100 29.04200
C  28.02000 -0.33000 31.85400
C  23.21900 0.06200 31.12200
C  24.07000 -0.62200 26.28000
C  28.73900 -1.45200 27.09300
N  25.71000 -0.29600 31.18700
C  26.69200 -0.09100 32.12800
C  26.13600 0.14100 33.56200
C  24.54300 0.31700 33.23100
C  24.43600 -0.03600 31.80300
C  23.49700 -0.29900 34.22100
C  26.93100 1.23300 34.33400
C  26.23600 1.99400 35.42700
H  27.06000 2.10600 36.76800
N  23.96100 -0.37900 28.73600
C  23.00800 -0.16200 29.74300
C  21.72400 -0.15200 29.05000
C  21.97000 -0.26800 27.67300
C  23.38600 -0.37600 27.49500
C  20.48700 -0.10000 29.77800
C  20.99600 -0.09100 26.50100
O  21.36300 -0.08600 25.36100
C  19.58400 0.00200 26.74800
N  26.35000 -0.79700 27.07900
C  25.36800 -0.80900 26.11500
C  25.89400 -0.93100 24.66200
C  27.42500 -1.12100 24.89700
C  27.55000 -1.12900 26.44900
C  25.28700 -2.09700 23.80500
C  28.36800 -0.12300 24.17700
C  28.83400 1.17200 24.91100
N  28.01100 -0.96800 29.39800
C  29.03200 -1.30100 28.47300
C  30.26400 -1.39400 29.23000
C  29.87700 -0.99800 30.55300
C  28.51700 -0.73700 30.55800
C  31.59200 -1.72400 28.54200
C  30.33700 -0.84300 31.84300
O  31.48300 -0.97800 32.24200
C  29.24100 -0.39200 32.79400
C  29.16600 -1.48700 33.91100
O  28.59800 -2.55500 33.73900
O  29.71000 -0.95500 35.12300
C  29.41900 -1.89500 36.23800
H  22.33200 0.33500 31.69800
H  23.51600 -0.72600 25.34500
H  29.56500 -1.57900 26.39100
H  26.30600 -0.70400 34.22800
H  24.32800 1.38000 33.34600
H  22.76300 -1.00600 33.83400
H  22.93200 0.51300 34.67700
H  24.12800 -0.68400 35.02200
H  27.47800 1.87800 33.64700
H  27.79000 0.78300 34.83100
H  25.33000 1.44800 35.69000
H  25.99900 3.00700 35.10200
H  20.10100 -1.08600 29.51800
H  19.88700 0.78000 29.54700
H  20.66200 -0.12600 30.85400
H  18.92700 0.30200 25.93100
H  19.52600 0.74600 27.54300
H  19.26500 -0.97700 27.10500
H  25.75700 -0.04300 24.04600
H  27.61700 -2.16900 24.66800
H  26.06400 -2.53700 23.17900
H  24.57000 -1.55200 23.19100
H  24.75900 -2.82100 24.42600
H  27.97400 0.20100 23.21300
H  29.28100 -0.71600 24.11700
H  28.18900 1.39000 25.76300
H  28.86300 2.06600 24.28900
H  29.82700 1.01800 25.33300
H  31.71300 -1.34400 27.52700
H  31.75200 -2.79900 28.45800
H  32.41800 -1.30700 29.11900
H  29.49700 0.58900 33.19400
H  28.50200 -1.50100 36.67700
H  30.21100 -1.79500 36.98000
H  29.30300 -2.94300 35.96000
Mg 0.55200 42.86900 26.24700
C  2.95000 42.40200 28.88900
C  -1.91300 42.44000 28.55200
C  -1.49900 42.56300 23.71900
C  3.35200 42.61200 23.96200
N  0.54700 42.31600 28.44200
C  1.61000 42.31300 29.31900
C  1.14500 42.17200 30.73400
C  -0.31300 41.78500 30.50100
C  -0.61800 42.32300 29.08600
C  -0.68800 40.32100 30.76900
C  1.25900 43.39000 31.58400
C  1.17300 43.24800 33.08700
H  0.62300 41.95400 33.63500
N  -1.45900 42.69300 26.18500
C  -2.29000 42.67500 27.21600
C  -3.61700 42.95800 26.76600
C  -3.56800 42.90000 25.33900
C  -2.14000 42.70500 24.99300
C  -4.72500 43.16900 27.71200
C  -4.68800 43.00700 24.33300
O  -4.55300 42.87000 23.12400
C  -5.97900 43.36900 24.89000
N  0.86000 42.67700 24.11700
C  -0.15500 42.50900 23.31000
C  0.27700 42.50200 21.80800
C  1.80700 42.75500 21.87100
C  2.07300 42.70900 23.43200
C  -0.20100 41.36400 20.90300
C  2.33800 44.10700 21.25900
C  2.12900 45.49300 21.97400
N  2.69100 42.70400 26.36600
C  3.65900 42.61800 25.32100
C  4.97500 42.54200 25.92100
C  4.71400 42.49700 27.30500
C  3.35100 42.57400 27.53000
C  6.26900 42.46500 25.18000
C  5.34100 42.33600 28.55100
O  6.51200 42.13100 28.73600
C  4.19900 42.38900 29.68800
C  4.34400 41.11000 30.51600
O  4.24000 39.97600 30.06100
O  4.58600 41.49200 31.87500
C  4.70700 40.38100 32.80000
H  -2.63600 42.47800 29.36900
H  -2.19100 42.37700 22.89500
H  4.26200 42.50000 23.36900
H  1.69200 41.35300 31.20200
H  -0.95600 42.36500 31.16200
H  -1.65700 40.25200 31.26300
H  0.00900 39.80000 31.42500
H  -0.74500 39.84900 29.78800
H  0.43900 44.06300 31.33100
H  2.20300 43.85800 31.30500
H  0.62200 44.11300 33.45800
H  2.18400 43.27500 33.49400
H  -5.52700 43.84900 27.42300
H  -4.37400 43.60600 28.64700
H  -5.19500 42.20000 27.87800
H  -6.29800 42.59600 25.59000
H  -6.66200 43.47600 24.04700
H  -5.97900 44.35900 25.34700
H  -0.17800 43.39600 21.38000
H  2.39900 41.92300 21.48900
H  0.50700 41.33900 20.07400
H  -1.21300 41.50800 20.52200
H  -0.10100 40.39200 21.38500
H  1.96900 44.12000 20.23300
H  3.41400 43.95800 21.16600
H  1.20900 45.39900 22.55100
H  2.05200 46.27300 21.21600
H  2.96600 45.78900 22.60600
H  6.25900 43.11500 24.30500
H  6.51700 41.43900 24.90800
H  6.97900 42.91900 25.87100
H  4.24900 43.20200 30.41200
H  5.72700 40.00000 32.76200
H  4.01700 39.55600 32.62200
H  4.56900 40.74600 33.81800

