158

Mg 29.30200 59.77500 40.84200
C  26.24000 58.36500 40.06200
C  30.81700 56.90000 39.78100
C  32.29900 61.33200 41.11900
C  27.62900 62.77200 41.50300
N  28.59700 57.87100 40.12500
C  27.35100 57.63500 39.70000
C  27.41300 56.28700 38.88900
C  28.69500 55.56400 39.35500
C  29.41500 56.83100 39.73900
C  28.54700 54.53100 40.46400
C  27.26500 56.48100 37.36400
C  26.70600 55.28600 36.57800
H  25.92100 55.70100 35.39100
N  31.28500 59.17300 40.47200
C  31.73200 57.98000 40.05200
C  33.16800 57.95400 39.93000
C  33.62800 59.19200 40.30600
C  32.36600 59.91900 40.69800
C  33.96200 56.73800 39.48000
C  35.05700 59.58300 40.49600
O  35.93600 58.75100 40.31000
C  35.43600 60.98000 40.85700
N  29.85900 61.79800 41.29400
C  31.19700 62.13700 41.39000
C  31.33400 63.66600 41.71600
C  29.79300 63.96600 42.02300
C  29.01000 62.78900 41.54300
C  32.28000 64.05200 42.84400
C  29.17100 65.31500 41.49000
C  28.28400 66.15200 42.42100
N  27.25300 60.41600 41.10000
C  26.79200 61.67700 41.26700
C  25.40400 61.61400 41.18500
C  25.11500 60.29400 40.65500
C  26.27800 59.62900 40.62500
C  24.40300 62.61800 41.44000
C  24.01900 59.37200 40.23400
O  22.81200 59.43500 40.26700
C  24.71800 58.05600 39.84300
C  24.27900 56.91300 40.84900
O  24.32700 57.14600 42.04800
O  23.78200 55.81900 40.21500
C  23.49300 54.73000 41.17100
H  31.18400 55.92300 39.46100
H  33.25600 61.84300 41.24300
H  27.13100 63.70100 41.78700
H  26.58100 55.66100 39.21500
H  29.16200 55.09200 38.49100
H  28.80700 54.94100 41.44000
H  29.19100 53.66100 40.33300
H  27.51200 54.19400 40.40400
H  28.23200 56.76200 36.94700
H  26.52900 57.24900 37.12800
H  26.10200 54.58600 37.15600
H  27.57000 54.69700 36.27000
H  33.34000 55.97900 39.00400
H  34.61200 56.25500 40.20900
H  34.63600 57.17000 38.74000
H  34.95000 61.62600 40.12600
H  36.49400 61.23300 40.92900
H  35.14800 61.08000 41.90300
H  31.76300 64.21000 40.87500
H  29.77200 63.92700 43.11200
H  32.97000 63.26700 43.15500
H  31.72900 64.15100 43.77900
H  32.94100 64.86800 42.55100
H  28.58800 65.03800 40.61200
H  30.02700 65.89200 41.14000
H  28.57700 67.20100 42.37400
H  28.41800 65.85200 43.46000
H  27.21900 66.06000 42.20800
H  23.46200 62.55700 40.89300
H  24.71500 63.54000 40.95100
H  24.38100 62.82200 42.51000
H  24.52200 57.68600 38.83700
H  24.46800 54.29500 41.39000
H  22.90900 53.89000 40.79400
H  23.00900 54.99100 42.11200
Mg 15.95700 53.27600 24.99300
C  17.45900 51.96000 27.79900
C  13.34500 54.34400 26.89500
C  14.42600 54.21300 22.14300
C  18.34500 51.45000 23.11100
N  15.43300 53.01400 27.06500
C  16.24900 52.70100 28.08300
C  15.70700 53.11900 29.42500
C  14.21400 53.58200 29.09200
C  14.25400 53.57500 27.54800
C  13.12400 52.49700 29.60600
C  16.64900 54.21200 30.06000
C  16.98800 53.99800 31.53200
H  16.03500 53.22000 32.46000
N  14.19100 54.37500 24.63400
C  13.25500 54.73700 25.55000
C  12.20900 55.41400 24.84900
C  12.54400 55.39500 23.47000
C  13.79900 54.65800 23.33000
C  11.00800 55.92900 25.63000
C  11.78900 55.88500 22.24700
O  12.16500 55.77400 21.06700
C  10.45200 56.46700 22.42800
N  16.28800 52.82000 22.90800
C  15.48100 53.30200 21.92500
C  16.12100 53.03900 20.55100
C  17.46700 52.20500 20.88800
C  17.40700 52.21600 22.39200
C  15.26900 52.31500 19.48200
C  18.77900 52.83900 20.22700
C  19.30100 52.18800 18.93200
N  17.48400 51.97500 25.33200
C  18.43100 51.39500 24.51400
C  19.40100 50.67100 25.17200
C  19.08600 50.95500 26.50100
C  17.85700 51.65100 26.52900
C  20.51400 49.82900 24.57500
C  19.58600 50.79400 27.80300
O  20.68800 50.36200 28.13600
C  18.50900 51.40800 28.77800
C  18.09300 50.42800 29.72400
O  17.14000 49.62500 29.54600
O  18.91000 50.59000 30.84900
C  18.43600 49.88200 32.03500
H  12.63000 54.78100 27.59500
H  14.00400 54.50700 21.18000
H  19.07800 50.92700 22.49400
H  15.59000 52.21700 30.02600
H  13.93600 54.55500 29.49700
H  12.62500 52.68200 30.55700
H  13.53200 51.49200 29.71700
H  12.42200 52.56600 28.77500
H  16.24300 55.22300 30.05600
H  17.61500 54.23900 29.55400
H  17.21000 54.99200 31.92100
H  17.99000 53.57100 31.56600
H  10.27700 55.13100 25.76300
H  10.53700 56.73900 25.07300
H  11.27500 56.37900 26.58500
H  10.12000 56.66400 21.40900
H  10.55400 57.42700 22.93500
H  9.66200 55.89900 22.92000
H  16.45500 54.01600 20.20100
H  17.26200 51.17600 20.59500
H  15.75100 51.71800 18.70800
H  14.96400 53.18500 18.89900
H  14.42800 51.81100 19.95900
H  19.54500 52.89900 20.99900
H  18.54300 53.85300 19.90500
H  18.57600 51.55500 18.42000
H  20.12500 51.55500 19.26300
H  19.63600 52.94800 18.22600
H  20.32800 49.31500 23.63200
H  20.46600 49.13200 25.41100
H  21.41000 50.44200 24.48000
H  18.98400 52.19600 29.36300
H  18.68900 48.83300 31.88000
H  17.36800 49.87600 32.25200
H  18.91200 50.29900 32.92200

