158

Mg 10.69800 46.76900 25.61000
C  8.60800 47.27800 28.35400
C  13.20900 48.42900 27.30700
C  12.71600 46.21200 22.97300
C  7.92000 45.65400 23.78500
N  10.92900 47.56200 27.70400
C  9.95600 47.67900 28.71100
C  10.56100 48.18000 29.97800
C  11.81400 48.98800 29.42000
C  12.00700 48.27500 28.08200
C  11.77500 50.52900 29.49700
C  10.85800 46.98700 30.87200
C  10.42000 47.15500 32.33100
H  10.32500 45.98500 33.19600
N  12.79600 47.16900 25.23500
C  13.62300 47.84700 26.06000
C  14.95000 47.84800 25.45200
C  14.82000 47.28700 24.15400
C  13.44100 46.85100 24.06500
C  16.16500 48.44900 26.27300
C  15.89600 47.15100 23.13900
O  15.76600 46.49800 22.14000
C  17.19300 47.65300 23.38300
N  10.27100 46.24500 23.60600
C  11.35600 45.99300 22.76500
C  10.79300 45.49200 21.36900
C  9.31500 45.15900 21.70400
C  9.13000 45.67900 23.11300
C  10.96600 46.54900 20.24900
C  9.02200 43.61500 21.54600
C  9.43400 42.60300 22.68100
N  8.75800 46.42300 25.97400
C  7.73200 45.97900 25.11800
C  6.48400 46.01800 25.82000
C  6.84000 46.39700 27.14500
C  8.17500 46.73700 27.11200
C  5.13400 45.68100 25.34700
C  6.24800 46.62900 28.45500
O  5.09800 46.47400 28.89300
C  7.51200 47.04500 29.35200
C  7.76700 45.87400 30.15200
O  8.31700 44.82900 29.83800
O  7.14700 46.04100 31.41700
C  7.29000 44.92500 32.38300
H  14.07600 48.98600 27.66700
H  13.25400 45.89400 22.07800
H  7.03800 45.42900 23.18100
H  9.94900 48.89600 30.52800
H  12.67000 48.73800 30.04700
H  10.75300 50.83700 29.71800
H  12.06800 50.95000 28.53500
H  12.48800 50.79600 30.27700
H  11.94700 46.99100 30.92700
H  10.54500 45.98700 30.57000
H  9.41700 47.58200 32.31500
H  11.10700 47.80000 32.87900
H  15.92000 48.39000 27.33300
H  16.28900 49.50600 26.03700
H  17.05500 47.82700 26.17600
H  17.16600 48.71900 23.60700
H  17.81500 47.64200 22.48800
H  17.56500 46.97600 24.15300
H  11.28200 44.57000 21.05500
H  8.58100 45.68800 21.09700
H  11.85700 47.09400 20.55900
H  10.17600 47.28600 20.39000
H  11.22500 46.14100 19.27200
H  9.60700 43.28100 20.68900
H  7.95700 43.50100 21.34100
H  10.19800 41.89700 22.35600
H  8.58500 42.04000 23.07100
H  9.81900 43.15300 23.53900
H  5.33500 44.88200 24.63300
H  4.69700 46.51300 24.79500
H  4.47600 45.42400 26.17700
H  7.46900 47.90000 30.02800
H  7.39200 45.28300 33.40700
H  8.06200 44.17600 32.20700
H  6.32900 44.41600 32.30300
Mg -6.52100 24.94900 25.91800
C  -4.68000 26.06500 28.91100
C  -8.21200 22.90400 28.03100
C  -7.61200 23.40200 23.21500
C  -4.00400 26.63900 24.01000
N  -6.48700 24.66100 28.14900
C  -5.74600 25.21700 29.13800
C  -6.21800 24.80600 30.58400
C  -7.04100 23.53400 30.21500
C  -7.29900 23.74200 28.70100
C  -6.25900 22.15300 30.42700
C  -7.01600 25.99300 31.23700
C  -6.90900 26.10100 32.77000
H  -6.51600 24.80600 33.44600
N  -7.97500 23.55100 25.60200
C  -8.53100 22.81700 26.57700
C  -9.47000 21.88200 25.97100
C  -9.34200 22.03200 24.54300
C  -8.34600 23.11200 24.37300
C  -10.40400 21.03600 26.82700
C  -10.03200 21.20100 23.42100
O  -9.80500 21.35000 22.25000
C  -10.97000 20.15400 23.81600
N  -5.88900 24.95800 23.94100
C  -6.51700 24.26100 22.99700
C  -5.82000 24.31200 21.64300
C  -5.01300 25.62100 21.84200
C  -4.92900 25.80200 23.35100
C  -4.88600 23.14600 21.38400
C  -5.56400 26.88100 21.11300
C  -4.73000 27.55700 20.05600
N  -4.70800 26.06500 26.32500
C  -3.87500 26.74400 25.42200
C  -2.86800 27.54700 26.16800
C  -3.08500 27.16400 27.51100
C  -4.19900 26.31200 27.59400
C  -1.83000 28.42700 25.62800
C  -2.67300 27.48100 28.92000
O  -1.73600 28.17600 29.35300
C  -3.67800 26.77700 29.87400
C  -2.91200 25.95100 30.75400
O  -2.54400 24.80200 30.52200
O  -2.55800 26.70600 31.88400
C  -1.77700 26.08800 32.93600
H  -8.81200 22.25400 28.67100
H  -7.89300 22.81700 22.33700
H  -3.34800 27.19600 23.33800
H  -5.33200 24.51400 31.14800
H  -7.97900 23.57800 30.76900
H  -5.27000 22.44700 30.77700
H  -6.13700 21.55100 29.52700
H  -6.73700 21.51300 31.16900
H  -8.06500 25.84000 30.98600
H  -6.60300 26.93000 30.86300
H  -7.85700 26.54700 33.07000
H  -6.08500 26.81100 32.69900
H  -10.76100 21.62400 27.67200
H  -9.87100 20.14500 27.16100
H  -11.29400 20.57400 26.40000
H  -10.30100 19.42800 24.27800
H  -11.40700 19.65500 22.95200
H  -11.76700 20.62200 24.39400
H  -6.56600 24.49400 20.86900
H  -4.01900 25.47800 21.41900
H  -5.01100 22.36900 22.13900
H  -3.84500 23.43600 21.24500
H  -5.17000 22.64300 20.45900
H  -5.69300 27.68400 21.83800
H  -6.51200 26.65600 20.62400
H  -4.88300 28.60800 20.30100
H  -5.08300 27.36400 19.04300
H  -3.70000 27.25400 20.24100
H  -0.89900 28.42600 26.19600
H  -2.24000 29.43100 25.52300
H  -1.60000 28.07000 24.62400
H  -4.26900 27.54600 30.37100
H  -1.61200 26.82000 33.72700
H  -0.82900 25.73200 32.53300
H  -2.35200 25.25000 33.33000

