158

Mg 54.74100 24.17800 45.41100
C  52.14400 26.26500 44.44600
C  53.08700 21.49600 44.16900
C  57.56300 22.33500 45.99400
C  56.47200 27.06100 46.55500
N  53.02200 24.04600 44.08800
C  51.99800 24.95900 43.94800
C  50.78600 24.32100 43.17000
C  51.02500 22.87500 43.65100
C  52.53300 22.79100 43.85200
C  50.23100 22.30000 44.84800
C  50.74100 24.58400 41.63600
C  49.39900 24.44600 41.00600
H  49.37600 23.87300 39.58900
N  55.19300 22.14000 45.18000
C  54.37900 21.20600 44.62300
C  55.03900 19.98000 44.56500
C  56.40700 20.13600 44.94100
C  56.48000 21.57400 45.45700
C  54.39000 18.76100 44.03800
C  57.45400 19.13000 44.88100
O  57.21600 17.98900 44.44300
C  58.89900 19.39700 45.19700
N  56.82300 24.63200 45.95700
C  57.74700 23.70800 46.19500
C  59.04900 24.35200 46.62100
C  58.72000 25.85300 46.72800
C  57.26200 25.87200 46.46600
C  59.64900 23.74600 47.97600
C  59.47200 26.80600 45.76700
C  60.14900 28.07500 46.32400
N  54.41200 26.26700 45.55200
C  55.19000 27.26400 46.11500
C  54.37200 28.47800 46.23000
C  53.20100 28.13800 45.54100
C  53.31600 26.76100 45.16100
C  54.70600 29.69300 46.87600
C  51.95400 28.55300 45.11900
O  51.41600 29.67000 45.19200
C  51.28400 27.49800 44.30400
C  51.07700 28.02000 42.94700
O  51.96800 28.28600 42.12600
O  49.69900 28.16600 42.67700
C  49.40900 28.53800 41.28100
H  52.45900 20.62700 43.96100
H  58.52400 21.89900 46.27500
H  56.92800 27.99300 46.89500
H  49.84500 24.74500 43.52200
H  50.74000 22.18600 42.85600
H  49.42100 22.94900 45.18000
H  50.89500 22.04300 45.67300
H  49.79200 21.39100 44.43500
H  51.30800 23.79100 41.14800
H  51.22600 25.53400 41.41300
H  48.95300 25.43900 40.94500
H  48.70200 23.84500 41.58900
H  54.70000 18.58300 43.00900
H  53.30800 18.82800 43.92600
H  54.64300 17.87400 44.61900
H  59.25100 20.38000 44.88400
H  59.56900 18.63800 44.79200
H  59.02600 19.45100 46.27800
H  59.73700 24.19900 45.78900
H  58.96400 26.20000 47.73200
H  59.15800 22.77800 48.07100
H  59.33400 24.28400 48.87000
H  60.72100 23.56000 47.90400
H  58.72400 27.16000 45.05800
H  60.15300 26.31100 45.07500
H  59.60200 28.94700 45.96500
H  61.18700 27.90400 46.03800
H  60.14400 28.23900 47.40100
H  55.52500 29.64700 47.59300
H  53.82800 30.05600 47.41100
H  54.98700 30.43600 46.12900
H  50.28100 27.46200 44.72900
H  48.84800 29.47300 41.29800
H  48.58000 27.99700 40.82600
H  50.16000 28.46300 40.49500
Mg 36.52300 49.12700 25.78500
C  36.67700 47.09900 28.74400
C  35.69500 51.71600 27.80100
C  36.07100 50.88300 23.01500
C  36.88900 46.15500 23.94500
N  36.31400 49.37100 28.01400
C  36.44400 48.43800 28.97800
C  36.30300 49.05900 30.29300
C  35.65500 50.49800 30.07100
C  35.85400 50.55800 28.57700
C  34.19100 50.64000 30.46700
C  37.62200 49.16800 31.03600
C  37.57600 49.10500 32.60300
H  36.19400 49.35000 33.25700
N  36.18400 51.11800 25.44600
C  35.87400 51.99500 26.43000
C  35.69900 53.36000 25.75900
C  35.86600 53.09800 24.30500
C  36.03600 51.65000 24.17400
C  35.44600 54.72900 26.48400
C  35.78200 54.06000 23.10800
O  35.80300 53.66900 21.93600
C  35.76100 55.54100 23.35600
N  36.33100 48.56300 23.80700
C  36.17000 49.45800 22.78700
C  36.31300 48.81400 21.35500
C  36.90700 47.42900 21.72300
C  36.61400 47.32800 23.23900
C  34.94000 48.73600 20.72700
C  38.49600 47.29400 21.51600
C  39.02700 47.11300 20.08100
N  36.69700 47.04900 26.14900
C  36.97800 46.00200 25.34000
C  37.28100 44.76300 26.03500
C  37.08200 45.15200 27.39400
C  36.79500 46.52700 27.41200
C  37.61100 43.46300 25.46100
C  37.11000 44.66300 28.73600
O  37.27700 43.51700 29.12700
C  36.92000 45.94100 29.66600
C  35.70000 45.70100 30.54500
O  34.58500 45.53100 30.18200
O  36.08300 45.75500 31.85900
C  35.02700 45.52200 32.83700
H  35.37800 52.63300 28.30300
H  36.10100 51.43800 22.07500
H  37.28200 45.29200 23.40200
H  35.59700 48.51400 30.91900
H  36.11700 51.24600 30.71600
H  33.57800 50.77600 29.57500
H  34.12200 51.54700 31.06700
H  33.94100 49.88200 31.20900
H  38.06600 50.11100 30.71800
H  38.26400 48.36600 30.67200
H  38.27100 49.88500 32.91600
H  37.95200 48.11500 32.86100
H  34.73700 55.31500 25.90100
H  36.34600 55.33900 26.55900
H  34.91500 54.56900 27.42200
H  36.56400 55.64300 24.08600
H  34.75600 55.82600 23.66800
H  36.02600 56.01900 22.41200
H  37.02700 49.34500 20.72400
H  36.29600 46.65400 21.26000
H  34.42200 47.79000 20.88100
H  34.94000 48.98800 19.66600
H  34.37000 49.41900 21.35700
H  38.68500 46.37300 22.06800
H  38.96500 48.19600 21.91100
H  38.22200 47.39100 19.40100
H  39.16800 46.03200 20.08300
H  39.85800 47.77500 19.83800
H  38.61700 43.39900 25.04700
H  36.87000 43.15200 24.72400
H  37.56100 42.70900 26.24600
H  37.78700 46.06500 30.31500
H  34.10500 46.03700 32.56900
H  35.43800 45.79600 33.80800
H  34.64400 44.50100 32.85500

