158

Mg -0.70100 7.15700 26.72200
C  0.39100 9.23700 29.36100
C  -1.06700 4.66800 29.12500
C  -1.24300 5.07000 24.19900
C  0.22100 9.73700 24.39800
N  -0.36100 7.02500 28.98700
C  -0.03600 8.04700 29.87000
C  -0.30400 7.68900 31.29700
C  -0.37200 6.07800 31.16700
C  -0.60400 5.89300 29.72200
C  1.00400 5.50900 31.79800
C  -1.54900 8.45200 31.91100
C  -1.72200 8.66700 33.48500
H  -0.73400 8.25300 34.48900
N  -1.15300 5.15200 26.71500
C  -1.32400 4.30500 27.73600
C  -1.75900 3.04000 27.26200
C  -1.77300 3.07700 25.85800
C  -1.39000 4.45900 25.50500
C  -1.96900 1.81200 28.12600
C  -2.19400 2.01900 24.79300
O  -2.05300 2.14500 23.58100
C  -2.82000 0.73100 25.26000
N  -0.59600 7.37900 24.56700
C  -0.93800 6.37900 23.75600
C  -0.95200 6.84100 22.30800
C  -0.63900 8.38900 22.45100
C  -0.32000 8.55300 23.90500
C  0.05900 6.03600 21.36400
C  -1.68600 9.41500 21.98800
C  -1.24700 10.50600 20.95400
N  0.27300 9.05200 26.76900
C  0.59700 9.90800 25.74800
C  1.18600 11.12700 26.30100
C  1.05800 10.94100 27.71200
C  0.55900 9.58500 27.96800
C  1.63400 12.35600 25.61700
C  1.28700 11.53800 29.03100
O  1.72200 12.64200 29.25700
C  0.78900 10.50200 30.11800
C  1.80900 10.44900 31.21400
O  2.57600 9.50200 31.31700
O  1.77500 11.52000 31.99200
C  2.46900 11.40200 33.29200
H  -1.28400 3.86700 29.83500
H  -1.31600 4.35800 23.37500
H  0.49500 10.39800 23.57300
H  0.47600 8.07600 31.95200
H  -1.12100 5.53600 31.74300
H  0.68400 4.84700 32.60200
H  1.63500 6.29200 32.21900
H  1.55700 5.04300 30.98300
H  -2.40600 7.84200 31.62600
H  -1.73700 9.44100 31.49400
H  -2.62300 8.14500 33.80700
H  -1.99500 9.70500 33.67700
H  -1.92300 2.10300 29.17500
H  -1.23900 1.01400 27.98900
H  -2.97200 1.47200 27.87000
H  -3.14000 0.11700 24.41900
H  -3.75300 0.98600 25.76200
H  -2.13100 0.17600 25.89700
H  -1.98300 6.74300 21.96800
H  0.29100 8.48600 21.89000
H  0.62300 5.39000 22.03800
H  0.78000 6.64200 20.81600
H  -0.55900 5.46500 20.67100
H  -2.18700 9.91000 22.82000
H  -2.48800 8.82900 21.54000
H  -1.74600 10.47500 19.98600
H  -0.16100 10.55200 20.87700
H  -1.58800 11.43400 21.41300
H  0.99100 12.70700 24.80900
H  2.60700 12.05600 25.22900
H  1.75400 13.05800 26.44100
H  0.00600 10.88700 30.77100
H  2.38800 10.41500 33.74900
H  1.96200 12.01200 34.03900
H  3.48100 11.78100 33.15000
Mg 51.09600 47.04100 42.06700
C  47.86400 48.23400 41.16700
C  50.17000 44.07500 40.73900
C  54.22600 46.13700 42.67600
C  51.84500 50.17600 43.40400
N  49.19800 46.29500 41.08800
C  48.05300 46.94600 40.77100
C  47.09500 46.10100 39.94600
C  47.80500 44.70600 39.97800
C  49.14400 45.05900 40.64800
C  47.05100 43.64600 40.86100
C  46.85500 46.75700 38.52900
C  45.33900 46.85600 38.41000
H  44.69500 46.15100 37.09500
N  52.08500 45.33800 41.72100
C  51.48400 44.19700 41.15200
C  52.51000 43.14500 41.08500
C  53.72400 43.72200 41.61500
C  53.38800 45.09700 42.08800
C  52.30200 41.75400 40.53600
C  55.05500 42.98900 41.72900
O  55.12300 41.84800 41.25100
C  56.20500 43.61700 42.44800
N  52.84900 48.09900 42.84300
C  54.02500 47.49000 42.96100
C  55.05100 48.37800 43.58400
C  54.29300 49.71500 43.77700
C  52.91600 49.33300 43.28500
C  55.76000 47.75000 44.84400
C  54.90400 50.88100 42.93800
C  54.41300 52.35200 43.36600
N  50.12500 48.88100 42.28600
C  50.52100 50.05300 42.88700
C  49.48800 51.06300 42.90000
C  48.41200 50.32100 42.22800
C  48.87000 49.05700 41.85600
C  49.42700 52.45600 43.42200
C  47.05000 50.49500 41.66100
O  46.27700 51.42800 41.69400
C  46.63400 49.12600 40.97900
C  45.47200 48.70900 41.76000
O  45.41900 48.18500 42.85800
O  44.37500 48.92700 40.99600
C  43.10500 48.39400 41.53000
H  49.71800 43.14100 40.39700
H  55.26900 45.90900 42.90600
H  52.02600 51.21600 43.68600
H  46.25500 45.98200 40.63000
H  47.95000 44.35400 38.95600
H  46.71100 42.84400 40.20600
H  46.14900 43.98700 41.37100
H  47.77800 43.28000 41.58600
H  47.31900 46.10400 37.78900
H  47.40900 47.68700 38.39800
H  45.06900 47.90400 38.27700
H  44.78900 46.50500 39.28300
H  53.13200 41.34400 39.96100
H  51.38800 41.82500 39.94600
H  52.15300 41.02400 41.33200
H  57.06200 42.96400 42.60900
H  55.87600 43.77900 43.47400
H  56.53200 44.51700 41.92700
H  55.72600 48.62700 42.76500
H  54.34000 50.01800 44.82300
H  55.47600 46.72400 45.08000
H  55.60400 48.42400 45.68600
H  56.83200 47.72000 44.64600
H  54.53800 50.65600 41.93600
H  55.96900 50.78100 42.72900
H  55.24800 52.98400 43.66600
H  53.78800 52.40600 44.25800
H  53.72500 52.69500 42.59400
H  49.47300 53.09000 42.53600
H  50.34800 52.51700 44.00000
H  48.51700 52.70000 43.97000
H  46.53200 49.25500 39.90100
H  43.06000 48.37900 42.61900
H  42.92200 47.36500 41.22000
H  42.29700 49.01700 41.14600

