158

Mg 35.96000 48.61400 25.72600
C  36.35000 46.89200 28.75600
C  34.51600 51.09500 27.55900
C  35.46200 50.24500 22.91600
C  36.81400 45.80100 23.99700
N  35.50000 48.99100 28.00200
C  35.88100 48.21800 29.01300
C  35.49800 48.78000 30.40200
C  34.69600 50.09000 29.96200
C  34.88500 50.10500 28.45600
C  33.17700 50.18300 30.35600
C  36.75400 49.05400 31.29900
C  36.65500 48.81000 32.79000
H  35.31000 49.02700 33.39400
N  35.15200 50.42200 25.31700
C  34.68600 51.33600 26.22500
C  34.45500 52.57200 25.55600
C  34.68900 52.34100 24.13900
C  35.13500 50.97500 24.08600
C  34.04400 53.87400 26.24400
C  34.43300 53.33200 22.97000
O  34.53900 52.93100 21.86400
C  33.99600 54.73700 23.18100
N  35.97600 48.03800 23.69000
C  35.83300 48.92200 22.67600
C  36.23600 48.29700 21.32600
C  36.87300 46.90900 21.77700
C  36.51900 46.93500 23.25000
C  35.08900 48.11700 20.28400
C  38.33700 46.75900 21.39800
C  39.40400 47.69400 21.92900
N  36.48100 46.73900 26.23600
C  36.82000 45.69300 25.38600
C  37.27600 44.59700 26.21400
C  37.00700 44.95200 27.52900
C  36.59400 46.30800 27.46200
C  37.92700 43.25100 25.83200
C  37.09300 44.55800 28.85900
O  37.43400 43.54800 29.37700
C  36.62100 45.82800 29.73600
C  35.37900 45.52500 30.47600
O  34.31400 45.19900 29.94200
O  35.61200 45.53400 31.87200
C  34.41000 45.11900 32.68200
H  34.18000 51.93600 28.16800
H  35.46200 50.73700 21.94100
H  37.13400 44.94000 23.40500
H  34.80700 48.17400 30.98800
H  35.20000 50.89000 30.50400
H  32.51900 49.74700 29.60500
H  33.01500 51.25600 30.46400
H  33.03800 49.70600 31.32600
H  37.15500 50.05700 31.15000
H  37.45800 48.31700 30.91400
H  37.45400 49.32100 33.32700
H  36.92000 47.75600 32.86800
H  34.93800 54.49700 26.23900
H  33.75500 53.75600 27.28800
H  33.22100 54.40500 25.76400
H  32.92000 54.71300 23.35700
H  34.21300 55.14600 22.19400
H  34.48700 55.34800 23.93800
H  36.99900 48.98700 20.96400
H  36.35300 46.06100 21.33300
H  34.16000 48.26100 20.83400
H  34.96400 47.11000 19.88700
H  35.03200 48.81200 19.44600
H  38.47000 47.01600 20.34700
H  38.69600 45.74000 21.54300
H  39.98000 47.13200 22.66500
H  38.98500 48.63800 22.27500
H  40.02900 48.01400 21.09500
H  38.40900 42.87800 26.73500
H  38.67200 43.58800 25.11100
H  37.23600 42.53000 25.39400
H  37.29800 46.04200 30.56300
H  34.42800 45.51300 33.69800
H  34.35500 44.03900 32.82100
H  33.44900 45.40200 32.25200
Mg 8.78500 48.08200 27.50500
C  6.76200 47.84600 30.41600
C  11.56100 48.00900 29.52300
C  10.63000 48.60300 24.80000
C  5.85800 48.61200 25.55000
N  9.03500 48.33700 29.78500
C  8.11100 47.95200 30.79300
C  8.76200 47.71200 32.18600
C  10.27000 48.06300 31.81300
C  10.32800 48.17200 30.24500
C  10.75300 49.30600 32.54600
C  8.72400 46.27600 32.82400
C  9.83400 45.83400 33.83700
H  9.39300 45.47200 35.24300
N  10.80100 48.28900 27.20400
C  11.76900 48.12900 28.16000
C  13.07200 48.23000 27.52500
C  12.83900 48.25400 26.15100
C  11.37500 48.25000 25.94000
C  14.37500 48.32600 28.37200
C  13.81900 48.14100 25.05400
O  13.55000 48.09900 23.86800
C  15.27500 48.14300 25.41000
N  8.25500 48.59000 25.48200
C  9.25200 48.74800 24.55900
C  8.68700 49.15200 23.19000
C  7.15600 48.91900 23.33500
C  7.05400 48.72400 24.82200
C  9.10900 50.57800 22.72900
C  6.68600 47.70500 22.45300
C  7.03900 46.30100 22.84500
N  6.76000 48.20000 27.90500
C  5.68700 48.34400 26.97700
C  4.47400 48.18400 27.72700
C  4.85000 48.00000 29.02900
C  6.25300 47.94400 29.10900
C  3.05200 48.18600 27.25900
C  4.29100 47.66600 30.34300
O  3.13600 47.64100 30.75900
C  5.55200 47.53800 31.27300
C  5.54000 46.17200 31.92100
O  5.95000 45.12200 31.45500
O  5.16000 46.25500 33.20700
C  5.23000 45.04900 33.96700
H  12.46000 47.80000 30.10800
H  11.24800 48.67300 23.90300
H  5.01400 48.81000 24.88500
H  8.37200 48.35900 32.97200
H  10.91800 47.20800 32.00400
H  10.78000 50.05900 31.75900
H  11.72700 49.17400 33.01700
H  10.12700 49.66300 33.36400
H  8.63900 45.56200 32.00500
H  7.84500 46.28700 33.46900
H  10.47900 46.68800 34.04300
H  10.33400 44.94700 33.44900
H  14.99000 47.43400 28.25700
H  14.32300 48.53200 29.44100
H  14.97000 49.16100 28.00100
H  15.55700 49.09300 25.86400
H  15.93400 48.10200 24.54300
H  15.50200 47.31400 26.08000
H  9.14300 48.42500 22.51700
H  6.63500 49.79700 22.95500
H  8.23600 51.23000 22.70200
H  9.42700 50.61100 21.68800
H  9.96200 50.92600 23.31100
H  7.06200 47.77300 21.43200
H  5.60300 47.82200 22.42000
H  6.20200 45.67500 23.15200
H  7.93500 46.28800 23.46600
H  7.40400 45.74800 21.97900
H  2.89600 47.33000 26.60300
H  2.71400 49.12000 26.80900
H  2.36700 47.88500 28.05200
H  5.37000 48.21700 32.10600
H  5.46000 45.19200 35.02300
H  6.06000 44.37900 33.74400
H  4.32700 44.45700 33.82000

