158

Mg 44.58900 3.08000 47.76200
C  42.32700 5.70300 47.01600
C  41.90900 0.93300 47.56300
C  46.78500 0.63900 47.64600
C  47.13700 5.42000 47.10900
N  42.43100 3.28600 47.32500
C  41.73100 4.45200 47.10800
C  40.21500 4.25700 46.90900
C  40.12800 2.76500 47.58200
C  41.53700 2.29200 47.47500
C  39.40300 2.78200 48.91900
C  39.74200 4.22300 45.41600
C  38.66500 5.15500 45.00100
H  39.04500 6.05200 43.83700
N  44.42100 1.07800 47.62600
C  43.21800 0.36800 47.62300
C  43.51400 -1.05500 47.66800
C  44.91300 -1.22400 47.80400
C  45.42400 0.17500 47.75400
C  42.42700 -2.19100 47.47000
C  45.66800 -2.53000 47.97900
O  45.06900 -3.60100 48.10900
C  47.15800 -2.64800 47.99200
N  46.64800 3.04400 47.25800
C  47.33900 1.89100 47.46000
C  48.87200 2.12700 47.32600
C  48.96500 3.57900 46.97100
C  47.51000 4.06300 47.10000
C  49.73400 1.88900 48.59500
C  49.45900 3.80600 45.52200
C  50.84100 4.21800 45.48100
N  44.79800 5.21900 47.39500
C  45.86800 5.99300 47.11200
C  45.46800 7.44800 46.90800
C  44.06200 7.37000 46.90100
C  43.68800 5.97200 47.20200
C  46.33200 8.66200 46.62000
C  42.87700 8.13800 46.74300
O  42.62800 9.31400 46.53800
C  41.68500 7.08800 46.87400
C  40.82000 7.53400 47.96800
O  41.14100 7.74900 49.15300
O  39.49900 7.57000 47.55800
C  38.59300 7.99500 48.71800
H  40.98800 0.35100 47.63500
H  47.67100 0.00100 47.68700
H  48.06900 5.96200 46.93500
H  39.67400 4.97600 47.52400
H  39.44100 2.13400 47.01900
H  40.09800 2.48600 49.70600
H  38.58800 2.05900 48.94800
H  39.07700 3.76200 49.26600
H  39.35200 3.23800 45.16100
H  40.59200 4.50000 44.79400
H  38.31100 5.71300 45.86800
H  37.88400 4.49800 44.61900
H  42.22100 -2.58500 48.46500
H  42.81400 -3.01700 46.87200
H  41.52900 -1.75700 47.03000
H  47.49400 -1.83000 48.63000
H  47.58200 -2.54000 46.99400
H  47.43300 -3.65900 48.29400
H  49.26700 1.56200 46.48200
H  49.59500 4.14600 47.65600
H  49.38400 0.98600 49.09500
H  49.72200 2.81500 49.17000
H  50.73600 1.69100 48.21300
H  48.91900 4.61400 45.02700
H  49.45400 2.92200 44.88400
H  51.18900 4.73200 46.37600
H  51.05100 4.97000 44.72100
H  51.46400 3.34200 45.29800
H  45.87200 9.43500 47.23500
H  46.13000 8.98000 45.59700
H  47.35500 8.50000 46.96100
H  41.02800 7.11200 46.00400
H  37.58100 7.88100 48.32800
H  38.76900 8.98500 49.13900
H  38.67400 7.31400 49.56600
Mg -8.55700 17.99100 42.81100
C  -5.11500 17.52100 42.63700
C  -8.08200 21.34800 42.12900
C  -11.83100 18.26200 42.33300
C  -8.89000 14.41800 42.81100
N  -6.81000 19.32200 42.41800
C  -5.46800 18.89900 42.46400
C  -4.45600 20.03500 42.23100
C  -5.40400 21.26000 42.38200
C  -6.88000 20.63800 42.20300
C  -5.23400 22.22300 43.59600
C  -3.65200 19.95200 40.93100
C  -4.30500 19.23300 39.68300
H  -3.91900 19.86400 38.33500
N  -9.80200 19.60800 42.33900
C  -9.42600 20.92000 42.12800
C  -10.58700 21.71000 41.88100
C  -11.74800 20.86900 41.91600
C  -11.14900 19.48900 42.17100
C  -10.54300 23.20400 41.53500
C  -13.21100 21.25700 41.76500
O  -13.49500 22.46200 41.78000
C  -14.30200 20.30400 41.84600
N  -10.08700 16.46200 42.37200
C  -11.33300 16.92500 42.45500
C  -12.34100 15.74500 42.84100
C  -11.53400 14.47800 42.76300
C  -10.08600 15.17900 42.66900
C  -13.07500 15.97500 44.15500
C  -11.81200 13.45400 41.62500
C  -12.24500 12.01700 42.03700
N  -7.29400 16.19000 42.87000
C  -7.57600 14.88700 42.91000
C  -6.34800 14.17900 42.91700
C  -5.31300 15.18200 42.90800
C  -5.96400 16.35600 42.81600
C  -6.24500 12.65200 42.80500
C  -3.87300 15.39600 42.94700
O  -2.96400 14.61500 43.03800
C  -3.74800 16.94700 42.77900
C  -3.09200 17.31600 44.04500
O  -1.92400 17.76600 44.04700
O  -3.96300 17.23300 45.14100
C  -3.35100 17.44200 46.43900
H  -7.99800 22.42900 41.99500
H  -12.91500 18.32200 42.45300
H  -8.97100 13.33700 42.94200
H  -3.77800 19.81900 43.05600
H  -5.35000 21.99700 41.58100
H  -4.37000 21.81200 44.11800
H  -6.14300 22.18300 44.19600
H  -5.01800 23.23900 43.26400
H  -2.75300 19.39700 41.20000
H  -3.24400 20.93500 40.69400
H  -5.38100 19.40500 39.71100
H  -4.21600 18.14600 39.68600
H  -10.25700 23.51500 40.53100
H  -9.93300 23.77200 42.23800
H  -11.48200 23.69800 41.78800
H  -14.40600 19.84200 42.82700
H  -13.98100 19.53300 41.14500
H  -15.17200 20.85600 41.48900
H  -13.12800 15.77300 42.08700
H  -11.60000 13.94300 43.71000
H  -12.60900 16.79600 44.70000
H  -13.17100 15.03700 44.70100
H  -14.15000 16.04400 43.99200
H  -10.96200 13.34200 40.95200
H  -12.63700 13.90200 41.07200
H  -11.75400 11.17800 41.54400
H  -13.25500 11.77900 41.70500
H  -12.18200 11.90000 43.11900
H  -7.24700 12.23100 42.88100
H  -5.55400 12.27900 43.56100
H  -5.84600 12.42800 41.81600
H  -2.99300 17.19500 42.03200
H  -3.54600 16.59400 47.09500
H  -3.69300 18.39500 46.84000
H  -2.26900 17.57000 46.48200

