158

Mg 49.30400 34.54800 27.36300
C  47.08900 33.61300 30.08000
C  49.92400 37.46900 28.97400
C  50.59900 35.72900 24.59000
C  48.38200 31.52000 25.80000
N  48.66100 35.27800 29.25100
C  47.76400 34.85200 30.25100
C  47.62500 35.88200 31.36700
C  48.40300 37.04400 30.81100
C  49.06800 36.53800 29.62100
C  47.53500 38.39500 30.51800
C  48.10000 35.45300 32.81200
C  47.00800 35.54700 33.85400
H  47.01600 36.83100 34.76400
N  50.15400 36.30600 26.90000
C  50.38300 37.42300 27.66200
C  50.97700 38.48700 26.83800
C  51.40100 37.92200 25.67100
C  50.63100 36.64500 25.64200
C  51.17300 39.90300 27.31300
C  52.27400 38.43600 24.64900
O  52.65500 37.80100 23.68700
C  52.91000 39.79900 24.79900
N  49.32800 33.71100 25.43900
C  50.09300 34.37500 24.55900
C  50.37200 33.47900 23.34200
C  49.80800 32.07800 23.72100
C  49.14900 32.43200 25.10400
C  49.90100 34.02200 22.04900
C  50.87500 31.04800 23.80900
C  50.85900 30.16000 22.52500
N  48.01200 32.89500 27.76500
C  47.68400 31.73400 27.02100
C  46.62100 30.91700 27.72300
C  46.41000 31.70100 28.89100
C  47.27200 32.79300 28.93800
C  46.01800 29.59700 27.25600
C  45.55300 31.73800 30.05100
O  44.59800 31.01900 30.34900
C  45.94800 32.98200 30.86800
C  46.08700 32.60400 32.30800
O  47.00300 31.93200 32.77200
O  44.89800 32.93100 32.92800
C  44.63700 32.28700 34.20200
H  50.04700 38.42600 29.48500
H  51.13600 36.05000 23.69500
H  48.22500 30.59000 25.25100
H  46.57400 36.17200 31.39500
H  49.25800 37.24000 31.45800
H  47.26200 38.41500 29.46300
H  48.05500 39.33100 30.71900
H  46.54000 38.47900 30.95500
H  48.96700 35.99200 33.19600
H  48.39200 34.40800 32.70600
H  46.92900 34.64800 34.46500
H  46.07300 35.66600 33.30700
H  50.65200 40.12000 28.24500
H  50.83000 40.56000 26.51400
H  52.23600 40.08600 27.47100
H  53.33200 39.94800 25.79300
H  52.09000 40.51400 24.74000
H  53.61300 39.98900 23.98800
H  51.45200 33.40900 23.20800
H  49.06900 31.83800 22.95600
H  48.90600 33.84900 21.64000
H  50.64500 33.69000 21.32400
H  49.92100 35.10500 22.16800
H  50.66600 30.35800 24.62600
H  51.88000 31.46800 23.77200
H  51.91000 29.96700 22.31300
H  50.48500 30.66100 21.63200
H  50.48000 29.14900 22.67400
H  46.00100 29.62100 26.16600
H  44.99600 29.43400 27.59800
H  46.56200 28.68800 27.51400
H  45.08200 33.61800 30.68800
H  43.66800 32.53400 34.63700
H  45.38900 32.61500 34.92000
H  44.65000 31.20400 34.08300
Mg 26.80800 50.21100 26.18000
C  24.66700 51.47000 28.59800
C  29.15400 49.72100 28.66600
C  28.94500 49.30000 23.80000
C  24.50800 51.17300 23.72600
N  26.92300 50.60500 28.40900
C  25.83800 50.97000 29.21500
C  26.16500 50.98000 30.70800
C  27.68700 50.53900 30.57700
C  27.89100 50.20800 29.13100
C  28.84800 51.48900 31.16100
C  25.21600 50.03900 31.62000
C  25.06500 50.62300 33.06600
H  24.72100 49.57700 34.09300
N  28.83200 49.64000 26.22300
C  29.62500 49.41900 27.35000
C  30.81000 48.69800 26.97000
C  30.76700 48.65000 25.53800
C  29.45500 49.15300 25.10500
C  31.83900 48.14700 27.94800
C  31.75400 48.01200 24.67500
O  31.65800 47.82000 23.45700
C  33.07000 47.50100 25.29400
N  26.71100 50.19900 23.97300
C  27.73500 49.80100 23.23200
C  27.24100 49.65500 21.77500
C  25.78300 50.05500 21.84400
C  25.59100 50.33400 23.31000
C  28.12300 50.51100 20.69500
C  24.68000 48.99200 21.27200
C  24.74500 47.60500 22.00000
N  25.06700 51.20700 26.07000
C  24.22800 51.68900 25.03300
C  23.08900 52.35100 25.48300
C  23.19100 52.28500 26.87600
C  24.42100 51.64700 27.19200
C  22.08900 53.11500 24.58900
C  22.63600 52.76400 28.10000
O  21.68600 53.49600 28.31700
C  23.46300 52.10100 29.29600
C  23.85000 53.20900 30.24300
O  24.69100 54.01600 30.07700
O  22.94300 53.10900 31.34400
C  23.14100 54.01400 32.49200
H  29.82900 49.44800 29.48000
H  29.58600 48.87300 23.02600
H  23.83000 51.57200 22.96900
H  26.28900 52.00900 31.04400
H  27.83200 49.61600 31.14000
H  29.71700 51.59300 30.51100
H  29.20800 51.01100 32.07200
H  28.44100 52.44200 31.49800
H  25.79800 49.11900 31.57100
H  24.25500 49.85700 31.14000
H  24.34200 51.43900 33.08100
H  25.95800 51.17800 33.35500
H  32.83700 48.53800 27.74800
H  31.83700 47.06000 27.86700
H  31.50300 48.31900 28.97000
H  33.49500 48.35100 25.82800
H  33.81600 47.33800 24.51600
H  32.84000 46.62700 25.90300
H  27.34300 48.59300 21.55100
H  25.62500 51.00000 21.32400
H  27.57200 51.26800 20.13600
H  28.50000 49.81100 19.95000
H  28.98000 51.05900 21.08600
H  24.90800 48.85000 20.21500
H  23.66400 49.35500 21.42800
H  25.55800 47.71200 22.71800
H  24.98100 46.82300 21.27800
H  23.88000 47.38000 22.62400
H  21.66600 52.51900 23.78000
H  22.53500 53.94400 24.03900
H  21.31000 53.42200 25.28600
H  22.85500 51.31000 29.73600
H  23.03900 55.02000 32.08400
H  24.12700 53.86500 32.93300
H  22.26300 53.85700 33.11800

