158

Mg 8.85900 3.37300 27.73800
C  9.74700 1.74900 30.69900
C  7.21800 5.70800 29.65200
C  7.48800 4.58100 24.87000
C  10.15200 0.62100 25.86800
N  8.67900 3.79000 29.99200
C  9.13900 2.95400 31.02000
C  8.75300 3.50300 32.36800
C  7.92700 4.81500 31.97000
C  7.94400 4.81700 30.46100
C  6.45800 4.86400 32.57000
C  9.92000 3.66500 33.44600
C  9.62600 4.75900 34.49000
H  10.03400 4.52700 35.98300
N  7.65900 4.96200 27.30500
C  7.02600 5.83200 28.22900
C  6.25600 6.79300 27.58700
C  6.40000 6.52600 26.16900
C  7.28100 5.33000 26.04500
C  5.55400 7.84600 28.36300
C  5.88900 7.38200 25.01300
O  6.11600 7.08800 23.84200
C  5.26500 8.74500 25.30000
N  8.76300 2.64800 25.71900
C  8.17300 3.41400 24.69800
C  8.39100 2.70800 23.33900
C  9.19000 1.42500 23.68800
C  9.42100 1.58500 25.18000
C  7.08200 2.43300 22.57100
C  10.47100 1.27300 22.82400
C  10.41000 0.35000 21.59100
N  9.78300 1.61100 28.15700
C  10.25800 0.59600 27.31200
C  10.99900 -0.33900 28.06000
C  10.82600 0.12400 29.36600
C  9.97700 1.23900 29.36900
C  11.79900 -1.41000 27.59100
C  11.15300 -0.17800 30.71300
O  11.89500 -0.99100 31.19400
C  10.51700 0.86600 31.58100
C  9.69800 0.27900 32.60000
O  8.67100 -0.36700 32.38700
O  10.33700 0.44200 33.81800
C  9.76100 -0.32700 34.96700
H  6.78600 6.52600 30.23200
H  6.96000 4.89600 23.96800
H  10.57500 -0.20900 25.29800
H  8.01700 2.80700 32.77000
H  8.41500 5.72900 32.31000
H  5.89900 5.28900 31.73700
H  6.34300 5.62100 33.34600
H  6.05100 3.87300 32.77500
H  10.79500 4.06100 32.93000
H  10.18700 2.77900 34.02200
H  8.56300 4.97300 34.38500
H  10.16100 5.69900 34.35500
H  4.53400 7.81500 27.98000
H  5.94900 8.83600 28.13600
H  5.51700 7.80400 29.45200
H  4.41100 8.59400 25.96100
H  4.81500 9.10400 24.37500
H  5.97000 9.50500 25.63600
H  8.88800 3.37100 22.63000
H  8.68200 0.47700 23.51300
H  7.08100 2.97400 21.62400
H  6.25900 2.55300 23.27500
H  7.14200 1.37900 22.30100
H  11.31000 1.00800 23.46600
H  10.84200 2.18400 22.35500
H  10.20800 0.81900 20.62800
H  9.76400 -0.52600 21.64700
H  11.43200 -0.02900 21.58600
H  12.30400 -1.11500 26.67100
H  11.05200 -2.18800 27.43100
H  12.61200 -1.61600 28.28800
H  11.28300 1.52300 31.99500
H  8.89600 0.19800 35.37400
H  10.57600 -0.41800 35.68500
H  9.48700 -1.32900 34.63700
Mg -2.27500 34.75400 26.70300
C  -3.36700 32.91900 29.41800
C  -0.63400 36.88200 28.85600
C  -1.48100 36.58700 24.03200
C  -3.58700 32.34200 24.57000
N  -2.08100 34.85500 28.88500
C  -2.53500 33.95800 29.81700
C  -2.06600 34.34100 31.16900
C  -1.29800 35.58800 31.01700
C  -1.33100 35.80900 29.45600
C  -1.82700 36.81800 31.91100
C  -1.18600 33.18400 31.83700
C  -1.63700 32.57500 33.18900
H  -0.68900 32.41000 34.46100
N  -1.23500 36.52000 26.44300
C  -0.66100 37.23400 27.44900
C  -0.03400 38.36800 26.84600
C  -0.30500 38.34900 25.49200
C  -1.01000 37.10500 25.21400
C  0.81300 39.37600 27.66400
C  0.15200 39.39100 24.45800
O  0.01000 39.20200 23.29400
C  0.84200 40.64900 24.84500
N  -2.37200 34.48500 24.60300
C  -2.05300 35.39500 23.68800
C  -2.58000 35.12800 22.32500
C  -2.94400 33.58300 22.47000
C  -2.89800 33.41000 23.98400
C  -3.77400 35.95200 21.87100
C  -2.08200 32.58000 21.71900
C  -0.71300 32.11700 22.41200
N  -3.41700 32.91800 26.90100
C  -3.86100 32.02000 25.92600
C  -4.60400 30.98000 26.58700
C  -4.52300 31.33200 27.98500
C  -3.74800 32.56300 28.08700
C  -5.07400 29.74600 25.85600
C  -4.84600 30.92100 29.29200
O  -5.46100 29.94300 29.68100
C  -4.11100 31.91500 30.27600
C  -5.13800 32.53100 31.14100
O  -5.92600 33.37400 30.76400
O  -5.13300 31.93300 32.43600
C  -6.27600 32.39700 33.22000
H  -0.12400 37.55700 29.54600
H  -1.37700 37.18000 23.12100
H  -4.03600 31.66700 23.83800
H  -2.96000 34.60900 31.73200
H  -0.26000 35.41100 31.29800
H  -0.94100 37.15600 32.44600
H  -2.57500 36.41100 32.59200
H  -2.25400 37.61900 31.30800
H  -0.14000 33.45400 31.97900
H  -1.07900 32.37900 31.11000
H  -1.69800 31.52100 32.92000
H  -2.63700 32.91400 33.45800
H  1.85600 39.50900 27.38000
H  0.98700 39.05900 28.69200
H  0.27800 40.31300 27.82300
H  0.16000 41.27100 25.42600
H  1.24300 41.11400 23.94400
H  1.74300 40.40400 25.40700
H  -1.68300 35.18200 21.70800
H  -3.96500 33.34900 22.16800
H  -3.96100 36.59100 22.73400
H  -4.67500 35.37200 21.67300
H  -3.42700 36.57300 21.04500
H  -1.81300 33.06000 20.77700
H  -2.56900 31.63000 21.50300
H  0.08900 32.80400 22.14200
H  -0.35600 31.12900 22.12000
H  -0.70200 32.04700 23.50000
H  -4.38900 29.52700 25.03700
H  -6.02000 29.89200 25.33500
H  -5.10200 28.89800 26.54000
H  -3.41500 31.39300 30.93200
H  -7.19500 32.60500 32.67200
H  -6.06700 33.32800 33.74800
H  -6.48100 31.60100 33.93500

