158

Mg 47.21500 45.34300 42.83300
C  43.87400 44.12100 42.55100
C  48.38400 42.20500 42.38200
C  50.42800 46.61200 42.77400
C  45.98600 48.47300 43.07300
N  46.19600 43.41100 42.31600
C  44.85100 43.10400 42.28900
C  44.58900 41.69900 42.02600
C  46.01700 41.05500 42.21500
C  46.96700 42.29600 42.32700
C  46.12100 40.20300 43.49400
C  43.91200 41.47400 40.61800
C  44.10700 42.46800 39.42400
H  43.99400 41.80100 37.96800
N  49.23100 44.47600 42.63600
C  49.43800 43.12700 42.52500
C  50.91300 42.90600 42.49300
C  51.56100 44.17700 42.56400
C  50.41800 45.17100 42.62600
C  51.56200 41.49300 42.48400
C  53.09200 44.47000 42.71000
O  53.92600 43.57000 42.67900
C  53.58600 45.84900 42.91400
N  48.17800 47.32200 42.61300
C  49.46800 47.56300 42.90700
C  49.69800 49.08300 43.04700
C  48.21100 49.58200 43.44100
C  47.40600 48.39600 42.95400
C  50.74300 49.43800 44.20000
C  47.95800 50.90000 42.64000
C  48.03200 52.16100 43.47700
N  45.35500 46.15700 42.63600
C  45.05400 47.47900 42.88200
C  43.64400 47.65200 43.01000
C  43.14600 46.33800 42.91700
C  44.20800 45.45000 42.69700
C  42.97000 48.87000 43.24600
C  41.94300 45.50400 42.95800
O  40.80200 45.69400 43.23900
C  42.38800 44.00500 42.63100
C  41.97400 43.11400 43.83300
O  42.32200 43.30600 44.99300
O  41.05600 42.16300 43.38300
C  40.70100 41.23000 44.48500
H  48.66900 41.15100 42.34500
H  51.39900 47.08700 42.92900
H  45.62800 49.39900 43.52800
H  43.84000 41.40700 42.76200
H  46.38600 40.58900 41.30100
H  45.79900 39.21300 43.17200
H  45.49000 40.43400 44.35300
H  47.12700 40.22300 43.91100
H  42.84200 41.29100 40.70800
H  44.28300 40.54000 40.19500
H  45.10200 42.86200 39.63000
H  43.44300 43.33200 39.43500
H  52.23800 41.37100 41.63700
H  50.79100 40.72900 42.39400
H  52.11200 41.35500 43.41500
H  53.20000 46.60900 42.23400
H  54.63100 45.82900 42.60500
H  53.47300 46.09000 43.97100
H  50.09900 49.53100 42.13800
H  48.10300 49.76900 44.50900
H  51.26000 48.59400 44.65700
H  50.34500 50.03100 45.02300
H  51.56800 49.96400 43.72000
H  46.91800 50.87900 42.31400
H  48.68200 51.10100 41.85000
H  47.21000 52.83200 43.22700
H  48.86900 52.78100 43.15900
H  48.02800 51.98800 44.55400
H  42.53800 48.82700 44.24600
H  42.21600 48.86900 42.45800
H  43.64600 49.71200 43.09500
H  42.01000 43.67100 41.66500
H  41.50300 40.49200 44.50600
H  39.74500 40.79000 44.20000
H  40.66100 41.65700 45.48700
Mg 26.37200 51.20300 25.42300
C  23.87700 52.02400 27.86800
C  28.56900 50.42700 27.80500
C  28.60900 50.79300 22.91100
C  24.21800 52.53700 23.06800
N  26.25100 51.41800 27.59500
C  25.09400 51.54800 28.38000
C  25.51400 51.38200 29.84600
C  27.03700 50.97500 29.80700
C  27.34900 50.95800 28.32300
C  27.99300 51.84100 30.73000
C  24.55600 50.45100 30.63400
C  24.12500 50.93400 32.04000
H  24.02200 49.99500 33.23000
N  28.21400 50.54100 25.33400
C  28.96500 50.27100 26.41100
C  30.25500 49.89500 26.01300
C  30.32300 49.87200 24.57800
C  29.00100 50.37200 24.17100
C  31.38800 49.59900 27.03200
C  31.52400 49.76900 23.68300
O  31.41000 49.85600 22.49800
C  32.84600 49.46200 24.43100
N  26.47500 51.83500 23.39000
C  27.43600 51.44900 22.54000
C  27.18600 51.73700 21.02700
C  25.72600 52.21100 21.08500
C  25.45200 52.19100 22.63000
C  28.16100 52.78400 20.41700
C  24.73500 51.14500 20.51300
C  23.81700 51.71300 19.45500
N  24.42800 52.05100 25.36100
C  23.67100 52.44700 24.36600
C  22.29000 52.75200 24.78000
C  22.40500 52.64700 26.17200
C  23.68600 52.22600 26.50900
C  21.20200 53.17600 23.89400
C  21.68200 52.87300 27.38700
O  20.53200 53.28200 27.55100
C  22.65600 52.53400 28.59300
C  22.94300 53.68500 29.51800
O  23.65000 54.63000 29.30300
O  22.31400 53.38300 30.74600
C  22.45000 54.46500 31.77700
H  29.15800 49.95900 28.59600
H  29.29200 50.62900 22.07400
H  23.61900 52.91300 22.23700
H  25.54700 52.36500 30.31600
H  27.10700 49.92400 30.08500
H  28.51200 52.66700 30.24300
H  28.69500 51.23700 31.30600
H  27.41100 52.21000 31.57500
H  25.06500 49.48800 30.67600
H  23.64400 50.25200 30.07100
H  23.11500 51.31100 31.88000
H  24.80800 51.76100 32.23500
H  32.30100 50.19500 27.02200
H  31.75900 48.57400 27.00600
H  31.08000 49.72100 28.07100
H  33.28500 50.31600 24.94700
H  33.40900 49.31100 23.51000
H  32.75100 48.49700 24.92900
H  27.39800 50.89200 20.37200
H  25.63800 53.14700 20.53300
H  28.52100 52.53400 19.41900
H  29.02100 52.85800 21.08300
H  27.66800 53.75600 20.42600
H  24.11300 50.60000 21.22200
H  25.42400 50.45000 20.03300
H  23.74900 50.94900 18.68100
H  24.15200 52.64900 19.00900
H  22.82300 51.87100 19.87300
H  21.64500 53.90700 23.22000
H  20.32400 53.50800 24.44800
H  20.86400 52.31800 23.31300
H  22.13800 51.78900 29.19700
H  22.75500 53.88500 32.64800
H  21.49100 54.96200 31.92200
H  23.32400 55.10500 31.65900

