158

Mg 30.84800 58.43600 41.45900
C  28.05900 57.02400 39.88600
C  32.77000 55.85100 40.23500
C  33.65800 60.33600 42.12900
C  28.94300 61.33700 41.95600
N  30.47800 56.68100 40.04400
C  29.25000 56.26500 39.57900
C  29.42900 54.89600 38.85200
C  30.87600 54.43300 39.25300
C  31.41300 55.70300 39.90400
C  30.90500 53.31300 40.26000
C  29.31800 55.08600 37.28600
C  28.19900 54.31300 36.54100
H  27.24000 55.16400 35.77100
N  32.95900 58.08400 41.32200
C  33.54700 56.96400 40.75100
C  34.94900 57.23000 40.68500
C  35.23900 58.44500 41.40500
C  33.90600 58.97800 41.70800
C  35.92700 56.20400 40.13100
C  36.61600 59.07200 41.73800
O  37.63900 58.58500 41.27400
C  36.72000 60.26900 42.63400
N  31.26600 60.49300 42.10800
C  32.51300 61.03800 42.21000
C  32.46200 62.56600 42.46100
C  30.94200 62.82200 42.71600
C  30.26600 61.47500 42.37700
C  33.52200 63.01900 43.60500
C  30.43300 64.13200 42.01100
C  31.12700 65.41700 42.35800
N  28.80400 58.96800 41.37500
C  28.19000 60.22100 41.52800
C  26.80200 60.05800 41.16500
C  26.70900 58.71800 40.67300
C  27.94400 58.20500 40.66100
C  25.61200 60.94400 41.24800
C  25.80200 57.79500 40.02800
O  24.54600 57.80100 39.88400
C  26.62800 56.61700 39.46900
C  26.20400 55.29300 40.07200
O  26.78600 54.77700 41.04300
O  25.17300 54.76900 39.34700
C  24.76200 53.40800 39.78500
H  33.39800 54.99700 39.97400
H  34.48500 61.01300 42.35200
H  28.33300 62.22900 42.11200
H  28.62000 54.18300 39.01800
H  31.51100 54.03800 38.46000
H  30.03200 52.66100 40.26400
H  31.03100 53.72500 41.26200
H  31.77500 52.66700 40.13600
H  30.20400 54.67500 36.80300
H  29.29400 56.13800 37.00400
H  27.53300 53.73900 37.18600
H  28.70300 53.59300 35.89700
H  36.94500 56.57700 40.02000
H  35.52200 55.73900 39.23200
H  36.05900 55.51000 40.96200
H  36.13900 60.25800 43.55600
H  36.31600 60.97800 41.91000
H  37.77800 60.46700 42.80800
H  32.80300 63.27900 41.70900
H  30.78000 62.82600 43.79400
H  33.03400 63.67400 44.32800
H  34.32400 63.55400 43.09600
H  33.87800 62.11800 44.10400
H  29.36100 64.22300 42.18700
H  30.50200 63.89600 40.94900
H  31.99800 65.25300 42.99200
H  30.44400 65.92300 43.04000
H  31.40300 66.02900 41.49900
H  24.73400 60.30000 41.19500
H  25.72500 61.57700 40.36800
H  25.70200 61.47900 42.19400
H  26.47600 56.63200 38.38900
H  25.65000 52.77800 39.73600
H  24.00900 53.00700 39.10600
H  24.31800 53.32300 40.77700
Mg 9.93100 47.34000 25.50200
C  7.86200 47.41700 28.34000
C  12.33600 48.62400 27.38400
C  11.80200 47.29100 22.70900
C  7.00800 46.86800 23.62700
N  9.98500 48.15000 27.62300
C  9.15500 47.82600 28.60700
C  9.77900 48.21200 30.00200
C  11.05900 48.98700 29.60200
C  11.11800 48.68700 28.06900
C  11.06400 50.52200 29.93700
C  10.05200 46.95300 30.95100
C  9.88500 47.22600 32.43800
H  10.17900 46.14200 33.50000
N  11.80700 47.71400 25.06600
C  12.74400 48.13500 26.07800
C  14.02800 48.11500 25.49200
C  13.86300 47.87000 24.13100
C  12.46700 47.65600 23.92600
C  15.30900 48.51500 26.20300
C  14.81700 47.88600 23.01000
O  14.43400 47.96000 21.87000
C  16.28600 47.86600 23.25200
N  9.51300 47.03100 23.46500
C  10.46700 47.03900 22.49600
C  9.84900 46.58000 21.11200
C  8.31100 46.60400 21.42200
C  8.24100 46.78000 22.93000
C  10.29100 47.36700 19.87100
C  7.54000 45.34900 20.86500
C  6.62300 45.49600 19.62300
N  7.86400 47.07000 25.83900
C  6.84800 46.91900 25.00200
C  5.62100 46.92100 25.68800
C  6.00800 47.09000 27.03600
C  7.34700 47.11000 27.11000
C  4.30100 46.68700 25.17500
C  5.43500 47.19800 28.35600
O  4.23400 47.18500 28.64400
C  6.68700 47.26600 29.28400
C  6.68800 46.03700 30.08000
O  7.03600 44.97200 29.56800
O  6.15500 46.13000 31.38000
C  5.94200 44.86200 32.07100
H  13.23400 48.89200 27.94500
H  12.22700 47.05400 21.73100
H  6.09100 46.66600 23.06900
H  9.19100 48.96100 30.53200
H  11.93100 48.62700 30.14800
H  10.47900 50.97600 30.73700
H  10.75000 50.97400 28.99600
H  12.08600 50.84400 30.14000
H  10.99300 46.44400 30.74300
H  9.27100 46.26300 30.63100
H  8.83500 47.48100 32.58300
H  10.48300 48.07300 32.77400
H  15.18800 48.65900 27.27600
H  15.74000 49.40300 25.74000
H  16.04800 47.71900 26.11300
H  16.57900 46.92700 23.72100
H  16.49400 48.66400 23.96400
H  16.73500 47.98400 22.26600
H  10.19600 45.56700 20.91200
H  7.89300 47.55800 21.10100
H  11.09200 48.08600 20.04500
H  9.46400 47.85900 19.36000
H  10.83000 46.68200 19.21600
H  6.97300 44.80000 21.61700
H  8.32000 44.66600 20.52700
H  6.27800 46.52800 19.69000
H  5.81400 44.77100 19.70800
H  7.23300 45.39500 18.72500
H  3.67800 46.78400 26.06300
H  4.14700 45.66600 24.82700
H  4.15100 47.47800 24.44000
H  6.63700 48.17800 29.88000
H  5.69800 45.08000 33.11100
H  6.82200 44.21900 32.05500
H  5.11100 44.25900 31.70700

