158

Mg 40.66500 8.41300 28.84900
C  42.56100 9.45700 31.65500
C  38.63700 6.73200 31.20300
C  39.11700 7.01700 26.32000
C  43.09500 9.63900 26.70500
N  40.67900 8.04800 31.15500
C  41.43700 8.77200 32.04800
C  40.98400 8.64400 33.46700
C  39.84100 7.57800 33.31000
C  39.66100 7.43900 31.77900
C  40.21000 6.23600 33.92100
C  40.57000 9.91300 34.15200
C  39.63800 9.90900 35.38800
H  40.12600 10.87200 36.47700
N  39.01000 7.18000 28.77300
C  38.35800 6.55700 29.79700
C  37.41400 5.67300 29.27900
C  37.39400 5.84200 27.80700
C  38.55000 6.69200 27.58200
C  36.39500 4.88400 30.03800
C  36.40800 5.18400 26.83500
O  36.50000 5.31000 25.62600
C  35.11600 4.44800 27.35200
N  41.07800 8.31200 26.77200
C  40.26300 7.70800 25.87000
C  40.78700 7.81800 24.41500
C  42.10300 8.59700 24.62800
C  42.16300 8.85900 26.14400
C  40.83800 6.36500 23.78000
C  42.28200 9.85500 23.78900
C  41.24800 10.90000 23.78400
N  42.41000 9.42700 29.08300
C  43.32000 9.84400 28.12800
C  44.46500 10.41800 28.84100
C  44.14700 10.42300 30.18200
C  42.93300 9.76100 30.31300
C  45.59700 10.93400 28.19200
C  44.58700 10.75400 31.49800
O  45.57900 11.34000 31.82800
C  43.59500 10.24600 32.47900
C  44.19200 9.45100 33.55000
O  44.43900 8.26500 33.54100
O  44.51100 10.32300 34.55000
C  44.98000 9.75800 35.79100
H  38.02700 6.23000 31.95600
H  38.54000 6.59900 25.49300
H  43.87600 9.95100 26.00800
H  41.87400 8.29000 33.98600
H  38.92100 7.96100 33.75300
H  39.87200 5.33800 33.40300
H  39.72600 6.07200 34.88400
H  41.25000 6.15300 34.23800
H  39.97000 10.44900 33.41700
H  41.39200 10.54700 34.48500
H  39.68800 8.89300 35.77900
H  38.62100 10.21600 35.14800
H  36.66600 4.99400 31.08800
H  36.43900 3.82000 29.80500
H  35.41900 5.33100 29.84500
H  34.53900 5.09700 28.00900
H  35.43200 3.48900 27.76200
H  34.42100 4.28500 26.52800
H  40.01100 8.49300 24.05300
H  42.86900 7.82500 24.56100
H  40.11500 6.30000 22.96700
H  40.65200 5.51300 24.43300
H  41.77500 6.17900 23.25700
H  42.24500 9.58600 22.73400
H  43.18800 10.42700 23.98900
H  41.77700 11.84500 23.90800
H  40.78600 10.63400 24.73400
H  40.49900 10.94100 22.99300
H  46.07000 11.42300 29.04400
H  45.46100 11.59800 27.33800
H  46.26600 10.09400 28.00800
H  42.99100 11.02900 32.93800
H  44.26400 10.07700 36.54900
H  45.94800 10.15500 36.09800
H  44.96900 8.66900 35.76400
Mg 46.76600 24.39000 28.47800
C  47.43600 26.55600 31.17000
C  45.87600 22.00100 30.81600
C  46.33800 22.17800 25.97600
C  48.30700 26.64000 26.35900
N  46.64900 24.34000 30.69600
C  46.80100 25.36000 31.59500
C  46.42400 24.99700 33.02300
C  46.25900 23.47300 32.88500
C  46.26500 23.22300 31.37100
C  47.34200 22.56500 33.61700
C  45.22700 25.87500 33.55400
C  45.63700 26.63100 34.85400
H  46.12500 25.80000 36.02600
N  46.06900 22.43600 28.38200
C  45.81700 21.57400 29.45700
C  45.55000 20.18500 29.04900
C  45.49800 20.24500 27.60100
C  46.05800 21.63100 27.24200
C  45.19500 19.04500 29.94300
C  45.20000 19.19700 26.53900
O  45.21300 19.45400 25.36400
C  44.67200 17.97400 26.94800
N  47.25600 24.38700 26.45600
C  46.83300 23.44600 25.54500
C  47.28000 23.77500 24.12500
C  47.84900 25.19500 24.31600
C  47.79500 25.42600 25.82700
C  48.30300 22.78200 23.38600
C  47.16800 26.33700 23.40600
C  45.76200 26.81000 23.84800
N  47.72200 26.18000 28.66800
C  48.30900 26.99200 27.71500
C  48.84200 28.12900 28.34200
C  48.60500 28.00900 29.70100
C  47.82400 26.85400 29.84000
C  49.57500 29.13100 27.59100
C  48.87500 28.59400 31.00700
O  49.54200 29.55500 31.32600
C  48.06500 27.70900 31.99000
C  49.04100 27.39500 33.14200
O  49.77900 26.44600 33.20700
O  48.90200 28.31800 34.14300
C  49.46700 27.91800 35.47900
H  45.63900 21.23900 31.56100
H  46.18200 21.66500 25.02500
H  48.70300 27.30400 25.58900
H  47.28500 25.16000 33.67100
H  45.29100 23.17400 33.28700
H  47.57400 23.00200 34.58900
H  48.28600 22.34400 33.12100
H  46.97600 21.54100 33.68500
H  44.26900 25.37400 33.69000
H  45.05600 26.65400 32.81100
H  44.73100 27.10800 35.22900
H  46.34300 27.41500 34.57900
H  46.02600 19.06100 30.64900
H  44.95200 18.10800 29.44100
H  44.27000 19.38900 30.40500
H  45.36900 17.32700 27.48000
H  44.26000 17.28300 26.21200
H  43.85500 18.12900 27.65200
H  46.31800 23.81400 23.61400
H  48.90700 25.31700 24.08200
H  49.16300 23.38000 23.08200
H  47.76500 22.43300 22.50500
H  48.55200 21.96500 24.06400
H  47.08200 26.23100 22.32500
H  47.74300 27.25400 23.53700
H  45.05400 27.00100 23.04200
H  45.81200 27.80000 24.30100
H  45.24100 26.21300 24.59700
H  48.79700 29.55800 26.95800
H  50.25400 28.63800 26.89500
H  50.02600 29.92500 28.18700
H  47.29900 28.36400 32.40500
H  49.83200 28.86600 35.87500
H  50.26000 27.19500 35.29200
H  48.63400 27.42700 35.98200

