158

Mg 2.27300 -1.52500 44.70500
C  5.55200 -0.67100 44.34700
C  1.52200 0.89800 42.20100
C  -0.86300 -2.58600 44.66700
C  3.34500 -4.55100 46.26200
N  3.42500 -0.24300 43.29700
C  4.79800 -0.01200 43.36600
C  5.32000 1.02100 42.38500
C  3.97000 1.50400 41.72600
C  2.89900 0.72300 42.48400
C  3.86600 3.03900 41.76900
C  6.48100 0.43200 41.43000
C  7.78100 1.22100 41.36200
H  8.28100 1.55200 39.95300
N  0.52600 -0.75000 43.79200
C  0.43500 0.19300 42.80000
C  -0.93400 0.49700 42.52400
C  -1.67100 -0.56700 43.18100
C  -0.70100 -1.35600 43.97000
C  -1.45900 1.56500 41.64000
C  -3.32500 -0.65600 43.02000
O  -3.99600 0.18500 42.41300
C  -4.05800 -1.84800 43.72500
N  1.38200 -3.37000 45.28700
C  0.03400 -3.41900 45.31400
C  -0.43500 -4.78900 45.87500
C  0.90500 -5.34400 46.45700
C  1.97200 -4.38000 45.99700
C  -1.73100 -4.98200 46.67300
C  1.30200 -6.80900 46.25600
C  1.65200 -7.80400 47.40400
N  4.05700 -2.48000 45.33200
C  4.30300 -3.60700 46.03900
C  5.66000 -3.57600 46.40600
C  6.20100 -2.40900 45.85000
C  5.15900 -1.82700 45.16700
C  6.51200 -4.57500 47.24300
C  7.35700 -1.57800 45.74000
O  8.50000 -1.74200 46.18000
C  6.94600 -0.36000 44.71400
C  7.10500 0.90500 45.38500
O  6.43800 1.31700 46.33700
O  8.21800 1.57300 44.88500
C  8.61600 2.86400 45.42100
H  1.24700 1.68500 41.49500
H  -1.89600 -2.92200 44.77800
H  3.68400 -5.40500 46.85100
H  5.56300 1.85300 43.04700
H  4.13600 1.24800 40.67900
H  4.77200 3.58200 42.03900
H  3.12300 3.14800 42.55900
H  3.53400 3.43700 40.81100
H  6.06100 0.14700 40.46500
H  6.72100 -0.54600 41.84700
H  8.56300 0.74600 41.95400
H  7.75900 2.16400 41.90800
H  -1.82200 2.41400 42.21900
H  -2.23700 1.19400 40.97300
H  -0.77200 1.89600 40.86000
H  -5.09400 -1.88400 43.38800
H  -4.03300 -1.82500 44.81500
H  -3.57400 -2.76400 43.38800
H  -0.50300 -5.32800 44.93000
H  0.91300 -5.19700 47.53700
H  -2.29500 -4.10400 46.98800
H  -1.65600 -5.70000 47.49000
H  -2.51400 -5.34700 46.00800
H  2.08600 -6.90900 45.50400
H  0.38000 -7.23100 45.85600
H  2.62600 -8.26000 47.22000
H  0.91900 -8.60800 47.46900
H  1.56600 -7.35300 48.39200
H  5.88300 -5.27200 47.79700
H  7.19500 -3.94300 47.80900
H  7.14200 -5.09300 46.51900
H  7.57900 -0.47100 43.83400
H  9.30300 3.23000 44.65800
H  8.98200 2.76600 46.44200
H  7.80100 3.58000 45.53200
Mg 9.01700 48.93800 25.88200
C  6.97300 49.05500 28.80100
C  11.76300 49.48400 27.81600
C  10.79700 48.18100 23.16400
C  6.10700 48.38300 23.91600
N  9.28200 49.32800 28.02700
C  8.37500 49.20800 29.08800
C  9.07300 49.19700 30.47100
C  10.50400 49.69200 30.06300
C  10.54600 49.47900 28.48800
C  10.67300 51.19400 30.41100
C  9.11000 47.89700 31.41100
C  8.45400 48.14900 32.80500
H  8.62000 47.06100 33.89500
N  11.04800 48.85800 25.58300
C  12.02900 49.19500 26.46300
C  13.30100 49.14000 25.74300
C  13.05700 48.65900 24.45500
C  11.56300 48.61200 24.33100
C  14.62000 49.41000 26.44900
C  13.96800 48.42900 23.32900
O  13.65000 48.06300 22.23400
C  15.40800 48.62600 23.59400
N  8.50200 48.34100 23.87900
C  9.41200 48.05600 22.92800
C  8.83200 47.78800 21.62700
C  7.33200 47.87300 21.88400
C  7.32100 48.27300 23.31000
C  9.17500 48.74300 20.40700
C  6.51700 46.54900 21.60200
C  5.48400 46.84400 20.54700
N  6.84000 48.77600 26.16100
C  5.79300 48.56700 25.28500
C  4.54600 48.57000 26.10300
C  5.00000 48.74500 27.46900
C  6.39300 48.86000 27.50100
C  3.19200 48.38900 25.45800
C  4.54100 48.81800 28.85300
O  3.39000 48.77300 29.27700
C  5.81100 48.92200 29.78400
C  5.85000 47.58900 30.44600
O  6.42300 46.55400 30.12000
O  5.08700 47.69200 31.55400
C  4.96300 46.47000 32.37600
H  12.64800 49.62300 28.43900
H  11.36900 48.02500 22.24700
H  5.34500 48.26000 23.14300
H  8.52000 49.90900 31.08200
H  11.22000 48.97500 30.46400
H  10.95300 51.80400 29.55100
H  11.45400 51.23800 31.17000
H  9.76600 51.59600 30.86100
H  10.11700 47.53200 31.61200
H  8.60000 47.06400 30.92900
H  7.44600 48.51600 32.61800
H  9.00800 49.00400 33.19100
H  14.53600 49.78100 27.47000
H  15.21200 50.24000 26.06400
H  15.17800 48.47500 26.50300
H  15.75900 47.98300 24.40200
H  15.56100 49.66500 23.88400
H  16.07100 48.39700 22.76000
H  9.11100 46.78600 21.30200
H  6.76900 48.72900 21.51200
H  8.36600 49.33400 19.97600
H  9.71900 48.15500 19.66700
H  9.87400 49.50000 20.76300
H  6.19400 46.03300 22.50600
H  7.19500 45.81300 21.17100
H  4.70000 46.18700 20.92200
H  5.75300 46.64700 19.50900
H  5.01400 47.82700 20.57000
H  2.82700 49.22800 24.86500
H  2.49100 48.17900 26.26500
H  3.17500 47.53700 24.77800
H  5.61600 49.69700 30.52600
H  5.88300 45.89000 32.29700
H  4.16400 45.82100 32.01800
H  4.73800 46.64200 33.42800

