158

Mg 41.30300 8.82700 30.51900
C  43.11700 10.31000 33.07100
C  38.87600 8.11800 32.80300
C  39.63200 7.49800 28.02800
C  43.80400 9.75900 28.34200
N  41.17000 9.12500 32.76300
C  41.98600 9.72600 33.65000
C  41.37800 9.87200 35.05700
C  40.07100 9.03900 34.97300
C  40.04300 8.66600 33.40600
C  40.00400 7.70800 35.86300
C  41.08800 11.37800 35.47500
C  40.07200 11.59000 36.65400
H  40.60900 12.50300 37.82000
N  39.52800 7.81700 30.51500
C  38.57100 7.73600 31.50500
C  37.38900 7.09600 31.01200
C  37.57600 6.97300 29.59800
C  38.98500 7.39400 29.31600
C  36.22800 6.68800 31.95500
C  36.64400 6.42700 28.56600
O  36.98900 6.16000 27.45600
C  35.14600 6.34800 28.86800
N  41.77100 8.41500 28.45800
C  40.89800 7.91000 27.62100
C  41.31500 7.92500 26.13000
C  42.71800 8.72800 26.26100
C  42.76300 9.01100 27.76300
C  41.29600 6.48900 25.43700
C  42.89300 10.04000 25.37600
C  41.85600 11.12700 25.54500
N  43.08000 9.76600 30.64300
C  44.01100 10.07900 29.68300
C  45.06800 10.90300 30.17600
C  44.74100 10.98900 31.58200
C  43.50400 10.27500 31.77400
C  46.26600 11.56900 29.49300
C  45.16900 11.63400 32.71400
O  46.14800 12.35000 32.98300
C  44.11300 11.26900 33.78900
C  44.84800 10.78300 34.99000
O  45.59000 9.80600 34.95500
O  44.38200 11.35800 36.09100
C  45.09200 10.93100 37.32500
H  38.04300 7.99500 33.49900
H  39.12300 7.24700 27.09500
H  44.56400 10.17400 27.67700
H  42.00400 9.53200 35.88200
H  39.20200 9.67300 35.15400
H  39.13800 7.68800 36.52500
H  40.90600 7.67400 36.47300
H  39.92100 6.75300 35.34400
H  40.52600 11.72300 34.60800
H  42.00000 11.96300 35.59100
H  39.83000 10.65400 37.15800
H  39.14800 12.01600 36.26100
H  35.33900 7.31900 31.93400
H  36.51800 6.56500 32.99900
H  35.81300 5.71600 31.68800
H  34.95800 7.25600 29.44100
H  34.81200 5.43100 29.35400
H  34.57500 6.37700 27.93900
H  40.61600 8.55200 25.57700
H  43.58800 8.16300 25.92500
H  40.47200 5.91700 25.86500
H  42.26200 6.01500 25.60800
H  41.15500 6.61700 24.36400
H  42.87500 9.68800 24.34500
H  43.91000 10.42700 25.43000
H  42.43400 11.99100 25.87300
H  41.07800 10.82200 26.24400
H  41.40000 11.50100 24.62800
H  46.98000 10.75500 29.36200
H  46.62200 12.34700 30.16800
H  46.09200 12.05100 28.53100
H  43.61900 12.19000 34.09800
H  44.36500 10.37700 37.91800
H  45.22400 11.81000 37.95600
H  46.07100 10.46500 37.21800
Mg 48.07300 16.16300 28.63700
C  46.11200 16.11300 31.58200
C  50.50300 17.91300 30.29800
C  49.85600 16.22000 25.77200
C  45.41200 14.63200 26.96900
N  48.21300 16.98200 30.65900
C  47.34300 16.81000 31.70600
C  47.95100 17.44200 33.02700
C  49.18100 18.23300 32.48500
C  49.35100 17.72200 31.06800
C  49.03000 19.80700 32.38200
C  48.26700 16.34000 34.09000
C  47.80600 16.46400 35.50900
H  47.50800 17.89400 36.09400
N  49.94400 16.89400 28.14900
C  50.84800 17.54200 28.95400
C  52.10400 17.76500 28.27600
C  51.97300 17.23400 27.00500
C  50.58200 16.68200 26.93900
C  53.27600 18.55000 28.81400
C  52.99700 17.13100 25.74800
O  52.69800 16.67300 24.64900
C  54.37000 17.45400 25.99500
N  47.56500 15.76400 26.60800
C  48.50700 15.82300 25.56100
C  48.09600 15.03700 24.33800
C  46.67100 14.38500 24.81600
C  46.54400 14.92400 26.21500
C  47.92800 15.87200 23.04400
C  46.54100 12.87400 24.61100
C  45.76800 12.44700 23.33800
N  46.20800 15.42200 29.11300
C  45.18300 14.82300 28.32300
C  43.94700 14.59600 29.10200
C  44.30200 15.02600 30.39600
C  45.66100 15.57400 30.33300
C  42.79200 13.89800 28.50100
C  43.86700 15.14600 31.74800
O  42.78100 14.78000 32.17000
C  45.06800 15.83400 32.59400
C  44.49500 16.94000 33.38800
O  44.26400 18.09400 33.02500
O  44.17400 16.41400 34.66500
C  43.34500 17.19800 35.53900
H  51.32900 18.50200 30.70400
H  50.50800 16.32500 24.90200
H  44.67100 14.21600 26.28400
H  47.13100 18.07300 33.37000
H  50.04000 18.08500 33.14000
H  48.97800 20.11700 31.33800
H  49.96500 20.23600 32.74300
H  48.16300 20.12200 32.96300
H  49.35100 16.34400 34.20100
H  47.99300 15.37700 33.65700
H  48.63900 16.05700 36.08000
H  46.90300 15.85500 35.56000
H  54.14800 17.89700 28.77800
H  52.98600 18.84500 29.82200
H  53.44800 19.43100 28.19600
H  55.02000 17.25700 25.14300
H  54.77600 16.85300 26.80800
H  54.35300 18.52000 26.22500
H  48.75800 14.18300 24.19100
H  46.00200 14.84200 24.08700
H  47.17100 15.53900 22.33400
H  48.85000 15.92300 22.46700
H  47.81800 16.92700 23.29700
H  46.04200 12.44500 25.48000
H  47.50800 12.38200 24.51100
H  46.03300 11.46900 22.93700
H  45.92200 13.16800 22.53500
H  44.70600 12.26600 23.50200
H  42.76900 14.05900 27.42300
H  41.94300 14.29600 29.05700
H  42.86900 12.83100 28.71000
H  45.46900 15.12300 33.31700
H  42.41000 17.43000 35.02800
H  43.79200 18.17300 35.73200
H  43.08800 16.63400 36.43600

