158

Mg 16.40900 -2.44300 27.45900
C  15.41200 -0.01800 29.82800
C  18.22000 -3.99800 29.91800
C  17.99800 -4.19200 25.05300
C  14.96400 -0.36600 24.98900
N  16.82600 -1.94400 29.54000
C  16.22100 -1.03000 30.32400
C  16.63800 -1.20400 31.88300
C  17.59000 -2.42800 31.82600
C  17.53200 -2.84500 30.33300
C  19.08800 -2.12400 32.24500
C  15.31100 -1.35900 32.67800
C  15.09300 -0.50100 33.95400
H  16.37900 0.00800 34.68500
N  17.75800 -3.97300 27.47800
C  18.34200 -4.54600 28.55200
C  19.23700 -5.60900 28.14200
C  19.20300 -5.68400 26.75000
C  18.26200 -4.62500 26.36600
C  19.93300 -6.50200 29.14700
C  19.95300 -6.58200 25.74100
O  19.72600 -6.61400 24.53500
C  20.97900 -7.57900 26.20200
N  16.47600 -2.28600 25.36500
C  17.14700 -3.16100 24.64700
C  17.12900 -2.77700 23.14200
C  16.11800 -1.62600 23.05400
C  15.81600 -1.37400 24.51600
C  18.57000 -2.53600 22.62700
C  14.84000 -1.99200 22.25000
C  13.62600 -2.47600 22.97100
N  15.30000 -0.66900 27.40600
C  14.68900 -0.03700 26.36400
C  13.85900 1.05500 26.84900
C  14.09700 1.09700 28.20100
C  14.99000 0.08600 28.48000
C  12.91900 1.86300 26.01300
C  13.76300 1.81400 29.45500
O  12.91000 2.65100 29.76500
C  14.57400 1.04400 30.56800
C  15.31500 2.09200 31.37200
O  16.37500 2.62500 31.09100
O  14.61800 2.45000 32.50700
C  15.10500 3.67900 33.25800
H  18.78000 -4.47200 30.72600
H  18.30200 -4.86600 24.24900
H  14.47100 0.27200 24.25200
H  17.23100 -0.37400 32.26600
H  17.14700 -3.21500 32.43700
H  19.72300 -2.13900 31.35900
H  19.39500 -2.86500 32.98200
H  19.28000 -1.16900 32.73400
H  15.21600 -2.39000 33.01800
H  14.40100 -1.22200 32.09400
H  14.58200 -1.17800 34.63900
H  14.56400 0.41300 33.68500
H  21.00100 -6.61900 28.96100
H  19.45000 -7.45300 28.92200
H  19.88700 -6.21700 30.19800
H  21.69000 -7.81700 25.41000
H  20.45700 -8.50600 26.44200
H  21.61900 -7.17000 26.98400
H  16.68700 -3.63600 22.63800
H  16.52000 -0.73600 22.57100
H  18.73800 -2.94400 21.63000
H  19.30800 -2.81000 23.38100
H  18.58900 -1.44700 22.58200
H  15.06400 -2.83200 21.59300
H  14.49300 -1.09100 21.74500
H  13.77900 -2.92500 23.95300
H  13.18800 -3.27500 22.37300
H  12.88800 -1.67600 22.92300
H  12.11600 2.20800 26.66400
H  12.69200 1.26100 25.13300
H  13.46600 2.76900 25.75200
H  13.84200 0.62200 31.25600
H  15.63200 4.36900 32.60000
H  15.84600 3.29400 33.95900
H  14.29500 4.12000 33.84000
Mg 54.20000 24.75700 45.18700
C  51.86600 27.18100 44.21100
C  52.17000 22.40600 43.74900
C  56.76500 22.55400 45.15000
C  56.28600 27.27500 46.31800
N  52.27400 24.82800 44.00600
C  51.47800 25.87200 43.80400
C  50.27200 25.56500 42.94400
C  50.17900 23.99900 43.17100
C  51.63400 23.68600 43.66300
C  49.04000 23.67100 44.20900
C  50.49900 26.18300 41.55200
C  50.79800 25.26800 40.34400
H  52.10200 25.43800 39.55500
N  54.40700 22.68600 44.60600
C  53.44400 21.87900 44.02500
C  53.90800 20.49800 44.00200
C  55.28800 20.59000 44.28100
C  55.56200 21.97900 44.77100
C  53.02300 19.32300 43.61100
C  56.25800 19.37200 44.12700
O  55.89300 18.22600 43.84200
C  57.77900 19.43200 44.25200
N  56.30300 24.89700 45.56200
C  57.15300 23.91000 45.39700
C  58.61500 24.28000 45.96500
C  58.33700 25.75400 46.51000
C  56.89400 26.01800 46.06400
C  59.18200 23.40000 47.15800
C  59.32500 26.84300 45.99100
C  59.84500 27.75600 47.11400
N  54.11500 26.82100 45.32500
C  54.94800 27.67800 46.01500
C  54.30800 28.91000 46.15800
C  53.14700 28.86100 45.39000
C  53.02100 27.51700 44.91900
C  54.96500 30.16800 46.76900
C  51.94600 29.52300 44.87400
O  51.64500 30.72200 44.87700
C  51.06400 28.43700 44.20400
C  50.69500 28.98200 42.85800
O  51.42300 29.59300 42.09800
O  49.29900 28.80900 42.72000
C  48.49700 29.42700 41.62200
H  51.50700 21.58900 43.45600
H  57.67500 21.95100 45.15700
H  57.00700 28.00400 46.69200
H  49.51600 26.10500 43.51400
H  49.84900 23.43700 42.29700
H  48.47500 24.49700 44.64100
H  49.45700 23.20100 45.10000
H  48.35700 22.98800 43.70400
H  51.37500 26.83000 41.59700
H  49.68300 26.83500 41.24200
H  49.98200 25.40700 39.63600
H  50.70400 24.21500 40.60700
H  52.59200 19.73700 42.70000
H  52.27100 19.24300 44.39600
H  53.52800 18.37100 43.44700
H  58.24100 18.46100 44.07400
H  58.04200 19.72300 45.26900
H  58.07400 20.16700 43.50300
H  59.33000 24.27700 45.14200
H  58.27200 25.75300 47.59800
H  58.53800 22.54100 47.34500
H  59.40600 23.95800 48.06700
H  60.12500 22.92100 46.89500
H  58.96200 27.56100 45.25500
H  60.23500 26.37900 45.61100
H  60.92200 27.69600 47.27000
H  59.42500 27.42500 48.06400
H  59.63600 28.77600 46.79100
H  54.13400 30.82300 47.03200
H  55.75800 30.65900 46.20400
H  55.43900 29.88800 47.70900
H  50.20800 28.41200 44.87900
H  48.18000 28.70100 40.87300
H  49.09600 30.23600 41.20500
H  47.63200 29.88000 42.10600

