158

Mg 30.34600 57.94200 40.83500
C  27.24100 56.52300 39.84600
C  31.97700 55.24100 39.21600
C  33.20000 59.60000 40.85000
C  28.58500 60.72600 41.82000
N  29.66600 56.20800 39.55600
C  28.34400 55.78700 39.35800
C  28.31700 54.49100 38.54900
C  29.81100 54.06100 38.61300
C  30.57000 55.24300 39.22200
C  30.03700 52.75300 39.42000
C  27.82200 54.62700 37.07300
C  26.51900 53.82800 36.68300
H  26.25700 53.72900 35.16300
N  32.38900 57.38200 40.25500
C  32.82600 56.24800 39.70800
C  34.29600 56.33600 39.50300
C  34.68300 57.68900 39.88700
C  33.40200 58.26500 40.35700
C  35.16200 55.24900 38.98100
C  36.09900 58.29200 39.75900
O  37.01300 57.59700 39.37600
C  36.42900 59.66800 40.21200
N  30.83500 59.92000 41.17300
C  32.07000 60.37100 41.21200
C  32.14100 61.85600 41.61400
C  30.66300 62.19800 41.95200
C  29.94700 60.84300 41.58700
C  33.17100 62.22800 42.72700
C  30.12200 63.37200 41.13800
C  29.38600 64.47100 41.81100
N  28.28400 58.55600 40.94800
C  27.75600 59.64300 41.51700
C  26.30100 59.53100 41.53700
C  26.09900 58.34400 40.85900
C  27.30800 57.73200 40.52100
C  25.38400 60.62600 42.06100
C  25.05500 57.49500 40.29100
O  23.82200 57.68000 40.31100
C  25.79000 56.30700 39.64400
C  25.26000 55.09900 40.22000
O  25.81300 54.44400 41.09300
O  24.04100 54.79700 39.65800
C  23.38100 53.54200 39.96700
H  32.45400 54.31800 38.88200
H  34.13700 60.15300 40.94300
H  28.16700 61.69200 42.11300
H  27.75800 53.72300 39.08300
H  30.23900 53.88400 37.62600
H  30.86600 52.35400 38.83500
H  29.13000 52.14800 39.43600
H  30.39700 53.03800 40.40900
H  28.55000 54.25500 36.35300
H  27.60700 55.64700 36.75600
H  25.69100 54.13600 37.32000
H  26.54600 52.78100 36.98600
H  34.57000 54.52700 38.41900
H  35.44700 54.71200 39.88600
H  35.98900 55.64800 38.39400
H  37.44600 59.99400 39.99300
H  36.37700 59.55000 41.29400
H  35.75400 60.37700 39.73300
H  32.44100 62.35100 40.69000
H  30.72800 62.33700 43.03100
H  33.70400 61.32100 43.01100
H  32.62400 62.61300 43.58800
H  33.91800 62.97400 42.45500
H  29.41600 62.86800 40.47900
H  30.91300 63.78000 40.50900
H  29.37000 64.18400 42.86300
H  28.41600 64.55000 41.31900
H  29.98300 65.33800 41.53100
H  25.96400 61.44600 42.48500
H  24.67000 60.12100 42.71100
H  24.81500 61.13900 41.28500
H  25.65000 56.30600 38.56300
H  23.60100 52.77400 39.22600
H  22.30500 53.71300 40.00000
H  23.66200 53.23200 40.97300
Mg -2.45700 34.30600 26.31800
C  -4.04000 32.45600 28.96200
C  -1.36100 36.58900 28.72000
C  -1.16500 36.25200 23.75100
C  -4.16700 32.35800 24.01000
N  -2.87500 34.56100 28.49900
C  -3.42200 33.67500 29.42100
C  -3.25100 34.14500 30.90500
C  -2.71700 35.62400 30.73900
C  -2.19400 35.58700 29.22400
C  -3.78100 36.73800 31.02300
C  -2.37900 33.16900 31.68900
C  -3.00600 32.54600 32.94200
H  -2.18900 32.46600 34.24300
N  -1.30000 36.03300 26.18400
C  -0.96000 36.77900 27.29300
C  0.01300 37.69000 26.88000
C  0.07400 37.71200 25.48800
C  -0.79500 36.64600 25.03900
C  0.75400 38.58600 27.92100
C  0.78300 38.60500 24.48400
O  0.76800 38.43100 23.27300
C  1.54800 39.82700 25.01200
N  -2.71000 34.35200 24.16400
C  -2.02000 35.15600 23.35600
C  -2.34100 34.86800 21.89700
C  -3.02300 33.48400 22.02200
C  -3.39400 33.41100 23.47600
C  -3.38600 35.95500 21.22700
C  -2.00100 32.41200 21.63300
C  -0.88500 31.88600 22.61100
N  -3.74900 32.71600 26.43000
C  -4.23500 31.97000 25.40100
C  -5.06400 30.87100 25.93900
C  -4.96600 31.03900 27.31100
C  -4.15200 32.11200 27.60500
C  -5.91800 29.84700 25.29600
C  -5.39600 30.44800 28.52800
O  -6.11100 29.47800 28.74800
C  -4.75600 31.32400 29.73700
C  -5.78900 31.73600 30.62400
O  -6.56600 32.65300 30.43400
O  -5.85000 30.88900 31.61800
C  -6.87800 31.26100 32.61400
H  -0.75500 37.02100 29.51900
H  -0.85400 36.85200 22.89300
H  -4.62600 31.56600 23.41400
H  -4.25000 34.11700 31.34000
H  -1.81300 35.82100 31.31400
H  -3.53700 36.99600 32.05400
H  -4.76000 36.26400 30.94400
H  -3.61600 37.62200 30.40900
H  -1.49200 33.68700 32.05600
H  -2.12600 32.34400 31.02300
H  -3.26800 31.50200 32.76800
H  -3.92600 33.09600 33.13900
H  1.82800 38.59800 27.73100
H  0.59500 38.25600 28.94700
H  0.43100 39.62300 27.82800
H  0.82300 40.46600 25.51600
H  2.01700 40.35400 24.18100
H  2.25300 39.53900 25.79100
H  -1.46000 34.92800 21.25800
H  -3.93500 33.35300 21.43900
H  -3.44900 36.87400 21.81000
H  -4.39500 35.58500 21.04600
H  -2.93900 36.09600 20.24200
H  -1.48000 32.90100 20.81000
H  -2.57200 31.55600 21.27300
H  0.06300 32.27000 22.23400
H  -0.80300 30.80400 22.50100
H  -1.09100 32.22000 23.62800
H  -5.89100 29.62700 24.22900
H  -6.96100 30.12800 25.44400
H  -5.65500 28.97900 25.90100
H  -4.03000 30.77800 30.33900
H  -6.35800 31.83200 33.38300
H  -7.12500 30.31500 33.09500
H  -7.81000 31.71800 32.28400

