158

Mg 1.16600 7.51200 26.29000
C  1.46400 9.73300 29.05700
C  1.80400 5.01100 28.42300
C  1.17100 5.64300 23.68400
C  1.19600 10.44600 24.21800
N  1.64200 7.43700 28.54500
C  1.55300 8.36400 29.48400
C  1.63400 7.80400 30.91800
C  2.09200 6.28900 30.60000
C  1.89200 6.23700 29.11300
C  3.53200 5.85800 31.13000
C  0.25400 7.91000 31.67900
C  0.27500 8.05200 33.19900
H  1.40300 7.39600 33.98000
N  1.27800 5.55400 26.08000
C  1.61400 4.67900 27.09300
C  1.58700 3.33000 26.53600
C  1.38900 3.50300 25.09800
C  1.29400 4.95300 24.88700
C  1.71800 2.05500 27.30900
C  1.34300 2.46100 23.92000
O  1.23500 2.70100 22.67900
C  1.48800 0.95300 24.18600
N  1.29300 7.99400 24.19700
C  1.14600 6.98000 23.33500
C  0.99100 7.55900 21.92200
C  0.64200 9.05300 22.16300
C  0.96000 9.19200 23.63900
C  2.35700 7.40800 21.08000
C  -0.87400 9.42200 21.87000
C  -1.13700 10.33300 20.63100
N  1.37900 9.57300 26.50800
C  1.41100 10.64400 25.59000
C  1.49100 11.91300 26.23500
C  1.47600 11.61600 27.56600
C  1.46300 10.21100 27.68300
C  1.34600 13.25800 25.74500
C  1.55800 12.25500 28.87500
O  1.70000 13.39900 29.18300
C  1.56900 10.99700 29.92700
C  2.63800 11.05700 30.91900
O  3.83000 11.25000 30.59300
O  2.26100 10.78400 32.20400
C  3.27100 10.99600 33.20400
H  1.99200 4.16800 29.09200
H  1.16500 5.05500 22.76300
H  1.18200 11.26800 23.49900
H  2.46000 8.30800 31.42000
H  1.55000 5.46100 31.05700
H  4.13600 6.69300 31.48500
H  4.08100 5.35200 30.33600
H  3.52700 5.17600 31.98000
H  -0.34600 7.00900 31.55400
H  -0.30600 8.65800 31.11800
H  -0.63300 7.63300 33.63200
H  0.32500 9.10400 33.48100
H  0.74400 1.76200 27.70200
H  2.38700 2.25500 28.14600
H  2.26500 1.28900 26.75900
H  0.72000 0.68700 24.91200
H  2.37500 0.51500 24.64400
H  1.37900 0.23500 23.37200
H  0.19200 6.99200 21.44300
H  1.44900 9.52500 21.60200
H  2.14900 6.70300 20.27600
H  3.14100 6.92100 21.66100
H  2.70100 8.29600 20.55100
H  -1.21100 9.97800 22.74400
H  -1.44000 8.49300 21.79800
H  -1.92100 9.90300 20.00800
H  -0.20100 10.45800 20.08700
H  -1.45100 11.33700 20.91600
H  2.25200 13.86100 25.69200
H  0.67500 13.77900 26.42800
H  0.97800 13.28000 24.71900
H  0.65100 11.08000 30.50800
H  3.44900 12.06400 33.08400
H  4.16900 10.44500 32.92300
H  3.03400 10.80200 34.25000
Mg 47.31000 34.80600 28.51500
C  45.43600 33.28500 30.94500
C  47.56600 37.51100 30.73200
C  48.28600 36.80800 25.94500
C  46.36700 32.34400 26.23900
N  46.52500 35.31300 30.57700
C  45.94800 34.45100 31.41800
C  45.99400 34.98800 32.86000
C  46.18400 36.53200 32.65600
C  46.76200 36.47700 31.20700
C  44.83300 37.33000 32.66100
C  47.15700 34.39900 33.64600
C  47.13000 34.06000 35.13700
H  46.44600 35.04100 36.11300
N  47.92900 36.80800 28.38800
C  48.14600 37.70600 29.44400
C  48.98200 38.82200 29.01800
C  48.97000 38.68100 27.57600
C  48.39200 37.42300 27.22400
C  49.59000 39.86700 30.03700
C  49.70700 39.55700 26.61000
O  49.90500 39.27200 25.46000
C  50.27800 40.94600 27.08800
N  47.41800 34.44500 26.43200
C  47.88200 35.53900 25.62800
C  47.93500 34.98800 24.14600
C  47.46900 33.53900 24.17800
C  47.12000 33.37100 25.64700
C  47.27300 35.90500 23.11000
C  48.48700 32.51000 23.79500
C  48.14600 31.32700 22.90800
N  46.29800 33.06600 28.51500
C  46.01400 32.17500 27.55100
C  45.32900 30.98800 28.18200
C  45.06000 31.38800 29.52800
C  45.62400 32.70100 29.64600
C  44.79100 29.72300 27.42300
C  44.42200 31.06500 30.80400
O  43.90500 30.03800 31.15700
C  44.53100 32.35300 31.68900
C  44.73700 32.11200 33.14000
O  45.40100 31.24300 33.66200
O  43.73500 32.69900 33.77800
C  43.51500 32.57400 35.25200
H  47.85000 38.30100 31.43000
H  48.27200 37.45500 25.06500
H  46.03700 31.52900 25.59300
H  45.10500 34.78400 33.45600
H  46.91000 36.97400 33.33800
H  43.99700 36.64000 32.54900
H  44.90700 38.01300 31.81500
H  44.64500 37.92700 33.55400
H  47.94700 35.14700 33.71200
H  47.67300 33.56000 33.17900
H  48.04300 33.70700 35.61700
H  46.49200 33.17600 35.09900
H  49.98800 39.31000 30.88600
H  48.89800 40.63800 30.37500
H  50.46700 40.37200 29.63400
H  51.23600 40.87300 27.60300
H  49.50600 41.38600 27.71900
H  50.56800 41.55800 26.23400
H  49.02200 34.97600 24.06700
H  46.51200 33.44200 23.66500
H  46.62800 35.31200 22.46100
H  47.98800 36.47800 22.52000
H  46.66600 36.65700 23.61500
H  48.83200 31.96900 24.67600
H  49.34600 32.99600 23.33300
H  48.95700 31.00500 22.25600
H  47.21100 31.42100 22.35600
H  48.02600 30.47400 23.57600
H  44.51000 29.82000 26.37400
H  43.95100 29.48300 28.07400
H  45.45300 28.86800 27.55700
H  43.49600 32.68200 31.60300
H  42.72900 31.83400 35.40300
H  43.16500 33.53000 35.64200
H  44.43700 32.30800 35.76800

