158

Mg 47.10700 24.65300 27.81000
C  48.11700 26.85100 30.32600
C  46.12300 22.43500 30.19900
C  46.29600 22.63700 25.24800
C  48.03300 27.11500 25.44100
N  47.04900 24.76000 29.95200
C  47.45100 25.74500 30.79500
C  47.02200 25.42700 32.28700
C  46.51000 23.97800 32.23400
C  46.53000 23.67600 30.70000
C  47.31200 22.98500 33.17100
C  46.09900 26.53300 32.95600
C  46.58800 26.91600 34.36600
H  45.68500 27.44100 35.48800
N  46.55100 22.79300 27.75500
C  46.16000 21.97000 28.84400
C  45.77400 20.64400 28.25600
C  45.78400 20.74200 26.84600
C  46.18300 22.15600 26.56400
C  45.45400 19.48600 29.09700
C  45.47100 19.71900 25.76300
O  45.65600 19.91200 24.58700
C  44.69300 18.44100 26.03700
N  47.43300 24.72500 25.65100
C  46.85900 23.78900 24.84700
C  46.80500 24.24000 23.42600
C  47.14300 25.73400 23.43200
C  47.62700 25.88400 24.92700
C  47.70700 23.43800 22.46000
C  45.93600 26.61700 23.23200
C  46.18600 28.06300 22.55800
N  48.02900 26.51100 27.76800
C  48.29100 27.41900 26.82400
C  48.92000 28.52900 27.33800
C  48.91400 28.39300 28.71900
C  48.29600 27.12300 28.94100
C  49.56400 29.61000 26.45400
C  49.23500 28.98400 29.92300
O  49.77200 30.06000 30.15400
C  48.57700 28.09300 31.02700
C  49.67500 27.87000 32.08800
O  50.61300 27.16700 32.02200
O  49.38800 28.70800 33.16200
C  50.18400 28.54100 34.38500
H  45.77000 21.65200 30.87400
H  45.92400 22.05400 24.40300
H  48.30500 27.87800 24.71000
H  47.97600 25.50600 32.80800
H  45.46200 23.96900 32.53400
H  47.81700 22.20800 32.59700
H  46.67500 22.46000 33.88300
H  48.01100 23.54400 33.79400
H  45.06800 26.18500 33.01300
H  46.10500 27.44900 32.36400
H  47.19900 27.81300 34.26300
H  47.11200 26.03900 34.74700
H  46.03600 19.64400 30.00500
H  45.87200 18.58700 28.64500
H  44.38100 19.29700 29.11800
H  43.91700 18.66800 26.76800
H  45.34500 17.79400 26.62400
H  44.38600 17.91100 25.13500
H  45.75900 24.05700 23.18300
H  47.91300 26.07400 22.73900
H  48.71600 23.38800 22.86900
H  47.89200 23.99800 21.54300
H  47.16900 22.51600 22.23900
H  45.37800 26.61600 24.16800
H  45.21300 26.13600 22.57300
H  45.94900 28.18500 21.50200
H  47.20400 28.44400 22.63900
H  45.53300 28.71000 23.14400
H  49.18000 29.76700 25.44500
H  50.55700 29.16100 26.46100
H  49.57300 30.48600 27.10200
H  47.80800 28.70900 31.49300
H  49.76400 27.69000 34.92100
H  50.02600 29.46200 34.94600
H  51.21900 28.23200 34.23800
Mg 17.01000 51.72800 25.63200
C  18.74500 50.57800 28.51800
C  14.44800 52.63600 27.71800
C  15.43600 52.77000 22.95600
C  19.44300 50.18800 23.61600
N  16.70000 51.67300 27.91800
C  17.56600 51.23500 28.90500
C  16.99400 51.52100 30.31600
C  15.46500 51.86500 29.97300
C  15.53200 52.03300 28.41300
C  14.41200 50.79200 30.35400
C  17.81200 52.62000 31.01500
C  18.00200 52.38300 32.50100
H  16.86000 52.93000 33.34600
N  15.21300 52.74500 25.38500
C  14.30200 53.00600 26.34400
C  13.21000 53.76300 25.72200
C  13.39400 53.74600 24.29600
C  14.71100 53.09200 24.12800
C  12.12000 54.34600 26.61600
C  12.49000 54.26000 23.16900
O  12.96900 54.37700 22.05000
C  11.03900 54.64000 23.37500
N  17.32200 51.38600 23.52400
C  16.60500 52.03600 22.64300
C  17.11600 51.87200 21.20800
C  18.59800 51.37900 21.49300
C  18.40400 50.87600 22.93900
C  16.26100 50.93300 20.35700
C  19.75000 52.46000 21.40700
C  20.91400 52.06700 20.47700
N  18.62600 50.52700 25.92100
C  19.52600 49.95800 25.01100
C  20.66200 49.35100 25.69900
C  20.40400 49.55200 27.07700
C  19.17400 50.36200 27.17000
C  21.76500 48.64300 24.92500
C  20.94200 49.35200 28.38600
O  21.90700 48.73300 28.72500
C  19.76500 49.93700 29.38600
C  19.28800 48.79000 30.21600
O  18.81600 47.70300 29.78200
O  19.36300 49.13800 31.58200
C  18.93600 48.14400 32.59800
H  13.52500 52.90200 28.23800
H  14.98200 53.20800 22.06500
H  20.30800 49.96000 22.99000
H  17.12800 50.59600 30.87700
H  15.24000 52.88700 30.27800
H  14.68400 50.44500 31.35100
H  14.35500 49.93400 29.68400
H  13.48500 51.36600 30.37200
H  17.46500 53.65000 30.92700
H  18.83600 52.55800 30.64600
H  19.01900 52.56500 32.84800
H  17.95500 51.29800 32.59400
H  11.20400 53.79200 26.41000
H  12.03800 55.36600 26.24100
H  12.22500 54.24200 27.69600
H  10.63000 53.82900 23.97700
H  10.48100 54.94300 22.48800
H  10.89800 55.53600 23.98000
H  17.23700 52.82200 20.68800
H  18.90900 50.66500 20.73000
H  15.68000 51.53900 19.66100
H  15.66000 50.29300 21.00300
H  16.94600 50.36000 19.73100
H  20.13700 52.72800 22.39000
H  19.40800 53.37700 20.92700
H  20.81200 51.02200 20.18700
H  21.79900 52.17700 21.10300
H  20.96400 52.68100 19.57800
H  22.29600 47.98800 25.61500
H  22.43900 49.34400 24.43300
H  21.33100 47.92300 24.23100
H  20.17200 50.71900 30.02600
H  17.86300 48.33800 32.60600
H  19.39100 48.44100 33.54300
H  19.15000 47.13900 32.23500

