158

Mg 47.72300 14.61300 27.87800
C  45.73800 14.82100 30.65600
C  50.09400 16.62300 29.54800
C  49.56400 14.56500 25.17500
C  45.37900 12.57100 26.32400
N  47.86300 15.56800 29.91700
C  46.97200 15.40600 30.89800
C  47.44900 16.02200 32.18600
C  48.80700 16.77200 31.79300
C  48.94600 16.34200 30.32300
C  48.84000 18.33300 31.89800
C  47.49300 15.00000 33.33700
C  46.66100 15.15800 34.58500
H  47.46100 15.70600 35.79400
N  49.59100 15.47400 27.39600
C  50.41100 16.23100 28.22200
C  51.67200 16.40900 27.55500
C  51.52700 15.80600 26.27500
C  50.17000 15.28100 26.22500
C  52.78300 17.36100 28.05600
C  52.49100 15.80700 25.06400
O  52.13600 15.37200 23.94200
C  53.89400 16.38900 25.23400
N  47.38300 13.78300 25.92200
C  48.36800 13.89800 24.98900
C  47.91800 13.04400 23.72200
C  46.70500 12.31700 24.15500
C  46.42900 12.94400 25.47400
C  47.71600 13.81500 22.42800
C  46.79700 10.77900 24.03100
C  47.53900 10.09800 25.20900
N  45.98200 13.88100 28.31400
C  45.10900 12.99900 27.58500
C  43.94500 12.76200 28.39400
C  44.10900 13.50900 29.57000
C  45.38100 14.10700 29.47800
C  42.76600 11.90600 27.94000
C  43.50400 13.83400 30.82600
O  42.40800 13.60000 31.38300
C  44.57800 14.65700 31.60900
C  43.94000 15.94400 31.88300
O  43.60400 16.74700 31.04200
O  43.89900 16.16000 33.22000
C  43.37000 17.31400 33.74700
H  50.76800 17.29300 30.08500
H  50.16300 14.30000 24.30200
H  44.58500 11.94200 25.91500
H  46.58500 16.63800 32.43300
H  49.66100 16.42200 32.37300
H  48.87800 18.89900 30.96800
H  49.64000 18.50900 32.61700
H  47.84900 18.58200 32.27800
H  48.48400 14.98800 33.79000
H  47.28900 14.01600 32.91600
H  46.17200 14.20700 34.79400
H  45.83900 15.85900 34.44000
H  52.26500 18.12700 28.63300
H  53.33300 17.94900 27.32100
H  53.49600 16.79700 28.65800
H  54.20700 16.17900 26.25700
H  54.05900 17.41700 24.91100
H  54.65400 15.86200 24.65800
H  48.76100 12.36200 23.61500
H  45.83100 12.67000 23.60800
H  46.73500 14.28700 22.47400
H  47.90300 13.11500 21.61400
H  48.44800 14.62000 22.35900
H  47.37100 10.62200 23.11800
H  45.84600 10.28400 23.83400
H  47.09400 10.53400 26.10300
H  48.60700 10.31100 25.15900
H  47.32900 9.02800 25.21500
H  42.80400 10.89800 28.35400
H  42.76700 11.72500 26.86500
H  41.85500 12.46900 28.14100
H  44.91500 14.09800 32.48100
H  44.07800 18.09900 33.48100
H  43.32400 17.41800 34.83100
H  42.35700 17.42100 33.35900
Mg 35.92100 48.53600 25.00100
C  36.08100 46.78600 28.00500
C  34.76900 51.27900 26.72300
C  35.37300 50.00900 22.02500
C  37.09600 45.75900 23.34400
N  35.50600 48.97300 27.05300
C  35.57400 48.08100 28.12800
C  35.29000 48.71900 29.47400
C  34.68300 50.08200 28.96900
C  35.12700 50.17600 27.49700
C  33.17000 50.26100 29.23200
C  36.60800 48.94100 30.32700
C  36.42500 49.02100 31.88500
H  35.09300 49.27300 32.50900
N  35.21500 50.37500 24.47900
C  34.76100 51.37900 25.32600
C  34.30600 52.48900 24.55200
C  34.45200 52.09400 23.21400
C  35.07600 50.76500 23.20000
C  33.77000 53.78700 25.21700
C  34.12000 52.89100 22.00000
O  34.33100 52.60600 20.84300
C  33.45700 54.22500 22.19300
N  36.20000 48.01500 22.99800
C  35.95700 48.82100 21.93400
C  36.09200 48.04200 20.63000
C  36.88900 46.85900 21.11800
C  36.75400 46.93000 22.64400
C  34.74100 47.85800 19.70000
C  38.40700 46.88300 20.77800
C  39.13400 45.64100 20.41000
N  36.51000 46.58200 25.44400
C  36.98800 45.59300 24.74500
C  37.22100 44.42900 25.58800
C  36.85400 44.85300 26.83900
C  36.46100 46.13600 26.75600
C  37.49500 43.01900 25.13500
C  36.81600 44.46900 28.27000
O  37.09900 43.41000 28.79900
C  36.35700 45.73100 29.13900
C  35.10900 45.42600 29.84300
O  34.07900 44.99600 29.33300
O  35.15800 45.61300 31.21000
C  33.87100 45.25000 31.91700
H  34.10700 51.99100 27.22100
H  35.08700 50.38700 21.04100
H  37.36100 44.82700 22.83900
H  34.53500 48.17200 30.03900
H  35.20900 50.76900 29.63200
H  32.63600 49.38300 29.59500
H  32.71900 50.45900 28.26000
H  32.92800 51.12600 29.85000
H  37.14100 49.82300 29.97200
H  37.23700 48.08000 30.10400
H  37.22400 49.59700 32.35200
H  36.78300 48.04600 32.21400
H  32.70800 53.85200 24.97800
H  34.24900 54.66900 24.79100
H  33.79000 53.76300 26.30700
H  34.18600 54.96100 22.53200
H  32.54600 54.11700 22.78100
H  33.12500 54.56800 21.21300
H  36.78000 48.61900 20.01200
H  36.49400 45.98200 20.60500
H  33.99300 48.06500 20.46500
H  34.48400 46.87200 19.31200
H  34.65700 48.64600 18.95200
H  38.87900 47.32800 21.65300
H  38.50400 47.51700 19.89700
H  38.46900 44.82000 20.68000
H  40.04000 45.35900 20.94700
H  39.34000 45.53300 19.34500
H  37.23200 42.98800 24.07800
H  36.80600 42.27800 25.54300
H  38.55100 42.78700 25.27300
H  37.08600 45.99300 29.90600
H  33.49700 44.23200 31.80700
H  33.13600 46.02100 31.68300
H  34.07200 45.34000 32.98400

