158

Mg 53.46200 24.35900 44.82000
C  51.05000 26.71100 43.92200
C  51.35900 21.91300 43.46500
C  56.16900 22.20200 44.76000
C  55.71900 27.03400 45.24800
N  51.55500 24.28300 43.52800
C  50.75800 25.37400 43.40800
C  49.46100 24.96600 42.63300
C  49.41300 23.43600 42.90100
C  50.85700 23.15500 43.25900
C  48.40800 23.06300 43.99200
C  49.52100 25.20500 41.15000
C  50.82000 25.47700 40.46200
H  50.77700 25.98500 39.00700
N  53.73900 22.32800 44.27100
C  52.70400 21.45800 43.84000
C  53.24900 20.09400 43.73300
C  54.58900 20.15200 44.08700
C  54.87400 21.58700 44.40900
C  52.45500 18.95000 43.15300
C  55.49600 19.04700 44.17300
O  55.15000 17.95800 43.91100
C  56.89500 19.16400 44.48900
N  55.69500 24.61900 44.50400
C  56.53800 23.55400 44.74500
C  58.00500 24.00000 45.02600
C  57.76100 25.58600 45.09000
C  56.30600 25.77400 44.92000
C  58.75700 23.33400 46.25600
C  58.65700 26.38000 44.00200
C  58.13600 26.37100 42.56100
N  53.38200 26.43300 44.82500
C  54.32100 27.44200 45.16700
C  53.64000 28.69400 45.27100
C  52.36200 28.49300 44.78300
C  52.24300 27.11100 44.54300
C  54.36800 29.91800 45.68300
C  51.12500 29.11600 44.49300
O  50.81300 30.26100 44.65500
C  50.22800 27.96100 43.95000
C  49.64800 28.43000 42.66700
O  50.26700 28.50800 41.61800
O  48.26900 28.57400 42.67300
C  47.68800 28.60000 41.30500
H  50.58500 21.14900 43.36500
H  57.03800 21.57700 44.97400
H  56.47000 27.77000 45.54500
H  48.56600 25.47200 42.99300
H  49.16200 22.82800 42.03200
H  48.31600 23.88800 44.70000
H  48.58200 22.19600 44.62900
H  47.42700 22.82000 43.58400
H  48.74600 25.95900 41.01000
H  49.15900 24.39300 40.52000
H  51.51000 24.64600 40.60900
H  51.22500 26.40200 40.87300
H  52.96700 18.61200 42.25300
H  51.45500 19.31700 42.92300
H  52.40500 18.05400 43.77200
H  57.15900 18.10600 44.47600
H  56.89100 19.50900 45.52300
H  57.44300 19.82100 43.81400
H  58.60800 23.73800 44.15700
H  58.06600 25.91000 46.08500
H  59.54500 22.66600 45.91000
H  58.05500 22.76600 46.86700
H  59.21300 24.10900 46.87300
H  59.63100 25.89200 43.96500
H  58.82000 27.41900 44.28800
H  57.71800 27.31900 42.22100
H  57.47600 25.52400 42.37400
H  59.01200 26.17000 41.94600
H  55.39500 29.78500 45.34200
H  54.32400 30.07400 46.76100
H  53.99800 30.81800 45.19300
H  49.34400 27.83800 44.57600
H  47.76000 29.62400 40.93800
H  46.66200 28.27200 41.47400
H  48.18200 27.92000 40.61000
Mg 36.00900 49.60100 25.19200
C  36.52100 47.55000 27.91900
C  34.71900 51.99500 27.31200
C  35.19000 51.30900 22.44100
C  36.94800 47.02100 23.12800
N  35.50900 49.66500 27.44700
C  35.96200 48.78600 28.36100
C  35.98500 49.50300 29.73900
C  35.19700 50.81600 29.54500
C  35.16300 50.87900 28.01800
C  33.76000 50.79800 30.18100
C  37.40500 49.69400 30.31400
C  37.80100 49.48700 31.76800
H  36.65200 49.56400 32.75500
N  35.10000 51.35500 24.97400
C  34.70900 52.20200 25.91400
C  34.19100 53.46900 25.22400
C  34.31500 53.31200 23.81800
C  34.85600 51.96800 23.69000
C  33.78600 54.63400 26.04200
C  33.94000 54.32800 22.77500
O  34.07900 54.09800 21.57200
C  33.24100 55.59100 23.10900
N  36.10000 49.19900 23.04100
C  35.67000 50.08900 22.08600
C  35.99700 49.54100 20.69000
C  36.91800 48.31500 20.96200
C  36.69500 48.21300 22.49600
C  34.69000 49.24000 19.90400
C  38.41400 48.66300 20.72100
C  39.40500 47.50500 20.88300
N  36.61400 47.58400 25.40400
C  37.02400 46.68200 24.54200
C  37.38900 45.40300 25.11500
C  37.27200 45.73700 26.48900
C  36.72800 47.04200 26.62200
C  37.91800 44.12200 24.42100
C  37.52800 45.31500 27.86300
O  38.05200 44.28400 28.23100
C  37.04600 46.43900 28.82900
C  36.05900 45.86500 29.78700
O  34.84100 45.79100 29.61100
O  36.70300 45.69600 31.01300
C  35.78100 45.48800 32.21900
H  34.38100 52.79300 27.97700
H  34.89000 51.72100 21.47500
H  37.44100 46.23700 22.55000
H  35.53000 48.78100 30.41700
H  35.62600 51.76600 29.86300
H  33.01700 51.10600 29.44500
H  33.86500 51.54200 30.97000
H  33.35700 49.89200 30.63300
H  37.75400 50.71200 30.13900
H  37.96400 49.01700 29.66700
H  38.45700 50.26600 32.15600
H  38.32300 48.53200 31.71500
H  34.36700 55.50800 25.74900
H  33.99300 54.52500 27.10700
H  32.75600 54.98000 25.95200
H  33.19100 56.21400 22.21600
H  33.76500 56.21300 23.83600
H  32.23200 55.32000 23.42300
H  36.56000 50.26400 20.09900
H  36.68800 47.46600 20.31800
H  33.77400 49.54200 20.41100
H  34.64400 48.15300 19.84300
H  34.77300 49.74400 18.94100
H  38.61600 49.48600 21.40600
H  38.59400 49.06000 19.72200
H  38.82900 46.59500 21.05000
H  39.90300 47.58800 21.84900
H  40.03600 47.44800 19.99600
H  37.63700 43.32000 25.10400
H  38.98800 44.18300 24.22100
H  37.32800 43.97500 23.51700
H  37.88400 46.75200 29.45200
H  35.15600 44.59700 32.15500
H  35.10300 46.31500 32.43100
H  36.36700 45.32800 33.12400

