158

Mg 17.67200 -1.30300 27.29400
C  16.60200 0.71200 30.03000
C  19.86400 -3.01700 29.33900
C  19.14300 -2.55700 24.46700
C  15.81900 0.90400 25.21900
N  18.28800 -1.02800 29.37200
C  17.55700 -0.29700 30.35600
C  17.98100 -0.85600 31.78600
C  19.11100 -1.85100 31.49500
C  19.13700 -1.93100 30.00600
C  20.49200 -1.50000 32.06000
C  16.86500 -1.46700 32.65500
C  16.53000 -0.76900 33.96400
H  17.68800 -0.29200 34.91000
N  19.12400 -2.72000 26.95800
C  19.85600 -3.34100 27.91900
C  20.49900 -4.49600 27.32700
C  20.35000 -4.39500 25.90400
C  19.49600 -3.18700 25.68700
C  20.98100 -5.72100 28.12800
C  20.99900 -5.14000 24.80900
O  20.79700 -4.94000 23.60000
C  21.95200 -6.21600 25.23100
N  17.47200 -0.90000 25.16000
C  18.28000 -1.49000 24.22100
C  18.05000 -0.89400 22.77500
C  16.73800 0.04700 23.02500
C  16.66900 0.00400 24.55500
C  19.32800 -0.14700 22.24400
C  15.42800 -0.39500 22.31400
C  14.89800 0.32700 21.10500
N  16.44100 0.51200 27.51000
C  15.79200 1.20700 26.61000
C  15.03200 2.29600 27.20300
C  15.26300 2.10100 28.57000
C  16.12700 1.01100 28.67200
C  14.14000 3.32700 26.56700
C  14.97400 2.57900 29.95200
O  14.28500 3.54800 30.32400
C  15.88500 1.74200 30.92300
C  16.89500 2.65400 31.71600
O  18.06800 2.78300 31.41400
O  16.46100 3.16400 32.90600
C  17.18500 4.26700 33.45800
H  20.53200 -3.60300 29.97300
H  19.49600 -3.03400 23.55000
H  15.14900 1.41900 24.52800
H  18.19300 0.11200 32.24000
H  18.78600 -2.87800 31.66300
H  20.96600 -2.37300 32.50900
H  20.30600 -0.92600 32.96700
H  21.07500 -0.85400 31.40300
H  17.06900 -2.45800 33.06100
H  15.96700 -1.52800 32.04100
H  15.79000 -1.31400 34.55000
H  15.97400 0.13900 33.73200
H  22.06300 -5.84300 28.16300
H  20.42100 -6.53400 27.66600
H  20.59800 -5.72700 29.14800
H  21.41500 -7.04700 25.68900
H  22.72500 -5.76300 25.85200
H  22.49200 -6.47900 24.32200
H  17.80000 -1.72900 22.12100
H  16.88700 1.08400 22.72500
H  19.50400 -0.53700 21.24100
H  20.11700 -0.33900 22.97000
H  19.08500 0.91300 22.16500
H  14.65400 -0.21000 23.05900
H  15.35600 -1.46500 22.12000
H  14.28000 1.18500 21.37000
H  14.17400 -0.35200 20.65400
H  15.66800 0.64800 20.40400
H  13.08000 3.14900 26.75100
H  14.32100 3.30000 25.49300
H  14.28900 4.33300 26.95800
H  15.22200 1.25600 31.63900
H  16.72300 4.47600 34.42300
H  17.04500 5.14700 32.83000
H  18.24700 4.04900 33.57000
Mg -0.35700 44.12200 25.12000
C  1.42100 43.56100 28.22000
C  -3.17900 43.25200 26.71800
C  -1.66600 43.67300 22.05400
C  2.96000 44.36300 23.54600
N  -0.80500 43.39300 27.24700
C  0.02300 43.37900 28.36200
C  -0.83500 43.32900 29.64700
C  -2.20600 42.88900 29.06500
C  -2.09600 43.31500 27.56200
C  -2.69100 41.39500 29.25400
C  -0.80700 44.61100 30.59600
C  -0.49100 44.46600 32.08900
H  -0.82500 43.15200 32.82000
N  -2.16800 43.61800 24.43700
C  -3.19700 43.33000 25.29600
C  -4.41800 43.25700 24.48000
C  -4.03800 43.43100 23.14100
C  -2.57800 43.60200 23.14400
C  -5.77800 43.00000 25.20600
C  -4.81500 43.31100 21.90400
O  -4.32300 43.49400 20.83500
C  -6.29400 43.04000 22.04700
N  0.55100 43.82400 23.09200
C  -0.26500 43.79000 22.03800
C  0.49500 43.83500 20.74200
C  1.95300 44.15200 21.19900
C  1.86800 44.08100 22.71200
C  0.30300 42.54900 19.88800
C  2.52300 45.54400 20.74400
C  1.68500 46.74600 21.21000
N  1.70400 44.24100 25.71900
C  2.87700 44.46100 24.98800
C  3.99600 44.60500 25.88700
C  3.44500 44.23100 27.11200
C  2.07500 43.94400 26.98700
C  5.47100 44.83400 25.55300
C  3.85200 44.10100 28.49200
O  4.91000 44.21500 29.13800
C  2.54900 43.65100 29.28400
C  2.86800 42.41400 30.05900
O  3.04900 41.31300 29.61000
O  2.91900 42.71200 31.44600
C  3.03300 41.53600 32.41300
H  -4.15700 43.01000 27.14000
H  -2.09900 43.81400 21.06100
H  3.87400 44.57400 22.98700
H  -0.36400 42.51000 30.19100
H  -2.88600 43.60900 29.52000
H  -1.85800 40.86200 29.71200
H  -2.93600 40.82900 28.35500
H  -3.47700 41.32700 30.00600
H  -1.77900 45.09500 30.49300
H  -0.05700 45.26500 30.15200
H  -1.13500 45.25100 32.48400
H  0.52600 44.78600 32.31800
H  -6.03700 43.78900 25.91200
H  -5.55000 42.10600 25.78500
H  -6.58600 42.71800 24.53100
H  -6.46600 42.00900 22.35500
H  -6.71200 43.19400 21.05200
H  -6.80700 43.87100 22.53000
H  0.12800 44.65400 20.12300
H  2.60900 43.37000 20.81600
H  -0.04600 41.86000 20.65600
H  1.23200 42.20400 19.43200
H  -0.41500 42.72900 19.08800
H  2.33500 45.55800 19.67000
H  3.56800 45.69600 21.01200
H  1.10900 47.13000 20.36800
H  2.47200 47.45600 21.46800
H  1.02300 46.60800 22.06500
H  5.68900 44.44000 24.56100
H  6.12700 44.31700 26.25400
H  5.69300 45.90100 25.54900
H  2.32800 44.43400 30.00900
H  4.04500 41.17300 32.23500
H  2.31900 40.74200 32.19300
H  2.87900 42.00500 33.38500

