158

Mg 29.07700 57.86500 40.54700
C  26.39400 55.98300 39.59500
C  31.16200 55.75800 38.81200
C  31.45500 60.25300 40.60700
C  26.76300 60.33100 41.79700
N  28.75400 56.30900 39.06600
C  27.56700 55.56000 38.97200
C  27.72500 54.48100 37.91000
C  29.26300 54.20700 38.01800
C  29.83600 55.44100 38.71000
C  29.77300 52.88400 38.74600
C  27.14100 54.84300 36.59400
C  27.76800 56.06000 35.87200
H  27.88900 56.00600 34.33900
N  31.04900 57.90400 39.95200
C  31.72700 56.94800 39.31600
C  33.13300 57.18100 39.31600
C  33.25900 58.46600 39.94400
C  31.89200 58.97900 40.17500
C  34.21200 56.25900 38.78100
C  34.53900 59.11500 40.21100
O  35.56500 58.72500 39.78200
C  34.58200 60.24500 41.13900
N  29.08500 60.02000 41.07400
C  30.18200 60.76300 40.95400
C  30.02500 62.15200 41.53800
C  28.55000 62.10500 42.13700
C  28.07900 60.71800 41.68000
C  31.09600 62.53900 42.66200
C  27.67400 63.38900 41.81000
C  26.73200 63.78300 42.92100
N  27.00800 58.04100 40.83200
C  26.20300 59.08700 41.34200
C  24.88400 58.57900 41.39800
C  24.87500 57.41700 40.68100
C  26.19900 57.15100 40.33400
C  23.71900 59.21900 42.13400
C  24.08300 56.23500 40.21900
O  22.90900 55.97000 40.44000
C  25.09100 55.32300 39.34500
C  25.16100 54.00800 39.99700
O  25.45400 53.84600 41.19500
O  24.80800 53.06300 39.11400
C  24.70400 51.66700 39.61200
H  31.78900 54.93900 38.45300
H  32.32000 60.90700 40.73400
H  26.10000 61.13200 42.12900
H  27.19400 53.63400 38.34500
H  29.59300 54.16800 36.97900
H  30.42400 53.10400 39.59200
H  30.28400 52.22900 38.04000
H  28.99300 52.24100 39.15200
H  26.06900 54.99200 36.71600
H  27.28600 53.89500 36.07700
H  28.78700 56.15900 36.24600
H  27.26100 56.93400 36.27900
H  33.90500 55.21400 38.71900
H  35.12700 56.25900 39.37300
H  34.40900 56.63800 37.77800
H  34.48600 61.17100 40.57100
H  35.61600 60.17100 41.47600
H  33.91500 60.14800 41.99500
H  30.09000 62.79500 40.66000
H  28.65400 61.98800 43.21500
H  30.52700 62.63300 43.58700
H  31.63800 63.46200 42.45600
H  31.81000 61.71800 42.73000
H  27.10700 63.10600 40.92300
H  28.39100 64.16200 41.53400
H  26.88000 64.80400 43.27500
H  26.86300 63.19400 43.82900
H  25.68200 63.77500 42.62900
H  23.03400 58.40800 42.38400
H  23.25700 59.88000 41.40200
H  24.17400 59.75600 42.96600
H  24.73100 55.30400 38.31700
H  25.68200 51.26500 39.87300
H  24.32200 50.91900 38.91800
H  24.21500 51.65800 40.58700
Mg -11.42800 38.51500 41.48000
C  -9.58600 35.61600 40.87000
C  -9.18000 40.27500 39.62900
C  -13.54100 41.10900 41.71700
C  -13.99400 36.44500 42.73500
N  -9.51700 38.04000 40.49400
C  -8.98900 36.80000 40.31300
C  -7.67900 36.85300 39.52100
C  -7.54500 38.36700 39.23400
C  -8.78200 38.96400 39.83300
C  -6.18100 39.06100 39.68600
C  -7.64800 36.01600 38.21100
C  -6.30900 35.37400 37.68700
H  -5.66200 35.69700 36.34200
N  -11.30600 40.41700 40.85400
C  -10.28200 40.98700 40.12600
C  -10.57800 42.45900 39.96800
C  -11.67300 42.72100 40.82400
C  -12.20300 41.38000 41.23600
C  -9.79900 43.40000 39.08900
C  -12.26900 44.13300 41.14000
O  -11.68300 45.07500 40.68600
C  -13.49200 44.37500 41.94900
N  -13.61400 38.73200 41.95000
C  -14.20800 39.90200 42.00500
C  -15.63700 39.90600 42.54700
C  -15.82700 38.34500 42.83300
C  -14.40200 37.84000 42.54100
C  -15.92900 40.79700 43.77600
C  -16.92500 37.63200 41.98100
C  -18.00800 36.76900 42.63700
N  -11.71700 36.50200 41.82300
C  -12.78500 35.84700 42.42100
C  -12.48700 34.43200 42.58400
C  -11.24400 34.34900 41.97600
C  -10.85900 35.63800 41.48200
C  -13.30900 33.41500 43.16000
C  -10.15800 33.41600 41.63400
O  -10.17000 32.20600 41.85800
C  -9.06300 34.19200 40.86400
C  -7.76200 33.95700 41.48500
O  -7.05100 32.97500 41.30500
O  -7.43500 34.94100 42.38700
C  -6.15100 34.71400 43.03000
H  -8.44700 40.89100 39.10300
H  -14.24700 41.93600 41.81300
H  -14.76900 35.83100 43.19800
H  -6.91300 36.45300 40.18500
H  -7.69700 38.65100 38.19300
H  -6.50600 40.03200 40.05900
H  -5.50200 39.24800 38.85400
H  -5.67500 38.47300 40.45200
H  -7.92700 36.52100 37.28600
H  -8.50600 35.34500 38.21700
H  -6.37000 34.28600 37.64400
H  -5.51600 35.53800 38.41700
H  -10.47100 43.76300 38.31200
H  -9.00400 42.95800 38.49000
H  -9.48700 44.26100 39.68000
H  -13.39100 45.39900 42.31000
H  -13.69300 43.74200 42.81300
H  -14.26100 44.37400 41.17600
H  -16.23800 40.25100 41.70700
H  -16.04400 38.19400 43.89000
H  -15.19800 41.58000 43.97600
H  -16.17600 40.12100 44.59500
H  -16.93700 41.10800 43.50300
H  -16.38700 36.90600 41.37200
H  -17.39300 38.36600 41.32400
H  -17.95800 36.80800 43.72600
H  -17.99300 35.70000 42.42800
H  -18.98500 37.04100 42.23800
H  -13.52000 33.63000 44.20700
H  -12.79600 32.46600 42.99900
H  -14.32200 33.31800 42.76800
H  -9.19100 33.67300 39.91400
H  -5.28700 34.84300 42.37800
H  -6.08000 33.77700 43.58300
H  -6.19300 35.46600 43.81700

