158

Mg 35.02800 2.29700 29.89700
C  32.74000 3.49400 32.28700
C  37.41600 2.24600 32.44200
C  37.43900 1.62700 27.49400
C  32.64500 2.84900 27.45500
N  35.02800 2.67900 32.13000
C  34.03600 3.29200 32.83700
C  34.36300 3.25600 34.34300
C  35.91800 3.02000 34.36200
C  36.11000 2.53800 32.92600
C  36.84700 4.03000 34.98700
C  33.60100 2.11800 35.11700
C  33.77600 2.11500 36.68700
H  34.53000 3.19400 37.42200
N  37.08800 1.81700 29.97700
C  37.84000 1.88400 31.09800
C  39.20200 1.66700 30.67400
C  39.21800 1.35700 29.30300
C  37.91100 1.63800 28.87300
C  40.27800 1.86200 31.70900
C  40.38300 1.00600 28.44200
O  40.26200 1.11800 27.26800
C  41.65200 0.49100 29.05500
N  35.01700 2.18100 27.81500
C  36.16600 1.91200 27.02900
C  35.75000 1.72600 25.52200
C  34.16400 2.02900 25.56300
C  33.87900 2.30000 27.08600
C  36.43900 2.61000 24.47300
C  33.37000 0.82100 25.00800
C  32.25500 0.99800 24.09400
N  33.08900 3.05800 29.78500
C  32.21000 3.19800 28.76400
C  30.91000 3.56000 29.16800
C  31.08600 3.75200 30.57300
C  32.45700 3.42500 30.89400
C  29.77500 4.05400 28.30600
C  30.44100 4.23700 31.78000
O  29.29200 4.64400 32.07100
C  31.48800 3.99100 32.94100
C  31.89300 5.25200 33.59000
O  32.36400 6.24800 33.03800
O  31.61900 5.18000 34.94400
C  31.92000 6.37100 35.78800
H  38.20900 2.18000 33.19000
H  38.15300 1.30800 26.73200
H  31.91700 2.94000 26.64700
H  34.08900 4.16800 34.87200
H  36.08600 2.09800 34.91900
H  36.22200 4.87000 35.28800
H  37.67500 4.47600 34.43700
H  37.33700 3.53500 35.82600
H  33.96500 1.15700 34.75100
H  32.53600 2.14700 34.88400
H  34.26700 1.21100 37.04700
H  32.85000 1.99900 37.25000
H  40.48500 0.90900 32.19500
H  40.05300 2.61900 32.46100
H  41.22300 2.19900 31.28300
H  42.21300 1.40000 29.27500
H  42.23600 -0.19900 28.44700
H  41.40800 -0.02900 29.98200
H  36.09900 0.73700 25.22500
H  33.97900 2.90400 24.93800
H  36.75000 1.94400 23.66800
H  37.37300 3.06100 24.80900
H  35.84900 3.37800 23.97100
H  32.99600 0.25100 25.85800
H  34.07600 0.06500 24.66600
H  32.49200 0.26300 23.32400
H  32.17200 1.96300 23.59400
H  31.33600 0.78200 24.63900
H  30.28600 4.34500 27.38800
H  29.39400 5.00200 28.68600
H  29.00500 3.30200 28.13200
H  30.97400 3.38900 33.69100
H  31.05300 7.03100 35.79000
H  32.78300 6.92100 35.41400
H  32.15600 6.03400 36.79700
Mg 49.31600 47.27000 42.98100
C  45.97900 47.59500 42.24000
C  49.21200 44.25400 41.04200
C  52.60900 46.85100 43.36600
C  49.43300 50.61600 44.06300
N  47.71200 46.01200 41.71000
C  46.41700 46.41300 41.58800
C  45.60300 45.45500 40.57300
C  46.74300 44.42500 40.25600
C  47.96400 44.88000 41.07800
C  46.45400 42.89300 40.22700
C  44.89400 46.16200 39.35100
C  43.38500 45.90100 39.29900
H  42.80300 45.76400 37.92500
N  50.69600 45.75000 42.31400
C  50.44100 44.59800 41.66500
C  51.61300 43.78500 41.65400
C  52.66800 44.46700 42.29000
C  52.01700 45.76100 42.67900
C  51.59600 42.37600 41.14200
C  54.10300 43.96000 42.55500
O  54.43200 42.86200 42.15000
C  55.19100 44.78800 43.34900
N  50.85500 48.63700 43.42700
C  52.12500 48.18900 43.69300
C  53.00600 49.31400 44.22900
C  51.98900 50.40900 44.56100
C  50.66100 49.87400 44.03900
C  54.01100 48.93600 45.39300
C  52.42200 51.82400 43.97900
C  52.07800 52.17800 42.58200
N  48.01700 48.84500 43.25900
C  48.16300 50.18400 43.72400
C  46.90600 50.86200 43.76700
C  45.99000 49.89600 43.15600
C  46.72000 48.62700 42.96400
C  46.72400 52.25200 44.29500
C  44.61300 49.70200 42.84200
O  43.58200 50.28600 43.00000
C  44.52700 48.25100 42.25300
C  43.51700 47.41600 43.02000
O  43.75100 46.72200 44.05000
O  42.31600 47.32600 42.33500
C  41.55300 46.10000 42.71800
H  49.32300 43.41900 40.34700
H  53.65100 46.80100 43.68800
H  49.40900 51.63700 44.45100
H  44.86600 44.96000 41.20600
H  47.07400 44.70500 39.25600
H  46.39100 42.40200 39.25600
H  45.65200 42.83100 40.96200
H  47.36700 42.44200 40.61400
H  45.45400 46.08300 38.41900
H  44.99100 47.22700 39.56000
H  43.02200 46.76500 39.85700
H  43.04700 44.99000 39.79300
H  51.74200 42.48200 40.06700
H  50.67900 41.81300 41.31600
H  52.40000 41.76200 41.54800
H  55.42800 45.77000 42.93900
H  56.18300 44.35500 43.47800
H  54.76400 44.89100 44.34600
H  53.59900 49.52100 43.33800
H  51.89400 50.50500 45.64200
H  54.63500 49.81900 45.25500
H  54.62600 48.05900 45.19100
H  53.50100 49.00100 46.35400
H  53.49700 51.91400 44.13700
H  51.89800 52.54200 44.61000
H  51.57300 51.32900 42.12000
H  53.00700 52.32500 42.03200
H  51.51400 53.10600 42.48700
H  45.66100 52.48500 44.36200
H  47.13800 52.92800 43.54800
H  47.13000 52.39500 45.29700
H  43.98300 48.24800 41.30800
H  40.86400 45.75400 41.94700
H  40.94400 46.34600 43.58700
H  42.07700 45.21100 43.06800

