158

Mg 8.04000 3.21100 27.11500
C  9.45400 1.65500 29.98000
C  6.20100 5.19500 29.43200
C  6.19400 4.32000 24.57500
C  9.43900 0.76800 25.13000
N  7.94900 3.50600 29.43800
C  8.66800 2.78100 30.37300
C  8.47100 3.26200 31.85200
C  7.41900 4.47700 31.61700
C  7.12600 4.36000 30.09700
C  6.17400 4.57500 32.50400
C  9.76300 3.69000 32.60800
C  9.72600 4.75000 33.72500
H  10.65400 4.54400 34.98700
N  6.54100 4.55100 27.03700
C  5.95800 5.35200 28.05200
C  5.09900 6.32300 27.45600
C  5.25500 6.20600 26.05800
C  6.02400 5.03000 25.84200
C  4.29800 7.27800 28.30400
C  4.70000 7.05400 24.93000
O  5.00600 6.93400 23.74400
C  3.82600 8.23200 25.28600
N  7.98700 2.67900 25.03800
C  7.08500 3.28800 24.20500
C  7.44200 2.84100 22.72000
C  8.62500 1.81100 22.87900
C  8.68300 1.72200 24.40400
C  6.28500 2.26500 21.87900
C  9.95800 2.21600 22.27200
C  10.92600 1.09300 21.94500
N  9.16100 1.56700 27.43300
C  9.64600 0.67600 26.53600
C  10.48200 -0.31800 27.25400
C  10.44800 0.07100 28.60800
C  9.66500 1.24600 28.65200
C  10.98200 -1.60900 26.73200
C  11.00600 -0.27600 29.92000
O  11.75200 -1.20700 30.24000
C  10.32600 0.80700 30.89800
C  9.55200 0.15100 31.94200
O  8.54300 -0.53900 31.71400
O  10.03500 0.44600 33.20200
C  9.27400 0.01400 34.41800
H  5.64900 5.82200 30.13500
H  5.56400 4.66000 23.75100
H  9.92200 -0.05300 24.59500
H  8.08200 2.38100 32.36300
H  7.89100 5.45300 31.72600
H  6.07300 5.54500 32.99100
H  6.28300 3.80200 33.26400
H  5.27900 4.32200 31.93500
H  10.36500 4.14500 31.82200
H  10.38100 2.87500 32.98500
H  8.73500 4.81600 34.17400
H  10.03600 5.69600 33.28000
H  4.00200 6.83600 29.25500
H  3.30100 7.30600 27.86400
H  4.81100 8.22700 28.46000
H  3.24700 8.41800 24.38200
H  4.33600 9.16500 25.52500
H  2.97100 8.16800 25.95900
H  7.67300 3.82300 22.30600
H  8.31700 0.82000 22.54600
H  5.41100 2.74000 22.32500
H  6.18200 1.18000 21.89100
H  6.31700 2.49000 20.81300
H  10.41500 2.96000 22.92400
H  9.68800 2.74800 21.36000
H  10.38800 0.14500 21.92200
H  11.69100 0.99200 22.71400
H  11.41400 1.23100 20.98000
H  10.44500 -1.92600 25.83800
H  10.95400 -2.45700 27.41700
H  12.02800 -1.36700 26.54400
H  11.18000 1.36700 31.27800
H  10.01900 -0.54900 34.98000
H  8.48500 -0.70500 34.19900
H  8.93400 0.87000 35.00200
Mg -11.40000 37.44200 43.16700
C  -9.01900 34.82400 42.68200
C  -9.05100 39.63100 42.08200
C  -13.80200 39.68700 43.06200
C  -13.75000 34.88400 43.75800
N  -9.22000 37.15600 42.49200
C  -8.44800 36.07100 42.46200
C  -7.01200 36.40700 41.87300
C  -7.07600 37.98500 41.87700
C  -8.51200 38.32500 42.20000
C  -6.20500 38.63600 42.87600
C  -6.74100 35.83500 40.39500
C  -5.28800 35.35700 40.11500
H  -4.59900 36.08600 38.90200
N  -11.42400 39.38400 42.59500
C  -10.33900 40.14300 42.31200
C  -10.77500 41.47000 42.03300
C  -12.18600 41.53200 42.24400
C  -12.54700 40.16900 42.64800
C  -9.85000 42.56500 41.50000
C  -13.05700 42.75700 41.91500
O  -12.70600 43.84800 41.49700
C  -14.57100 42.68400 42.16500
N  -13.58200 37.32400 43.34200
C  -14.27800 38.41500 43.39700
C  -15.72900 38.21000 43.80000
C  -15.68900 36.61300 43.69900
C  -14.24100 36.18700 43.67200
C  -16.25700 38.84600 45.13400
C  -16.48900 36.04800 42.46700
C  -17.68200 35.13200 42.93100
N  -11.40700 35.34400 43.43100
C  -12.47100 34.47700 43.57400
C  -12.05300 33.08800 43.55000
C  -10.65500 33.23000 43.27800
C  -10.33300 34.59100 43.12000
C  -12.77500 31.80900 43.80100
C  -9.39900 32.44900 43.10500
O  -9.16000 31.27600 43.23000
C  -8.36600 33.48700 42.59200
C  -7.20300 33.44200 43.57700
O  -7.27800 33.76200 44.76800
O  -6.10800 32.90000 43.04300
C  -5.01800 32.62700 44.09300
H  -8.29700 40.36000 41.77800
H  -14.58900 40.37800 43.36900
H  -14.46800 34.06200 43.81000
H  -6.32800 36.07800 42.65500
H  -6.94200 38.43800 40.89500
H  -5.45500 37.96200 43.29100
H  -6.74900 39.05500 43.72300
H  -5.61200 39.43700 42.43500
H  -6.87200 36.72900 39.78600
H  -7.38200 34.97600 40.20200
H  -5.25000 34.27500 39.99300
H  -4.65200 35.46200 40.99400
H  -8.85000 42.24500 41.21000
H  -9.77600 43.30600 42.29500
H  -10.38000 43.07400 40.69400
H  -15.02800 43.62600 41.86400
H  -14.85400 42.63300 43.21600
H  -14.84100 41.73800 41.69400
H  -16.45300 38.56000 43.06500
H  -16.10600 36.37000 44.67600
H  -17.34400 38.92300 45.11300
H  -15.82700 39.80900 45.40900
H  -15.84000 38.24300 45.94100
H  -15.82500 35.48200 41.81500
H  -16.81300 36.82700 41.77600
H  -17.77100 34.12000 42.53700
H  -18.66700 35.53300 42.69400
H  -17.69500 34.98400 44.01100
H  -13.85700 31.82900 43.66800
H  -12.50900 31.29300 44.72300
H  -12.63600 31.10300 42.98100
H  -8.01400 33.18800 41.60400
H  -5.17900 31.65700 44.56500
H  -4.97600 33.41900 44.84000
H  -4.02100 32.52100 43.66600

