158

Mg 55.81600 24.94900 44.52600
C  53.25200 26.83800 43.09200
C  54.67900 22.08800 42.88000
C  58.72900 23.45000 45.24200
C  57.16600 27.90900 45.82000
N  54.20400 24.50500 43.06800
C  53.24300 25.45100 42.61400
C  52.30100 24.75500 41.60700
C  52.61900 23.24200 41.90000
C  53.89800 23.24100 42.62600
C  51.52600 22.50900 42.82900
C  52.60100 25.20500 40.12500
C  51.52900 24.84300 39.11200
H  51.94300 24.02900 37.85700
N  56.54300 23.01400 44.25700
C  55.84100 21.94400 43.67000
C  56.69000 20.76600 43.85200
C  57.81200 21.19900 44.57700
C  57.77800 22.63100 44.67600
C  56.24600 19.32800 43.45300
C  58.92300 20.31600 45.18900
O  58.88700 19.09400 45.02300
C  60.03500 20.80500 45.93300
N  57.76100 25.62500 45.30500
C  58.77500 24.74600 45.53400
C  59.91600 25.39000 46.32500
C  59.45100 26.88900 46.32100
C  58.02800 26.82800 45.79500
C  60.24800 24.73200 47.61600
C  60.36200 27.87000 45.44100
C  60.60000 29.19200 46.11000
N  55.37700 27.04000 44.53000
C  55.88400 28.06700 45.23400
C  55.00700 29.19400 45.11500
C  53.99200 28.81900 44.25200
C  54.28100 27.50000 43.88100
C  55.23700 30.45900 45.88600
C  52.76700 29.24200 43.68500
O  52.20300 30.31900 43.89700
C  52.15300 27.96500 42.94100
C  51.96800 28.34000 41.56200
O  52.73200 29.04600 40.94900
O  50.80300 27.79200 40.98300
C  50.34900 28.27600 39.68700
H  54.23100 21.21300 42.40500
H  59.74800 23.08100 45.37900
H  57.61000 28.75200 46.35300
H  51.26100 24.92000 41.88900
H  52.69800 22.60700 41.01700
H  50.64400 23.14500 42.76200
H  51.81200 22.49700 43.88100
H  51.41100 21.45500 42.57600
H  53.54200 24.74600 39.82500
H  52.69800 26.27000 39.91600
H  51.15300 25.79800 38.74600
H  50.66400 24.33800 39.54100
H  57.09300 18.77700 43.04400
H  55.57600 19.51600 42.61400
H  55.93200 18.73300 44.31000
H  60.32100 20.06900 46.68400
H  59.76100 21.63300 46.58600
H  60.83800 21.13600 45.27400
H  60.85000 25.37300 45.76400
H  59.38800 27.28600 47.33400
H  60.67200 25.48500 48.28100
H  61.07000 24.04600 47.41500
H  59.33000 24.31500 48.02900
H  59.74600 28.18500 44.59900
H  61.24700 27.37700 45.03800
H  61.67700 29.30800 46.22500
H  60.08600 29.31000 47.06400
H  60.13400 29.96700 45.50100
H  55.86100 30.18800 46.73700
H  54.29500 30.95000 46.13000
H  55.77000 31.07900 45.16500
H  51.13400 27.75900 43.26800
H  51.12800 28.52000 38.96500
H  49.64400 29.06600 39.94500
H  49.78300 27.45900 39.24000
Mg 5.68100 54.70200 40.79800
C  5.10100 51.17200 40.89300
C  8.81300 54.18600 39.44300
C  5.83400 58.03400 39.91200
C  2.28600 54.98100 41.60200
N  6.71100 52.91100 40.12300
C  6.33800 51.57400 40.37800
C  7.53700 50.66100 40.06000
C  8.80400 51.65300 39.92900
C  8.10400 53.06000 39.93400
C  9.99800 51.55800 40.98500
C  7.47200 49.78300 38.74000
C  6.68400 50.29800 37.58700
H  7.46200 50.60100 36.22600
N  7.18700 55.93200 39.85500
C  8.38100 55.53000 39.39500
C  9.09100 56.63600 38.84500
C  8.20800 57.78800 38.90500
C  7.00400 57.31700 39.61000
C  10.41800 56.62900 38.12700
C  8.55700 59.13800 38.26700
O  9.61200 59.40800 37.62700
C  7.65800 60.35900 38.34500
N  4.25200 56.23700 40.65100
C  4.63400 57.55200 40.41100
C  3.38400 58.47100 40.67000
C  2.28300 57.52300 41.17000
C  2.96300 56.16200 41.16500
C  3.69300 59.58400 41.66900
C  0.94700 57.42000 40.36400
C  -0.32300 57.51200 41.19500
N  4.05700 53.41500 41.33100
C  2.80000 53.70100 41.70300
C  2.03100 52.50800 42.09400
C  3.00400 51.47100 41.86000
C  4.12900 52.09000 41.26000
C  0.65000 52.40300 42.68100
C  3.21400 50.05100 41.92200
O  2.53600 49.16500 42.42500
C  4.57400 49.80400 41.10300
C  4.32200 49.09700 39.90000
O  3.79400 49.60600 38.91300
O  4.64200 47.76500 40.03900
C  4.40100 46.91100 38.91900
H  9.88300 53.98200 39.36500
H  5.84900 59.10200 39.68200
H  1.27000 55.06600 41.99400
H  7.72200 50.05400 40.94700
H  9.25200 51.46200 38.95400
H  10.08900 52.37700 41.69800
H  10.92100 51.50900 40.40600
H  9.91300 50.65200 41.58300
H  7.12400 48.80400 39.07000
H  8.50800 49.80000 38.40200
H  6.30600 51.24400 37.97400
H  5.87000 49.59400 37.41800
H  10.29700 56.82200 37.06100
H  10.99800 55.71900 38.27600
H  11.03300 57.44900 38.49800
H  8.04800 61.23200 37.82200
H  7.52700 60.72000 39.36500
H  6.71100 60.21400 37.82500
H  3.13400 58.78100 39.65500
H  2.14300 57.77300 42.22200
H  3.19400 59.45200 42.63000
H  3.32800 60.43200 41.08900
H  4.74200 59.76400 41.90100
H  1.01900 56.46700 39.84000
H  0.76300 58.21600 39.64300
H  -0.77300 58.43800 40.83500
H  -0.06900 57.49300 42.25500
H  -0.98500 56.66100 41.03800
H  0.80000 52.01400 43.68800
H  0.16700 51.54400 42.21500
H  0.09400 53.33000 42.53900
H  5.28300 49.25500 41.72200
H  4.53800 45.89700 39.29400
H  5.12000 46.98300 38.10200
H  3.39900 46.93800 38.49100

