158

Mg 5.75000 54.25700 40.60700
C  5.77400 50.72000 40.60800
C  9.04400 54.18400 39.66000
C  5.57000 57.51600 39.87700
C  2.17500 54.00800 41.01100
N  7.24500 52.54100 39.99900
C  7.05600 51.22700 40.28800
C  8.44100 50.44600 40.21900
C  9.47700 51.63400 40.10400
C  8.57500 52.87500 39.92000
C  10.34500 51.78200 41.34200
C  8.46500 49.46800 38.99700
C  8.29200 50.17500 37.58900
H  6.99300 49.84900 36.85600
N  7.16300 55.66700 39.97800
C  8.45500 55.43200 39.64800
C  9.09700 56.71400 39.42200
C  8.08000 57.70600 39.57600
C  6.89400 56.99800 39.83200
C  10.56700 57.04800 39.19800
C  8.28100 59.24000 39.46700
O  9.32300 59.78500 39.20400
C  7.13500 60.07800 39.86700
N  4.11200 55.54100 40.50300
C  4.32900 56.87600 40.06300
C  2.92000 57.58900 40.01500
C  1.86700 56.59500 40.44200
C  2.72200 55.24400 40.66300
C  2.86300 58.87500 40.90300
C  0.67700 56.57100 39.45800
C  -0.46000 57.41000 39.84700
N  4.23500 52.81000 40.91300
C  2.90700 52.81200 41.14500
C  2.41400 51.42300 41.45400
C  3.55800 50.68300 41.36300
C  4.56300 51.48700 40.84400
C  1.00200 50.98000 41.91800
C  3.99100 49.34900 41.64800
O  3.48500 48.39000 42.15600
C  5.40800 49.30300 40.98900
C  5.21200 48.34200 39.82100
O  4.73500 48.58100 38.73200
O  5.58800 47.11000 40.19900
C  5.16600 46.05600 39.22600
H  10.13000 54.22100 39.54700
H  5.35000 58.56100 39.64800
H  1.12000 53.94400 41.28700
H  8.60400 49.93100 41.16600
H  10.12900 51.42600 39.25500
H  11.38700 51.80700 41.02300
H  10.28100 50.87500 41.94400
H  10.06100 52.65000 41.93600
H  7.71800 48.67800 38.90600
H  9.48700 49.09500 39.04800
H  9.11200 49.91300 36.92000
H  8.35500 51.25500 37.72000
H  11.04800 57.37100 40.12100
H  10.69500 57.80400 38.42300
H  11.11700 56.15700 38.89700
H  6.41400 60.21300 39.06200
H  7.43800 61.08800 40.14600
H  6.59200 59.79300 40.76800
H  2.77400 57.99600 39.01400
H  1.33800 56.84000 41.36300
H  3.84600 59.31400 41.07300
H  2.44300 58.60400 41.87200
H  2.23500 59.64700 40.45900
H  0.44500 55.50700 39.41900
H  1.01400 56.91900 38.48100
H  -0.15300 58.25100 40.46800
H  -1.08700 56.79700 40.49600
H  -1.04100 57.76400 38.99500
H  1.15900 50.34400 42.78900
H  0.50500 50.54500 41.05100
H  0.27700 51.72700 42.24000
H  6.07500 48.85200 41.72300
H  6.02500 45.58900 38.74300
H  4.45800 46.30100 38.43500
H  4.65000 45.26800 39.77400
Mg -10.07200 17.05900 42.88900
C  -6.73700 17.94800 42.69600
C  -10.81200 20.41400 42.25400
C  -13.08200 16.14600 42.26800
C  -9.08400 13.68600 42.82600
N  -8.90900 18.90700 42.38100
C  -7.55100 19.02500 42.44400
C  -7.07900 20.46100 42.17800
C  -8.41500 21.21300 42.42600
C  -9.47500 20.15300 42.29900
C  -8.34700 21.96000 43.80100
C  -6.52200 20.60500 40.69500
C  -5.02000 20.83000 40.55600
H  -4.26800 19.85200 39.58200
N  -11.71800 18.15400 42.25000
C  -11.89900 19.52000 42.17800
C  -13.31700 19.79200 41.81700
C  -13.96700 18.50700 41.68000
C  -12.92300 17.53200 42.05300
C  -13.87100 21.24200 41.57000
C  -15.44500 18.38800 41.32600
O  -16.16800 19.36900 41.21700
C  -16.02200 16.97500 41.00200
N  -10.95700 15.17800 42.46300
C  -12.22600 15.09100 42.50200
C  -12.71700 13.76600 42.81700
C  -11.47900 12.89500 43.00900
C  -10.43000 13.95300 42.65000
C  -13.76200 13.79100 44.02200
C  -11.45200 11.58100 42.18100
C  -11.29900 10.26800 43.08800
N  -8.33600 16.01400 42.83200
C  -8.03000 14.63300 42.79600
C  -6.58400 14.38800 42.97000
C  -6.07900 15.64100 42.90400
C  -7.14800 16.60000 42.79300
C  -5.92000 13.00200 43.20500
C  -4.77500 16.38500 42.98200
O  -3.60400 15.86300 43.02800
C  -5.21500 17.91100 42.95400
C  -4.90700 18.49700 44.30000
O  -5.11500 18.00500 45.42400
O  -4.55500 19.79300 44.09900
C  -3.84700 20.39400 45.27100
H  -11.12900 21.44700 42.09600
H  -14.13100 15.84100 42.28200
H  -8.73800 12.67100 43.03400
H  -6.27700 20.86100 42.79800
H  -8.61900 22.04700 41.75500
H  -7.87800 22.93000 43.63800
H  -7.86700 21.36000 44.57500
H  -9.33100 22.16200 44.22400
H  -6.95800 21.46000 40.17700
H  -6.70600 19.66300 40.17800
H  -4.47300 20.88700 41.49700
H  -4.85000 21.83200 40.16200
H  -13.32100 22.00900 42.11500
H  -14.90400 21.30800 41.91100
H  -13.75900 21.53800 40.52700
H  -15.24500 16.39900 40.50000
H  -16.91900 17.25100 40.44600
H  -16.28600 16.56100 41.97500
H  -13.36500 13.40000 42.02000
H  -11.32600 12.71600 44.07300
H  -13.54500 14.57300 44.75000
H  -13.48400 12.85100 44.50000
H  -14.81700 13.92200 43.78200
H  -10.63600 11.50000 41.46300
H  -12.35000 11.54900 41.56400
H  -10.85600 10.55900 44.04000
H  -10.63000 9.54400 42.62300
H  -12.34200 9.95200 43.08400
H  -4.85300 13.05300 42.99200
H  -6.36700 12.30900 42.49200
H  -6.08700 12.62400 44.21300
H  -4.63900 18.45300 42.20500
H  -4.53500 20.53600 46.10500
H  -3.33300 21.33500 45.07700
H  -3.05900 19.71100 45.59000

