158

Mg 55.83600 24.40400 45.05200
C  53.12800 26.15700 43.49000
C  54.40300 21.38400 43.96400
C  58.70700 22.85900 45.69500
C  57.29700 27.56400 45.59400
N  54.11200 23.88900 43.64800
C  53.06900 24.72600 43.28500
C  51.85300 23.86600 42.82000
C  52.22400 22.44800 43.23800
C  53.69800 22.53900 43.56400
C  51.29300 21.87700 44.31900
C  51.43600 23.99000 41.29800
C  49.87100 24.06000 41.10400
H  49.48300 23.28600 39.90200
N  56.42800 22.41400 44.91200
C  55.71500 21.34200 44.44300
C  56.47900 20.09400 44.55900
C  57.70700 20.50400 45.03000
C  57.66200 21.98000 45.27900
C  56.01700 18.75100 43.98300
C  58.95500 19.60500 45.19000
O  58.91000 18.42200 44.94000
C  60.29300 20.07600 45.73200
N  57.64300 25.12900 45.86900
C  58.74100 24.25000 46.01000
C  60.01900 25.03700 46.30100
C  59.58400 26.57700 46.14000
C  58.07900 26.45500 45.89600
C  60.79400 24.75900 47.57900
C  60.32400 27.39100 44.94600
C  59.79300 27.18400 43.54900
N  55.31500 26.47300 44.67000
C  55.98900 27.61400 45.05400
C  55.06200 28.79200 44.96900
C  53.96700 28.25400 44.31400
C  54.15100 26.87600 44.11800
C  55.30500 30.20700 45.25800
C  52.63400 28.56000 43.76000
O  51.97300 29.59900 43.73200
C  52.14600 27.17200 43.25600
C  51.82400 27.49700 41.79500
O  52.56600 27.47300 40.86900
O  50.48300 27.68100 41.70000
C  49.83600 27.91100 40.37900
H  53.87700 20.44200 43.79600
H  59.73000 22.48500 45.77000
H  57.86000 28.49400 45.70000
H  51.06800 24.27400 43.45700
H  52.30000 21.76400 42.39300
H  50.39100 22.46800 44.47900
H  51.87200 21.81700 45.24000
H  50.78200 20.96600 44.00500
H  51.94300 23.18500 40.76600
H  51.89900 24.94700 41.05900
H  49.38700 25.03100 41.00100
H  49.54100 23.61700 42.04400
H  56.75600 18.34100 43.29400
H  55.00400 18.80900 43.58400
H  55.93800 18.01300 44.78100
H  60.76000 20.91200 45.21100
H  61.06000 19.31200 45.60800
H  60.05300 20.31800 46.76700
H  60.70300 24.77800 45.49300
H  59.71200 27.14000 47.06400
H  60.77400 23.69300 47.80300
H  60.32400 25.30200 48.39800
H  61.85100 24.99400 47.44700
H  61.40000 27.21700 44.95200
H  60.16300 28.40100 45.32200
H  60.61700 26.90800 42.89000
H  59.34500 28.10600 43.17700
H  59.07100 26.38200 43.39300
H  55.20700 30.62300 44.25500
H  56.36400 30.44700 45.35100
H  54.69100 30.72700 45.99400
H  51.23500 26.81200 43.73400
H  50.54800 28.45500 39.75900
H  48.97300 28.56200 40.51700
H  49.40300 27.09900 39.79400
Mg 47.62900 24.25300 28.07800
C  48.49500 26.44600 30.63900
C  47.02000 21.80900 30.29300
C  47.12300 22.20600 25.53800
C  48.69400 26.61900 25.70800
N  47.84700 24.14600 30.31700
C  48.07100 25.25900 31.12800
C  47.88400 24.85800 32.62100
C  47.50900 23.29500 32.42100
C  47.53900 22.97500 30.91300
C  48.39400 22.30900 33.22800
C  46.70200 25.71700 33.25500
C  47.01000 26.43700 34.49800
H  46.08500 26.39800 35.75100
N  46.95200 22.29800 27.94300
C  46.81500 21.39300 28.96200
C  46.43700 20.16400 28.46600
C  46.44400 20.28300 27.07500
C  46.90300 21.64000 26.77200
C  46.17900 18.98700 29.39500
C  46.16200 19.26400 25.98500
O  46.10300 19.50300 24.80300
C  45.82600 17.82600 26.36400
N  47.82400 24.40900 25.89900
C  47.48800 23.48600 25.10300
C  47.42800 23.85100 23.62200
C  47.72900 25.40000 23.67500
C  48.11200 25.47200 25.15000
C  48.39400 23.00100 22.71800
C  46.53600 26.26400 23.26600
C  46.88300 27.16000 22.11500
N  48.60200 26.10800 28.10900
C  48.90500 26.94700 27.05900
C  49.37400 28.18700 27.60000
C  49.19900 28.02500 29.05300
C  48.71000 26.75900 29.22600
C  50.08400 29.19900 26.73500
C  49.42100 28.64800 30.27000
O  49.95600 29.74900 30.49800
C  48.78200 27.70900 31.36400
C  49.88700 27.55400 32.40600
O  50.94200 26.99300 32.14800
O  49.57700 28.26200 33.53700
C  50.52700 28.15800 34.68100
H  46.72800 21.02900 31.00000
H  46.98400 21.51200 24.70700
H  48.95100 27.26500 24.86600
H  48.79500 25.03900 33.19200
H  46.48400 23.22100 32.78400
H  48.68100 21.51100 32.54300
H  47.78800 21.80000 33.97700
H  49.26900 22.87300 33.54900
H  45.81900 25.08000 33.30600
H  46.59700 26.54400 32.55300
H  47.24900 27.48600 34.32300
H  48.00500 26.09100 34.77800
H  46.49800 18.03400 28.97400
H  45.11100 18.91900 29.60200
H  46.60100 19.12300 30.39100
H  45.58000 17.11100 25.57900
H  44.99400 17.88400 27.06500
H  46.79300 17.52600 26.76800
H  46.42700 23.63000 23.25000
H  48.66500 25.53300 23.13200
H  47.96400 23.13900 21.72600
H  48.52700 22.02200 23.17700
H  49.41600 23.37900 22.70500
H  46.28300 26.85900 24.14400
H  45.68000 25.65200 22.98000
H  46.98900 28.20000 22.42600
H  46.05200 27.04500 21.41900
H  47.79200 26.85700 21.59600
H  49.53000 29.52100 25.85300
H  51.06800 28.77600 26.53400
H  50.24200 30.07300 27.36700
H  47.91000 28.22300 31.77000
H  51.53300 27.78400 34.49500
H  50.12600 27.56600 35.50400
H  50.63300 29.16900 35.07400

