158

Mg 42.80300 41.23900 25.99900
C  41.91700 43.62500 28.48600
C  44.04900 39.35700 28.61300
C  43.65500 39.09400 23.77600
C  41.86400 43.57500 23.64200
N  42.85500 41.43400 28.40400
C  42.46100 42.46000 29.11700
C  42.49300 42.00200 30.62200
C  43.69900 40.99600 30.57800
C  43.53800 40.52300 29.11100
C  45.08200 41.71100 30.75800
C  41.01700 41.65100 31.12000
C  40.70100 42.19500 32.53300
H  41.69300 41.91800 33.69200
N  43.61700 39.43300 26.16000
C  44.03600 38.81200 27.33500
C  44.53700 37.47100 26.94100
C  44.36400 37.34300 25.52700
C  43.87300 38.60000 25.04800
C  45.02200 36.55600 27.90400
C  44.65200 36.10100 24.67600
O  44.68500 36.10700 23.43800
C  44.80700 34.73300 25.42600
N  42.84200 41.25300 23.98100
C  43.22800 40.30800 23.20800
C  43.02100 40.56300 21.76500
C  42.36600 41.99800 21.76000
C  42.35100 42.32400 23.20700
C  44.32700 40.45100 20.87000
C  40.97500 42.11400 21.13900
C  39.84800 41.38800 21.86300
N  42.08600 43.24400 25.95500
C  41.80300 44.09900 24.89700
C  41.30900 45.37400 25.36000
C  41.33600 45.16700 26.76500
C  41.82400 43.86700 27.08900
C  41.10000 46.62900 24.59200
C  41.00100 45.84300 27.93100
O  40.62700 47.01900 28.15600
C  41.28500 44.85700 29.12700
C  42.15500 45.50700 30.13400
O  43.27500 45.88700 29.89400
O  41.54800 45.31600 31.31400
C  42.48700 45.45900 32.44600
H  44.50500 38.73100 29.38300
H  43.68500 38.33000 22.99700
H  41.40100 44.23000 22.90100
H  42.65700 42.94400 31.14600
H  43.55800 40.09000 31.16700
H  45.52200 41.41600 31.71100
H  44.95000 42.79200 30.75300
H  45.73900 41.53800 29.90600
H  41.03900 40.56500 31.20500
H  40.21800 41.85400 30.40800
H  39.73500 41.76300 32.79600
H  40.46400 43.25900 32.52300
H  44.97000 36.95600 28.91700
H  46.05400 36.42100 27.57800
H  44.45100 35.62900 27.94600
H  43.91700 34.46400 25.99400
H  45.64800 34.83100 26.11300
H  45.10500 33.93000 24.75200
H  42.19000 39.94500 21.42500
H  42.98000 42.71900 21.21900
H  44.14100 39.72200 20.08100
H  45.15100 40.23300 21.55000
H  44.52000 41.41900 20.40900
H  41.13900 41.72200 20.13500
H  40.75200 43.17600 21.03300
H  39.14500 42.15200 22.19500
H  40.12100 40.86700 22.78100
H  39.41500 40.70300 21.13400
H  41.35600 47.40900 25.30900
H  40.02200 46.74600 24.48700
H  41.75000 46.85500 23.74600
H  40.27500 44.74800 29.52000
H  41.98100 45.20700 33.37900
H  42.58900 46.54400 32.48400
H  43.40700 44.87600 32.41400
Mg -12.02800 37.66800 42.48300
C  -9.49600 35.21700 41.66600
C  -10.06000 39.97400 40.97400
C  -14.52400 39.87200 42.59700
C  -14.11700 35.01000 43.30900
N  -10.16900 37.49500 41.23600
C  -9.26000 36.44500 41.05600
C  -8.21000 36.80600 40.11300
C  -8.25600 38.35100 40.01400
C  -9.57100 38.64100 40.85400
C  -6.99100 39.12000 40.56000
C  -8.38200 35.97100 38.74500
C  -7.21200 35.02700 38.45000
H  -6.12500 35.54900 37.55400
N  -12.21900 39.69000 42.05100
C  -11.29700 40.43300 41.48800
C  -11.79500 41.83900 41.35300
C  -13.05800 41.83200 41.97000
C  -13.33600 40.44600 42.25200
C  -10.90200 43.07600 40.92500
C  -13.96100 43.00300 42.24500
O  -13.54200 44.14200 41.94900
C  -15.07600 42.89400 43.21300
N  -14.00800 37.52900 42.97300
C  -14.83500 38.59400 42.99700
C  -16.26500 38.11600 43.36600
C  -16.13700 36.62200 43.73300
C  -14.67300 36.34400 43.30200
C  -16.97400 38.92300 44.51400
C  -17.17300 35.70900 43.09000
C  -17.86800 34.63200 43.92600
N  -11.82400 35.54100 42.52400
C  -12.75500 34.62800 43.06200
C  -12.01300 33.41500 43.30500
C  -10.74900 33.58400 42.75900
C  -10.70800 34.89900 42.32600
C  -12.60100 32.20300 43.91000
C  -9.43400 32.95900 42.58600
O  -8.93200 31.87500 42.87700
C  -8.57800 34.02000 41.79600
C  -7.28300 34.33800 42.49300
O  -7.24500 34.78800 43.64500
O  -6.22000 33.90200 41.75300
C  -4.91900 34.03800 42.43100
H  -9.34800 40.74000 40.66100
H  -15.38800 40.53700 42.66400
H  -14.71200 34.14700 43.61500
H  -7.27800 36.44700 40.54800
H  -8.35000 38.46100 38.93400
H  -6.62000 39.71400 39.72500
H  -6.23000 38.37100 40.77900
H  -7.26200 39.71800 41.42900
H  -8.33800 36.66600 37.90600
H  -9.31700 35.44500 38.55000
H  -7.64500 34.12500 38.01700
H  -6.84000 34.75400 39.43800
H  -11.13200 43.46100 39.93100
H  -9.82700 42.94000 41.04600
H  -11.05700 43.84500 41.68200
H  -15.97300 42.72500 42.61800
H  -15.13200 43.81200 43.79800
H  -14.87100 42.09500 43.92600
H  -16.93700 38.24700 42.51700
H  -16.15800 36.44300 44.80800
H  -16.27600 39.64000 44.94700
H  -17.61300 38.31500 45.15500
H  -17.73500 39.59300 44.11300
H  -16.59300 35.18300 42.33100
H  -18.07000 36.23500 42.76300
H  -18.89900 34.87700 44.18000
H  -17.37400 34.58000 44.89700
H  -17.95000 33.67700 43.40600
H  -13.38500 32.34800 44.65300
H  -11.74100 31.69000 44.34000
H  -13.10500 31.67900 43.09800
H  -8.49200 33.58900 40.79800
H  -5.04100 33.78500 43.48400
H  -4.59500 35.07600 42.36500
H  -4.22700 33.34000 41.95700

