158

Mg 26.85700 50.32700 25.74900
C  24.74800 51.19600 28.49200
C  29.29800 49.26800 27.81700
C  28.69000 49.71600 23.07100
C  24.40000 51.85100 23.61400
N  26.92500 50.15700 27.90000
C  25.98500 50.49200 28.80600
C  26.46800 50.01600 30.19300
C  27.97100 49.53400 30.01200
C  28.07600 49.56700 28.44000
C  29.11100 50.32100 30.77000
C  25.47900 48.90600 30.90300
C  25.00000 49.18300 32.31500
H  25.95800 49.87800 33.31100
N  28.78400 49.52900 25.49000
C  29.63300 49.18600 26.43300
C  30.86800 48.81000 25.86500
C  30.79000 48.99100 24.45300
C  29.36200 49.43000 24.27500
C  32.07000 48.45300 26.71200
C  31.84900 48.66600 23.39100
O  31.64400 48.89600 22.20000
C  33.10000 48.00600 23.84000
N  26.67000 50.88600 23.69500
C  27.49300 50.30700 22.79800
C  27.08800 50.74400 21.37900
C  25.67600 51.24800 21.49700
C  25.50200 51.28800 23.04200
C  28.14600 51.72400 20.54000
C  24.69000 50.38800 20.65200
C  23.71100 51.16700 19.85100
N  25.00100 51.43100 25.91000
C  24.12600 51.92700 24.97700
C  22.95800 52.52400 25.60500
C  23.19100 52.30200 27.02300
C  24.45100 51.60900 27.11200
C  21.83500 53.23600 24.97100
C  22.60300 52.47300 28.38500
O  21.59400 53.03000 28.72000
C  23.53900 51.68600 29.31600
C  23.92500 52.35500 30.59000
O  24.75700 53.25200 30.73700
O  23.08300 51.93300 31.55100
C  23.29600 52.45700 32.85700
H  29.96100 48.86800 28.58800
H  29.20500 49.45800 22.14200
H  23.69300 52.31200 22.92100
H  26.34300 50.92000 30.78900
H  28.13400 48.47300 30.19700
H  29.68500 49.62000 31.37700
H  28.81700 51.15800 31.40400
H  29.85000 50.63600 30.03400
H  25.84500 47.90000 30.69900
H  24.60900 48.85200 30.24900
H  24.59100 48.30300 32.81200
H  24.08200 49.75300 32.17300
H  32.32200 47.41500 26.49600
H  31.81900 48.39000 27.77100
H  32.92100 49.10000 26.49800
H  33.80100 48.65300 24.36700
H  33.59400 47.71000 22.91500
H  32.94700 47.07500 24.38700
H  27.04000 49.92000 20.66700
H  25.72400 52.28600 21.16700
H  28.97400 52.02200 21.18200
H  27.80700 52.64100 20.05800
H  28.55300 51.09100 19.75100
H  24.20500 49.71600 21.36000
H  25.18300 49.65500 20.01300
H  22.76700 51.05400 20.38500
H  23.47900 50.67500 18.90700
H  23.94600 52.21600 19.66800
H  20.97000 53.28800 25.63200
H  21.63800 52.67100 24.05900
H  22.20700 54.24400 24.78900
H  22.95300 50.82600 29.63700
H  24.35200 52.41900 33.12300
H  22.65700 51.90000 33.54200
H  22.98100 53.49900 32.90300
Mg -1.71500 34.08300 27.05100
C  -3.57900 32.28200 29.35600
C  -0.24600 35.86100 29.67300
C  -0.24500 36.21400 24.78200
C  -3.35900 32.61000 24.44200
N  -1.99700 34.24400 29.17300
C  -2.73000 33.25400 29.90100
C  -2.50400 33.41200 31.38600
C  -1.57400 34.65200 31.43000
C  -1.24600 34.92000 30.01300
C  -2.26600 35.81200 32.13000
C  -1.89300 32.06800 31.84400
C  -2.59900 31.41200 32.99000
H  -2.04200 31.41600 34.45600
N  -0.23300 35.70500 27.20000
C  0.27600 36.19400 28.39400
C  1.32300 37.13300 28.04500
C  1.25300 37.31200 26.58700
C  0.18900 36.44400 26.14800
C  2.21200 37.83000 29.14500
C  2.06600 38.29300 25.75100
O  1.86900 38.43600 24.57800
C  3.02100 39.11200 26.36200
N  -1.86300 34.46300 24.93200
C  -1.22700 35.40200 24.28700
C  -1.72100 35.56300 22.81100
C  -2.50400 34.25600 22.60000
C  -2.62300 33.74400 24.05500
C  -2.56400 36.83600 22.53500
C  -1.64500 33.22600 21.78000
C  -2.44000 32.65100 20.60000
N  -3.05500 32.65400 26.86000
C  -3.60800 32.10000 25.75200
C  -4.49400 31.02000 26.15200
C  -4.54800 31.13000 27.53900
C  -3.65500 32.09100 27.92800
C  -5.24400 30.14600 25.23500
C  -5.08200 30.47300 28.69000
O  -5.86800 29.51600 28.78000
C  -4.52000 31.25000 29.95800
C  -5.75700 31.81900 30.63400
O  -6.65800 32.36400 30.05600
O  -5.88200 31.39700 32.00800
C  -6.80900 32.14000 32.91500
H  0.17700 36.31700 30.57000
H  0.28900 36.88500 24.10600
H  -3.80100 32.20900 23.52800
H  -3.50900 33.56800 31.77900
H  -0.63100 34.61100 31.97500
H  -1.83100 36.74900 31.78200
H  -2.01300 35.67800 33.18100
H  -3.33500 35.74600 31.93000
H  -0.88700 32.21700 32.23600
H  -1.83300 31.28700 31.08600
H  -2.76900 30.37600 32.69600
H  -3.58000 31.87200 33.10700
H  2.00800 37.61700 30.19400
H  2.14200 38.91800 29.17200
H  3.26200 37.61000 28.95100
H  3.78900 38.53000 26.87100
H  2.39900 39.67300 27.05900
H  3.46500 39.86300 25.70700
H  -0.85400 35.66100 22.15800
H  -3.52800 34.35600 22.23900
H  -3.59700 36.63700 22.24800
H  -1.99100 37.30700 21.73600
H  -2.53400 37.49800 23.40000
H  -1.35800 32.37700 22.40100
H  -0.68500 33.67500 21.52800
H  -2.33900 33.30500 19.73400
H  -3.51600 32.60600 20.76800
H  -1.92100 31.70400 20.45500
H  -4.73100 29.71000 24.37800
H  -6.10700 30.67700 24.83400
H  -5.60000 29.21300 25.67200
H  -3.88200 30.58000 30.53400
H  -6.25000 32.79400 33.58500
H  -7.55900 31.55500 33.44700
H  -7.38700 32.91100 32.40500

