158

Mg 48.99100 46.59500 42.03800
C  45.94300 47.14700 40.48700
C  49.15600 43.46300 40.35900
C  52.37100 46.48400 42.50000
C  49.07800 50.04400 42.69800
N  47.67200 45.49300 40.60000
C  46.51100 45.94900 40.13800
C  45.99700 44.92400 39.05500
C  46.83900 43.64100 39.29900
C  47.98000 44.18800 40.13200
C  46.26400 42.28400 39.75200
C  46.16700 45.44500 37.60600
C  45.05300 45.12700 36.60200
H  45.28700 44.91700 35.09300
N  50.51900 45.08700 41.72700
C  50.39000 43.93700 41.06200
C  51.55600 43.13800 41.34900
C  52.52000 43.93600 41.87300
C  51.85500 45.24000 42.05800
C  51.66300 41.66100 40.85000
C  53.92300 43.41600 42.33300
O  54.35800 42.25200 42.28700
C  55.00500 44.48300 42.90600
N  50.49200 48.09500 42.42700
C  51.77400 47.76000 42.60000
C  52.59600 48.95800 43.18700
C  51.59800 50.12300 43.06400
C  50.28400 49.40000 42.83500
C  53.04000 48.60600 44.66400
C  51.95400 51.07600 41.87000
C  52.27600 52.52100 42.29300
N  47.68500 48.22400 41.90200
C  47.84400 49.53200 42.22700
C  46.60000 50.25500 42.05800
C  45.87200 49.33900 41.22800
C  46.61200 48.14700 41.19500
C  46.28700 51.64100 42.41700
C  44.62600 49.21500 40.49600
O  43.73900 50.01800 40.23100
C  44.66600 47.65200 39.95900
C  43.40100 46.92500 40.46100
O  43.24300 46.22000 41.45400
O  42.34700 47.31700 39.66600
C  41.15700 46.49200 39.95100
H  49.22400 42.44000 39.98500
H  53.40600 46.48800 42.84600
H  49.01000 51.11000 42.92800
H  44.95700 44.71200 39.30400
H  47.34500 43.48800 38.34600
H  45.17500 42.27100 39.80200
H  46.64100 42.03400 40.74300
H  46.65300 41.52900 39.06800
H  47.13200 45.11300 37.22500
H  46.25000 46.53200 37.58900
H  44.35200 45.95800 36.67100
H  44.51600 44.27600 37.02000
H  52.55200 41.09700 41.13100
H  51.41100 41.54400 39.79600
H  50.87600 41.18000 41.43100
H  55.12700 45.36900 42.28300
H  55.95100 43.95400 43.01900
H  54.59000 44.90300 43.82200
H  53.51900 49.10400 42.62700
H  51.35400 50.60900 44.00900
H  52.56900 47.70400 45.05500
H  52.91000 49.55000 45.19300
H  54.11500 48.42400 44.63200
H  51.16500 51.19000 41.12700
H  52.88000 50.78500 41.37300
H  51.87000 53.19200 41.53600
H  53.34300 52.73000 42.36100
H  51.91500 52.68600 43.30800
H  47.03800 52.31000 41.99600
H  46.12000 51.88700 43.46500
H  45.32000 51.87400 41.97200
H  44.67700 47.75400 38.87300
H  40.96100 46.31800 41.00900
H  41.30000 45.50200 39.51800
H  40.25000 46.89100 39.49600
Mg 27.66800 58.65100 42.21700
C  25.74500 56.15900 40.54200
C  30.42200 57.42300 40.65000
C  29.23900 61.17200 43.55000
C  24.48400 60.07200 43.22600
N  27.97100 57.05500 40.64200
C  27.10400 56.09500 40.18300
C  27.87300 54.94000 39.45000
C  29.33600 55.28400 39.76300
C  29.24900 56.70000 40.44800
C  30.21500 54.17100 40.43900
C  27.54300 54.85200 37.90800
C  27.14600 53.55800 37.17400
H  26.82600 53.55800 35.65100
N  29.63600 59.26900 42.12000
C  30.62900 58.63700 41.41000
C  31.83700 59.31600 41.64200
C  31.60900 60.41000 42.57600
C  30.15700 60.39800 42.80100
C  33.21100 58.89300 41.04500
C  32.60600 61.35400 43.15200
O  33.81900 61.18300 43.05600
C  32.14800 62.61400 43.86800
N  26.94100 60.33600 43.29500
C  27.87300 61.27000 43.58900
C  27.09800 62.50300 44.24700
C  25.58200 62.15900 44.19600
C  25.64700 60.77200 43.50200
C  27.49900 62.90600 45.70300
C  24.63000 63.18500 43.54500
C  23.96100 64.12100 44.51600
N  25.51000 58.21700 42.03600
C  24.38200 58.84900 42.53500
C  23.18700 58.11600 42.15800
C  23.69500 57.11700 41.34800
C  25.09500 57.21900 41.31600
C  21.80300 58.24200 42.66900
C  23.30400 55.90500 40.66000
O  22.17000 55.41300 40.48200
C  24.60200 55.20200 40.17700
C  24.75700 53.87800 40.86900
O  24.98900 53.66300 42.04300
O  24.54800 52.76200 40.00300
C  24.35700 51.43900 40.49400
H  31.37200 57.00600 40.31000
H  29.75500 61.96700 44.09100
H  23.49700 60.49100 43.43100
H  27.54700 54.08600 40.04400
H  29.82400 55.47400 38.80700
H  31.26800 54.30900 40.19400
H  29.89500 53.16300 40.17300
H  30.14900 54.18600 41.52700
H  28.32700 55.34400 37.33200
H  26.62100 55.41500 37.76300
H  26.33300 53.09600 37.73400
H  27.85300 52.73000 37.22600
H  33.78100 58.15400 41.60700
H  33.86000 59.75300 40.88200
H  32.91200 58.49600 40.07500
H  31.49500 63.16500 43.19100
H  32.89200 63.35700 44.15400
H  31.60700 62.35400 44.77800
H  27.35600 63.34200 43.60100
H  25.24900 62.01600 45.22400
H  28.06400 63.83700 45.74500
H  28.06700 62.16000 46.25900
H  26.66100 63.02500 46.38900
H  23.92700 62.67200 42.88900
H  25.13600 63.81500 42.81300
H  24.05500 65.14600 44.16000
H  24.50100 64.03100 45.45900
H  22.97000 63.70100 44.69100
H  21.13300 58.75500 41.97900
H  21.71100 58.79600 43.60300
H  21.37500 57.25100 42.82600
H  24.66700 55.00800 39.10700
H  24.13200 50.73800 39.69000
H  23.49600 51.35700 41.15700
H  25.23100 50.96800 40.94400

