158

Mg -1.67300 17.83700 26.21800
C  -1.89100 15.32000 28.57300
C  -2.12900 20.19200 28.70900
C  -1.83000 20.16700 23.95000
C  -2.28600 15.37300 23.73400
N  -1.77400 17.71200 28.41600
C  -1.79500 16.58400 29.19900
C  -1.95900 16.90000 30.72400
C  -2.00700 18.48700 30.69700
C  -2.00900 18.83500 29.16700
C  -2.91800 19.31500 31.60800
C  -0.75100 16.36200 31.65900
C  -0.32000 17.13900 32.91500
H  -0.13900 16.37200 34.21200
N  -1.71400 19.95900 26.35500
C  -1.93800 20.69100 27.40000
C  -2.02400 22.08200 27.01800
C  -1.87700 22.13300 25.64200
C  -1.74300 20.75700 25.20500
C  -2.28800 23.29200 27.98000
C  -1.97800 23.32300 24.77600
O  -1.87600 23.22600 23.55600
C  -2.38000 24.66200 25.36200
N  -2.09300 17.75400 24.07900
C  -2.00500 18.89400 23.35300
C  -2.22600 18.66300 21.86900
C  -2.69300 17.11300 21.83800
C  -2.24800 16.70200 23.27100
C  -3.26800 19.55700 21.25700
C  -2.01600 16.27000 20.73000
C  -3.06400 15.70500 19.69000
N  -1.75000 15.75200 26.10500
C  -2.05700 14.88000 25.05400
C  -2.11100 13.54200 25.46800
C  -2.07600 13.66300 26.84200
C  -1.90400 15.00800 27.20100
C  -2.25100 12.28900 24.65200
C  -2.13700 12.88700 28.05800
O  -2.30600 11.70000 28.25000
C  -2.02400 13.95800 29.22800
C  -0.75200 13.69100 29.95300
O  0.32700 14.01800 29.56800
O  -1.00800 12.99500 31.11200
C  0.17700 12.78500 31.97600
H  -2.12900 21.02800 29.41100
H  -1.93300 20.91100 23.15800
H  -2.59500 14.74700 22.89400
H  -2.89600 16.55600 31.16000
H  -1.03900 18.87700 31.00900
H  -3.79800 19.55900 31.01100
H  -2.43900 20.19400 32.03900
H  -3.34300 18.69900 32.40000
H  0.08400 16.16900 30.98500
H  -1.13400 15.41900 32.04900
H  -1.00500 17.96300 33.11900
H  0.67100 17.53300 32.68900
H  -3.21000 23.76400 27.64000
H  -1.53400 24.07700 27.93600
H  -2.45400 22.92800 28.99400
H  -2.42200 25.36900 24.53400
H  -1.66200 25.03300 26.09300
H  -3.36500 24.43800 25.77200
H  -1.21200 18.78100 21.48800
H  -3.78100 17.17500 21.81900
H  -3.68600 19.03100 20.39900
H  -2.71800 20.44900 20.95600
H  -4.09000 19.90600 21.88200
H  -1.44200 15.47700 21.21000
H  -1.28700 16.85600 20.16900
H  -3.98900 16.23400 19.91800
H  -3.09800 14.63200 19.50100
H  -2.87900 16.09600 18.68900
H  -1.76100 12.45900 23.69400
H  -3.27900 11.92600 24.64200
H  -1.75200 11.53700 25.26400
H  -2.86000 13.76100 29.89900
H  0.63400 11.81600 31.77600
H  -0.18300 12.67700 32.99900
H  0.86000 13.63400 31.98000
Mg 48.82400 45.73700 43.34900
C  45.42100 45.94000 42.09500
C  48.99200 42.64400 41.70400
C  52.12400 45.86700 43.61500
C  48.55300 49.07900 44.12900
N  47.34000 44.43600 41.99400
C  46.07700 44.72600 41.64800
C  45.52800 43.67300 40.72100
C  46.50600 42.44100 41.00800
C  47.68600 43.16400 41.64200
C  45.90900 41.25800 41.85200
C  45.50300 44.02600 39.25600
C  44.20400 43.80400 38.49400
H  44.24400 42.72000 37.43600
N  50.29600 44.36500 42.95100
C  50.13400 43.15300 42.31800
C  51.45900 42.51800 42.25800
C  52.40100 43.37600 42.98000
C  51.61000 44.56500 43.30700
C  51.71100 41.09800 41.72100
C  53.79900 43.05500 43.39200
O  54.25000 41.91400 43.15300
C  54.65400 43.98900 44.20100
N  50.09500 47.18900 43.95800
C  51.45100 47.06700 43.94000
C  52.17600 48.41800 44.15400
C  51.00900 49.37900 44.30800
C  49.82700 48.49600 44.05900
C  53.21400 48.46900 45.33000
C  51.06400 50.65600 43.35000
C  50.56200 51.92000 44.09200
N  47.26600 47.24400 43.34000
C  47.31400 48.52700 43.72800
C  46.04800 49.08700 43.68100
C  45.25500 48.11200 42.95300
C  46.03600 46.97700 42.84500
C  45.69200 50.50800 43.97400
C  43.95400 47.87900 42.36200
O  43.02900 48.65100 42.03100
C  44.00800 46.47800 41.76600
C  42.96400 45.60800 42.30600
O  42.27200 44.92100 41.58900
O  42.73900 45.72500 43.68500
C  41.66100 44.77600 44.07700
H  49.12700 41.60900 41.38400
H  53.21000 45.97500 43.64000
H  48.49000 50.13000 44.41600
H  44.52700 43.42300 41.07400
H  46.82600 42.05700 40.04000
H  45.83200 40.31000 41.32100
H  44.90500 41.51600 42.19200
H  46.57100 41.09000 42.70200
H  46.30700 43.58100 38.66800
H  45.63500 45.10800 39.25700
H  43.77900 44.79600 38.34600
H  43.52100 43.33700 39.20400
H  52.63600 41.02200 41.14900
H  50.89200 40.66800 41.14500
H  51.78500 40.36300 42.52300
H  55.04500 44.80200 43.58900
H  55.46700 43.39000 44.61100
H  54.23500 44.34600 45.14100
H  52.71200 48.60000 43.22200
H  50.75300 49.63700 45.33600
H  54.04300 49.08900 44.98900
H  53.64300 47.59200 45.81600
H  52.68200 48.94400 46.15400
H  50.35000 50.52800 42.53700
H  52.00500 50.94400 42.87900
H  51.36900 52.57200 44.42400
H  50.10200 51.75700 45.06700
H  49.88500 52.49600 43.46300
H  46.39400 51.08100 44.58000
H  44.81600 50.50500 44.62200
H  45.53300 50.97500 43.00200
H  43.91700 46.42300 40.68100
H  40.64600 45.11200 43.86800
H  41.68500 44.61000 45.15400
H  41.89700 43.76400 43.74700

