158

Mg 47.20200 16.98200 28.62400
C  44.95100 16.48600 31.43800
C  48.96200 19.19800 30.50100
C  48.66900 17.89900 25.74600
C  44.87400 15.19000 26.74700
N  46.95900 17.73900 30.78700
C  46.10600 17.30000 31.77400
C  46.45500 17.84800 33.16900
C  47.62600 18.75100 32.73300
C  47.91000 18.58400 31.26200
C  47.35600 20.28700 32.92500
C  46.75100 16.65000 34.05600
C  46.11200 16.61900 35.46500
H  45.81700 18.00400 36.13900
N  48.55900 18.40200 28.22100
C  49.17600 19.21400 29.10800
C  50.09800 20.03300 28.32200
C  50.07600 19.60200 27.00300
C  49.02300 18.64900 26.94000
C  51.09400 20.92300 29.00000
C  50.95300 19.97300 25.78800
O  50.87300 19.43100 24.69700
C  52.00500 20.95100 25.86500
N  46.73800 16.61900 26.62200
C  47.58600 17.04800 25.64700
C  47.38200 16.39400 24.33500
C  46.13200 15.46800 24.56300
C  45.86500 15.78600 26.03300
C  47.30500 17.30500 23.03500
C  46.41500 14.02900 24.11700
C  45.41300 13.36400 23.11300
N  45.30800 15.94000 28.96000
C  44.50900 15.24400 28.09900
C  43.39300 14.69500 28.83100
C  43.50900 15.15000 30.16500
C  44.72700 15.91600 30.18000
C  42.20100 13.99000 28.29500
C  42.84800 15.22800 31.43300
O  41.83100 14.70200 31.92800
C  43.78700 16.00200 32.41100
C  42.98700 17.14800 32.94400
O  42.39700 17.99200 32.28400
O  42.84300 17.00400 34.30900
C  42.12000 18.14700 34.88300
H  49.62000 19.78900 31.14100
H  49.31700 17.89700 24.86700
H  44.33900 14.56500 26.02900
H  45.60100 18.43400 33.50900
H  48.50800 18.49000 33.31800
H  46.43400 20.52500 33.45600
H  47.25800 20.70900 31.92500
H  48.18100 20.71000 33.49900
H  47.81800 16.54100 34.24800
H  46.37100 15.75100 33.57000
H  46.77900 16.04100 36.10400
H  45.11000 16.19400 35.39700
H  51.06600 21.13600 30.06900
H  51.06100 21.87100 28.46300
H  52.03700 20.43000 28.76600
H  51.56800 21.88400 26.21900
H  52.40800 21.15400 24.87300
H  52.84600 20.60800 26.46800
H  48.21300 15.74000 24.07000
H  45.36100 16.02100 24.02800
H  46.36800 17.26400 22.47900
H  48.16300 17.00200 22.43500
H  47.44800 18.37400 23.19100
H  46.70600 13.35300 24.92100
H  47.38100 14.04400 23.61200
H  44.46200 13.86200 23.30200
H  45.29900 12.29400 23.28800
H  45.75100 13.61300 22.10700
H  42.39200 13.65300 27.27600
H  41.29300 14.59200 28.27300
H  42.01000 13.04900 28.81200
H  44.10600 15.34000 33.21600
H  42.70700 19.03000 34.63300
H  42.03300 18.08000 35.96800
H  41.12700 18.23700 34.44400
Mg 0.77500 43.02600 26.64100
C  3.34000 42.99900 29.09100
C  -1.54300 42.48600 28.97200
C  -1.28700 42.70600 24.02900
C  3.44700 43.40300 24.37900
N  0.96000 42.93900 28.76600
C  2.06900 42.93500 29.63100
C  1.62400 42.97600 31.08100
C  0.12500 42.59400 31.02100
C  -0.20000 42.54000 29.48700
C  -0.33600 41.24300 31.81800
C  1.94600 44.39600 31.67200
C  2.11100 44.54200 33.16900
H  1.63300 43.44400 34.09600
N  -1.11900 42.56600 26.49600
C  -1.93000 42.32900 27.58100
C  -3.27800 42.06100 27.02100
C  -3.28700 42.18600 25.61100
C  -1.86200 42.52300 25.32200
C  -4.48400 41.65900 27.85600
C  -4.44100 42.03500 24.57600
O  -4.24000 41.88700 23.36300
C  -5.75800 41.62400 25.15300
N  0.98000 43.11300 24.52600
C  -0.00500 42.85600 23.64100
C  0.41500 42.87400 22.16100
C  1.94100 43.23200 22.32500
C  2.12300 43.32800 23.83100
C  0.15800 41.60400 21.39400
C  2.31100 44.62700 21.70700
C  2.11300 45.96700 22.59100
N  2.96200 43.30000 26.64600
C  3.88700 43.35700 25.64300
C  5.25800 43.35700 26.17400
C  5.09400 43.09300 27.50800
C  3.70700 43.21700 27.74900
C  6.40500 43.59200 25.40200
C  5.73800 42.77700 28.80400
O  6.94800 42.52900 29.02500
C  4.66900 42.92200 29.86800
C  4.95500 41.83400 30.84000
O  4.74200 40.61200 30.66800
O  5.43000 42.35900 32.02800
C  5.81500 41.40600 33.08900
H  -2.31200 42.14300 29.66800
H  -1.93800 42.57600 23.16300
H  4.24600 43.53700 23.64700
H  2.30700 42.24100 31.50800
H  -0.49600 43.38200 31.44900
H  -1.07200 41.57000 32.55200
H  0.52500 40.84400 32.35400
H  -0.81400 40.54200 31.13200
H  1.01400 44.87800 31.37700
H  2.75600 44.90100 31.14600
H  1.62000 45.41800 33.59300
H  3.19000 44.61600 33.31000
H  -5.17200 42.47100 28.09000
H  -4.15200 41.21600 28.79500
H  -5.10900 40.86000 27.45600
H  -5.71300 40.57500 25.44500
H  -6.41800 41.60700 24.28600
H  -6.11500 42.25000 25.97000
H  -0.03300 43.71200 21.62600
H  2.63400 42.47200 21.96600
H  -0.45200 41.04400 22.10400
H  1.06200 41.04600 21.15100
H  -0.45000 41.83800 20.52000
H  1.85500 44.93100 20.76500
H  3.38300 44.64400 21.51100
H  1.47800 46.62400 21.99700
H  3.09200 46.39100 22.81600
H  1.60500 45.88900 23.55200
H  7.33700 43.49400 25.95700
H  6.34500 44.45300 24.73500
H  6.45100 42.69300 24.78800
H  4.91100 43.88900 30.30900
H  6.75500 40.89100 32.88900
H  5.00400 40.72400 33.34300
H  5.94400 41.96600 34.01500

