158

Mg 25.47600 1.83100 29.67100
C  27.71200 1.69300 32.54300
C  23.00800 2.02500 31.85800
C  23.47200 1.45000 27.07000
C  28.24700 0.74400 27.74100
N  25.35400 2.00700 31.96300
C  26.39400 2.00000 32.91800
C  25.87900 2.36600 34.30300
C  24.30700 2.32800 34.04400
C  24.14700 2.14700 32.54500
C  23.53400 1.28300 34.87500
C  26.37000 3.72100 34.86800
C  27.39000 3.73600 36.06000
H  26.93600 4.57600 37.37500
N  23.54400 1.77400 29.46800
C  22.65100 1.90100 30.51800
C  21.28900 1.77500 30.01800
C  21.39400 1.66800 28.60100
C  22.83800 1.60500 28.30000
C  20.12700 2.02800 30.94400
C  20.35800 1.49700 27.50100
O  20.58700 1.26300 26.32200
C  18.93600 1.61400 27.85900
N  25.79100 1.18500 27.65300
C  24.81700 1.35900 26.73800
C  25.38400 1.24500 25.32900
C  26.90700 1.05900 25.51900
C  27.00600 0.93300 27.07300
C  24.72000 0.24100 24.33000
C  27.65200 2.41600 24.98900
C  27.65900 3.74400 25.84200
N  27.52700 1.45600 29.99100
C  28.49800 0.94800 29.08800
C  29.79100 0.82800 29.77100
C  29.46400 0.97400 31.09200
C  28.10600 1.35100 31.21800
C  31.07400 0.54600 29.00600
C  30.09500 0.93900 32.42900
O  31.21600 0.66100 32.75300
C  28.96800 1.47700 33.39400
C  28.78600 0.50100 34.52700
O  28.08100 -0.51300 34.49100
O  29.46900 0.98200 35.64800
C  29.30900 0.05900 36.75800
H  22.17000 2.09100 32.55600
H  22.82900 1.46500 26.18800
H  29.17200 0.66100 27.16600
H  26.09200 1.51500 34.95000
H  23.77600 3.22900 34.35200
H  22.45400 1.42900 34.87000
H  24.02200 1.10100 35.83300
H  23.51000 0.35600 34.30300
H  25.55300 4.42900 35.00300
H  26.85800 4.19300 34.01500
H  28.37100 4.13400 35.80100
H  27.49900 2.71100 36.41600
H  19.93700 3.10100 30.92800
H  20.25300 1.68000 31.97000
H  19.20700 1.60100 30.54500
H  18.33300 1.27400 27.01800
H  18.75000 2.64900 28.14700
H  18.82300 0.92100 28.69300
H  25.20600 2.26600 24.99200
H  27.40900 0.19000 25.09400
H  24.02700 -0.35300 24.92500
H  25.40700 -0.44800 23.83800
H  24.20200 0.81800 23.56400
H  27.24600 2.71900 24.02400
H  28.71000 2.20000 24.83700
H  27.07000 3.52400 26.73300
H  27.23600 4.56700 25.26800
H  28.59900 4.03400 26.31100
H  31.04600 0.10700 28.00800
H  31.73600 -0.02100 29.66000
H  31.57800 1.50400 28.87200
H  29.19600 2.45800 33.81100
H  29.32200 -0.96600 36.38900
H  28.47000 0.39300 37.36900
H  30.19700 0.11400 37.38800
Mg 49.48000 46.53500 42.05700
C  45.98900 47.39500 41.78500
C  48.76000 43.66900 40.43500
C  52.69600 46.09700 41.85700
C  50.00500 49.81500 43.33500
N  47.57500 45.77300 41.20100
C  46.28900 46.19600 41.17000
C  45.34000 45.26900 40.33300
C  46.20500 43.99800 40.05700
C  47.61100 44.47100 40.62700
C  45.78600 42.58700 40.71400
C  44.89900 46.04700 39.03300
C  43.39100 46.45300 38.89600
H  42.66800 45.60700 37.88300
N  50.64500 45.05400 41.20800
C  50.12800 43.89300 40.67200
C  51.21000 43.00400 40.33700
C  52.42300 43.69200 40.78300
C  51.96400 45.03500 41.32600
C  51.08100 41.63100 39.72300
C  53.85800 43.25100 40.63900
O  54.10100 42.11200 40.29700
C  55.08200 44.10200 40.73400
N  51.07500 47.73900 42.50700
C  52.32200 47.37300 42.22700
C  53.37100 48.36800 42.47700
C  52.50600 49.62400 42.81700
C  51.09900 49.04900 42.97300
C  54.43100 48.11100 43.52100
C  52.63900 50.67800 41.68000
C  53.39600 51.95900 42.00200
N  48.25500 48.22700 42.61900
C  48.65300 49.47000 43.11900
C  47.48500 50.30500 43.37300
C  46.44300 49.54100 42.85700
C  46.89600 48.28600 42.35600
C  47.47500 51.81200 43.85400
C  45.01400 49.54100 42.60600
O  44.30700 50.52800 42.65400
C  44.64900 48.12900 41.93000
C  43.81900 47.33100 42.83400
O  44.18400 46.87100 43.87200
O  42.66900 46.92200 42.20100
C  41.85300 45.77300 42.74100
H  48.51700 42.78500 39.84400
H  53.75500 45.84300 41.92900
H  50.28700 50.82500 43.63900
H  44.64300 45.10500 41.15400
H  46.36800 43.72500 39.01400
H  45.56700 41.77900 40.01700
H  44.88400 42.71900 41.31300
H  46.55400 42.26000 41.41400
H  45.11800 45.35400 38.22100
H  45.47300 46.97300 38.99900
H  43.41100 47.47200 38.50900
H  42.88500 46.54100 39.85800
H  50.04700 41.35000 39.52200
H  51.49300 40.93900 40.45800
H  51.69300 41.70000 38.82300
H  54.84000 44.99300 40.15400
H  55.96600 43.63100 40.30300
H  55.37800 44.37500 41.74700
H  53.86900 48.54900 41.52400
H  52.80800 50.07700 43.76200
H  54.47900 47.03400 43.68500
H  54.22300 48.53100 44.50500
H  55.41500 48.43400 43.18100
H  51.70900 50.95600 41.18400
H  53.17800 50.25200 40.83400
H  54.21700 52.00200 41.28600
H  53.44400 52.18700 43.06700
H  52.82700 52.73000 41.48300
H  46.45500 52.18500 43.76100
H  48.06400 52.40000 43.15100
H  47.82200 51.89100 44.88400
H  44.00600 48.25200 41.05900
H  41.31100 46.05800 43.64300
H  42.40300 44.88100 43.04100
H  41.12900 45.44000 41.99700

