158

Mg 44.60100 2.89200 47.26600
C  42.70400 5.69500 46.69300
C  41.92000 0.82000 46.53500
C  46.64800 0.19000 46.82400
C  47.49300 4.92100 47.13700
N  42.66600 3.30200 46.60000
C  41.96800 4.48700 46.60600
C  40.47100 4.33900 46.36800
C  40.28000 2.78400 46.50300
C  41.70300 2.22200 46.52800
C  39.53400 2.42200 47.92800
C  39.96400 4.93600 45.01200
C  40.53700 4.28000 43.70500
H  41.44900 5.12700 42.75700
N  44.35000 0.78000 46.88000
C  43.11600 0.16100 46.58600
C  43.33200 -1.27500 46.33900
C  44.70500 -1.53900 46.39100
C  45.35000 -0.16800 46.69800
C  42.22100 -2.32000 46.00700
C  45.38800 -2.82400 46.19500
O  44.84200 -3.90600 46.07300
C  46.88600 -3.02600 46.22500
N  46.77900 2.59700 47.07300
C  47.27900 1.41100 46.93500
C  48.75700 1.48900 47.18900
C  49.08300 2.93500 46.97500
C  47.72000 3.52000 47.07900
C  49.30800 0.95600 48.49800
C  49.89800 3.35300 45.71800
C  51.38200 3.68000 45.91600
N  45.02200 4.94300 47.15400
C  46.24700 5.60700 47.03600
C  46.00700 7.02200 46.95800
C  44.59700 7.15600 46.78200
C  44.07000 5.82100 46.87000
C  47.01300 8.17000 46.93100
C  43.47200 8.00100 46.49000
O  43.38100 9.25400 46.48100
C  42.21400 7.05900 46.60600
C  41.24800 7.46800 47.64800
O  41.23300 7.02800 48.82300
O  40.30600 8.30800 47.11000
C  39.02800 8.62100 47.81400
H  41.03100 0.18600 46.50300
H  47.27400 -0.68500 46.63800
H  48.35700 5.58500 47.20300
H  40.03400 4.95900 47.15100
H  39.72000 2.25200 45.73400
H  39.17900 3.29700 48.47300
H  40.14600 2.00000 48.72500
H  38.69700 1.77600 47.66200
H  40.14300 6.01000 44.95900
H  38.88800 4.77300 44.95900
H  39.74000 4.24200 42.96200
H  40.91300 3.27000 43.86900
H  41.29500 -1.85500 45.67000
H  41.91700 -2.88700 46.88600
H  42.32400 -3.03500 45.19100
H  47.47300 -2.46100 45.50100
H  47.15100 -4.06500 46.03300
H  47.14700 -2.70700 47.23400
H  49.17700 0.86400 46.40100
H  49.64800 3.23600 47.85800
H  48.43400 0.80500 49.13200
H  50.00700 1.52300 49.11300
H  49.69200 -0.02600 48.22100
H  49.40300 4.27500 45.41200
H  49.98700 2.48500 45.06400
H  51.60300 3.70900 46.98300
H  51.66100 4.64700 45.49600
H  52.07800 2.98800 45.44100
H  47.24300 8.33900 47.98300
H  46.57900 9.07800 46.51300
H  47.95100 7.86300 46.46900
H  41.61100 7.15800 45.70300
H  38.27700 8.14500 47.18300
H  38.76600 9.67900 47.81000
H  38.99500 8.30100 48.85600
Mg 29.85100 58.95100 38.58300
C  26.77900 57.26100 37.79400
C  31.50800 56.07000 38.05700
C  32.56600 60.89400 38.52500
C  27.94100 62.00600 38.61900
N  29.25400 57.02100 37.87500
C  28.00800 56.48100 37.63400
C  28.09000 55.03900 36.97500
C  29.47400 54.62800 37.58200
C  30.15100 55.97400 37.81000
C  29.39600 53.78700 38.86700
C  27.97600 55.03100 35.42900
C  26.64800 54.55600 34.78700
H  25.80000 55.43900 33.88600
N  31.83600 58.52200 38.48600
C  32.32800 57.24500 38.26200
C  33.71900 57.37100 38.13900
C  34.13200 58.74600 38.40900
C  32.80800 59.48800 38.54400
C  34.56600 56.13000 37.91000
C  35.50600 59.27200 38.45200
O  36.44100 58.63200 38.09300
C  35.75600 60.73800 38.96500
N  30.18600 61.21500 38.42900
C  31.41900 61.68200 38.49900
C  31.43200 63.24200 38.34800
C  29.87700 63.57500 38.28500
C  29.30500 62.20400 38.43500
C  32.18900 63.96400 39.50400
C  29.47100 64.27800 36.97300
C  29.83700 65.72200 36.86800
N  27.77600 59.54800 38.42100
C  27.19600 60.81500 38.55400
C  25.72400 60.58700 38.61000
C  25.50300 59.22800 38.33100
C  26.78000 58.65200 38.23800
C  24.68200 61.74100 38.69500
C  24.52400 58.26700 38.05300
O  23.31800 58.40400 38.08200
C  25.23100 56.96500 37.56000
C  24.76900 55.88400 38.57300
O  24.51600 56.08300 39.78400
O  24.30300 54.80600 37.80500
C  23.16000 54.18400 38.31400
H  32.06000 55.13500 37.94200
H  33.48300 61.47100 38.39200
H  27.32500 62.90500 38.69200
H  27.27400 54.46600 37.41500
H  30.06500 54.06100 36.86200
H  28.51100 53.17800 39.05100
H  29.59900 54.52900 39.64000
H  30.21100 53.06300 38.86100
H  28.64300 54.31600 34.94600
H  28.31200 56.02000 35.11800
H  25.91400 54.12600 35.46900
H  27.00700 53.77700 34.11400
H  35.62900 56.32000 38.06100
H  34.35200 55.68000 36.94100
H  34.25200 55.39500 38.65100
H  36.81400 60.93300 39.13900
H  35.18300 61.01200 39.85100
H  35.53100 61.47400 38.19300
H  31.92300 63.43900 37.39500
H  29.46700 64.12200 39.13500
H  31.49800 64.71600 39.88500
H  33.10300 64.47700 39.20600
H  32.28500 63.33900 40.39200
H  28.40500 64.17500 36.76800
H  29.97300 63.79400 36.13600
H  29.01600 66.41600 36.68800
H  30.58200 65.75500 36.07300
H  30.49400 66.05800 37.67000
H  25.05600 62.58400 38.11500
H  24.51400 62.11000 39.70700
H  23.68900 61.56400 38.28400
H  24.89400 56.73000 36.55000
H  22.45500 53.99400 37.50400
H  22.52400 54.84800 38.89900
H  23.32000 53.19300 38.73800

