158

Mg 52.81000 23.57200 44.73400
C  50.22500 25.84000 43.78600
C  50.94700 21.12500 43.68900
C  55.60500 21.62600 44.79200
C  54.80600 26.37800 45.52500
N  50.79000 23.61300 43.79500
C  49.95700 24.57900 43.37600
C  48.75000 23.95800 42.66300
C  48.84800 22.43800 43.09200
C  50.26600 22.35500 43.54000
C  47.94500 22.09000 44.36500
C  48.59600 24.14900 41.12000
C  49.97700 24.26200 40.40500
H  49.89800 24.48200 38.88300
N  53.15400 21.63500 44.42800
C  52.22700 20.75400 43.99300
C  52.81600 19.45700 43.90300
C  54.16300 19.52900 44.33200
C  54.35700 21.01700 44.49100
C  52.00400 18.26200 43.54700
C  55.11100 18.36300 44.62800
O  54.87800 17.27600 44.12000
C  56.43700 18.50500 45.32000
N  55.03400 24.00400 44.81000
C  55.90100 23.03300 44.95200
C  57.29100 23.61200 45.36200
C  56.92500 24.99200 45.88300
C  55.52700 25.17500 45.36600
C  58.05200 22.75400 46.36000
C  57.95900 26.04300 45.44400
C  58.46600 27.08000 46.51800
N  52.62400 25.68600 44.68000
C  53.42300 26.66700 45.21400
C  52.62300 27.91700 45.41500
C  51.37800 27.62300 44.86000
C  51.39400 26.24700 44.44800
C  53.05400 29.14900 46.09800
C  50.03600 28.15600 44.56000
O  49.67300 29.30600 44.66500
C  49.25500 27.03000 43.81400
C  48.89000 27.48000 42.53400
O  49.65400 27.41900 41.59400
O  47.55300 27.94900 42.48200
C  47.20100 28.32800 41.20500
H  50.30000 20.31500 43.34600
H  56.41800 20.91500 44.95700
H  55.27100 27.16100 46.12700
H  47.88700 24.47600 43.08100
H  48.58500 21.85700 42.20800
H  48.53700 21.63500 45.15900
H  47.19300 21.37000 44.04300
H  47.50100 23.01300 44.73700
H  47.89900 24.98300 41.04000
H  48.00800 23.29500 40.78400
H  50.69000 23.46700 40.62400
H  50.41300 25.19400 40.76400
H  52.32800 18.03700 42.53100
H  50.95200 18.44200 43.77100
H  52.31900 17.37900 44.10300
H  56.38500 19.22200 46.14000
H  57.31600 18.85600 44.77900
H  56.72200 17.50000 45.63200
H  57.90900 23.78200 44.48000
H  56.75000 25.02300 46.95900
H  58.75500 23.27800 47.00800
H  58.71300 22.03000 45.88300
H  57.31400 22.24500 46.98000
H  57.62300 26.45700 44.49300
H  58.78100 25.37400 45.18900
H  59.43300 26.74800 46.89500
H  57.67600 27.03600 47.26700
H  58.65800 28.08100 46.13000
H  54.04400 29.44400 45.74900
H  53.05500 28.98800 47.17600
H  52.32800 29.92400 45.85600
H  48.28400 26.88400 44.28700
H  47.32700 29.41100 41.23200
H  46.19100 27.91900 41.20500
H  47.81000 27.86000 40.43200
Mg -5.26800 25.21700 25.96100
C  -3.67600 26.53300 28.85200
C  -6.90300 23.02700 28.06200
C  -6.42300 23.68600 23.20200
C  -3.09200 27.12200 23.98300
N  -5.23600 24.78000 28.17300
C  -4.79000 25.71800 29.11200
C  -5.46900 25.53300 30.47800
C  -6.03900 24.04400 30.23300
C  -6.10200 23.91200 28.72400
C  -5.23600 22.92500 30.97400
C  -6.34300 26.74800 31.02100
C  -5.85500 27.33200 32.37600
H  -5.60000 26.29600 33.52300
N  -6.63100 23.64500 25.66000
C  -7.21300 22.86400 26.67200
C  -8.17900 21.96000 26.00000
C  -7.96400 22.08000 24.65400
C  -7.01700 23.14600 24.46800
C  -9.01900 20.96300 26.74100
C  -8.76700 21.40400 23.50400
O  -8.73300 21.80600 22.35400
C  -9.78200 20.36000 23.78300
N  -4.76900 25.34800 23.92900
C  -5.46200 24.67800 23.01200
C  -5.04600 25.12500 21.67800
C  -4.35000 26.49700 21.91000
C  -4.07600 26.29200 23.37000
C  -4.29200 24.04600 20.88700
C  -5.18100 27.70200 21.57800
C  -4.77200 28.45300 20.31800
N  -3.65000 26.55000 26.27900
C  -2.90100 27.31300 25.42500
C  -1.98300 28.12100 26.14900
C  -2.24100 27.88300 27.50900
C  -3.24000 26.87000 27.53800
C  -0.93500 28.99700 25.53500
C  -1.91300 28.23300 28.90500
O  -1.03300 28.96700 29.27100
C  -2.91400 27.41200 29.82800
C  -1.98200 26.55100 30.65300
O  -1.09600 25.73100 30.27500
O  -2.08000 27.02600 31.94700
C  -1.11200 26.48200 32.89300
H  -7.31600 22.27200 28.73400
H  -6.75400 23.18900 22.28800
H  -2.55700 27.73800 23.25700
H  -4.61600 25.39500 31.14300
H  -7.01200 23.87600 30.69500
H  -4.58500 23.34600 31.74000
H  -4.50800 22.48700 30.29100
H  -5.84500 22.17400 31.47800
H  -7.38900 26.51800 31.22300
H  -6.13900 27.53700 30.29700
H  -6.44900 28.15100 32.78200
H  -4.81000 27.60100 32.22300
H  -8.90700 21.08700 27.81800
H  -8.67400 19.94500 26.55800
H  -10.08700 21.12900 26.60100
H  -9.98900 19.79800 22.87300
H  -10.71400 20.79500 24.14500
H  -9.38200 19.55100 24.39400
H  -5.93500 25.35100 21.08900
H  -3.42600 26.51000 21.33100
H  -5.00500 23.49900 20.27000
H  -3.92700 23.24500 21.53000
H  -3.43900 24.30200 20.25900
H  -5.05400 28.42900 22.38000
H  -6.24200 27.47100 21.48800
H  -3.91700 29.09300 20.53700
H  -5.59200 29.01600 19.87200
H  -4.35800 27.92800 19.45800
H  -0.19000 29.34900 26.24900
H  -1.59100 29.80100 25.20200
H  -0.50500 28.54400 24.64100
H  -3.52500 28.08400 30.43200
H  -0.97700 27.19200 33.70900
H  -0.15900 26.24500 32.41900
H  -1.57600 25.57500 33.28000

