158

Mg 17.12000 -0.56900 27.21600
C  16.26100 1.23300 30.20000
C  19.02300 -2.51600 29.13200
C  18.18100 -1.92400 24.39300
C  15.36400 1.79600 25.39900
N  17.59100 -0.58600 29.48500
C  17.10700 0.16200 30.51600
C  17.75800 -0.26600 31.87000
C  18.78100 -1.42000 31.38900
C  18.36500 -1.58900 29.91600
C  20.27500 -1.25600 31.68900
C  16.78900 -0.78500 32.92800
C  16.99000 -0.12100 34.29300
H  18.42800 0.16600 34.78900
N  18.38500 -2.01600 26.83100
C  19.04000 -2.72700 27.76400
C  19.80400 -3.72200 27.08300
C  19.60300 -3.63100 25.70300
C  18.60300 -2.53900 25.57800
C  20.68500 -4.70200 27.81200
C  20.19700 -4.39600 24.52500
O  19.93800 -4.20400 23.34600
C  21.08600 -5.51900 24.72400
N  16.88800 -0.02600 25.20100
C  17.42800 -0.72900 24.16100
C  17.16000 -0.09900 22.77200
C  16.11400 0.93700 23.06000
C  16.09100 0.93000 24.64900
C  18.35000 0.63400 22.21200
C  14.67200 0.67600 22.56200
C  14.18600 1.73000 21.57000
N  15.86700 1.05800 27.65000
C  15.31500 1.98000 26.78200
C  14.76000 3.02800 27.56800
C  14.95000 2.69800 28.90800
C  15.73000 1.56400 28.90200
C  14.10000 4.23200 26.99800
C  14.66700 3.13700 30.35700
O  14.04500 4.04600 30.83100
C  15.58900 2.21500 31.17800
C  16.59300 2.93300 31.99200
O  17.77400 3.13100 31.66500
O  16.05200 3.24800 33.24300
C  16.88900 3.87800 34.28600
H  19.65000 -3.27100 29.61000
H  18.59300 -2.30300 23.45600
H  14.70400 2.54100 24.94800
H  18.26800 0.59600 32.30100
H  18.47100 -2.35100 31.86400
H  20.64700 -2.22700 32.01500
H  20.57000 -0.40600 32.30400
H  20.86400 -1.03600 30.79800
H  16.66700 -1.83200 33.20700
H  15.79600 -0.41700 32.66900
H  16.49100 -0.71000 35.06200
H  16.51100 0.85800 34.28600
H  20.36900 -5.69900 27.50600
H  20.65600 -4.78400 28.89800
H  21.73600 -4.50400 27.60100
H  22.08200 -5.32200 25.12000
H  21.21800 -6.10200 23.81200
H  20.51900 -6.23300 25.32100
H  16.87000 -0.87000 22.05800
H  16.40500 1.95900 22.81800
H  18.20400 1.59800 21.72500
H  18.87700 -0.05800 21.55500
H  19.06000 0.73700 23.03300
H  13.90900 0.46900 23.31200
H  14.83100 -0.21200 21.95000
H  13.56500 2.39500 22.17000
H  13.61000 1.29300 20.75400
H  15.07300 2.19500 21.14000
H  13.04600 3.95900 26.95200
H  14.39300 4.42700 25.96700
H  14.33800 5.15700 27.52400
H  14.98700 1.66500 31.90200
H  16.42500 4.62900 34.92500
H  17.79100 4.25500 33.80400
H  17.40600 3.17200 34.93600
Mg 17.26000 52.12400 26.33700
C  19.17200 50.77300 28.99000
C  14.84500 52.82800 28.70700
C  15.11500 52.92700 23.83900
C  19.42100 50.75000 24.07500
N  17.09800 51.80200 28.59200
C  17.97900 51.34500 29.45100
C  17.52000 51.56600 30.97200
C  16.07400 51.98500 30.75200
C  16.00400 52.28900 29.22600
C  15.04600 50.92700 31.19400
C  18.45900 52.56200 31.78500
C  18.72900 52.23800 33.31200
H  17.62300 51.63300 34.03600
N  15.33000 52.94100 26.30700
C  14.49300 53.14400 27.34000
C  13.28800 53.73700 26.85300
C  13.33500 53.80400 25.43100
C  14.63800 53.18900 25.13400
C  12.18600 54.11600 27.86100
C  12.34000 54.35200 24.44100
O  12.53200 54.51800 23.20900
C  10.99800 54.89200 24.90900
N  17.26700 52.02200 24.27800
C  16.26900 52.26000 23.42800
C  16.61000 51.88400 21.99500
C  18.08700 51.45400 22.09600
C  18.30600 51.44800 23.56700
C  15.77800 50.99000 21.11700
C  18.94200 52.48800 21.36400
C  19.24000 53.91000 21.91500
N  19.01100 51.14700 26.43200
C  19.81300 50.62200 25.40700
C  20.91300 49.92800 25.90800
C  20.73200 49.96800 27.32000
C  19.56100 50.74400 27.60800
C  22.09600 49.39800 25.09800
C  21.31000 49.54800 28.55000
O  22.26900 48.87200 28.81800
C  20.41700 50.18600 29.68000
C  20.12300 49.04200 30.76700
O  19.51000 48.00300 30.64300
O  20.56900 49.43300 31.96800
C  20.51100 48.49500 33.06900
H  14.09700 53.00200 29.48300
H  14.55900 53.29000 22.97300
H  20.07000 50.35800 23.28900
H  17.48400 50.60500 31.48700
H  15.83200 52.90700 31.28000
H  15.52100 50.13500 31.77300
H  14.66300 50.38000 30.33300
H  14.23600 51.34800 31.78900
H  18.06200 53.57100 31.67400
H  19.40800 52.51000 31.25100
H  18.99200 53.22600 33.69000
H  19.55200 51.54400 33.48000
H  12.37300 55.18300 27.97900
H  12.32700 53.51200 28.75800
H  11.17200 53.93500 27.50700
H  11.14300 55.70200 25.62400
H  10.48400 54.03400 25.34300
H  10.45200 55.35800 24.09000
H  16.60700 52.88200 21.55800
H  18.33300 50.47200 21.69200
H  16.22400 50.10300 20.66600
H  15.26500 51.61500 20.38600
H  14.99300 50.59100 21.75900
H  18.46900 52.65500 20.39600
H  19.92600 52.03300 21.24900
H  20.23800 54.08900 22.31500
H  18.43600 54.29100 22.54500
H  19.13100 54.58800 21.06900
H  22.10500 49.99400 24.18600
H  21.79600 48.35900 24.96200
H  23.02700 49.37900 25.66500
H  21.07100 50.96400 30.07200
H  21.22700 48.91300 33.77700
H  20.66300 47.41700 33.03300
H  19.55300 48.46300 33.58700

