158

Mg 45.84000 5.07400 49.01800
C  43.78500 7.86800 48.03800
C  43.12600 3.04500 48.06900
C  47.78900 2.48400 49.33300
C  48.61400 7.32500 49.30800
N  43.60300 5.44100 48.32800
C  43.08900 6.64700 47.86400
C  41.77400 6.42700 47.09900
C  41.44300 4.85800 47.39200
C  42.81600 4.39200 47.99700
C  40.26900 4.76100 48.39300
C  41.87200 6.76800 45.57500
C  40.93600 7.92800 45.13500
H  39.95000 7.64900 43.93000
N  45.51200 3.02100 48.83500
C  44.29900 2.39500 48.46500
C  44.56400 0.96600 48.40300
C  45.86700 0.77100 48.79600
C  46.46200 2.14800 48.97900
C  43.39600 0.00600 48.00100
C  46.58700 -0.63700 48.91900
O  45.92800 -1.67600 48.86700
C  48.08600 -0.74400 49.10500
N  47.92300 4.91700 49.14300
C  48.42700 3.68600 49.49800
C  49.88700 3.84500 49.87500
C  50.15500 5.40400 49.94600
C  48.84200 5.91800 49.34700
C  50.34100 3.13100 51.23500
C  51.40900 5.91700 49.10400
C  52.38400 6.84100 49.93100
N  46.18900 7.12800 48.84400
C  47.35900 7.85900 49.01000
C  46.99400 9.30900 48.85200
C  45.71200 9.29500 48.46100
C  45.21800 7.97400 48.47500
C  47.91800 10.44100 48.98200
C  44.59700 10.13300 48.07400
O  44.62600 11.38200 47.95800
C  43.32100 9.31500 47.83900
C  42.34400 9.70700 48.77600
O  42.15400 9.22000 49.90200
O  41.53200 10.66000 48.20600
C  40.33000 10.88300 48.98800
H  42.36000 2.33400 47.75100
H  48.36700 1.65900 49.75600
H  49.46300 7.94900 49.59200
H  40.99500 7.05800 47.52600
H  41.22900 4.30500 46.47700
H  39.80300 3.77600 48.37100
H  39.47800 5.47700 48.16900
H  40.59100 5.03000 49.39900
H  41.57200 5.88500 45.01100
H  42.90300 6.94900 45.27200
H  41.60700 8.69900 44.75600
H  40.45100 8.35800 46.01200
H  43.80200 -0.77500 47.35900
H  42.64400 0.44400 47.34400
H  43.03800 -0.40100 48.94600
H  48.41600 -1.73700 48.80200
H  48.31700 -0.49100 50.13900
H  48.50900 -0.09300 48.34000
H  50.35900 3.38900 49.00500
H  50.09600 5.83000 50.94700
H  49.53300 2.67600 51.80800
H  50.95900 3.76600 51.87000
H  50.91400 2.24400 50.96400
H  50.93000 6.48800 48.30900
H  52.00800 5.10100 48.69800
H  53.44800 6.62500 49.84000
H  52.11700 6.71600 50.98000
H  52.27200 7.90200 49.70700
H  48.31400 10.55800 49.99000
H  47.36800 11.31000 48.62100
H  48.67300 10.38300 48.19800
H  42.94900 9.42400 46.82100
H  40.61000 11.43900 49.88300
H  39.75000 9.97200 49.13900
H  39.66900 11.61200 48.52000
Mg 16.76000 52.00800 26.46300
C  18.98800 50.62200 28.76700
C  14.78900 53.09500 29.15000
C  14.75700 53.44800 24.17000
C  18.81700 50.94000 23.87500
N  16.92700 51.90400 28.67800
C  17.97000 51.41100 29.37000
C  17.70300 51.52000 30.88600
C  16.19100 51.93000 31.04100
C  15.94900 52.40300 29.52400
C  15.26500 50.69500 31.24800
C  18.71300 52.32000 31.60700
C  18.70400 52.11000 33.12700
H  17.55700 51.33500 33.81300
N  15.04900 53.13600 26.63100
C  14.42900 53.51000 27.82100
C  13.21600 54.23700 27.48600
C  13.14300 54.26600 26.00500
C  14.31400 53.60200 25.52200
C  12.25900 54.80100 28.55300
C  12.13200 55.04500 25.08700
O  12.21500 55.08700 23.85000
C  10.96800 55.62600 25.69100
N  16.86100 52.28500 24.31400
C  15.85600 52.87300 23.58800
C  16.15700 52.91700 22.10200
C  17.46700 52.01800 21.99100
C  17.79500 51.76700 23.45900
C  15.08300 52.29600 21.19800
C  18.66900 52.38200 21.07100
C  19.34300 53.73700 21.34500
N  18.35300 50.81000 26.28800
C  19.12900 50.47700 25.19800
C  20.26200 49.60600 25.60700
C  20.21900 49.59100 27.02900
C  19.07300 50.42400 27.40000
C  21.21300 48.87100 24.74200
C  20.90100 49.18300 28.23500
O  21.83800 48.45400 28.35100
C  20.17100 49.91500 29.43700
C  19.73900 48.77600 30.28800
O  18.80000 48.00300 30.08300
O  20.40600 48.89600 31.48500
C  19.99800 48.00000 32.60400
H  14.08200 53.29500 29.95800
H  14.20300 53.90900 23.35000
H  19.48900 50.53600 23.11500
H  17.87400 50.52100 31.28700
H  16.03300 52.81700 31.65400
H  14.82800 50.46100 30.27700
H  14.52300 50.95000 32.00500
H  15.89600 49.85500 31.53800
H  18.53000 53.31800 31.20900
H  19.64800 51.83800 31.31900
H  18.81400 53.05600 33.65800
H  19.60900 51.57000 33.40600
H  12.56100 54.62000 29.58500
H  11.26500 54.37100 28.43100
H  12.16000 55.88600 28.50800
H  11.43800 56.50000 26.14000
H  10.79000 54.91600 26.49800
H  10.15400 55.60800 24.96700
H  16.41200 53.88200 21.66300
H  17.24200 51.01500 21.62800
H  14.37100 51.75900 21.82500
H  15.35700 51.52900 20.47400
H  14.55800 53.15300 20.77600
H  18.06000 52.43600 20.16900
H  19.35300 51.54400 20.93700
H  20.30200 53.68800 21.86200
H  18.65100 54.37300 21.89700
H  19.51700 54.20600 20.37700
H  20.60200 48.39000 23.97800
H  21.80800 48.23100 25.39300
H  21.86600 49.57500 24.22500
H  20.86000 50.59600 29.93700
H  19.26500 48.54600 33.19800
H  20.93200 47.86000 33.14700
H  19.58500 47.12600 32.09900

