158

Mg 1.17300 -2.54100 44.50600
C  4.67100 -2.21200 43.62000
C  0.55500 0.10200 42.47400
C  -2.04400 -3.70700 44.20900
C  2.01000 -5.57900 46.06000
N  2.50700 -1.37300 43.07300
C  3.88000 -1.25100 42.99000
C  4.33600 -0.14800 41.99500
C  3.00600 0.71700 42.01700
C  1.92800 -0.25900 42.54900
C  3.03700 1.99300 42.86000
C  4.77900 -0.60400 40.54500
C  6.19000 -0.07400 40.10500
H  6.29500 0.73700 38.84700
N  -0.57500 -1.85000 43.62500
C  -0.59100 -0.67800 42.86500
C  -1.93900 -0.39400 42.44000
C  -2.77600 -1.44800 42.88700
C  -1.88200 -2.37700 43.64300
C  -2.36200 0.84600 41.53300
C  -4.27300 -1.57500 42.65000
O  -4.89900 -0.63800 42.13100
C  -5.02700 -2.81300 43.02100
N  0.13100 -4.35700 45.11300
C  -1.20600 -4.61800 44.89600
C  -1.66400 -5.98700 45.53300
C  -0.35400 -6.34700 46.35200
C  0.66900 -5.37000 45.81400
C  -2.98000 -5.92000 46.34800
C  0.04000 -7.86800 46.09900
C  0.60100 -8.55200 47.36800
N  2.91200 -3.67900 44.93400
C  3.11800 -4.85000 45.64500
C  4.55300 -5.20200 45.62300
C  5.15000 -4.13300 44.93700
C  4.11200 -3.26900 44.45400
C  5.31200 -6.36700 46.25600
C  6.47200 -3.57100 44.48900
O  7.61700 -3.89700 44.71800
C  6.18300 -2.43000 43.56500
C  6.89500 -1.21100 44.10400
O  6.47200 -0.40400 44.91500
O  8.03100 -1.01400 43.31500
C  8.98100 0.03200 43.72400
H  0.34500 1.06300 41.99900
H  -3.06800 -4.08400 44.21800
H  2.30100 -6.54200 46.48600
H  5.05900 0.43100 42.57000
H  2.73300 0.98400 40.99600
H  2.84500 2.81500 42.17100
H  4.01100 2.19200 43.30600
H  2.24600 2.09400 43.60400
H  4.11900 -0.22800 39.76300
H  4.76200 -1.69000 40.46400
H  6.98600 -0.79200 39.90900
H  6.58800 0.63100 40.83500
H  -3.32000 0.68200 41.03900
H  -1.62500 0.89300 40.73100
H  -2.55600 1.75300 42.10600
H  -4.36500 -3.62900 42.73200
H  -5.91300 -2.77200 42.38800
H  -5.21600 -2.91300 44.09000
H  -1.83700 -6.75000 44.77300
H  -0.51500 -6.11800 47.40500
H  -2.79000 -6.20800 47.38200
H  -3.66300 -6.70200 46.01400
H  -3.49300 -4.97400 46.17400
H  0.79900 -7.82800 45.31900
H  -0.89900 -8.35800 45.84200
H  0.00200 -9.36200 47.78300
H  0.64800 -7.84600 48.19800
H  1.52100 -9.05100 47.06600
H  4.59900 -6.82600 46.94000
H  6.28300 -6.17100 46.71000
H  5.42200 -7.10400 45.46000
H  6.51900 -2.66400 42.55400
H  9.86300 -0.51300 44.06100
H  8.55700 0.75500 44.42100
H  9.33800 0.55400 42.83600
Mg 26.98000 50.46700 26.11000
C  24.91200 51.53800 28.82700
C  29.30800 49.55300 28.51400
C  29.11500 49.93300 23.60200
C  24.76500 51.93300 23.94600
N  27.02400 50.52600 28.47000
C  26.08100 50.95900 29.32500
C  26.44900 50.61300 30.80100
C  27.97100 50.19800 30.65000
C  28.18700 50.16600 29.07500
C  29.04000 51.01100 31.42300
C  25.51800 49.54700 31.51600
C  24.97900 49.63000 32.97700
H  25.82300 50.23700 34.13000
N  28.89400 49.64200 26.05700
C  29.67500 49.30600 27.10400
C  30.89800 48.78000 26.56600
C  30.82400 48.92600 25.17900
C  29.61500 49.57400 24.89100
C  31.92000 48.15200 27.46800
C  31.74100 48.33000 24.08800
O  31.75300 48.74300 22.90700
C  32.92400 47.51600 24.55100
N  26.97900 50.89400 24.05100
C  27.93500 50.56700 23.19500
C  27.48000 50.75500 21.76200
C  26.00400 51.31700 21.89000
C  25.89100 51.40400 23.38200
C  28.37600 51.73400 20.95300
C  24.82000 50.52500 21.04000
C  23.86700 51.29800 20.09000
N  25.23800 51.57600 26.32600
C  24.47900 52.11600 25.32300
C  23.38100 52.85500 25.95400
C  23.52600 52.65500 27.33000
C  24.63500 51.79900 27.49400
C  22.30000 53.59900 25.22300
C  22.85200 52.87700 28.54000
O  21.81400 53.44900 28.71800
C  23.79300 52.24200 29.61400
C  24.45600 53.31900 30.39900
O  25.39200 53.98500 30.14000
O  23.79000 53.51600 31.51700
C  24.52000 54.14900 32.65400
H  30.07300 49.29500 29.24900
H  29.74000 49.63200 22.75800
H  23.97700 52.30200 23.28500
H  26.31700 51.51900 31.39200
H  28.10900 49.21000 31.09000
H  29.74000 51.44100 30.70700
H  29.64300 50.29300 31.97900
H  28.65800 51.84800 32.00700
H  25.87300 48.51600 31.52100
H  24.68100 49.39400 30.83400
H  24.92000 48.57900 33.26000
H  23.94800 49.98300 33.01300
H  31.90400 47.09600 27.19900
H  31.69200 48.21700 28.53200
H  32.92900 48.52600 27.29500
H  33.63400 47.42000 23.72900
H  32.64000 46.51800 24.88500
H  33.25800 48.14300 25.37800
H  27.36900 49.77400 21.30000
H  25.88700 52.36900 21.62900
H  29.23100 52.05500 21.54800
H  27.85800 52.63500 20.62600
H  28.68000 51.13800 20.09200
H  24.26400 49.93300 21.76800
H  25.35800 49.81000 20.41800
H  23.37900 52.21900 20.41200
H  23.08400 50.62300 19.74500
H  24.54200 51.44100 19.24700
H  21.80500 53.00800 24.45300
H  22.74100 54.54400 24.90400
H  21.50000 53.77900 25.94100
H  23.43900 51.42700 30.24500
H  24.12800 53.71000 33.57200
H  24.21900 55.19500 32.71800
H  25.60200 54.04600 32.73200

