158

Mg 17.11800 -1.96200 27.35500
C  15.97000 -0.09700 30.11600
C  19.39600 -3.59600 29.43700
C  18.67100 -3.23600 24.64200
C  15.28300 0.22000 25.33600
N  17.64100 -1.76500 29.54100
C  16.95500 -0.97700 30.47200
C  17.66500 -1.13500 31.84600
C  18.79100 -2.21200 31.58400
C  18.66900 -2.55900 30.06100
C  20.24700 -1.79200 31.88100
C  16.67100 -1.58800 32.98900
C  16.63000 -0.78700 34.22300
H  17.79800 -0.03200 34.70700
N  18.70500 -3.40100 27.05800
C  19.40600 -4.03300 28.09400
C  20.21300 -5.11300 27.50800
C  19.93500 -5.02300 26.09900
C  19.15500 -3.80600 25.84600
C  21.13800 -6.02200 28.27900
C  20.41900 -5.96100 24.97700
O  20.19600 -5.71900 23.83700
C  21.05800 -7.21900 25.32900
N  17.06900 -1.52600 25.24500
C  17.81100 -2.19000 24.35000
C  17.44300 -1.78500 22.91000
C  16.28400 -0.72500 23.12300
C  16.17700 -0.69900 24.66700
C  18.72500 -1.34800 22.15300
C  14.93900 -0.76900 22.25600
C  14.93600 -0.07600 20.85600
N  15.74600 -0.44600 27.58800
C  15.01300 0.28800 26.68000
C  14.21000 1.21500 27.38700
C  14.53000 1.10300 28.72600
C  15.52700 0.08000 28.82100
C  13.42300 2.28900 26.78100
C  14.24300 1.64700 29.98700
O  13.48700 2.52500 30.44700
C  15.20400 0.95500 31.01100
C  16.05300 1.99200 31.62300
O  16.87700 2.71400 31.07500
O  15.68600 2.18800 32.88600
C  16.32800 3.39700 33.48200
H  20.05300 -4.14500 30.11500
H  19.02600 -3.76600 23.75600
H  14.82100 0.94800 24.66600
H  18.13200 -0.20500 32.17100
H  18.57400 -3.14600 32.10100
H  20.29600 -0.76400 32.24100
H  20.91700 -1.93800 31.03300
H  20.68800 -2.43500 32.64300
H  16.74800 -2.63400 33.28500
H  15.66400 -1.41000 32.61300
H  16.21300 -1.39100 35.02800
H  15.82600 -0.07400 34.04100
H  22.17500 -5.98300 27.94600
H  20.72900 -7.02800 28.18400
H  21.20200 -5.80300 29.34500
H  22.10700 -7.09000 25.59500
H  21.03800 -7.69800 24.35000
H  20.41500 -7.65400 26.09400
H  17.11300 -2.73800 22.49600
H  16.71100 0.25600 22.91500
H  19.59300 -1.18200 22.79100
H  18.48100 -0.39700 21.67900
H  19.01100 -1.99600 21.32400
H  14.10700 -0.40400 22.85900
H  14.73400 -1.81900 22.04600
H  14.21700 0.73400 20.73400
H  14.61100 -0.82300 20.13200
H  15.93500 0.28200 20.60700
H  12.65600 1.89300 26.11500
H  14.12000 2.86300 26.17100
H  12.96700 2.91200 27.55000
H  14.56600 0.54100 31.79100
H  15.81400 4.31500 33.19800
H  17.39300 3.62400 33.42200
H  16.18700 3.38500 34.56300
Mg 35.40800 3.29700 30.06200
C  33.06000 4.18400 32.53000
C  37.75800 3.08500 32.40900
C  37.56100 2.59600 27.59600
C  32.85400 3.62400 27.67200
N  35.36800 3.75500 32.15200
C  34.28500 3.97300 33.02400
C  34.72900 4.15900 34.49300
C  36.30400 4.09700 34.29000
C  36.50400 3.57600 32.88600
C  37.18800 5.32800 34.57000
C  34.06700 3.01000 35.32000
C  33.83400 3.42800 36.83700
H  34.58700 4.60300 37.50800
N  37.42000 2.93900 29.97500
C  38.19600 2.84100 31.06200
C  39.56400 2.35300 30.67100
C  39.49500 2.08500 29.29100
C  38.16300 2.58800 28.85800
C  40.58400 1.97800 31.58000
C  40.65100 1.62500 28.27800
O  40.44700 1.66000 27.07100
C  42.12500 1.47300 28.76000
N  35.34100 3.43200 27.85400
C  36.28700 2.94400 27.12100
C  35.83700 2.92300 25.60300
C  34.33400 2.95100 25.67900
C  34.14200 3.35000 27.18500
C  36.49900 3.99900 24.59700
C  33.56000 1.67100 25.22100
C  33.25300 0.55600 26.23000
N  33.43900 3.90400 29.96400
C  32.51400 3.94100 28.97900
C  31.19600 4.22600 29.47500
C  31.35000 4.38400 30.83500
C  32.73100 4.10600 31.10400
C  29.87400 4.27500 28.66300
C  30.63900 4.68700 32.09400
O  29.51800 4.90900 32.31300
C  31.76500 4.67300 33.19800
C  31.91100 6.00300 33.93200
O  32.23500 7.06500 33.42100
O  31.54300 5.76500 35.26400
C  31.48200 7.09800 36.02200
H  38.50300 2.81500 33.16000
H  38.20100 2.27500 26.77100
H  32.02700 3.58200 26.96000
H  34.30300 5.09900 34.84500
H  36.70800 3.27200 34.87600
H  36.61100 6.24300 34.70200
H  37.77300 5.52900 33.67300
H  37.75700 5.15100 35.48400
H  34.70000 2.13500 35.17200
H  33.01800 2.89800 35.04700
H  33.91700 2.55100 37.47800
H  32.77200 3.65700 36.92500
H  40.24200 1.99000 32.61500
H  41.46400 2.57600 31.34200
H  40.83200 0.93100 31.40900
H  42.33100 2.41200 29.27400
H  42.82200 1.33100 27.93400
H  42.21400 0.58300 29.38400
H  36.01900 1.92900 25.19500
H  34.00600 3.80500 25.08700
H  35.89400 4.90600 24.59400
H  36.60200 3.64200 23.57200
H  37.48100 4.30900 24.95300
H  34.01000 1.13100 24.38900
H  32.62300 2.00300 24.77300
H  33.12300 1.00800 27.21300
H  33.95700 -0.27500 26.24300
H  32.25600 0.22200 25.94400
H  29.10800 3.69300 29.17600
H  29.90000 3.79700 27.68400
H  29.46600 5.27000 28.48600
H  31.48800 3.88800 33.90200
H  31.95800 7.90300 35.46200
H  31.94800 7.02100 37.00400
H  30.46200 7.46100 36.14300

