158

Mg 47.13800 24.76300 28.03700
C  48.08400 27.00600 30.48400
C  45.84700 22.68800 30.61200
C  46.69400 22.37300 25.68300
C  49.00000 26.66200 25.69500
N  47.06100 24.82000 30.26400
C  47.41100 25.92300 31.03400
C  46.90800 25.81500 32.49000
C  46.33400 24.31800 32.50800
C  46.34200 23.93500 31.03400
C  47.09400 23.39300 33.47400
C  45.91500 26.91800 33.01200
C  46.17800 27.36900 34.43200
H  46.69400 26.42400 35.52900
N  46.34300 22.83700 28.13000
C  45.84100 22.18600 29.26900
C  45.29000 20.92900 28.83000
C  45.53200 20.79400 27.40600
C  46.21900 22.05000 27.04400
C  44.74900 19.79900 29.74300
C  45.11700 19.66200 26.43900
O  45.50400 19.69500 25.26300
C  44.14800 18.60300 26.86900
N  47.80900 24.59300 25.89800
C  47.35000 23.50900 25.15500
C  47.97900 23.62900 23.82000
C  48.59700 25.06000 23.81800
C  48.38300 25.49600 25.17800
C  49.08500 22.48400 23.54300
C  47.91600 26.07200 22.86000
C  46.54200 26.79200 23.28900
N  48.24000 26.47500 28.00300
C  48.91800 27.19600 27.06300
C  49.44200 28.46300 27.62900
C  49.06400 28.41500 28.94800
C  48.38500 27.18700 29.12800
C  50.07400 29.62700 26.91700
C  49.27200 29.18300 30.13000
O  49.79400 30.21700 30.46500
C  48.61200 28.31400 31.21700
C  49.52300 28.06600 32.36600
O  50.20800 27.09100 32.51800
O  49.30200 29.08000 33.31600
C  49.98300 28.90100 34.57900
H  45.39800 22.09100 31.40800
H  46.61500 21.68500 24.83900
H  49.52800 27.30800 24.99000
H  47.85500 25.79500 33.03000
H  45.26600 24.42200 32.70300
H  47.71300 22.67200 32.94000
H  46.50400 22.75000 34.12800
H  47.75600 23.97300 34.11600
H  44.86400 26.63300 32.95100
H  46.07600 27.75400 32.33200
H  45.26300 27.73500 34.89700
H  46.83900 28.23500 34.41600
H  45.08500 20.06000 30.74700
H  45.27000 18.93300 29.33500
H  43.67400 19.77800 29.56300
H  44.24600 18.07300 27.81600
H  44.08600 17.84100 26.09300
H  43.19500 19.13200 26.87900
H  47.11100 23.55600 23.16400
H  49.65500 25.01600 23.56100
H  49.09100 21.75400 24.35200
H  50.03600 23.01600 23.57100
H  48.82100 21.97400 22.61600
H  47.64400 25.47200 21.99100
H  48.65900 26.80200 22.53800
H  45.80300 26.76100 22.48800
H  46.82800 27.83600 23.41300
H  46.12800 26.38500 24.21200
H  49.32400 30.41700 26.86000
H  50.44900 29.33900 25.93500
H  51.02600 29.83800 27.40200
H  47.75100 28.87900 31.57400
H  51.03500 28.62600 34.50700
H  49.48500 28.13400 35.17200
H  49.94100 29.81300 35.17400
Mg 0.99100 43.30900 26.24900
C  3.19100 43.30400 29.09600
C  -1.53300 42.38100 28.44400
C  -0.92100 42.69000 23.64100
C  3.86200 43.60300 24.12600
N  0.83300 43.05300 28.51800
C  1.85700 43.08200 29.44800
C  1.39600 42.88600 30.90300
C  -0.14600 42.49400 30.64100
C  -0.28800 42.74700 29.08500
C  -0.60700 40.99500 31.09900
C  1.54600 44.23900 31.64800
C  1.21300 44.25900 33.23400
H  1.02200 42.89300 34.01600
N  -0.94500 42.85300 26.01700
C  -1.85300 42.55300 27.04000
C  -3.11700 42.30800 26.43900
C  -3.01600 42.36300 25.04800
C  -1.62700 42.67600 24.84900
C  -4.34800 41.87500 27.23800
C  -4.03500 42.17200 23.98000
O  -3.76900 42.11200 22.76000
C  -5.51800 41.95400 24.23200
N  1.42800 43.15300 24.19900
C  0.44300 42.80400 23.34800
C  0.99900 42.86800 21.91700
C  2.39900 43.56700 21.97600
C  2.54700 43.42800 23.52300
C  1.04200 41.42100 21.22400
C  2.40700 44.96200 21.30900
C  2.03300 46.14000 22.11100
N  3.07600 43.57000 26.45400
C  4.10400 43.72600 25.52700
C  5.40000 43.91100 26.20200
C  5.09000 43.59400 27.53300
C  3.63800 43.53200 27.67500
C  6.79100 44.15500 25.46900
C  5.65200 43.36200 28.82500
O  6.82800 43.22700 29.19500
C  4.50100 43.33200 29.86700
C  4.57700 42.15900 30.76600
O  4.06000 41.04600 30.47900
O  5.02200 42.50400 31.97600
C  4.77600 41.68100 33.13100
H  -2.34100 42.29300 29.17400
H  -1.49100 42.62500 22.71200
H  4.69500 43.56800 23.42200
H  1.90800 42.10800 31.46900
H  -0.77200 43.19800 31.19100
H  -0.58100 40.39600 30.18900
H  -1.59000 40.95300 31.56900
H  0.14500 40.50000 31.71400
H  0.73600 44.92000 31.38900
H  2.39600 44.89400 31.45800
H  0.32000 44.86500 33.38900
H  1.99800 44.69200 33.85300
H  -4.87400 42.81500 27.39900
H  -3.90100 41.53500 28.17300
H  -4.99700 41.13400 26.77300
H  -5.56900 40.92000 24.57400
H  -5.97400 41.95500 23.24200
H  -5.97700 42.79000 24.75900
H  0.31200 43.46800 21.32000
H  3.20300 42.92000 21.62400
H  0.20400 40.79500 21.53200
H  2.06000 41.03700 21.29300
H  0.77200 41.66200 20.19600
H  1.81300 44.85800 20.40100
H  3.39400 45.12500 20.87500
H  2.73000 46.69600 22.73700
H  1.37500 45.82300 22.92000
H  1.58600 46.91700 21.49000
H  7.45100 43.28900 25.40800
H  7.36000 44.93200 25.97900
H  6.63900 44.41600 24.42200
H  4.63500 44.19300 30.52300
H  4.47000 40.65500 32.93100
H  4.10900 42.28100 33.75000
H  5.74900 41.59300 33.61500

