158

Mg -1.61700 17.07000 27.27000
C  -2.16600 14.79600 29.86700
C  -1.95100 19.61400 29.26400
C  -1.63300 19.09300 24.50800
C  -1.36600 14.31400 25.00100
N  -2.08700 17.15600 29.25100
C  -2.31500 16.14100 30.25200
C  -2.61200 16.75000 31.63600
C  -2.47200 18.28100 31.35000
C  -2.08600 18.37800 29.84800
C  -3.70700 19.08500 31.88400
C  -1.59100 16.32900 32.81400
C  -1.63200 17.12500 34.18400
H  -1.54200 16.19600 35.44600
N  -1.67400 19.03600 26.96100
C  -1.78500 19.95600 27.92900
C  -1.77000 21.32200 27.35400
C  -1.72300 21.14700 25.93300
C  -1.66600 19.69600 25.71900
C  -1.87000 22.61800 28.23000
C  -1.82200 22.23400 24.83800
O  -1.77900 21.94700 23.62000
C  -1.82500 23.71100 25.22000
N  -1.48000 16.71300 25.07700
C  -1.54200 17.74300 24.16000
C  -1.41700 17.25400 22.69600
C  -1.14000 15.74800 22.90500
C  -1.31000 15.57900 24.42700
C  -2.53300 17.62100 21.69700
C  0.15700 15.28800 22.26100
C  1.42700 16.05200 22.85300
N  -1.71000 14.99600 27.35700
C  -1.57900 13.98900 26.39400
C  -1.84000 12.73700 26.92800
C  -1.95800 12.96800 28.36700
C  -1.89100 14.34400 28.55400
C  -1.77400 11.40600 26.27600
C  -2.20500 12.29600 29.63800
O  -2.31300 11.10000 29.94500
C  -2.26500 13.46500 30.66200
C  -1.03500 13.34900 31.39500
O  0.02400 13.78000 31.10100
O  -1.28500 12.80300 32.62900
C  -0.17000 12.76500 33.60700
H  -2.04100 20.33700 30.07800
H  -1.61300 19.67200 23.58200
H  -1.10700 13.43800 24.40300
H  -3.55900 16.39100 32.04000
H  -1.58200 18.67500 31.84100
H  -4.13600 18.50600 32.70200
H  -4.47900 19.45700 31.21000
H  -3.16900 19.89900 32.37000
H  -0.55600 16.18800 32.50000
H  -1.87800 15.32600 33.13100
H  -2.49400 17.78200 34.29200
H  -0.76200 17.77800 34.24200
H  -2.88100 22.98500 28.05200
H  -1.24300 23.47100 27.97200
H  -1.83100 22.27700 29.26500
H  -0.86100 23.91300 25.68700
H  -2.59500 24.01600 25.92900
H  -1.95100 24.38300 24.37100
H  -0.55600 17.72900 22.22700
H  -2.01800 15.29500 22.44500
H  -3.13200 18.42200 22.12900
H  -3.28900 16.87800 21.44100
H  -2.13700 17.90300 20.72100
H  0.14000 15.30100 21.17100
H  0.36100 14.28800 22.64300
H  1.14200 16.83800 23.55300
H  2.08300 16.47200 22.09000
H  2.00900 15.36800 23.47000
H  -1.08900 10.78600 26.85400
H  -1.49100 11.50600 25.22800
H  -2.77000 10.96500 26.27600
H  -3.06100 13.41200 31.40500
H  0.30500 13.74400 33.56000
H  0.60600 12.01100 33.47400
H  -0.63900 12.66700 34.58600
Mg 52.85500 24.92100 45.53800
C  50.16100 27.04400 44.48300
C  51.00000 22.29800 44.41700
C  55.70100 23.16700 45.24900
C  54.64300 27.78200 46.19700
N  50.90000 24.74600 44.49600
C  49.90500 25.69400 44.23000
C  48.74700 24.99900 43.48700
C  48.77700 23.59000 44.17700
C  50.33900 23.53400 44.30600
C  47.95300 23.53800 45.47400
C  48.83800 25.15600 41.92700
C  47.61300 25.09600 41.05800
H  47.71300 24.32500 39.77300
N  53.24400 22.90000 45.15700
C  52.36000 22.02200 44.78200
C  52.99200 20.75800 44.86100
C  54.37100 20.90800 45.09300
C  54.48400 22.36200 45.18400
C  52.11200 19.48000 44.61300
C  55.37400 19.76900 45.19000
O  55.14400 18.60700 44.81000
C  56.68200 19.93800 45.89400
N  54.85200 25.39500 45.59800
C  55.85300 24.48600 45.48800
C  57.28100 25.08700 45.70100
C  56.93100 26.53800 46.10500
C  55.37800 26.60100 45.98100
C  58.07500 24.32800 46.72200
C  57.68700 27.63500 45.36500
C  58.31000 28.61200 46.35700
N  52.43800 26.94600 45.63800
C  53.20900 27.98600 45.87900
C  52.57600 29.21100 45.84400
C  51.39000 28.87000 45.21500
C  51.31400 27.48600 45.07400
C  52.96300 30.63000 46.28100
C  50.11100 29.45300 44.75100
O  49.77000 30.63000 44.84600
C  49.28000 28.25100 44.10800
C  49.21800 28.45900 42.61900
O  50.12200 28.69900 41.85300
O  47.84400 28.57900 42.30400
C  47.56500 29.12300 40.97900
H  50.33900 21.45400 44.20900
H  56.64200 22.61300 45.25700
H  55.26700 28.57900 46.60700
H  47.81500 25.42200 43.86200
H  48.46800 22.74700 43.55900
H  48.71200 23.62000 46.25200
H  47.35600 22.62600 45.45900
H  47.33100 24.42500 45.59700
H  49.54500 24.46300 41.46900
H  49.36800 26.10500 41.85200
H  47.39500 26.12000 40.75200
H  46.77500 24.73900 41.65600
H  51.10100 19.69000 44.26200
H  52.12100 18.93600 45.55700
H  52.64700 18.87400 43.88200
H  57.20000 18.98200 45.83600
H  56.59200 20.44100 46.85700
H  57.30000 20.66900 45.37300
H  57.67900 24.99100 44.69100
H  57.14800 26.56300 47.17200
H  59.11100 24.52800 46.44600
H  58.04700 23.24200 46.80600
H  57.74500 24.75800 47.66800
H  57.00500 28.10600 44.65600
H  58.46900 27.24000 44.71700
H  59.40000 28.57900 46.32800
H  58.01800 28.41500 47.38800
H  57.91900 29.60900 46.15200
H  53.84900 30.44400 46.88700
H  52.17700 31.05900 46.90300
H  53.21400 31.21400 45.39600
H  48.24100 28.21400 44.43400
H  46.48000 29.19500 40.90700
H  47.84000 28.50500 40.12500
H  47.74200 30.19700 40.91700

