158

Mg 44.57400 5.23000 48.46600
C  42.86900 8.14500 47.44100
C  41.69600 3.48800 47.79500
C  46.34300 2.35400 48.75000
C  47.47100 7.10300 48.91100
N  42.55500 5.74700 47.74600
C  42.10800 6.98600 47.37500
C  40.66200 6.98400 46.94300
C  40.23100 5.50100 47.22100
C  41.51600 4.85800 47.64100
C  39.04100 5.37200 48.22700
C  40.48900 7.34600 45.40000
C  39.34300 8.29700 45.18700
H  38.26200 7.99900 44.03800
N  44.11600 3.14700 48.25500
C  42.83900 2.67600 48.05800
C  42.91300 1.27800 48.04800
C  44.24000 0.84600 48.18700
C  44.98000 2.12500 48.34000
C  41.76700 0.43500 47.80800
C  44.70600 -0.57300 48.26400
O  43.91800 -1.48500 48.19200
C  46.10100 -0.82500 48.34900
N  46.62400 4.78200 48.71700
C  47.12500 3.52200 48.90700
C  48.70900 3.44400 49.12200
C  49.02200 4.97500 49.04300
C  47.59400 5.70300 48.93100
C  49.08300 2.80500 50.49400
C  50.05200 5.38200 47.88800
C  51.37500 6.04300 48.26000
N  45.10300 7.24700 48.33900
C  46.28500 7.87500 48.52400
C  46.13500 9.28200 48.34700
C  44.81600 9.36100 47.96800
C  44.21200 8.16000 47.93300
C  47.26100 10.25500 48.55500
C  43.81000 10.25500 47.40500
O  43.97200 11.43400 47.17400
C  42.52100 9.55800 47.09200
C  41.46700 10.15600 47.94700
O  41.16700 9.66900 49.05400
O  40.75900 11.11800 47.23300
C  39.43300 11.42700 47.79900
H  40.77900 3.00300 47.45600
H  47.08100 1.54900 48.78100
H  48.34600 7.75700 48.90200
H  40.02500 7.63500 47.54000
H  39.93200 4.99800 46.30100
H  39.35000 4.82500 49.11800
H  38.36800 4.79600 47.59200
H  38.64100 6.33200 48.55300
H  40.40200 6.41000 44.84800
H  41.40100 7.86400 45.10200
H  39.77400 9.29100 45.06400
H  38.80100 8.19800 46.12800
H  42.15400 -0.42000 47.25300
H  40.95100 0.92100 47.27300
H  41.40900 0.14700 48.79600
H  46.27100 -1.88700 48.52400
H  46.47400 -0.32100 49.24100
H  46.47200 -0.41300 47.41100
H  49.08400 2.87400 48.27200
H  49.52500 5.23900 49.97300
H  49.23600 1.74000 50.32100
H  48.33300 3.00800 51.25900
H  49.99600 3.22600 50.91600
H  49.57000 6.10600 47.23000
H  50.14700 4.43800 47.35200
H  52.23100 5.48600 47.88100
H  51.43600 6.14400 49.34400
H  51.38300 7.02200 47.78100
H  47.85300 9.93200 49.41100
H  46.83200 11.23900 48.74000
H  47.91500 10.27000 47.68300
H  42.34200 9.72700 46.03000
H  38.89400 10.48500 47.89300
H  38.79200 11.97000 47.10500
H  39.53300 11.93400 48.75900
Mg 6.92300 53.05800 40.31300
C  6.76500 49.66900 40.10900
C  10.29900 52.94800 39.94000
C  7.04000 56.50300 39.93300
C  3.48700 53.19900 40.49600
N  8.32500 51.49700 39.96100
C  8.07200 50.16100 39.93700
C  9.34500 49.31400 39.72900
C  10.45400 50.40800 39.83100
C  9.63000 51.71900 39.88300
C  11.34200 50.25100 41.04900
C  9.42100 48.57800 38.33500
C  9.25700 49.33400 36.97500
H  8.48500 50.73500 36.99200
N  8.46300 54.56500 39.98300
C  9.83800 54.27800 40.00100
C  10.62100 55.49700 39.89500
C  9.65000 56.60100 39.83600
C  8.35300 55.97400 39.93500
C  12.10600 55.55500 39.96100
C  10.03100 58.01400 39.62200
O  11.22100 58.22800 39.40300
C  9.05800 59.13100 39.65600
N  5.43500 54.65000 39.98200
C  5.72000 55.97800 39.98700
C  4.51300 56.81100 40.21300
C  3.39000 55.81000 40.52900
C  4.12900 54.44500 40.26800
C  4.70400 57.90200 41.29900
C  2.12300 56.01000 39.68800
C  0.69600 55.47600 40.32000
N  5.45000 51.74300 40.33600
C  4.04500 51.94400 40.56900
C  3.34400 50.68600 40.90000
C  4.43300 49.75900 40.82900
C  5.61300 50.44100 40.37100
C  1.91900 50.46800 41.40600
C  4.86300 48.38900 41.05900
O  4.24000 47.50200 41.59500
C  6.29300 48.22400 40.44200
C  6.11000 47.31300 39.23700
O  5.63900 47.65000 38.18700
O  6.37300 45.98700 39.59300
C  5.66700 45.05300 38.68100
H  11.37100 52.74100 39.91600
H  6.86700 57.56900 39.77000
H  2.45200 53.38200 40.79300
H  9.36400 48.64300 40.58800
H  11.13800 50.50300 38.98700
H  11.20200 49.32000 41.59800
H  11.24500 51.17800 41.61400
H  12.39700 50.19800 40.78100
H  8.72700 47.73800 38.29200
H  10.42800 48.16300 38.27900
H  8.49700 48.73200 36.47700
H  10.20200 49.31000 36.43200
H  12.59100 55.45400 38.99000
H  12.60000 54.75600 40.51400
H  12.46200 56.49600 40.38000
H  9.46100 60.14300 39.63000
H  8.31300 59.08400 40.45000
H  8.57900 59.06100 38.67900
H  4.37000 57.20400 39.20700
H  3.19100 55.73500 41.59800
H  4.93300 58.89600 40.91300
H  5.47400 57.65300 42.02900
H  3.79800 58.08900 41.87600
H  2.33700 55.48600 38.75600
H  1.96300 57.05800 39.43600
H  0.95300 54.95100 41.24000
H  0.19100 54.83100 39.60100
H  -0.02100 56.24000 40.62000
H  1.51400 49.54300 40.99700
H  1.41800 51.34100 40.98600
H  1.84700 50.42500 42.49300
H  6.99900 47.65900 41.05000
H  5.98900 45.17400 37.64700
H  4.58100 45.13900 38.67400
H  5.83100 44.04400 39.06000

