158

Mg 56.00300 23.36300 44.56900
C  53.83100 25.93400 43.13300
C  53.69700 21.09900 43.67500
C  58.27200 21.06000 45.25300
C  58.20500 25.93500 45.29300
N  53.99600 23.53400 43.46300
C  53.28400 24.65600 42.97000
C  51.91900 24.20900 42.36600
C  51.80200 22.72000 42.74200
C  53.23800 22.43900 43.41900
C  50.52400 22.42900 43.60900
C  51.68800 24.56300 40.85700
C  50.32800 25.18300 40.48200
H  49.81900 24.43800 39.23900
N  55.99800 21.35300 44.31700
C  54.93700 20.55700 44.00100
C  55.32100 19.16400 43.98700
C  56.66500 19.15000 44.53500
C  57.03400 20.58400 44.70000
C  54.47400 17.97700 43.63300
C  57.53900 17.87300 44.82600
O  57.03100 16.76000 44.84000
C  58.94800 17.90600 45.25600
N  58.02000 23.49200 44.91100
C  58.73600 22.36900 45.34700
C  60.03300 22.78500 45.88200
C  60.01500 24.32800 45.97400
C  58.63500 24.63700 45.41100
C  60.72400 22.10300 47.15500
C  61.08500 25.17100 45.26700
C  61.77200 26.21900 46.13800
N  55.94200 25.48000 44.54600
C  56.95000 26.40900 44.88100
C  56.49800 27.75200 44.70600
C  55.26000 27.63600 44.06200
C  55.04300 26.19100 43.87000
C  57.14500 29.01900 45.10600
C  54.22400 28.37000 43.49300
O  53.92700 29.55600 43.51900
C  53.26000 27.30800 42.84400
C  53.26200 27.63800 41.39800
O  54.13600 27.29800 40.64200
O  52.14900 28.26600 41.02800
C  51.77200 28.31300 39.58200
H  52.88400 20.39100 43.50100
H  59.07800 20.43600 45.64600
H  58.87000 26.69100 45.71500
H  51.24300 24.86500 42.91300
H  51.67600 22.11000 41.84700
H  50.69600 22.68700 44.65400
H  50.46800 21.34300 43.54100
H  49.61700 22.90500 43.23600
H  51.80800 23.67600 40.23500
H  52.48100 25.25000 40.56200
H  50.32600 26.27300 40.48500
H  49.78200 24.91500 41.38600
H  53.47300 18.32800 43.38000
H  54.36600 17.38200 44.54000
H  54.82800 17.43500 42.75600
H  59.01200 18.46100 46.19100
H  59.50300 18.40100 44.45900
H  59.32800 16.89700 45.41700
H  60.70600 22.61400 45.04200
H  60.06100 24.60300 47.02800
H  60.22700 21.15200 47.34600
H  60.97800 22.76100 47.98500
H  61.69000 21.90900 46.69000
H  60.68300 25.63400 44.36600
H  61.90100 24.49100 45.02500
H  61.84700 25.88700 47.17400
H  61.21900 27.13500 46.34500
H  62.78900 26.47600 45.84400
H  56.43800 29.84900 45.11600
H  58.05600 29.12900 44.51800
H  57.52700 28.92900 46.12300
H  52.25100 27.34600 43.25700
H  52.61000 28.84400 39.13100
H  50.87400 28.88300 39.34500
H  51.74600 27.37000 39.03500
Mg -5.03000 25.41700 25.93800
C  -4.11300 26.85100 28.84900
C  -6.92700 23.09600 27.80700
C  -5.34100 23.46500 23.18100
C  -3.03700 27.63100 24.15600
N  -5.55600 25.03100 28.05600
C  -5.09700 25.84300 29.03400
C  -5.91200 25.63200 30.33400
C  -6.70300 24.31100 30.02900
C  -6.35800 24.08500 28.55000
C  -6.43600 23.11600 30.93800
C  -6.75700 26.86100 30.76600
C  -6.60100 27.27700 32.24400
H  -6.04100 26.28000 33.28600
N  -6.01900 23.48900 25.48900
C  -6.82400 22.80900 26.37600
C  -7.46100 21.71300 25.62200
C  -6.96100 21.78000 24.30600
C  -6.01700 22.87200 24.31700
C  -8.50600 20.77600 26.25800
C  -7.28400 20.93100 23.10100
O  -6.82400 21.15600 22.00400
C  -8.26500 19.75200 23.26800
N  -4.30100 25.46900 23.99500
C  -4.50900 24.54500 22.98900
C  -3.86400 24.98100 21.65900
C  -3.37500 26.44700 21.96700
C  -3.66500 26.56500 23.46300
C  -2.76600 23.95900 21.12300
C  -4.05500 27.55500 21.18100
C  -5.56400 27.70300 21.42200
N  -3.85100 26.95600 26.34200
C  -3.13400 27.79700 25.50600
C  -2.45600 28.71000 26.31200
C  -2.81600 28.45100 27.61800
C  -3.68200 27.35400 27.59200
C  -1.62200 29.78500 25.79500
C  -2.63900 28.88900 28.94300
O  -1.93500 29.76700 29.48000
C  -3.45600 27.76800 29.84300
C  -2.69800 27.16300 31.02200
O  -2.02200 26.15700 30.98300
O  -2.87400 28.00800 32.13400
C  -2.23500 27.69300 33.40600
H  -7.46800 22.33500 28.37400
H  -5.52800 22.97200 22.22400
H  -2.31700 28.25400 23.62000
H  -5.07800 25.48000 31.01900
H  -7.76200 24.56100 30.10000
H  -7.32800 22.72700 31.42700
H  -5.72100 23.46600 31.68400
H  -6.01000 22.27800 30.38600
H  -7.79400 26.69800 30.47100
H  -6.28000 27.66600 30.20900
H  -7.60200 27.56800 32.56000
H  -5.80200 28.01900 32.24500
H  -8.24600 19.72900 26.10900
H  -9.52500 20.88900 25.88800
H  -8.40900 20.90400 27.33600
H  -7.80900 18.91800 23.80200
H  -8.57600 19.35800 22.30000
H  -9.21100 20.11300 23.67000
H  -4.72900 25.05500 21.00000
H  -2.31100 26.67700 21.90400
H  -3.15700 23.23500 20.40800
H  -2.46300 23.34900 21.97500
H  -1.93600 24.42700 20.59500
H  -4.00000 27.44800 20.09800
H  -3.55600 28.47600 21.48400
H  -6.15800 27.67100 20.50900
H  -5.56400 28.72400 21.80400
H  -6.04300 27.01800 22.12200
H  -0.79200 29.39200 25.20900
H  -1.22800 30.19400 26.72500
H  -2.26000 30.48500 25.25400
H  -4.22900 28.42100 30.24900
H  -1.19700 28.02400 33.43700
H  -2.29000 26.64300 33.69100
H  -2.75500 28.21200 34.21200

