158

Mg 47.68500 24.99100 29.16700
C  48.43700 27.41600 31.79500
C  46.23600 23.08800 31.46600
C  47.27000 22.83900 26.71100
C  49.34600 27.30600 27.04200
N  47.55300 25.19900 31.42100
C  47.82500 26.24300 32.21000
C  47.39400 25.94600 33.75100
C  46.83200 24.51500 33.55700
C  46.88000 24.17500 32.09600
C  47.38600 23.42300 34.52600
C  46.52400 27.05600 34.35700
C  46.80800 27.58900 35.78000
H  47.17900 26.57600 36.89300
N  46.86100 23.22700 29.07900
C  46.26100 22.58600 30.14800
C  45.60500 21.35800 29.61700
C  45.75300 21.42600 28.24700
C  46.61100 22.53400 27.93200
C  44.85500 20.41400 30.49900
C  45.21300 20.50700 27.21600
O  45.42200 20.62500 26.02200
C  44.39700 19.18100 27.58200
N  48.35100 25.06400 27.21700
C  48.01200 23.99900 26.37100
C  48.60300 24.20300 24.96700
C  49.05800 25.72400 25.02600
C  48.97500 26.06100 26.49100
C  49.75500 23.14700 24.72400
C  48.29300 26.77500 24.22000
C  49.11500 27.59700 23.22600
N  48.55300 27.10100 29.32500
C  49.28900 27.80700 28.36900
C  49.75200 29.07800 28.89600
C  49.39900 28.96300 30.30100
C  48.73500 27.72700 30.48600
C  50.26700 30.24000 28.10700
C  49.46400 29.63300 31.58000
O  49.98300 30.69000 31.90100
C  48.86000 28.55000 32.65600
C  49.91100 28.25400 33.73700
O  50.70300 27.35700 33.83200
O  49.87400 29.32700 34.57400
C  50.72200 29.32700 35.78000
H  45.77400 22.40600 32.18300
H  47.13700 22.14800 25.87600
H  49.75400 28.04800 26.35200
H  48.40800 25.96000 34.15200
H  45.75300 24.59400 33.69100
H  47.74600 22.60900 33.89700
H  46.61900 23.03500 35.19700
H  48.17500 23.75300 35.20100
H  45.53800 26.60000 34.27200
H  46.44800 27.85700 33.62200
H  45.84800 27.98500 36.11100
H  47.45400 28.45500 35.92200
H  43.78600 20.33100 30.30200
H  44.76900 20.76200 31.52900
H  45.24500 19.40400 30.62800
H  43.48500 19.33500 28.15900
H  45.00800 18.47700 28.14700
H  44.12100 18.79100 26.60300
H  47.84500 24.17000 24.18300
H  50.09000 25.70100 24.67600
H  50.06400 22.75000 25.69100
H  50.72500 23.48900 24.36400
H  49.25700 22.44000 24.06100
H  47.85100 27.45700 24.94700
H  47.44200 26.33700 23.69800
H  48.75100 27.38100 22.22200
H  50.17600 27.39900 23.38100
H  48.98800 28.65600 23.44700
H  50.48500 30.03200 27.06000
H  51.20400 30.57300 28.55200
H  49.59100 31.07400 28.29700
H  47.93500 28.95000 33.07200
H  51.74600 29.01800 35.56600
H  50.30800 28.59400 36.47100
H  50.75600 30.33400 36.19500
Mg 42.80300 41.23900 25.99900
C  41.91700 43.62500 28.48600
C  44.04900 39.35700 28.61300
C  43.65500 39.09400 23.77600
C  41.86400 43.57500 23.64200
N  42.85500 41.43400 28.40400
C  42.46100 42.46000 29.11700
C  42.49300 42.00200 30.62200
C  43.69900 40.99600 30.57800
C  43.53800 40.52300 29.11100
C  45.08200 41.71100 30.75800
C  41.01700 41.65100 31.12000
C  40.70100 42.19500 32.53300
H  41.69300 41.91800 33.69200
N  43.61700 39.43300 26.16000
C  44.03600 38.81200 27.33500
C  44.53700 37.47100 26.94100
C  44.36400 37.34300 25.52700
C  43.87300 38.60000 25.04800
C  45.02200 36.55600 27.90400
C  44.65200 36.10100 24.67600
O  44.68500 36.10700 23.43800
C  44.80700 34.73300 25.42600
N  42.84200 41.25300 23.98100
C  43.22800 40.30800 23.20800
C  43.02100 40.56300 21.76500
C  42.36600 41.99800 21.76000
C  42.35100 42.32400 23.20700
C  44.32700 40.45100 20.87000
C  40.97500 42.11400 21.13900
C  39.84800 41.38800 21.86300
N  42.08600 43.24400 25.95500
C  41.80300 44.09900 24.89700
C  41.30900 45.37400 25.36000
C  41.33600 45.16700 26.76500
C  41.82400 43.86700 27.08900
C  41.10000 46.62900 24.59200
C  41.00100 45.84300 27.93100
O  40.62700 47.01900 28.15600
C  41.28500 44.85700 29.12700
C  42.15500 45.50700 30.13400
O  43.27500 45.88700 29.89400
O  41.54800 45.31600 31.31400
C  42.48700 45.45900 32.44600
H  44.50500 38.73100 29.38300
H  43.68500 38.33000 22.99700
H  41.40100 44.23000 22.90100
H  42.65700 42.94400 31.14600
H  43.55800 40.09000 31.16700
H  45.52200 41.41600 31.71100
H  44.95000 42.79200 30.75300
H  45.73900 41.53800 29.90600
H  41.03900 40.56500 31.20500
H  40.21800 41.85400 30.40800
H  39.73500 41.76300 32.79600
H  40.46400 43.25900 32.52300
H  44.97000 36.95600 28.91700
H  46.05400 36.42100 27.57800
H  44.45100 35.62900 27.94600
H  43.91700 34.46400 25.99400
H  45.64800 34.83100 26.11300
H  45.10500 33.93000 24.75200
H  42.19000 39.94500 21.42500
H  42.98000 42.71900 21.21900
H  44.14100 39.72200 20.08100
H  45.15100 40.23300 21.55000
H  44.52000 41.41900 20.40900
H  41.13900 41.72200 20.13500
H  40.75200 43.17600 21.03300
H  39.14500 42.15200 22.19500
H  40.12100 40.86700 22.78100
H  39.41500 40.70300 21.13400
H  41.35600 47.40900 25.30900
H  40.02200 46.74600 24.48700
H  41.75000 46.85500 23.74600
H  40.27500 44.74800 29.52000
H  41.98100 45.20700 33.37900
H  42.58900 46.54400 32.48400
H  43.40700 44.87600 32.41400

