158

Mg 35.45900 1.64800 29.53900
C  33.58100 2.96500 32.03400
C  38.26800 1.79000 31.68500
C  37.54900 0.84100 27.00400
C  32.88800 2.20300 27.25000
N  35.86100 2.17500 31.65000
C  34.86900 2.64800 32.43900
C  35.37800 2.57700 33.89000
C  36.90100 2.60700 33.77000
C  37.07700 2.22000 32.29100
C  37.49700 3.92000 34.17300
C  34.77600 1.35200 34.70300
C  34.18100 1.84500 36.05600
H  34.70000 3.06800 36.75300
N  37.58000 1.30500 29.34100
C  38.51600 1.31800 30.38200
C  39.74000 0.75900 29.95500
C  39.58900 0.41300 28.58700
C  38.20800 0.86400 28.22400
C  40.89300 0.58900 30.93300
C  40.62500 -0.07700 27.60600
O  40.34100 -0.25900 26.45900
C  41.98300 -0.27300 28.02800
N  35.33300 1.70600 27.33300
C  36.27200 1.12500 26.58700
C  35.74500 0.96200 25.19200
C  34.18200 1.07800 25.33200
C  34.15100 1.75200 26.70300
C  36.32900 2.00800 24.16500
C  33.36300 -0.24500 25.32200
C  32.36600 -0.34900 24.14500
N  33.57300 2.39700 29.59000
C  32.60000 2.50800 28.59500
C  31.43400 3.02100 29.17800
C  31.76900 3.26600 30.50900
C  33.05700 2.81800 30.71400
C  30.10800 3.26900 28.49600
C  31.24100 3.82100 31.70200
O  30.13900 4.23800 32.07000
C  32.39300 3.53000 32.81300
C  32.59300 4.87600 33.51200
O  33.42200 5.66300 33.19000
O  31.76300 5.02200 34.62200
C  31.86900 6.30700 35.43000
H  39.06000 1.84000 32.43400
H  38.07800 0.43300 26.14100
H  32.06800 2.07500 26.54000
H  35.02600 3.48800 34.37300
H  37.37300 1.81800 34.35500
H  38.48300 3.71000 34.58700
H  36.96200 4.49800 34.92600
H  37.60800 4.58600 33.31700
H  35.58200 0.63100 34.84400
H  34.04800 0.75400 34.15500
H  34.31900 0.99200 36.72000
H  33.10600 1.99300 35.95600
H  40.66900 0.62400 31.99900
H  41.55200 1.44200 30.77200
H  41.40600 -0.37300 30.95100
H  42.56200 -0.70500 27.21300
H  41.92000 -1.03300 28.80700
H  42.41600 0.59000 28.53400
H  35.94300 -0.05300 24.84800
H  33.77400 1.71600 24.54900
H  35.62500 2.78300 23.86100
H  36.74200 1.39300 23.36600
H  37.17300 2.55200 24.58900
H  32.83500 -0.31000 26.27300
H  33.98700 -1.13000 25.19900
H  32.60300 -1.14000 23.43400
H  32.39100 0.55600 23.53700
H  31.39000 -0.50800 24.60200
H  29.81700 4.22200 28.93600
H  29.47500 2.41900 28.75100
H  30.15500 3.45000 27.42200
H  31.99900 2.86300 33.58100
H  30.81100 6.50300 35.60100
H  32.16100 7.19100 34.86200
H  32.38700 6.19300 36.38200
Mg 41.34200 8.35600 29.83500
C  43.21200 9.67400 32.48500
C  38.87800 7.37800 32.04900
C  39.69800 6.93900 27.24400
C  43.95200 9.19000 27.65200
N  41.13900 8.54400 32.06000
C  41.98300 9.20200 32.95200
C  41.31400 9.21000 34.29000
C  40.06300 8.19200 34.15900
C  40.00600 7.97000 32.63700
C  40.12200 6.89500 35.08300
C  40.89000 10.61800 34.82600
C  40.70000 10.88200 36.30500
H  41.23800 12.25000 36.87000
N  39.55800 7.27500 29.71100
C  38.63000 7.01300 30.71900
C  37.46100 6.31200 30.18500
C  37.73700 6.16800 28.82200
C  39.06400 6.79900 28.51100
C  36.32300 5.86800 31.04700
C  36.73000 5.68500 27.69700
O  37.00100 5.74500 26.51400
C  35.43600 5.18700 28.18200
N  41.71000 8.22300 27.70300
C  40.90400 7.51000 26.84500
C  41.42800 7.63400 25.32900
C  42.67300 8.57800 25.57000
C  42.84100 8.62000 27.06100
C  41.71400 6.25900 24.60100
C  42.56500 9.99500 24.95300
C  43.77300 10.68000 24.31500
N  43.21600 9.32300 29.98700
C  44.17600 9.53700 29.01000
C  45.26900 10.22100 29.63100
C  45.05200 10.18300 30.97900
C  43.80000 9.63400 31.15800
C  46.41400 10.79300 28.94500
C  45.55600 10.49100 32.29700
O  46.63500 10.95700 32.62200
C  44.41200 10.15800 33.31900
C  44.94800 9.18600 34.18500
O  45.20200 7.98200 33.87200
O  45.31200 9.74000 35.35900
C  46.18200 8.92100 36.27900
H  38.05400 7.27900 32.75900
H  39.13900 6.47900 26.42700
H  44.67600 9.52500 26.90600
H  41.93800 8.82200 35.09600
H  39.14300 8.70200 34.44400
H  40.13200 5.94300 34.55200
H  39.41800 6.90700 35.91600
H  41.01400 6.87300 35.70800
H  39.92000 10.80500 34.36500
H  41.75600 11.22100 34.55200
H  41.24200 10.08000 36.80500
H  39.63400 10.74600 36.48800
H  36.48100 5.97300 32.12000
H  36.05000 4.81300 31.00500
H  35.45700 6.43100 30.69800
H  35.52500 4.21600 28.66700
H  34.77000 4.94800 27.35300
H  34.84100 5.87100 28.78900
H  40.65200 8.18700 24.80000
H  43.56000 8.14100 25.11100
H  42.72800 6.27000 24.20200
H  41.01000 5.91900 23.84100
H  41.73100 5.48600 25.36900
H  42.15200 10.68000 25.69400
H  41.74000 9.92300 24.24400
H  44.17300 11.52700 24.87200
H  43.41500 10.98300 23.33100
H  44.49800 9.87600 24.18700
H  46.54200 11.87200 29.03200
H  46.38800 10.65900 27.86300
H  47.32800 10.43800 29.42100
H  44.25800 11.03500 33.94800
H  46.60800 9.55700 37.05500
H  46.93700 8.30700 35.78800
H  45.46400 8.27500 36.78400

