158

Mg -13.53600 38.03600 41.89100
C  -11.10700 35.63900 41.24700
C  -11.40600 40.46900 40.56300
C  -15.84900 40.28900 42.40600
C  -15.83600 35.41900 42.30200
N  -11.55200 37.92600 40.71200
C  -10.69300 36.89300 40.67900
C  -9.34900 37.27600 40.13600
C  -9.36200 38.82300 40.38400
C  -10.89800 39.11500 40.53600
C  -8.53100 39.28700 41.65200
C  -9.12100 36.84000 38.67400
C  -7.91900 35.92900 38.34800
H  -6.91100 36.55700 37.37800
N  -13.63200 40.19400 41.49100
C  -12.66400 41.01200 41.00400
C  -13.13400 42.37100 41.14600
C  -14.39400 42.31000 41.71800
C  -14.66600 40.89200 41.91700
C  -12.37100 43.58600 40.60800
C  -15.24300 43.49900 42.00900
O  -14.89600 44.60700 41.65200
C  -16.37900 43.29400 42.95600
N  -15.63300 37.89500 41.97200
C  -16.33700 38.94300 42.42100
C  -17.73800 38.54200 42.93100
C  -17.70600 36.99300 42.87700
C  -16.32400 36.71300 42.29300
C  -18.01500 39.06800 44.38700
C  -18.93000 36.34700 42.03600
C  -18.69100 36.14800 40.57700
N  -13.51300 35.94500 42.02200
C  -14.48900 35.03800 42.27900
C  -13.88000 33.77100 42.43400
C  -12.55000 33.88200 42.03300
C  -12.39800 35.29000 41.79500
C  -14.59100 32.41700 42.67600
C  -11.29300 33.24500 41.68900
O  -10.89200 32.09200 41.60000
C  -10.29700 34.34200 41.36500
C  -9.23600 34.37900 42.37700
O  -9.42600 34.18800 43.55600
O  -7.99000 34.46000 41.78600
C  -6.81600 34.16300 42.63800
H  -10.57200 41.14900 40.37900
H  -16.65800 40.86300 42.86400
H  -16.46300 34.59400 42.64600
H  -8.65600 36.77200 40.80900
H  -9.08400 39.38100 39.49100
H  -8.11600 38.39700 42.12600
H  -9.07200 39.82000 42.43300
H  -7.73400 39.89500 41.22400
H  -9.17500 37.73900 38.06100
H  -9.87400 36.15500 38.28400
H  -8.31200 34.97600 37.99300
H  -7.29300 35.79300 39.23000
H  -11.42200 43.22100 40.21300
H  -11.98500 44.20900 41.41500
H  -12.89100 44.14600 39.83000
H  -17.17000 42.78100 42.40900
H  -16.84100 44.25800 43.16900
H  -15.94300 42.81900 43.83500
H  -18.51000 38.85900 42.23000
H  -17.74600 36.57600 43.88300
H  -17.16600 39.65600 44.73400
H  -18.05600 38.31100 45.16900
H  -18.88600 39.71800 44.47400
H  -19.82300 36.94400 42.22000
H  -19.30100 35.40300 42.43500
H  -18.64300 35.06300 40.48300
H  -17.72400 36.50600 40.22500
H  -19.50200 36.56900 39.98200
H  -13.78300 31.89200 43.18600
H  -14.78000 31.94500 41.71200
H  -15.47900 32.42600 43.30900
H  -9.83900 34.19900 40.38600
H  -5.96800 34.00400 41.97200
H  -6.93900 33.26600 43.24500
H  -6.57600 35.05700 43.21400
Mg -3.12900 35.36300 26.51400
C  -4.65000 33.59000 29.09200
C  -1.76000 37.48600 28.88300
C  -1.83200 37.27000 24.00700
C  -4.88700 33.42800 24.17500
N  -3.32200 35.63000 28.75200
C  -3.81400 34.61600 29.58100
C  -3.52500 34.95800 31.09700
C  -2.72400 36.33000 30.93600
C  -2.63800 36.49400 29.42800
C  -3.53500 37.51500 31.55900
C  -2.65800 33.78000 31.78000
C  -3.37500 33.12200 32.99300
H  -2.55800 32.93000 34.25600
N  -2.00000 37.23200 26.44900
C  -1.53400 37.86300 27.54500
C  -0.50000 38.84000 27.10800
C  -0.36300 38.63400 25.67900
C  -1.40400 37.67500 25.31800
C  0.23400 39.76900 28.12800
C  0.55600 39.30500 24.71500
O  0.54300 39.11600 23.52800
C  1.63500 40.17200 25.25300
N  -3.48800 35.48400 24.40600
C  -2.72800 36.28300 23.58600
C  -2.88000 35.94500 22.08200
C  -3.70800 34.61300 22.15500
C  -4.05900 34.46700 23.67000
C  -3.49900 37.09600 21.32700
C  -3.06900 33.34000 21.50800
C  -1.97700 32.60300 22.33500
N  -4.44100 33.77500 26.59200
C  -5.14800 33.11600 25.49400
C  -5.83100 31.97200 26.03600
C  -5.66500 32.10800 27.46800
C  -4.89800 33.26000 27.71400
C  -6.54800 30.90600 25.20300
C  -6.09300 31.58600 28.75500
O  -6.85900 30.63300 29.09200
C  -5.48400 32.59500 29.87500
C  -6.53900 33.09200 30.76600
O  -7.45900 33.85600 30.46400
O  -6.51300 32.35000 31.92200
C  -7.32700 32.75700 33.06400
H  -1.09400 37.95100 29.61300
H  -1.25100 37.78900 23.24300
H  -5.30900 32.78600 23.39900
H  -4.42300 35.17200 31.67700
H  -1.74800 36.27300 31.41800
H  -2.81900 38.04800 32.18300
H  -4.39200 37.22600 32.16800
H  -3.83700 38.25300 30.81500
H  -1.76000 34.17200 32.25600
H  -2.35800 33.01500 31.06400
H  -3.70500 32.15600 32.61200
H  -4.24300 33.68300 33.33900
H  -0.34500 39.92000 29.03900
H  0.33000 40.81900 27.85300
H  1.20300 39.29700 28.29100
H  2.30200 40.49500 24.45400
H  2.14900 39.69000 26.08400
H  1.35300 41.14300 25.65900
H  -1.98400 35.61600 21.55500
H  -4.60500 34.79400 21.56400
H  -3.57900 37.95000 21.99900
H  -4.53100 36.89700 21.03600
H  -2.82100 37.34500 20.51100
H  -2.56800 33.62100 20.58200
H  -3.89100 32.64000 21.35900
H  -1.86200 31.55500 22.05900
H  -2.25500 32.51500 23.38500
H  -1.03800 33.13900 22.19700
H  -6.25700 29.94300 25.62300
H  -6.50000 30.88400 24.11400
H  -7.57700 31.15300 25.46600
H  -4.74000 32.01500 30.42100
H  -6.79300 33.49500 33.66300
H  -7.52100 31.84100 33.62200
H  -8.28000 33.17200 32.73400

