158

Mg 0.96700 -1.60400 44.35300
C  3.91200 -0.28100 43.22500
C  -0.72900 0.93000 42.70500
C  -1.99300 -3.29800 44.74400
C  2.80200 -4.37800 45.43200
N  1.55700 0.01300 43.00800
C  2.81100 0.44600 42.70900
C  2.83500 1.88800 42.16300
C  1.38200 2.32000 42.21000
C  0.66400 1.04800 42.71000
C  1.26000 3.53500 43.16200
C  3.61000 1.95300 40.73000
C  4.78100 2.91100 40.64200
H  5.71400 2.55900 39.56400
N  -1.07600 -1.19800 43.95000
C  -1.51700 -0.12800 43.24000
C  -2.95800 -0.19200 43.17700
C  -3.37200 -1.43800 43.70200
C  -2.14000 -2.06200 44.18300
C  -3.66500 0.84700 42.39200
C  -4.76400 -1.96200 43.71300
O  -5.65000 -1.31600 43.18700
C  -5.07000 -3.19800 44.49400
N  0.43400 -3.41400 45.20300
C  -0.80500 -3.97200 45.14900
C  -0.79200 -5.50400 45.29000
C  0.74500 -5.84700 45.40100
C  1.39400 -4.46300 45.38800
C  -1.65800 -6.06700 46.55600
C  1.33600 -6.80700 44.33600
C  2.58700 -7.65600 44.74600
N  2.93200 -2.24500 44.47000
C  3.57200 -3.26900 45.00300
C  4.99600 -3.18200 44.96800
C  5.18300 -1.96400 44.33100
C  3.86000 -1.47400 43.99100
C  6.02900 -4.22500 45.48500
C  6.18600 -1.09400 43.68700
O  7.41500 -1.18200 43.58700
C  5.35700 0.14600 43.12600
C  5.78000 1.26300 44.03300
O  5.43600 1.43900 45.24500
O  6.81400 2.12300 43.42000
C  7.19400 3.19400 44.27700
H  -1.30000 1.82500 42.44900
H  -2.75300 -4.08200 44.73900
H  3.45000 -5.20500 45.72800
H  3.36800 2.55600 42.84000
H  0.83800 2.60000 41.30700
H  0.21200 3.83000 43.11700
H  1.98000 4.27700 42.81600
H  1.52300 3.29600 44.19200
H  2.95900 2.31400 39.93500
H  3.93500 0.95800 40.42800
H  5.34900 2.81300 41.56700
H  4.42400 3.93200 40.50500
H  -3.83100 1.65200 43.10700
H  -4.59100 0.46200 41.96400
H  -3.07600 1.14800 41.52600
H  -4.72900 -4.00100 43.84100
H  -6.15300 -3.23900 44.60900
H  -4.54500 -3.05000 45.43800
H  -1.20800 -5.88200 44.35600
H  1.00300 -6.12000 46.42400
H  -2.02300 -5.22600 47.14500
H  -0.93300 -6.67100 47.10100
H  -2.50200 -6.71100 46.30900
H  1.64300 -6.18800 43.49300
H  0.47900 -7.42200 44.06100
H  3.40800 -7.39800 44.07700
H  2.32700 -8.68900 44.51400
H  2.92100 -7.44600 45.76200
H  7.02200 -3.86300 45.21800
H  5.91900 -5.21100 45.03300
H  5.87400 -4.22800 46.56300
H  5.75900 0.37700 42.14000
H  6.31200 3.67700 44.69700
H  7.80200 3.94800 43.77600
H  7.78000 2.80600 45.11000
Mg 43.47700 42.54500 26.35700
C  42.44700 44.54400 28.89400
C  44.91500 40.50400 28.67800
C  44.83600 40.77200 23.82900
C  42.52100 44.95500 23.99200
N  43.53000 42.52700 28.57900
C  42.89900 43.34600 29.44700
C  43.03800 42.99200 30.93900
C  44.16300 41.81700 30.74000
C  44.20900 41.56500 29.25300
C  45.54900 42.19800 31.36400
C  41.66800 42.45900 31.61500
C  41.78000 41.92900 33.01900
H  40.93600 42.59000 34.12300
N  44.47800 40.72100 26.32400
C  45.10300 40.15200 27.30900
C  45.71100 38.95100 26.87200
C  45.50300 38.83700 25.43500
C  44.90100 40.14000 25.11300
C  46.44300 37.96200 27.81800
C  45.87000 37.74900 24.35900
O  45.52900 37.75400 23.18000
C  46.54000 36.43900 24.91900
N  43.77400 42.87700 24.27500
C  44.31500 41.94000 23.39900
C  44.29500 42.37000 21.98200
C  43.32200 43.56400 22.00100
C  43.19000 43.83100 23.48100
C  45.71100 42.71900 21.62800
C  42.04900 43.35500 21.12600
C  40.77500 42.70700 21.74600
N  42.68500 44.41000 26.41000
C  42.36900 45.29300 25.37600
C  41.84400 46.50500 25.88600
C  41.88200 46.23900 27.30800
C  42.33800 44.96300 27.53900
C  41.32900 47.69500 25.13300
C  41.40800 46.85500 28.55100
O  40.98600 48.00400 28.78600
C  41.75600 45.72400 29.59300
C  42.64100 46.35900 30.56300
O  43.86000 46.49500 30.46100
O  41.84300 46.84400 31.65900
C  42.60400 47.42100 32.81900
H  45.26700 39.88400 29.50500
H  45.20800 40.12900 23.02800
H  42.20400 45.68400 23.24300
H  43.44500 43.76700 31.58900
H  43.79900 40.88600 31.17400
H  45.64400 43.24300 31.65800
H  46.33000 42.13300 30.60700
H  45.82000 41.55100 32.19900
H  41.25400 41.62100 31.05400
H  40.98600 43.30200 31.72400
H  42.78400 41.90600 33.44200
H  41.57900 40.86300 32.90800
H  47.34400 37.61400 27.31400
H  45.77300 37.10700 27.91500
H  46.63000 38.19500 28.86600
H  47.53700 36.70600 25.26900
H  46.67100 35.71900 24.11100
H  45.86400 36.07200 25.69200
H  43.89000 41.56900 21.36200
H  43.87700 44.42200 21.62400
H  46.07600 43.72800 21.81600
H  45.83300 42.63600 20.54800
H  46.38600 42.01100 22.10900
H  42.29100 42.84400 20.19400
H  41.86900 44.38500 20.81800
H  39.96400 43.43500 21.72600
H  40.98700 42.47400 22.78900
H  40.47800 41.75100 21.31500
H  41.70100 47.63100 24.11100
H  41.62000 48.54200 25.75400
H  40.23900 47.65900 25.13300
H  40.77000 45.40100 29.92700
H  43.66300 47.59800 32.63100
H  42.51200 46.77900 33.69500
H  41.97400 48.30300 32.93100

