158

Mg 46.65500 46.39800 44.12500
C  43.46900 45.16700 43.34600
C  47.96500 43.39900 43.09000
C  49.68300 47.79400 44.21700
C  45.27000 49.56100 44.66700
N  45.76100 44.56300 43.24200
C  44.41400 44.23200 43.05600
C  44.22400 42.77000 42.50900
C  45.67900 42.18300 42.79800
C  46.57700 43.42600 43.02200
C  45.61200 41.25500 44.07300
C  43.87100 42.79100 40.95500
C  42.69800 41.89900 40.54900
H  42.63400 41.48000 39.05800
N  48.60400 45.74000 43.67500
C  48.92100 44.42500 43.31400
C  50.30100 44.23900 43.26100
C  50.87400 45.50000 43.60300
C  49.68900 46.47300 43.85100
C  51.02500 42.90700 42.92500
C  52.29300 45.74000 43.68500
O  53.14900 44.86000 43.45700
C  52.77700 47.06700 44.20700
N  47.31100 48.42500 44.25900
C  48.61500 48.70100 44.40400
C  48.85700 50.21800 44.52900
C  47.42300 50.76600 44.61000
C  46.62100 49.45700 44.62500
C  49.67500 50.58300 45.79800
C  47.07300 51.67600 43.35700
C  46.03600 52.79100 43.68200
N  44.73400 47.26200 44.07100
C  44.28600 48.54900 44.43200
C  42.82700 48.50200 44.37500
C  42.46800 47.19200 43.92200
C  43.69900 46.47400 43.79000
C  41.85800 49.61300 44.70300
C  41.42200 46.28100 43.50100
O  40.18100 46.41800 43.40000
C  42.02100 45.01900 43.15800
C  41.49200 44.00000 44.05600
O  41.07900 42.88300 43.62200
O  41.44900 44.39500 45.40600
C  40.54400 43.50400 46.16500
H  48.34800 42.39300 42.90200
H  50.64400 48.31200 44.26800
H  44.80900 50.51900 44.91700
H  43.48300 42.33900 43.18200
H  46.04800 41.61600 41.94400
H  44.68600 41.26100 44.64900
H  46.44700 41.58700 44.69000
H  45.72000 40.20800 43.78900
H  44.70800 42.63600 40.27400
H  43.54900 43.80100 40.70100
H  41.78200 42.46800 40.71400
H  42.61900 41.11900 41.30600
H  51.77100 42.91800 42.13000
H  50.39900 42.07400 42.60700
H  51.57800 42.49200 43.76700
H  53.86400 47.14200 44.23800
H  52.22400 47.23300 45.13200
H  52.49700 47.65000 43.32900
H  49.41000 50.61500 43.67800
H  47.27000 51.43300 45.45800
H  49.48200 49.98400 46.68800
H  49.50100 51.61400 46.10800
H  50.75500 50.55900 45.65100
H  46.69100 50.97100 42.61900
H  47.99500 52.15400 43.02500
H  46.36800 53.72400 43.22700
H  45.78700 52.89000 44.73900
H  45.09800 52.45400 43.24300
H  41.09900 49.34100 45.43700
H  41.25200 49.83500 43.82500
H  42.43200 50.43800 45.12700
H  41.75500 44.70200 42.15000
H  40.94900 42.49200 46.18400
H  39.48500 43.48000 45.90600
H  40.60000 43.78300 47.21700
Mg 6.67600 58.02400 41.24000
C  5.50900 54.62200 41.09100
C  9.67700 57.00400 40.44100
C  7.38700 61.18500 40.73400
C  3.29900 58.91100 41.86900
N  7.48600 56.00800 40.56300
C  6.83000 54.76000 40.70100
C  7.95100 53.64100 40.37700
C  9.36100 54.50100 40.64000
C  8.85400 55.92200 40.56600
C  10.11200 54.27200 41.93000
C  7.83900 53.14400 38.92200
C  8.42600 51.77400 38.60400
H  7.71000 50.83700 37.69900
N  8.26700 58.97000 40.61200
C  9.49300 58.35700 40.45000
C  10.46800 59.40500 40.09300
C  9.89800 60.66300 40.09000
C  8.46200 60.29100 40.42100
C  11.91200 59.04300 39.81100
C  10.57100 62.03900 39.75900
O  11.76200 62.06200 39.44800
C  9.85000 63.36200 39.88600
N  5.50200 59.77500 41.41600
C  6.16500 60.94400 41.21200
C  5.21900 62.08300 41.52300
C  3.82300 61.39700 41.41600
C  4.17500 59.93600 41.65100
C  5.41900 62.76100 42.87200
C  3.05200 61.68600 40.16300
C  1.55800 61.70800 40.36200
N  4.86800 57.06000 41.50000
C  3.56500 57.53200 41.78700
C  2.59200 56.35500 41.96100
C  3.35600 55.20600 41.83000
C  4.62900 55.68900 41.38900
C  1.19300 56.45900 42.42700
C  3.42400 53.79800 41.93700
O  2.47600 53.00100 42.13800
C  4.87000 53.29800 41.47500
C  4.73300 52.25200 40.43400
O  4.47000 52.48900 39.25500
O  4.88000 50.95800 41.00200
C  4.79400 49.86500 40.02900
H  10.75300 56.81900 40.41100
H  7.69400 62.23300 40.70900
H  2.28000 59.30400 41.88400
H  7.79300 52.79600 41.04700
H  10.03700 54.24600 39.82400
H  11.17700 54.31600 41.70100
H  9.79600 53.38700 42.48300
H  9.85700 55.06600 42.63100
H  8.30200 53.97300 38.38800
H  6.79800 53.20900 38.60400
H  8.52700 51.32600 39.59200
H  9.45900 51.86900 38.26800
H  11.90100 58.04200 39.38000
H  12.73500 59.13300 40.52000
H  12.23400 59.65300 38.96700
H  8.96300 63.34700 39.25200
H  10.38900 64.18700 39.42100
H  9.60900 63.61000 40.92000
H  5.34700 62.84400 40.75400
H  3.11600 61.55600 42.23000
H  4.81800 63.65400 43.04400
H  6.48600 62.91300 43.03500
H  5.33300 62.02900 43.67500
H  3.35600 61.15700 39.26000
H  3.29500 62.72500 39.94100
H  0.97500 61.59700 39.44800
H  1.26900 62.68000 40.76100
H  1.23800 60.92700 41.05200
H  1.12800 56.14700 43.46900
H  0.42600 56.03500 41.78000
H  1.00100 57.53100 42.37900
H  5.44400 52.88900 42.30600
H  3.87600 49.33500 40.28200
H  5.61000 49.14600 40.09700
H  4.66700 50.27100 39.02500

