158

Mg 8.30400 3.20900 27.39500
C  9.47200 1.71700 30.32100
C  6.44400 5.35500 29.27000
C  6.85600 4.42200 24.59500
C  9.75700 0.74400 25.48100
N  7.91800 3.36800 29.63700
C  8.62100 2.80800 30.61200
C  8.48800 3.62900 31.96900
C  7.40500 4.72500 31.57100
C  7.28700 4.45900 30.05700
C  6.07800 4.73100 32.45800
C  9.76400 4.27800 32.46500
C  9.55300 4.85100 33.89600
H  10.48800 4.49700 35.09900
N  6.87200 4.74300 27.01200
C  6.25400 5.54800 27.87500
C  5.41900 6.53200 27.23100
C  5.47700 6.22000 25.82500
C  6.47500 5.08700 25.77400
C  4.57600 7.58900 27.94700
C  4.90700 6.84500 24.57600
O  5.21300 6.52700 23.41900
C  4.04800 8.12200 24.78000
N  8.36700 2.70800 25.30200
C  7.69400 3.36600 24.31700
C  8.20700 2.87100 22.94100
C  9.01600 1.60800 23.30300
C  9.08600 1.73400 24.79500
C  7.04200 2.56000 21.88200
C  10.33400 1.66500 22.41100
C  10.17100 1.19000 20.94600
N  9.36300 1.53200 27.75400
C  9.87800 0.55800 26.88200
C  10.66400 -0.37600 27.62200
C  10.61300 0.12700 28.97700
C  9.71300 1.18000 28.98500
C  11.49900 -1.56600 27.14700
C  11.13200 0.01900 30.31800
O  12.07400 -0.67100 30.73800
C  10.48100 1.05100 31.22700
C  9.92100 0.52100 32.51200
O  8.78200 0.18600 32.66100
O  10.79900 0.72100 33.58400
C  10.32400 0.48300 34.93800
H  6.05300 6.16600 29.88800
H  6.66200 4.98700 23.68200
H  10.21900 0.04200 24.78400
H  8.07000 3.10700 32.83000
H  7.97500 5.64600 31.69400
H  5.20000 4.73000 31.81100
H  6.32200 5.68700 32.91900
H  6.07500 4.00500 33.27100
H  10.09300 5.06900 31.79200
H  10.50900 3.48400 32.52800
H  8.52300 4.68400 34.20900
H  9.68500 5.92800 33.79400
H  4.98500 8.53300 27.58800
H  4.73700 7.76300 29.01100
H  3.51100 7.67300 27.73200
H  4.56500 8.94500 25.27300
H  3.21200 7.79700 25.40000
H  3.72100 8.58300 23.84700
H  8.89600 3.56700 22.46400
H  8.50600 0.67100 23.08100
H  6.93900 1.51200 21.60300
H  7.01300 3.09500 20.93200
H  6.13900 2.80200 22.44200
H  11.16600 1.12800 22.86700
H  10.71700 2.68300 22.35400
H  9.29200 1.69400 20.54400
H  10.02600 0.11100 20.99300
H  11.14100 1.35400 20.47600
H  11.60200 -1.61800 26.06300
H  11.11500 -2.52100 27.50500
H  12.50500 -1.38900 27.52600
H  11.34000 1.69100 31.43100
H  9.56100 1.25200 35.05800
H  11.15200 0.83400 35.55500
H  10.07400 -0.50900 35.31300
Mg -10.82500 39.06900 40.97400
C  -9.62400 35.94800 40.03200
C  -7.99000 40.44600 39.56600
C  -12.25700 42.07400 41.26600
C  -13.87700 37.60600 41.66600
N  -9.03800 38.25900 39.82700
C  -8.67800 36.97300 39.77600
C  -7.34000 36.71600 39.07000
C  -6.72700 38.15100 39.21300
C  -7.97400 39.04400 39.51100
C  -5.80600 38.38200 40.42700
C  -7.39100 36.14600 37.66400
C  -6.20800 35.25300 37.25700
H  -5.57800 35.51300 35.92200
N  -10.15700 41.02000 40.50000
C  -8.98400 41.35800 39.96100
C  -8.89500 42.79700 39.91300
C  -10.11500 43.40900 40.42400
C  -10.91200 42.13600 40.76200
C  -7.66000 43.47700 39.37100
C  -10.37700 44.86800 40.56000
O  -9.59400 45.71000 40.24100
C  -11.72500 45.30700 40.99500
N  -12.81300 39.78500 41.32400
C  -13.11900 41.06900 41.56300
C  -14.52400 41.26200 42.15400
C  -15.13600 39.84100 42.10500
C  -13.88800 39.02300 41.62300
C  -14.57400 41.90000 43.52700
C  -16.36900 39.75400 41.20000
C  -17.32200 38.57900 41.47400
N  -11.67400 37.12500 40.87000
C  -12.89100 36.62400 41.26500
C  -12.85800 35.20300 41.23600
C  -11.53600 34.87400 40.77800
C  -10.89900 36.07800 40.54300
C  -13.92600 34.29000 41.58300
C  -10.65400 33.80300 40.52500
O  -10.72400 32.58500 40.65200
C  -9.42100 34.44100 40.02200
C  -8.23900 33.97700 40.73100
O  -7.41100 33.18800 40.32000
O  -8.14000 34.56500 41.98600
C  -6.89300 34.28000 42.84500
H  -7.12300 40.90700 39.08700
H  -12.67700 43.02800 41.59100
H  -14.85100 37.25800 42.01600
H  -6.76300 36.06700 39.72800
H  -6.13700 38.49500 38.36400
H  -5.18500 39.27800 40.39600
H  -5.18300 37.48800 40.46400
H  -6.34800 38.51600 41.36300
H  -7.45000 37.00200 36.99200
H  -8.27200 35.57600 37.37000
H  -6.57000 34.22600 37.22100
H  -5.49600 35.29900 38.08100
H  -7.69700 44.56500 39.31700
H  -7.41000 43.13900 38.36500
H  -6.82700 43.18400 40.01100
H  -12.51600 44.96100 40.33100
H  -11.73000 46.39200 40.89100
H  -11.98700 45.04600 42.02000
H  -15.16000 41.78300 41.43900
H  -15.43200 39.56700 43.11700
H  -15.55200 42.38200 43.51800
H  -13.87000 42.68300 43.81200
H  -14.56800 41.21200 44.37200
H  -16.01600 39.61100 40.17900
H  -16.93500 40.68400 41.25200
H  -18.26600 38.99900 41.82100
H  -16.90700 37.90100 42.22000
H  -17.56500 38.07800 40.53700
H  -14.64200 34.40500 40.77000
H  -14.53500 34.75200 42.36000
H  -13.58000 33.26300 41.70200
H  -9.30500 34.09600 38.99500
H  -5.99300 34.74900 42.44700
H  -6.62000 33.22600 42.89800
H  -6.97300 34.61500 43.87900

