158

Mg -2.42900 17.35700 27.07700
C  -3.11600 15.24000 29.72900
C  -3.09200 20.12800 29.22000
C  -2.19000 19.43400 24.47300
C  -2.50900 14.64900 24.81500
N  -2.93100 17.55500 29.20800
C  -3.03400 16.55200 30.15000
C  -3.36000 17.06300 31.56100
C  -3.36600 18.58700 31.32100
C  -3.09400 18.82500 29.83600
C  -4.76700 19.22500 31.79800
C  -2.51100 16.59500 32.72200
C  -2.29100 17.50800 33.94800
H  -1.66700 16.83600 35.19300
N  -2.53800 19.47500 26.89000
C  -2.84400 20.44200 27.88200
C  -2.66100 21.73200 27.32300
C  -2.29900 21.56500 25.94300
C  -2.35300 20.09700 25.69700
C  -3.00000 23.05300 28.04200
C  -2.09100 22.66000 24.85700
O  -1.81800 22.39900 23.71200
C  -2.09900 24.02400 25.24900
N  -2.59700 17.06000 24.90000
C  -2.27100 18.11800 24.11100
C  -1.98600 17.61000 22.62400
C  -1.97800 16.09400 22.84900
C  -2.31500 15.90800 24.27800
C  -3.05000 18.07500 21.64500
C  -0.73300 15.34000 22.40400
C  0.48600 15.30800 23.30900
N  -2.72500 15.32500 27.18100
C  -2.67700 14.32500 26.19700
C  -2.81400 13.04400 26.84300
C  -3.02000 13.41800 28.19700
C  -2.96200 14.73800 28.34200
C  -2.64600 11.68800 26.38100
C  -3.22000 12.77600 29.39600
O  -3.28100 11.58900 29.60700
C  -3.34300 13.92900 30.48300
C  -2.38600 13.68700 31.58700
O  -1.21300 14.03100 31.49100
O  -3.10300 13.15500 32.58000
C  -2.32200 12.87400 33.84200
H  -3.12800 20.99100 29.88900
H  -1.94000 20.00200 23.57400
H  -2.48300 13.81800 24.10700
H  -4.33000 16.70600 31.90500
H  -2.50700 18.99100 31.85800
H  -4.86100 19.14800 32.88200
H  -5.64900 18.76800 31.35100
H  -4.82100 20.26500 31.47800
H  -1.56400 16.21200 32.34100
H  -3.06200 15.76700 33.16600
H  -3.26000 17.86800 34.29400
H  -1.70200 18.40300 33.74900
H  -3.57800 22.90500 28.95400
H  -3.59400 23.61700 27.32300
H  -2.11200 23.66100 28.21500
H  -1.47800 24.14800 26.13600
H  -3.10900 24.38400 25.44000
H  -1.63200 24.63300 24.47500
H  -1.00300 17.95800 22.30600
H  -2.79300 15.56000 22.36000
H  -3.71100 17.21700 21.52100
H  -2.67000 18.56700 20.75000
H  -3.55000 18.88900 22.16900
H  -0.35300 15.80900 21.49600
H  -0.98400 14.30600 22.17000
H  0.37100 15.66800 24.33100
H  1.33300 15.82000 22.85200
H  0.82200 14.30200 23.56100
H  -1.88200 11.09200 26.88000
H  -2.36900 11.74400 25.32800
H  -3.63700 11.24600 26.48200
H  -4.35100 14.05300 30.87900
H  -2.22500 13.89700 34.20600
H  -1.32300 12.52700 33.57400
H  -2.75500 12.12100 34.50000
Mg 9.86700 48.61800 25.69600
C  7.94300 48.36100 28.70400
C  12.53900 49.61000 27.75400
C  11.61600 49.10100 22.96300
C  7.07100 47.79700 23.98600
N  10.07600 49.18200 27.92100
C  9.22300 48.91600 28.91600
C  9.80300 49.25800 30.31500
C  11.09100 49.98600 29.84400
C  11.29500 49.56000 28.40400
C  11.17500 51.54400 30.03800
C  10.03500 48.16000 31.41000
C  9.36900 48.28400 32.81100
H  10.03100 49.08200 33.99900
N  11.82000 49.13200 25.35200
C  12.81500 49.45700 26.35100
C  14.03000 49.50300 25.70900
C  13.76900 49.54700 24.30500
C  12.30900 49.29600 24.13500
C  15.35600 49.72900 26.38100
C  14.80900 49.49900 23.08600
O  14.37800 49.48800 21.91600
C  16.29900 49.48400 23.27300
N  9.32900 48.67300 23.71700
C  10.26100 48.83900 22.75800
C  9.64900 48.74200 21.35100
C  8.32600 48.06200 21.72600
C  8.21400 48.10000 23.21600
C  9.49400 50.05400 20.56400
C  8.17400 46.60800 21.08000
C  8.82100 45.46600 21.87800
N  7.80300 48.30300 26.15800
C  6.77600 47.98800 25.32800
C  5.61100 47.65200 26.16000
C  6.03200 47.89200 27.49700
C  7.34800 48.20100 27.44500
C  4.35900 47.08700 25.75800
C  5.61800 47.82000 28.83000
O  4.51300 47.49700 29.27200
C  6.86700 48.04100 29.73100
C  7.04400 46.79100 30.54200
O  7.68400 45.81000 30.12100
O  6.50300 46.96800 31.83400
C  6.51600 45.86800 32.77800
H  13.39300 49.83900 28.39600
H  12.16100 49.23400 22.02600
H  6.27500 47.36400 23.37700
H  9.13100 50.03500 30.67800
H  11.86300 49.64900 30.53600
H  11.52400 51.86000 29.05500
H  12.05200 51.73700 30.65600
H  10.30800 52.08400 30.41900
H  11.10200 48.08200 31.61900
H  9.64400 47.24200 30.96900
H  9.02800 47.29700 33.12400
H  8.49500 48.92800 32.71000
H  16.10200 48.93900 26.28800
H  15.25500 49.91800 27.44900
H  15.75500 50.65400 25.96500
H  16.70800 50.40400 23.69200
H  16.71100 49.45400 22.26400
H  16.47100 48.56900 23.84000
H  10.27000 48.15000 20.67900
H  7.47500 48.51600 21.21900
H  9.89200 50.93400 21.07100
H  8.43100 50.25300 20.43100
H  9.93700 49.92100 19.57700
H  8.54900 46.49300 20.06300
H  7.09500 46.45500 21.09400
H  7.98300 44.96900 22.36600
H  9.50700 45.89600 22.60700
H  9.43100 44.83900 21.22600
H  4.65600 46.21200 25.18000
H  3.85900 47.82500 25.13200
H  3.64200 46.83100 26.53800
H  6.71600 48.90500 30.37800
H  6.29500 44.84400 32.47800
H  5.79700 46.18800 33.53200
H  7.47500 45.81300 33.29400

