158

Mg 8.90100 3.47400 27.38400
C  10.48700 2.01000 30.29700
C  7.24000 5.48100 29.63500
C  7.00800 4.47100 24.80000
C  10.64500 1.22300 25.49800
N  8.85600 3.64700 29.73200
C  9.59300 3.05500 30.65900
C  9.33500 3.54700 32.07900
C  8.15400 4.49800 31.87600
C  8.04200 4.60600 30.34500
C  6.86500 3.98200 32.55500
C  10.61700 4.25800 32.69100
C  11.20400 3.80800 34.04100
H  10.38400 3.31400 35.24800
N  7.38500 4.86100 27.23900
C  6.90400 5.60600 28.24300
C  6.04100 6.53200 27.64700
C  5.82500 6.22700 26.28700
C  6.73600 5.15600 26.01600
C  5.28500 7.57000 28.44700
C  4.85600 6.84100 25.21000
O  4.83400 6.44600 24.07300
C  3.80800 7.91800 25.56700
N  8.76000 2.84300 25.46900
C  7.96200 3.47300 24.55500
C  8.24100 3.00500 23.16500
C  9.33800 1.90600 23.37200
C  9.66600 2.00800 24.83700
C  7.00200 2.54300 22.30500
C  10.56000 1.95200 22.44200
C  10.58300 0.93100 21.25700
N  10.29900 2.04600 27.78500
C  10.94100 1.24600 26.88000
C  11.86600 0.39200 27.56700
C  11.73900 0.71700 28.88400
C  10.77800 1.67100 28.97300
C  12.74400 -0.63200 26.92400
C  12.17500 0.33600 30.18500
O  13.02800 -0.49800 30.50900
C  11.45100 1.26500 31.10400
C  10.78800 0.45900 32.16400
O  9.67200 -0.04800 32.13300
O  11.48100 0.69200 33.32900
C  10.85800 0.09200 34.51300
H  6.78800 6.19600 30.32500
H  6.46800 4.79100 23.90600
H  11.30700 0.58000 24.91400
H  9.03300 2.70200 32.69800
H  8.30100 5.44700 32.39100
H  6.12700 3.92200 31.75500
H  6.53600 4.79700 33.19900
H  6.92600 3.05600 33.12800
H  10.35000 5.28500 32.94000
H  11.43600 4.25800 31.97200
H  12.00400 4.46600 34.38300
H  11.85100 3.03300 33.63000
H  5.68500 8.52900 28.11800
H  5.40000 7.53300 29.53100
H  4.21700 7.58300 28.22900
H  3.23300 8.24300 24.70000
H  4.24200 8.78700 26.06200
H  3.16500 7.35000 26.23900
H  8.71400 3.83300 22.63800
H  9.00600 0.87100 23.29500
H  7.23500 1.54800 21.92700
H  6.94700 3.25500 21.48200
H  6.06500 2.46000 22.85600
H  11.47500 1.79700 23.01400
H  10.59900 2.90900 21.92200
H  10.98600 1.45300 20.38900
H  9.56700 0.66100 20.96900
H  11.19700 0.04100 21.39700
H  12.11700 -1.25200 26.28200
H  13.17400 -1.39600 27.57200
H  13.49500 -0.02800 26.41500
H  12.26400 1.87500 31.49500
H  10.74800 -0.99200 34.50800
H  9.88600 0.54600 34.70600
H  11.61300 0.45000 35.21300
Mg 36.36700 1.67000 29.53500
C  34.19200 2.58800 31.91400
C  38.91600 1.65100 31.90700
C  38.60200 1.11300 27.07600
C  33.86600 2.00500 27.13500
N  36.52000 2.12100 31.67100
C  35.48400 2.45300 32.48200
C  35.83300 2.35400 33.93700
C  37.42400 2.33000 33.86900
C  37.65300 1.94100 32.41600
C  38.06500 3.68900 34.28000
C  35.20800 1.07500 34.56400
C  34.75900 1.20700 35.98200
H  35.10900 2.50300 36.74500
N  38.45800 1.40400 29.52900
C  39.32700 1.48900 30.61700
C  40.68300 1.17400 30.14200
C  40.66000 1.01000 28.74100
C  39.20400 1.17900 28.37300
C  41.86300 0.95900 31.16600
C  41.80800 0.72800 27.78800
O  41.64400 0.74000 26.57800
C  43.23900 0.53300 28.26500
N  36.33400 1.81900 27.39300
C  37.34100 1.31100 26.65900
C  36.98900 1.22200 25.18200
C  35.45700 1.46700 25.18100
C  35.17800 1.80700 26.60600
C  37.77400 2.13100 24.23500
C  34.67400 0.30100 24.48300
C  33.80000 -0.68600 25.34700
N  34.41600 2.14800 29.47800
C  33.51900 2.25900 28.45300
C  32.22600 2.65700 28.96000
C  32.43000 2.74300 30.32800
C  33.78900 2.48800 30.50500
C  31.01900 2.81400 28.23900
C  31.75400 2.92500 31.60100
O  30.58600 3.23100 31.89700
C  32.88200 2.88700 32.63700
C  32.95700 4.22100 33.41500
O  33.33700 5.24700 32.87600
O  32.33500 4.10700 34.65700
C  32.12200 5.30700 35.38600
H  39.67800 1.60600 32.68800
H  39.32700 0.92300 26.28100
H  33.06000 2.11100 26.40700
H  35.49100 3.31200 34.32900
H  37.80500 1.48200 34.43700
H  37.33300 4.35100 34.74200
H  38.51500 4.12600 33.38800
H  38.89600 3.65800 34.98500
H  35.93400 0.28000 34.39400
H  34.31100 0.77800 34.02100
H  35.12700 0.36900 36.57500
H  33.66900 1.24400 35.99300
H  42.38400 0.07800 30.79300
H  41.58900 0.72800 32.19600
H  42.48200 1.85600 31.17700
H  43.83200 0.51900 27.35100
H  43.22100 -0.51400 28.56900
H  43.55700 1.30200 28.96800
H  37.30900 0.20300 24.96600
H  35.20700 2.42500 24.72700
H  38.22800 2.86700 24.89900
H  37.08200 2.56600 23.51500
H  38.50100 1.55100 23.66700
H  35.52300 -0.26400 24.09900
H  34.08100 0.73200 23.67700
H  32.75600 -0.49000 25.10100
H  33.89800 -0.76500 26.42900
H  34.06900 -1.73200 25.19900
H  30.97900 3.68400 27.58400
H  30.20900 2.84700 28.96800
H  30.88300 1.99700 27.53000
H  32.56600 2.11500 33.33900
H  31.64200 5.08900 36.34000
H  31.43400 5.94700 34.83300
H  33.05100 5.86600 35.49600

