158

Mg 16.70700 52.73600 26.80000
C  18.82500 50.87700 28.76500
C  14.58200 53.06300 29.48000
C  14.57700 54.22000 24.76800
C  18.49400 51.59100 23.93200
N  16.74600 52.13000 29.00400
C  17.78400 51.39300 29.57400
C  17.60300 51.30500 31.08200
C  16.08000 51.66400 31.18600
C  15.69000 52.28400 29.84500
C  15.10600 50.51200 31.59200
C  18.55300 52.29100 31.79900
C  18.96500 52.01100 33.24900
H  17.96000 51.43800 34.18900
N  14.96700 53.75000 27.11900
C  14.23500 53.73800 28.28600
C  12.96700 54.45500 28.09100
C  12.88400 54.70000 26.65100
C  14.17300 54.31300 26.14300
C  12.09800 54.66700 29.12400
C  11.70400 55.17900 25.80800
O  11.87400 55.48000 24.58900
C  10.27600 55.48500 26.38400
N  16.49900 52.79000 24.63500
C  15.56900 53.59900 24.12700
C  15.73200 53.78200 22.61700
C  17.03700 53.00600 22.30700
C  17.42400 52.47500 23.72300
C  14.47800 53.48500 21.79600
C  18.15400 53.86200 21.62600
C  18.58100 55.08000 22.45000
N  18.27600 51.47200 26.37600
C  18.97400 51.20300 25.19500
C  20.07700 50.26900 25.50700
C  20.11600 50.17700 26.93600
C  18.95600 50.90000 27.38100
C  20.95200 49.77500 24.43200
C  20.78300 49.62500 28.10600
O  21.90800 49.07800 28.12800
C  20.03200 50.15700 29.38500
C  19.65900 49.06000 30.27000
O  18.88500 48.17500 29.93100
O  20.18100 49.27000 31.51300
C  19.84700 48.34600 32.62500
H  13.79100 53.11100 30.23200
H  13.99800 54.77600 24.02800
H  19.06900 51.30800 23.04800
H  17.72900 50.26300 31.37600
H  15.88800 52.47100 31.89200
H  14.19700 50.66800 31.01200
H  14.90900 50.47700 32.66400
H  15.58100 49.55300 31.38700
H  18.01100 53.23700 31.80900
H  19.38000 52.35400 31.09100
H  19.40500 52.92300 33.65300
H  19.73100 51.25200 33.09300
H  12.71700 54.96600 29.97000
H  11.65700 53.70800 29.39600
H  11.33100 55.42700 28.97400
H  9.88300 54.51400 26.68200
H  9.65100 55.89600 25.59100
H  10.36200 56.12400 27.26300
H  15.97000 54.83300 22.45600
H  16.86300 52.08200 21.75500
H  14.61400 52.87300 20.90400
H  14.03100 54.43800 21.51500
H  13.86200 52.91700 22.49400
H  17.69800 54.21500 20.70200
H  19.11100 53.43400 21.32700
H  19.59800 55.03500 22.84000
H  18.05800 55.18800 23.40000
H  18.45500 55.99500 21.87100
H  21.73300 49.14200 24.85300
H  21.45700 50.64800 24.02000
H  20.36600 49.33400 23.62500
H  20.64000 50.77100 30.04800
H  19.41900 47.41200 32.26000
H  19.14000 48.88100 33.25800
H  20.73300 48.09500 33.20800
Mg -5.70900 25.13900 26.34500
C  -4.39300 26.63000 29.28300
C  -7.52600 22.99300 28.17400
C  -7.07400 23.90500 23.56500
C  -3.71000 27.32500 24.53200
N  -5.90800 24.93700 28.49400
C  -5.34200 25.61400 29.53000
C  -5.95100 25.10300 30.93300
C  -6.51800 23.73400 30.49700
C  -6.64900 23.86600 28.96100
C  -5.53100 22.59700 30.92000
C  -7.06200 26.04600 31.49300
C  -7.56000 25.78400 32.89800
H  -6.68200 24.81700 33.83000
N  -7.20400 23.69800 25.86600
C  -7.78900 22.87600 26.79700
C  -8.75500 22.00100 26.12300
C  -8.56500 22.21000 24.72400
C  -7.57300 23.28400 24.62400
C  -9.74800 21.10600 26.87000
C  -9.26800 21.50700 23.57500
O  -8.93000 21.73900 22.41000
C  -10.42600 20.45300 23.79300
N  -5.42300 25.56700 24.37500
C  -6.13500 24.91600 23.33900
C  -5.62400 25.44200 21.95900
C  -4.72200 26.64200 22.33500
C  -4.63800 26.53800 23.84500
C  -4.93900 24.28900 21.09400
C  -5.24500 27.91300 21.78100
C  -5.16000 28.13700 20.20700
N  -4.18200 26.63700 26.77800
C  -3.43300 27.40100 25.89900
C  -2.37500 28.13200 26.68200
C  -2.79000 27.88100 28.03300
C  -3.89400 26.98700 28.04700
C  -1.40400 29.17000 26.17700
C  -2.61700 28.30400 29.43600
O  -1.88900 29.15400 29.89800
C  -3.64300 27.47100 30.26900
C  -2.88300 26.68700 31.29300
O  -2.46600 25.54700 31.20500
O  -2.87100 27.42400 32.52600
C  -2.06200 26.80200 33.53200
H  -8.06400 22.41700 28.93000
H  -7.50800 23.57500 22.61900
H  -3.00500 27.84700 23.88000
H  -5.15900 24.92900 31.66100
H  -7.42700 23.58400 31.07900
H  -4.47100 22.85100 30.90400
H  -5.68600 21.77800 30.21800
H  -5.75500 22.40500 31.96900
H  -7.83800 26.04400 30.72800
H  -6.66700 27.05800 31.41000
H  -8.55700 25.34400 32.88800
H  -7.57800 26.71600 33.46200
H  -9.56800 20.03400 26.78700
H  -10.80000 21.11100 26.58200
H  -9.71100 21.50700 27.88200
H  -10.75600 19.94700 22.88600
H  -11.31000 20.96700 24.17000
H  -10.11900 19.69600 24.51500
H  -6.52500 25.80000 21.46100
H  -3.72000 26.44000 21.95400
H  -5.39600 24.13500 20.11700
H  -5.24100 23.36600 21.58800
H  -3.86300 24.34900 20.93100
H  -4.60600 28.73700 22.09800
H  -6.25800 28.12200 22.12400
H  -4.90600 27.20500 19.70200
H  -4.52300 28.99500 19.99400
H  -6.15600 28.47200 19.91500
H  -1.97700 29.95700 25.68900
H  -0.57400 28.80000 25.57500
H  -0.78700 29.67800 26.91800
H  -4.42200 28.05800 30.75700
H  -2.50300 25.84300 33.80500
H  -2.04900 27.47600 34.38900
H  -1.03400 26.69000 33.19000

