158

Mg 49.29500 45.11800 43.14300
C  45.87100 45.02200 42.49800
C  49.57700 41.85000 42.33300
C  52.66800 45.46500 43.28600
C  49.04600 48.70200 43.26800
N  47.84900 43.70900 42.60100
C  46.51600 43.85300 42.32300
C  45.95700 42.63800 41.65000
C  47.05100 41.58100 41.89700
C  48.28300 42.39500 42.25900
C  46.71400 40.46000 42.97000
C  45.68600 43.00400 40.11000
C  44.32800 42.38600 39.57500
H  44.55500 41.76100 38.13900
N  50.91700 43.81600 42.95400
C  50.81200 42.50100 42.63900
C  52.06100 41.87600 42.60500
C  52.96400 42.84000 43.07800
C  52.19800 44.13600 43.10900
C  52.36400 40.39300 42.30000
C  54.40100 42.66700 43.37000
O  54.99900 41.59100 43.25300
C  55.30200 43.88500 43.74400
N  50.59900 46.85600 43.16300
C  51.95600 46.67400 43.21800
C  52.73500 48.04800 43.32900
C  51.56100 49.08900 43.11900
C  50.33700 48.20600 43.16700
C  53.60800 48.14100 44.60800
C  51.64400 49.94100 41.81300
C  51.72200 51.47400 41.95700
N  47.79400 46.58000 43.09000
C  47.86200 47.99000 43.12700
C  46.53700 48.51500 42.95200
C  45.70300 47.36800 42.79300
C  46.55900 46.21000 42.83000
C  46.04200 49.94600 42.84800
C  44.27800 46.89800 42.65800
O  43.16900 47.44900 42.68200
C  44.38600 45.32700 42.43600
C  43.50400 44.59900 43.49200
O  42.63300 43.71200 43.25200
O  43.86400 45.06000 44.81400
C  43.24600 44.32100 45.94000
H  49.79600 40.78000 42.35000
H  53.72700 45.72400 43.22800
H  49.02700 49.79300 43.23100
H  44.99300 42.37100 42.08100
H  47.32100 41.04000 40.99000
H  46.02600 40.98400 43.63400
H  47.57900 40.26700 43.60400
H  46.34800 39.55800 42.48000
H  46.51000 42.71900 39.45600
H  45.65700 44.09300 40.08400
H  43.54500 43.14200 39.51500
H  44.00900 41.62200 40.28400
H  52.46800 39.81800 43.22100
H  53.32200 40.20900 41.81400
H  51.61700 39.91600 41.66500
H  54.92900 44.39000 44.63500
H  55.44700 44.50500 42.85900
H  56.24400 43.42400 44.03900
H  53.34800 48.22900 42.44600
H  51.60500 49.83100 43.91600
H  53.33400 48.94800 45.28800
H  54.57100 48.25400 44.11000
H  53.64800 47.14500 45.04800
H  50.75600 49.61200 41.27300
H  52.54700 49.61100 41.30100
H  51.24700 52.01500 41.13900
H  52.74200 51.85300 41.89100
H  51.31800 51.95900 42.84600
H  45.65700 50.06700 41.83500
H  46.76600 50.71000 43.13200
H  45.14900 49.93800 43.47200
H  44.06800 45.13500 41.41100
H  43.46500 43.25500 45.89200
H  42.16500 44.38500 45.81500
H  43.55500 44.72300 46.90500
Mg 42.49700 42.04200 26.40000
C  41.42500 44.22200 28.95200
C  43.47000 39.69700 28.80500
C  43.75800 40.08900 23.88300
C  41.37500 44.42700 24.11500
N  42.67000 42.12500 28.71200
C  42.03400 43.04800 29.53000
C  42.10000 42.52400 31.01600
C  42.82500 41.15300 30.92800
C  43.01800 40.95200 29.37300
C  44.03600 41.02000 31.86400
C  40.69300 42.42100 31.64000
C  40.65100 41.79600 33.08600
H  39.95500 42.38100 34.41100
N  43.54100 40.21700 26.43300
C  43.76400 39.36200 27.46200
C  44.46200 38.21000 27.03000
C  44.47300 38.21000 25.64400
C  43.93400 39.51900 25.20100
C  45.00500 37.24900 28.01100
C  44.96500 37.16400 24.61600
O  44.92400 37.41000 23.44200
C  45.58000 35.95900 25.19200
N  42.65700 42.22800 24.36200
C  43.04600 41.23800 23.50100
C  42.86700 41.74400 22.07400
C  41.87600 42.83500 22.23900
C  41.92800 43.21300 23.69400
C  44.18100 42.04300 21.42000
C  40.42700 42.64700 21.54000
C  39.63100 41.43300 22.11600
N  41.54800 43.99400 26.44300
C  41.20800 44.87000 25.43100
C  40.59500 46.04400 26.01900
C  40.60800 45.82600 27.42400
C  41.17500 44.51500 27.61900
C  40.02000 47.21900 25.23300
C  40.26900 46.36600 28.71500
O  39.81200 47.47600 29.02400
C  40.65300 45.32200 29.78300
C  41.42500 45.99800 30.85100
O  42.61300 46.30300 30.83100
O  40.50900 46.30400 31.88900
C  40.98900 46.91300 33.10400
H  43.76200 38.95500 29.55100
H  44.15100 39.52400 23.03500
H  40.79700 44.93500 23.34100
H  42.67200 43.30800 31.51400
H  42.11300 40.36500 31.17100
H  44.92800 41.13800 31.25000
H  44.06800 40.09600 32.44100
H  44.16300 41.85500 32.55400
H  39.93200 41.94500 31.02100
H  40.40200 43.47000 31.70200
H  41.70200 41.74300 33.37000
H  40.32700 40.76000 32.98400
H  44.43700 36.32400 27.90400
H  44.96300 37.49000 29.07300
H  46.04800 37.17300 27.70300
H  46.57500 35.99300 25.63700
H  45.79100 35.27900 24.36700
H  44.86700 35.39600 25.79500
H  42.42700 40.95500 21.46500
H  42.34000 43.68800 21.74300
H  45.03400 42.26500 22.06100
H  44.11700 42.90300 20.75500
H  44.48300 41.26700 20.71600
H  40.67900 42.42000 20.50400
H  39.78000 43.51400 21.67300
H  38.57700 41.70100 22.04300
H  39.83300 41.23400 23.16800
H  39.88900 40.52600 21.57000
H  39.17100 47.64400 25.76900
H  39.72700 46.87800 24.24000
H  40.88300 47.88000 25.15800
H  39.61300 45.07600 29.99600
H  41.35800 46.21000 33.85100
H  40.22100 47.56000 33.52600
H  41.80300 47.61700 32.93100

