158

Mg 40.78600 7.69200 29.82700
C  42.72000 9.41300 32.31800
C  38.50700 6.90400 32.03800
C  39.07400 6.20400 27.24700
C  43.54800 8.19000 27.69500
N  40.78200 8.07200 31.86400
C  41.53500 8.81100 32.76500
C  41.07500 8.75200 34.19500
C  39.79900 7.71900 34.01000
C  39.69300 7.52200 32.50300
C  39.97100 6.46500 34.79600
C  40.88300 10.07100 34.96700
C  39.80000 10.14600 36.03100
H  39.87600 11.18200 37.11400
N  39.06100 6.62100 29.73800
C  38.13500 6.43600 30.73700
C  36.92000 5.84900 30.19200
C  37.18200 5.57200 28.83400
C  38.48700 6.15100 28.59600
C  35.63300 5.69100 30.96200
C  36.26100 5.09400 27.72000
O  36.57900 4.82300 26.56600
C  34.82200 4.88000 28.05100
N  41.29600 7.17900 27.87400
C  40.39500 6.66600 26.96300
C  40.93800 6.48300 25.59600
C  42.28100 7.21500 25.78600
C  42.39500 7.58300 27.21400
C  41.17200 5.00900 25.05700
C  42.53300 8.43300 24.88800
C  41.70500 9.71200 25.05600
N  42.75300 8.60400 29.90200
C  43.74600 8.72800 28.96500
C  44.88600 9.44000 29.42300
C  44.50700 9.75100 30.78300
C  43.22000 9.24600 31.01400
C  46.12900 9.83400 28.65900
C  44.95900 10.40600 31.99800
O  46.02200 10.94900 32.26500
C  43.82300 10.19800 33.03400
C  44.44200 9.44700 34.20200
O  44.99900 8.44900 34.11500
O  44.14200 10.03900 35.41700
C  44.62900 9.34200 36.67800
H  37.85800 6.61300 32.86600
H  38.56400 5.84200 26.35200
H  44.34600 8.27800 26.95500
H  41.83000 8.20300 34.75800
H  38.86000 8.18300 34.31100
H  39.25700 6.49500 35.61900
H  40.93000 6.55200 35.30700
H  39.86700 5.54700 34.21800
H  40.72600 10.92700 34.31000
H  41.78200 10.31400 35.53400
H  39.88800 9.15800 36.48300
H  38.80500 10.28800 35.61000
H  35.19000 4.69800 31.04500
H  34.85600 6.39100 30.65500
H  35.91200 6.06000 31.94900
H  34.80300 4.04600 28.75200
H  34.29000 4.56100 27.15400
H  34.42600 5.78900 28.50300
H  40.32100 7.14600 24.99000
H  43.16000 6.59900 25.59500
H  40.70400 4.32300 25.76400
H  42.22100 4.71500 25.01800
H  40.85700 4.88400 24.02100
H  42.38900 8.07300 23.87000
H  43.59600 8.66800 24.94800
H  41.17200 9.69800 26.00600
H  40.87800 9.78000 24.34800
H  42.25600 10.65200 25.02100
H  46.98300 9.56500 29.28100
H  46.18000 10.91000 28.49200
H  46.08400 9.27500 27.72500
H  43.42000 11.10000 33.49300
H  45.66600 9.61200 36.87900
H  44.41500 8.27500 36.61000
H  43.99300 9.62700 37.51500
Mg 26.21800 51.13400 25.30700
C  24.16700 52.52000 27.76400
C  28.37600 50.12000 27.79900
C  28.20900 50.15800 22.86600
C  24.04000 52.63000 22.89500
N  26.26000 51.32600 27.44200
C  25.26800 51.84800 28.27700
C  25.52500 51.63500 29.79200
C  26.97200 51.04900 29.73200
C  27.25500 50.79400 28.21900
C  28.04100 51.97300 30.15300
C  24.53100 50.64800 30.57100
C  24.01300 51.02400 31.91700
H  25.08200 51.45400 32.91600
N  28.07000 50.25900 25.32400
C  28.75800 49.90900 26.45700
C  29.99500 49.34700 26.05300
C  29.99500 49.33600 24.62700
C  28.72600 49.97300 24.17700
C  31.11100 49.08400 27.04700
C  31.11500 49.08400 23.73500
O  31.10300 49.43400 22.55800
C  32.30900 48.34700 24.17100
N  26.02900 51.24000 23.14500
C  26.98100 50.72900 22.41600
C  26.67600 50.73300 20.87900
C  25.31000 51.53500 20.92600
C  25.05400 51.81900 22.40600
C  27.84200 51.23100 19.93000
C  24.05500 50.78300 20.34900
C  23.19200 51.50000 19.20500
N  24.47300 52.40000 25.20300
C  23.74300 52.89100 24.23900
C  22.55700 53.53400 24.77000
C  22.71800 53.43100 26.14000
C  23.90600 52.79600 26.36700
C  21.46700 54.14300 24.10100
C  22.07800 53.71700 27.39000
O  20.97300 54.24100 27.59900
C  22.94800 53.12000 28.52100
C  23.35800 54.12400 29.54700
O  24.40100 54.73300 29.67100
O  22.26600 54.45700 30.32900
C  22.57600 55.14700 31.58400
H  28.94500 49.73500 28.64800
H  28.92000 50.00100 22.05200
H  23.47900 52.96800 22.02200
H  25.48500 52.59900 30.30000
H  27.06000 50.16700 30.36700
H  28.79300 52.14500 29.38300
H  28.50000 51.57200 31.05600
H  27.67500 52.95000 30.46700
H  24.97000 49.65100 30.60100
H  23.61000 50.57700 29.99200
H  23.39800 50.18100 32.23100
H  23.43400 51.92900 31.73400
H  31.41200 48.03700 27.05300
H  30.88500 49.41300 28.06200
H  32.06700 49.55600 26.82100
H  32.89100 47.98300 23.32400
H  32.06100 47.55200 24.87400
H  32.87100 49.01700 24.82100
H  26.49300 49.75800 20.42800
H  25.34600 52.43800 20.31700
H  28.05700 50.51600 19.13600
H  28.79600 51.25100 20.45600
H  27.60800 52.23700 19.58100
H  23.39300 50.53300 21.17800
H  24.38000 49.87100 19.84800
H  22.18400 51.36500 19.59800
H  23.34300 50.80200 18.38200
H  23.33500 52.53300 18.88700
H  21.76300 55.11900 23.71500
H  20.70100 54.34000 24.85100
H  21.26800 53.45600 23.27900
H  22.37900 52.38500 29.09100
H  22.71900 56.21800 31.44000
H  23.40900 54.67800 32.10800
H  21.64500 55.05200 32.14200

