158

Mg 35.52300 48.65200 25.24900
C  35.74800 46.79800 28.26500
C  34.28300 51.39300 27.03300
C  34.81600 49.99500 22.34600
C  36.37700 45.58400 23.53100
N  34.92400 48.96500 27.33700
C  35.18500 48.10800 28.37600
C  35.16200 48.83100 29.66000
C  34.44100 50.15200 29.29400
C  34.54600 50.20000 27.83900
C  32.97300 50.46900 29.89100
C  36.54500 49.01400 30.36800
C  36.64000 48.61700 31.85500
H  35.44500 48.97300 32.76400
N  34.78300 50.50400 24.69000
C  34.38500 51.57400 25.59300
C  34.07700 52.73400 24.83000
C  34.20700 52.32700 23.46200
C  34.57700 50.85300 23.43800
C  33.70500 54.12000 25.49700
C  33.97000 53.12100 22.17700
O  34.18700 52.63200 21.07900
C  33.48800 54.52700 22.24500
N  35.47200 47.85200 23.20400
C  35.17400 48.62400 22.21400
C  35.39100 47.92000 20.80100
C  35.93900 46.55800 21.16700
C  35.99600 46.72100 22.71700
C  34.03400 47.86900 19.96800
C  37.23200 46.08100 20.47400
C  38.52500 46.82700 20.74500
N  36.02200 46.60800 25.74800
C  36.37000 45.56400 24.93800
C  36.75800 44.35300 25.78600
C  36.59700 44.80200 27.08300
C  36.09100 46.16600 26.99600
C  37.27900 43.00900 25.39100
C  36.70500 44.48400 28.48400
O  36.99700 43.43900 29.09900
C  36.24700 45.75900 29.30100
C  35.14800 45.40000 30.20000
O  33.97000 45.17300 29.92400
O  35.58800 45.23700 31.50900
C  34.65000 44.65000 32.46200
H  33.85900 52.29200 27.48600
H  34.76600 50.40200 21.33400
H  36.67600 44.73800 22.90800
H  34.49500 48.33500 30.36500
H  34.98100 51.04100 29.61900
H  32.21700 50.60100 29.11700
H  32.97300 51.30000 30.59700
H  32.78300 49.54400 30.43500
H  36.84400 50.06000 30.30000
H  37.37400 48.46300 29.92400
H  37.58900 48.86700 32.33000
H  36.60600 47.52800 31.89400
H  33.84000 55.03500 24.92000
H  34.28800 54.23800 26.41100
H  32.66000 54.16700 25.80300
H  32.65900 54.69800 22.93100
H  33.19700 54.88400 21.25700
H  34.32800 55.08800 22.65400
H  36.12400 48.51000 20.25100
H  35.26900 45.71500 20.99400
H  33.99000 46.94700 19.38800
H  33.92700 48.64300 19.20800
H  33.16700 47.94300 20.62500
H  37.03700 46.11100 19.40200
H  37.37700 45.04700 20.78400
H  39.32100 46.22500 21.18400
H  38.39500 47.65100 21.44700
H  39.06200 47.26800 19.90500
H  37.52400 42.92200 24.33200
H  36.51600 42.23500 25.47100
H  38.12300 42.78700 26.04300
H  37.06600 46.04100 29.96300
H  34.17200 43.78500 32.00200
H  33.75700 45.22400 32.71000
H  35.21800 44.46100 33.37300
Mg -2.51000 35.05200 27.09600
C  -4.33200 33.29800 29.60000
C  -1.45600 37.23200 29.70100
C  -0.79200 36.81700 24.76000
C  -3.86500 32.96600 24.70700
N  -2.93100 35.28300 29.43000
C  -3.65200 34.38100 30.18700
C  -3.62700 34.76000 31.65300
C  -2.73100 36.15900 31.67000
C  -2.39900 36.28300 30.18100
C  -3.58700 37.43400 32.13700
C  -3.05500 33.49400 32.52300
C  -3.98200 32.78900 33.48200
H  -3.92400 33.20000 34.99800
N  -1.25700 36.65100 27.20400
C  -0.96600 37.47200 28.37400
C  -0.09700 38.56300 28.03200
C  0.00400 38.51900 26.61500
C  -0.63400 37.24400 26.11500
C  0.40400 39.49400 29.06800
C  0.54400 39.68700 25.79800
O  0.50900 39.72000 24.57100
C  1.02600 40.95600 26.39000
N  -2.44300 34.99600 24.89800
C  -1.62100 35.76000 24.21800
C  -1.52400 35.29300 22.78500
C  -2.38500 34.04000 22.78000
C  -2.96100 33.96200 24.23100
C  -1.89900 36.42500 21.69000
C  -1.60100 32.79500 22.33400
C  -2.43300 31.83400 21.53000
N  -3.87700 33.53800 27.07800
C  -4.29000 32.78400 26.02800
C  -5.24800 31.83100 26.51100
C  -5.19800 31.88800 27.87500
C  -4.44000 33.00300 28.14900
C  -6.14100 30.86200 25.63900
C  -5.70900 31.34900 29.05700
O  -6.46700 30.37800 29.21200
C  -5.27900 32.23700 30.27300
C  -6.55100 32.83000 30.81600
O  -6.99600 33.87000 30.40800
O  -6.99100 32.22700 31.97800
C  -8.00100 32.86600 32.85500
H  -0.92000 37.70100 30.52800
H  -0.16700 37.33700 24.03100
H  -4.29400 32.31700 23.94100
H  -4.59500 34.94700 32.11900
H  -1.93200 35.96100 32.38500
H  -3.96800 37.98500 31.27700
H  -2.84900 38.01100 32.69300
H  -4.38600 37.33900 32.87200
H  -2.18200 33.97400 32.96600
H  -2.58200 32.78500 31.84400
H  -3.86200 31.70600 33.51400
H  -5.02100 33.00900 33.23600
H  0.66400 38.93700 29.96800
H  -0.35700 40.20500 29.39200
H  1.27900 40.09700 28.82800
H  0.18200 41.45100 26.87100
H  1.25400 41.53900 25.49800
H  1.92100 40.78600 26.98900
H  -0.49200 35.03400 22.54700
H  -3.26300 34.10200 22.13800
H  -1.75700 37.44300 22.05200
H  -2.95200 36.34600 21.42100
H  -1.15800 36.27000 20.90600
H  -1.11700 32.38600 23.22000
H  -0.74100 33.07100 21.72400
H  -1.88900 30.93600 21.23700
H  -2.81100 32.34100 20.64200
H  -3.28500 31.52500 22.13500
H  -6.66800 31.41300 24.86100
H  -6.81600 30.42900 26.37800
H  -5.59400 30.02000 25.21400
H  -4.76100 31.65400 31.03500
H  -7.44200 33.50100 33.54200
H  -8.64400 32.14300 33.35700
H  -8.70400 33.54100 32.36600

