158

Mg 2.35900 -2.08600 44.84700
C  5.68100 -1.33300 44.06200
C  1.59000 0.69600 42.57000
C  -0.81600 -3.00100 44.72200
C  3.38700 -5.12800 46.17200
N  3.58700 -0.52500 43.36100
C  4.88300 -0.48600 43.28300
C  5.33500 0.64700 42.34100
C  4.00900 1.36600 41.90300
C  2.96300 0.48400 42.67900
C  3.89500 2.87000 42.30300
C  6.36700 0.07600 41.24800
C  7.66000 0.86400 41.05000
H  8.03600 1.23700 39.68000
N  0.65100 -1.19200 44.00000
C  0.55000 -0.05600 43.14800
C  -0.77500 0.20100 42.90800
C  -1.57300 -0.81300 43.48200
C  -0.61700 -1.75300 44.09700
C  -1.21000 1.42300 42.21900
C  -3.12600 -0.93600 43.49500
O  -3.88600 -0.14900 42.89700
C  -3.78600 -2.01200 44.19100
N  1.38400 -3.80800 45.42000
C  0.04100 -3.91800 45.40400
C  -0.39800 -5.35500 45.96900
C  0.97300 -5.93600 46.31000
C  2.01200 -4.93400 45.95700
C  -1.30300 -5.19400 47.21700
C  1.19700 -7.42800 45.83900
C  1.57000 -8.53500 46.84900
N  4.13500 -3.00500 45.18500
C  4.45300 -4.25200 45.91900
C  5.86900 -4.27500 46.15300
C  6.36500 -3.15500 45.48600
C  5.32200 -2.44000 44.90800
C  6.68500 -5.30500 46.94000
C  7.58600 -2.46400 45.25500
O  8.69900 -2.75900 45.58100
C  7.20600 -1.16500 44.33000
C  7.62200 0.00200 44.97300
O  7.45100 0.27100 46.14600
O  8.08600 0.86400 43.99500
C  8.15700 2.34100 44.35400
H  1.39600 1.53200 41.89400
H  -1.79300 -3.48100 44.64000
H  3.69200 -6.08600 46.59800
H  5.77800 1.31500 43.08000
H  3.88300 1.37700 40.82100
H  3.37500 3.42100 41.52000
H  4.92900 3.21500 42.30700
H  3.43400 2.91600 43.28900
H  5.80200 0.03600 40.31700
H  6.60200 -0.95700 41.50400
H  8.38200 0.10800 41.36000
H  7.72500 1.74200 41.69300
H  -0.57300 1.65600 41.36600
H  -1.36800 2.24000 42.92200
H  -2.17500 1.09600 41.83300
H  -3.71700 -2.91000 43.57600
H  -4.82000 -1.67100 44.22600
H  -3.40100 -2.08400 45.20800
H  -0.88500 -5.83400 45.12000
H  1.01600 -5.90800 47.39900
H  -1.26800 -4.18500 47.62600
H  -1.07200 -5.89100 48.02200
H  -2.30100 -5.32700 46.80100
H  1.90300 -7.33200 45.01400
H  0.25200 -7.73300 45.39000
H  0.82000 -9.32600 46.86000
H  1.82800 -8.03300 47.78200
H  2.51200 -8.97500 46.52200
H  7.44700 -4.80400 47.53700
H  7.15900 -6.00800 46.25400
H  6.00200 -5.81300 47.62000
H  7.71900 -1.31600 43.38000
H  7.19100 2.81500 44.17800
H  8.84000 2.81800 43.65100
H  8.62600 2.60200 45.30300
Mg 24.84600 1.79200 30.20900
C  27.14100 1.43100 32.81000
C  22.43400 2.38500 32.38100
C  22.65800 1.67500 27.62000
C  27.34700 0.65300 28.01000
N  24.80500 1.90500 32.35200
C  25.86700 1.91500 33.25300
C  25.46900 2.38600 34.59100
C  23.90300 2.43000 34.52700
C  23.65300 2.19900 32.98000
C  23.25100 1.41900 35.48400
C  26.05900 3.71600 35.03200
C  27.30700 3.69200 35.92700
H  27.16100 4.28800 37.34000
N  22.81100 2.04300 30.07300
C  22.01700 2.32000 31.09800
C  20.64500 2.48200 30.64600
C  20.64700 2.09700 29.28200
C  22.11600 1.98900 28.87900
C  19.48500 2.82600 31.50300
C  19.45400 1.96800 28.31400
O  19.55800 1.70100 27.09600
C  18.06400 2.07700 28.78000
N  25.02300 1.26700 28.10000
C  23.93300 1.32500 27.26500
C  24.28600 0.85700 25.83900
C  25.76600 0.41600 26.01500
C  26.06500 0.77700 27.47800
C  23.33500 -0.18600 25.17500
C  26.68700 1.15900 25.02900
C  27.29300 2.48700 25.43900
N  26.90100 1.22300 30.30600
C  27.81200 0.70700 29.33600
C  29.13300 0.40000 29.91500
C  28.91700 0.73000 31.30500
C  27.52100 1.11300 31.51700
C  30.36400 -0.19800 29.27700
C  29.54500 0.87700 32.61900
O  30.72800 0.70900 32.94500
C  28.49900 1.11900 33.60700
C  28.46000 0.12800 34.73600
O  27.62800 -0.75400 34.83500
O  29.42300 0.39200 35.68300
C  29.27600 -0.34200 36.96800
H  21.66600 2.66600 33.10500
H  22.00000 1.82400 26.76200
H  28.17300 0.37100 27.35400
H  25.81800 1.55500 35.20500
H  23.54900 3.41100 34.84700
H  22.39300 0.96900 34.98400
H  22.88400 1.87300 36.40400
H  23.95900 0.64900 35.79000
H  25.31500 4.28100 35.59200
H  26.24700 4.29000 34.12500
H  28.12200 4.25200 35.46800
H  27.80500 2.72400 35.98900
H  19.71000 3.04100 32.54700
H  18.81300 1.97300 31.59800
H  19.01000 3.70400 31.06600
H  17.89700 1.23800 29.45600
H  17.37500 1.98300 27.94000
H  17.97000 3.04400 29.27400
H  24.26600 1.67300 25.11700
H  25.98500 -0.64200 25.87500
H  23.81700 -1.16200 25.22900
H  22.97300 -0.05800 24.15500
H  22.40600 -0.36000 25.71900
H  26.15000 1.18400 24.08100
H  27.53900 0.49500 24.88600
H  28.37500 2.39700 25.53500
H  26.83700 2.89000 26.34300
H  27.12900 3.25500 24.68200
H  31.05800 0.53000 28.85500
H  30.12700 -0.86300 28.44700
H  30.89100 -0.68100 30.09900
H  28.84400 2.07000 34.01300
H  30.16100 -0.17400 37.58200
H  28.93300 -1.37700 36.96500
H  28.50900 0.17100 37.54800

