158

Mg 35.54900 48.48500 25.00300
C  36.14600 46.76600 27.93100
C  34.42100 51.23700 26.78200
C  35.00100 50.03400 22.16700
C  36.64700 45.54400 23.29700
N  34.95700 48.84700 27.08800
C  35.46100 47.97300 28.08800
C  35.33800 48.70600 29.45800
C  34.60900 49.99800 29.03000
C  34.64100 50.07500 27.53700
C  33.16300 50.08000 29.61200
C  36.68600 48.86300 30.24200
C  36.65100 48.57300 31.76100
H  35.21100 48.54800 32.38400
N  34.91100 50.43200 24.55500
C  34.55500 51.42100 25.37000
C  34.31100 52.61300 24.59200
C  34.46800 52.24500 23.21100
C  34.77600 50.85200 23.29700
C  34.15900 53.99100 25.27800
C  34.32700 53.08900 21.98700
O  34.37300 52.68800 20.81700
C  34.36700 54.61400 22.25500
N  35.61700 47.78300 23.08700
C  35.42400 48.72900 22.07200
C  35.64700 48.05400 20.68900
C  36.21400 46.66800 21.06200
C  36.18900 46.69200 22.58600
C  34.35400 48.00700 19.80900
C  37.57600 46.44600 20.47300
C  37.72000 45.90300 19.06500
N  36.22000 46.48000 25.45200
C  36.69400 45.46700 24.68800
C  37.08100 44.33600 25.52100
C  36.90000 44.80100 26.85100
C  36.39600 46.14500 26.73500
C  37.52900 42.99900 25.17400
C  36.95600 44.44400 28.27300
O  37.31000 43.46100 28.97800
C  36.57000 45.74500 28.99400
C  35.47300 45.38300 29.96500
O  34.31200 45.19900 29.66800
O  36.08200 45.22200 31.18000
C  35.29800 44.34800 32.12500
H  34.00800 52.00100 27.44300
H  34.93800 50.56800 21.21600
H  36.98900 44.66800 22.74100
H  34.68000 48.08000 30.06100
H  35.09000 50.84800 29.51500
H  33.29900 50.53800 30.59200
H  32.81100 49.07600 29.84800
H  32.45100 50.55200 28.93500
H  37.06800 49.87100 30.08100
H  37.45100 48.24800 29.76900
H  37.19300 49.28200 32.38600
H  37.18600 47.66000 32.02200
H  35.10300 54.53600 25.27800
H  34.05800 54.02300 26.36300
H  33.37100 54.57300 24.80100
H  33.48300 55.00000 22.76200
H  34.35200 55.14800 21.30500
H  35.24800 54.69900 22.89000
H  36.37600 48.63400 20.12400
H  35.65000 45.80200 20.71900
H  34.06800 47.06700 19.33700
H  34.27700 48.75500 19.02000
H  33.49300 48.14100 20.46400
H  38.17100 45.71600 21.02200
H  38.11900 47.38100 20.60700
H  38.04700 44.86500 19.01100
H  38.40400 46.50200 18.46400
H  36.78800 46.04200 18.51700
H  38.48800 42.99600 24.65600
H  36.69600 42.56500 24.62000
H  37.70300 42.30000 25.99200
H  37.49900 45.92600 29.53400
H  35.84200 44.05600 33.02300
H  34.92300 43.41500 31.70500
H  34.39600 44.92800 32.32300
Mg -5.84500 25.40300 26.31500
C  -4.61700 26.91200 29.10700
C  -7.75100 23.26000 28.37400
C  -6.54600 23.47100 23.71700
C  -3.82300 27.29400 24.33600
N  -6.11200 24.98500 28.51300
C  -5.56100 25.89400 29.45000
C  -6.07100 25.60300 30.85400
C  -6.81100 24.21000 30.64800
C  -6.94000 24.11300 29.12100
C  -6.19100 23.00200 31.30200
C  -6.98100 26.72400 31.35700
C  -7.06800 26.97300 32.85400
H  -6.47100 25.92000 33.79800
N  -7.18400 23.74300 26.00100
C  -7.89200 23.07700 27.00000
C  -8.83200 22.11800 26.35800
C  -8.49500 22.18100 24.92400
C  -7.32400 23.17700 24.76500
C  -9.84100 21.30000 27.07300
C  -9.00400 21.34500 23.82800
O  -8.78200 21.46400 22.65200
C  -9.97300 20.21600 24.20200
N  -5.31600 25.38100 24.30600
C  -5.62600 24.45600 23.42800
C  -5.15100 24.79100 22.03500
C  -4.53600 26.19500 22.20900
C  -4.52600 26.34100 23.68700
C  -4.28600 23.66200 21.42400
C  -5.35900 27.36000 21.43300
C  -6.34500 28.22900 22.24800
N  -4.52700 26.84200 26.59800
C  -3.81700 27.55900 25.69300
C  -2.98700 28.56200 26.40000
C  -3.28400 28.38100 27.76100
C  -4.21100 27.32100 27.78400
C  -2.20900 29.74200 25.77000
C  -3.10700 28.86400 29.14500
O  -2.40000 29.78200 29.60000
C  -3.94900 27.90500 29.98800
C  -3.03400 27.26300 31.00900
O  -2.39500 26.30500 30.67500
O  -3.12600 27.95500 32.21000
C  -2.22500 27.39200 33.18200
H  -8.29500 22.54100 28.98900
H  -7.04300 23.14300 22.80100
H  -3.10000 27.87100 23.75500
H  -5.20300 25.48600 31.50300
H  -7.81500 24.18300 31.07100
H  -5.46800 23.26900 32.07300
H  -5.74200 22.38300 30.52600
H  -6.95300 22.44000 31.84100
H  -7.98400 26.48800 31.00000
H  -6.70300 27.63900 30.83500
H  -8.13600 26.94800 33.06600
H  -6.58800 27.92100 33.09900
H  -10.84300 21.60500 26.77100
H  -9.94900 21.44100 28.14800
H  -9.74800 20.24800 26.80200
H  -9.40800 19.41500 24.68000
H  -10.34500 19.85200 23.24400
H  -10.77500 20.62400 24.81700
H  -6.00700 24.88000 21.36600
H  -3.51900 26.23900 21.81800
H  -3.34500 23.98200 20.97700
H  -4.80700 23.11400 20.64000
H  -4.01200 22.96800 22.21900
H  -5.91700 26.90400 20.61400
H  -4.61200 27.94300 20.89400
H  -6.20800 28.08500 23.32000
H  -7.38000 27.99400 22.00100
H  -6.30100 29.31600 22.18100
H  -2.48700 29.99900 24.74800
H  -1.14800 29.49200 25.79700
H  -2.41300 30.56300 26.45700
H  -4.61700 28.53400 30.57700
H  -1.29900 27.03000 32.73400
H  -2.80000 26.63100 33.70900
H  -2.16000 28.26000 33.83800

