158

Mg 2.78400 -2.56700 44.80200
C  6.23800 -1.71000 44.51100
C  1.96300 -0.00200 42.72800
C  -0.28600 -3.93300 44.50400
C  3.86600 -5.41400 46.65800
N  4.02900 -1.09500 43.59000
C  5.36300 -0.88200 43.71400
C  5.74700 0.27500 42.83200
C  4.41000 0.91600 42.43000
C  3.36800 -0.03800 43.02300
C  4.11200 2.27700 43.03100
C  6.75700 -0.12500 41.67500
C  7.79500 0.93000 41.39900
H  7.41500 1.77700 40.20700
N  1.03500 -1.98500 43.83200
C  0.90200 -0.86400 43.04000
C  -0.44600 -0.77000 42.52300
C  -1.15300 -1.85700 43.07900
C  -0.16800 -2.66500 43.85000
C  -0.99400 0.31700 41.56900
C  -2.61200 -2.04100 42.96000
O  -3.27400 -1.25200 42.33500
C  -3.38200 -3.09800 43.71000
N  1.80500 -4.45200 45.67200
C  0.56900 -4.79100 45.25800
C  0.25000 -6.22700 45.75000
C  1.64300 -6.71300 46.37400
C  2.50500 -5.52100 46.17300
C  -0.94900 -6.17200 46.74100
C  2.23000 -7.95100 45.59800
C  2.38300 -9.26900 46.38900
N  4.54500 -3.37100 45.47700
C  4.82200 -4.42900 46.29500
C  6.26600 -4.58800 46.54100
C  6.77500 -3.47300 45.95000
C  5.78000 -2.82800 45.25400
C  6.86100 -5.75500 47.24700
C  8.04400 -2.68700 45.78000
O  9.12800 -2.90300 46.22600
C  7.71000 -1.48700 44.86500
C  7.76200 -0.19600 45.64400
O  6.87900 0.07800 46.46100
O  8.74400 0.62100 45.19500
C  8.70000 1.97600 45.73800
H  1.68100 0.92400 42.22200
H  -1.31100 -4.31000 44.47200
H  4.06200 -6.31600 47.24200
H  6.25600 0.95600 43.51400
H  4.29800 0.99700 41.34800
H  3.49500 2.75800 42.27100
H  5.02600 2.74700 43.39300
H  3.56000 2.22100 43.96900
H  6.20800 -0.22100 40.73800
H  7.20900 -1.08300 41.93400
H  8.75100 0.41200 41.32600
H  7.91000 1.60200 42.25000
H  -0.45100 1.26100 41.62200
H  -2.00300 0.62300 41.84300
H  -0.87400 0.00300 40.53200
H  -3.13500 -2.87700 44.74800
H  -3.14900 -4.07900 43.29700
H  -4.44600 -2.87800 43.61400
H  -0.19900 -6.85900 44.98400
H  1.50700 -6.90600 47.43800
H  -1.75600 -6.82400 46.40600
H  -1.35400 -5.16100 46.79200
H  -0.63800 -6.42300 47.75500
H  3.23500 -7.70500 45.25300
H  1.62100 -8.14100 44.71400
H  1.91000 -9.15400 47.36400
H  3.42000 -9.57900 46.51100
H  1.93100 -10.10300 45.85100
H  7.73300 -5.42300 47.81100
H  7.20100 -6.47300 46.50000
H  6.23500 -6.33700 47.92400
H  8.42900 -1.49300 44.04600
H  9.67900 2.16100 46.17800
H  7.93600 2.30500 46.44300
H  8.45200 2.66300 44.92900
Mg 1.35500 7.63200 25.95200
C  1.92700 9.55500 28.84900
C  1.32600 4.78100 27.96000
C  1.28300 5.79400 23.16600
C  1.53600 10.49000 24.11900
N  1.89100 7.18400 28.14900
C  1.87800 8.21500 29.11200
C  1.60200 7.53300 30.47700
C  1.70300 6.03400 30.19500
C  1.65100 5.97300 28.69500
C  3.01500 5.24200 30.72500
C  0.33000 8.00300 31.15700
C  0.32800 8.16800 32.75300
H  1.58100 7.74700 33.52000
N  1.41300 5.52600 25.61800
C  1.33600 4.53300 26.57700
C  0.91500 3.30000 25.93500
C  0.87300 3.55300 24.59900
C  1.19100 4.99500 24.35500
C  0.58700 2.03000 26.72000
C  0.52500 2.61800 23.45200
O  0.43500 3.06100 22.34000
C  0.10600 1.13500 23.71800
N  1.56600 8.03400 23.91200
C  1.44500 7.16400 22.92000
C  1.30100 7.85700 21.51500
C  1.28400 9.30100 21.89100
C  1.43700 9.31100 23.45900
C  2.42900 7.43200 20.47000
C  0.04900 10.09700 21.38000
C  0.52700 10.76100 20.13100
N  1.66700 9.61800 26.39400
C  1.79500 10.66000 25.47400
C  2.13400 11.92700 26.17200
C  2.17400 11.51500 27.48000
C  1.88600 10.16700 27.60100
C  2.29800 13.28600 25.55800
C  2.43400 12.06800 28.85000
O  2.82600 13.18600 29.29300
C  2.13500 10.81000 29.74200
C  3.14900 10.71400 30.83700
O  4.27600 10.19200 30.72900
O  2.65800 11.29400 31.99200
C  3.57300 11.82000 32.96100
H  1.22400 3.90100 28.59900
H  1.07400 5.25100 22.24200
H  1.38700 11.40900 23.54900
H  2.50800 7.81200 31.01500
H  0.80700 5.54900 30.58200
H  3.59500 5.76900 31.48200
H  3.69000 4.97700 29.91100
H  2.72500 4.23400 31.02100
H  -0.51300 7.32600 31.02300
H  0.19700 8.99700 30.72900
H  -0.54200 7.71900 33.23000
H  0.20200 9.22900 32.97100
H  -0.21900 1.47300 26.24300
H  0.28000 2.28600 27.73400
H  1.51400 1.46600 26.82500
H  0.69700 0.71200 24.53100
H  0.35800 0.60700 22.79800
H  -0.92600 1.10200 24.06700
H  0.31400 7.59800 21.13100
H  2.20300 9.78000 21.55700
H  3.03900 8.31400 20.27500
H  2.02700 7.22900 19.47700
H  3.03400 6.59900 20.82700
H  -0.35700 10.84800 22.05800
H  -0.76500 9.43000 21.09700
H  0.79700 10.06400 19.33800
H  1.34800 11.44600 20.34600
H  -0.28100 11.32900 19.67200
H  2.46100 14.08700 26.27900
H  1.33800 13.46000 25.07200
H  3.11100 13.37600 24.83700
H  1.23400 11.04300 30.31000
H  4.29200 12.27900 32.28200
H  4.03700 11.04800 33.57500
H  3.12800 12.57500 33.60900

