158

Mg 8.15700 2.32800 28.54200
C  9.65600 0.87900 31.44100
C  6.32000 4.38600 30.68800
C  6.69800 3.48800 25.95700
C  9.59100 -0.33900 26.69400
N  8.00100 2.60900 30.80800
C  8.81900 2.03400 31.76000
C  8.48800 2.59600 33.17000
C  7.29600 3.58300 32.90400
C  7.22400 3.57000 31.34900
C  6.07600 3.16100 33.59500
C  9.68000 3.13600 33.82800
C  10.11100 2.60000 35.15900
H  10.71200 3.52800 36.16700
N  6.60000 3.72100 28.28300
C  6.00300 4.48300 29.32700
C  5.15100 5.42800 28.65400
C  5.23800 5.26200 27.20400
C  6.15800 4.11400 27.08300
C  4.25800 6.34700 29.27300
C  4.71200 5.97700 26.09900
O  4.95200 5.64300 24.94900
C  3.84400 7.26300 26.29000
N  8.12100 1.62300 26.59800
C  7.53800 2.40100 25.69800
C  7.64800 1.73000 24.24700
C  8.73000 0.68800 24.50700
C  8.82600 0.66100 25.99900
C  6.30200 1.22400 23.66100
C  10.14300 1.06400 23.81500
C  11.34500 1.66000 24.70100
N  9.41300 0.60400 28.94900
C  9.88600 -0.37200 28.11100
C  10.73900 -1.22000 28.78600
C  10.70000 -0.78600 30.17300
C  9.86200 0.33600 30.18600
C  11.71900 -2.25800 28.17400
C  11.13800 -1.05800 31.50700
O  11.77600 -2.03800 31.89600
C  10.53600 0.04100 32.42400
C  9.74300 -0.69700 33.44500
O  8.60300 -1.13100 33.26100
O  10.39300 -0.67800 34.67400
C  9.66400 -1.07700 35.92600
H  5.74700 5.02000 31.36800
H  6.30300 3.77000 24.97900
H  9.96600 -1.07800 25.98200
H  8.09300 1.77200 33.76300
H  7.68800 4.54400 33.23900
H  5.50500 2.45100 32.99600
H  5.27800 3.90200 33.63000
H  6.27400 2.85600 34.62300
H  9.64400 4.22000 33.93700
H  10.50800 2.95100 33.14400
H  10.85700 1.84500 34.91200
H  9.29600 2.05300 35.63400
H  4.65100 7.33200 29.02200
H  4.12600 6.12200 30.33100
H  3.33500 6.13500 28.73300
H  2.82000 7.03300 26.58700
H  3.90300 7.69700 25.29200
H  4.30100 7.97400 26.97800
H  8.05400 2.50600 23.59800
H  8.35000 -0.25300 24.10900
H  5.48400 1.20500 24.38000
H  6.38900 0.18800 23.33600
H  5.98100 1.73600 22.75400
H  10.00400 1.71700 22.95300
H  10.39200 0.13000 23.31300
H  10.91400 1.75200 25.69800
H  11.53700 2.67300 24.34500
H  12.21300 1.00200 24.67000
H  12.34900 -1.82200 27.39800
H  11.24300 -3.12300 27.71300
H  12.34400 -2.52700 29.02600
H  11.35200 0.63100 32.84100
H  8.85300 -0.37900 36.13900
H  10.37300 -1.09900 36.75300
H  9.17400 -2.05000 35.90800
Mg -10.73800 38.38800 40.59000
C  -8.84400 35.73900 39.53000
C  -8.18200 40.47300 39.24400
C  -12.80700 41.15800 40.59800
C  -13.15600 36.33900 41.76600
N  -8.72600 38.05700 39.45500
C  -8.24100 36.87700 39.05900
C  -6.76800 37.00900 38.54300
C  -6.56300 38.57300 38.63800
C  -7.91400 39.12000 39.15700
C  -5.33300 39.03600 39.41000
C  -6.70500 36.38800 37.07300
C  -5.36300 35.75200 36.68300
H  -4.87600 36.16200 35.26100
N  -10.43700 40.61600 40.10200
C  -9.31400 41.22700 39.69300
C  -9.55300 42.52200 39.48300
C  -10.94900 42.81100 39.77500
C  -11.49000 41.47600 40.14800
C  -8.47600 43.52900 39.08100
C  -11.66000 44.11700 39.61000
O  -11.08100 45.19000 39.50500
C  -13.17200 44.15500 39.71000
N  -12.58600 38.68700 40.94600
C  -13.24700 39.89100 40.93600
C  -14.76000 39.67200 41.26000
C  -14.85000 38.17200 41.53700
C  -13.40300 37.71200 41.49500
C  -15.37900 40.67500 42.23900
C  -15.76200 37.31600 40.59800
C  -17.17600 37.11200 41.08300
N  -10.92400 36.47300 40.81000
C  -11.93300 35.74300 41.36900
C  -11.51400 34.36000 41.53300
C  -10.30200 34.27900 40.72000
C  -9.98500 35.60700 40.28200
C  -12.21800 33.23300 42.29100
C  -9.25300 33.37300 40.26400
O  -9.03900 32.16600 40.37100
C  -8.31600 34.28600 39.40900
C  -6.93200 34.03500 40.05100
O  -6.07400 33.38700 39.48900
O  -6.74900 34.76100 41.18900
C  -5.32600 34.69900 41.70100
H  -7.43600 41.16400 38.84600
H  -13.42300 42.04600 40.75400
H  -13.95800 35.73600 42.19800
H  -6.16600 36.38700 39.20600
H  -6.29700 38.94200 37.64700
H  -4.76200 39.74600 38.81200
H  -4.65200 38.18600 39.46500
H  -5.73000 39.51800 40.30300
H  -6.88300 37.27800 36.47000
H  -7.51800 35.72100 36.78600
H  -5.44800 34.66500 36.67500
H  -4.60100 36.03600 37.40900
H  -8.28600 43.27300 38.03900
H  -7.60300 43.34600 39.70700
H  -8.69500 44.59300 39.17600
H  -13.34800 44.04500 40.78000
H  -13.58400 43.40100 39.04000
H  -13.58100 45.12600 39.43000
H  -15.30400 39.87600 40.33800
H  -15.22600 37.92600 42.53000
H  -15.75700 40.23500 43.16200
H  -16.17300 41.23100 41.74000
H  -14.63400 41.41200 42.54000
H  -15.28900 36.37000 40.33600
H  -15.98600 37.80400 39.64900
H  -17.52500 36.25500 40.50600
H  -17.76800 38.00600 40.88800
H  -17.23700 36.89300 42.14900
H  -11.89100 33.27300 43.33000
H  -11.79600 32.31100 41.89100
H  -13.28900 33.39300 42.16800
H  -8.36600 33.86000 38.40700
H  -4.90700 35.52100 42.28200
H  -4.63700 34.72600 40.85700
H  -5.19500 33.75300 42.22700

