158

Mg 24.20400 -4.43900 45.27800
C  26.57900 -2.04300 44.02200
C  21.93100 -3.09400 43.26400
C  22.52200 -7.29000 45.57400
C  27.13900 -6.03100 46.73300
N  24.23000 -2.73100 43.80000
C  25.27600 -1.86100 43.54900
C  24.85600 -0.80800 42.39700
C  23.25900 -0.95200 42.45100
C  23.07200 -2.30900 43.18500
C  22.55300 0.16800 43.20500
C  25.38100 -1.25800 40.98300
C  25.91500 -0.09000 39.92600
H  25.52400 -0.25900 38.37800
N  22.37400 -5.04800 44.69500
C  21.58300 -4.33300 43.84900
C  20.27700 -4.94100 43.88300
C  20.45000 -6.20400 44.51900
C  21.83500 -6.28500 44.94600
C  19.01600 -4.46700 43.09700
C  19.35800 -7.28800 44.66600
O  18.23400 -7.13600 44.16600
C  19.56800 -8.62600 45.41800
N  24.77200 -6.37500 46.00000
C  23.86200 -7.38100 46.04900
C  24.32800 -8.61300 46.82100
C  25.83800 -8.28000 47.06600
C  25.96600 -6.79400 46.58000
C  23.42300 -8.94200 48.05200
C  26.83300 -9.18400 46.32000
C  28.25100 -9.34600 46.87400
N  26.39100 -4.12600 45.48100
C  27.41000 -4.78600 46.18700
C  28.67300 -4.16500 46.06100
C  28.38900 -3.07100 45.23500
C  27.01100 -3.10100 44.85000
C  29.95600 -4.61200 46.68500
C  28.88100 -1.83200 44.62100
O  29.93800 -1.26200 44.70700
C  27.81700 -1.29900 43.65500
C  27.68800 0.21600 43.66900
O  27.14800 0.89400 44.58500
O  28.35100 0.74000 42.56100
C  28.18400 2.16800 42.28600
H  21.15600 -2.80500 42.55000
H  22.03200 -8.26100 45.66600
H  27.95100 -6.55800 47.23800
H  25.21700 0.20300 42.58400
H  22.85100 -1.04200 41.44500
H  22.58800 1.03100 42.53900
H  22.98700 0.24300 44.20200
H  21.49500 -0.07700 43.29400
H  24.54100 -1.73200 40.47500
H  26.16900 -2.01000 41.02800
H  27.00000 -0.12500 40.02500
H  25.48000 0.85000 40.26700
H  18.75000 -5.12500 42.26900
H  19.32900 -3.57000 42.56200
H  18.19200 -4.35000 43.80100
H  19.85700 -8.30800 46.42000
H  20.29600 -9.22800 44.87400
H  18.66800 -9.23300 45.51400
H  24.26100 -9.47300 46.15400
H  26.11500 -8.05800 48.09700
H  23.98800 -9.15500 48.96000
H  22.70600 -9.72600 47.80800
H  22.69700 -8.21400 48.41300
H  27.02700 -8.77300 45.32900
H  26.45100 -10.19200 46.15700
H  29.03900 -9.05600 46.17900
H  28.40200 -10.36200 47.23800
H  28.48500 -8.73000 47.74200
H  30.71700 -3.83200 46.69700
H  30.39500 -5.53400 46.30600
H  29.84100 -4.71900 47.76400
H  28.19000 -1.66100 42.69700
H  27.74800 2.80300 43.05600
H  27.54100 2.25200 41.40900
H  29.12600 2.69200 42.12600
Mg 40.57300 9.22500 29.77600
C  42.56800 10.56200 32.41600
C  38.23300 8.41100 32.15700
C  39.01100 7.42700 27.32600
C  43.20700 9.73800 27.55000
N  40.52400 9.39500 32.06100
C  41.38300 10.06600 32.86600
C  40.86400 10.03400 34.34200
C  39.49000 9.24600 34.24200
C  39.37700 9.01900 32.71500
C  39.35600 7.93400 34.95100
C  40.92300 11.47700 34.94700
C  40.08200 11.66300 36.31300
H  40.85400 12.12200 37.53600
N  38.79300 8.27300 29.71200
C  37.91300 8.03200 30.83200
C  36.65800 7.53100 30.28200
C  36.87200 7.23200 28.88600
C  38.32400 7.58500 28.56200
C  35.38700 7.29000 31.17000
C  35.82200 6.85200 27.82800
O  35.98600 6.80200 26.63500
C  34.45200 6.76300 28.25000
N  41.06400 8.55100 27.75300
C  40.29900 7.82600 26.93100
C  40.78300 7.87900 25.45600
C  41.90300 9.04100 25.52000
C  42.10500 9.08200 27.02100
C  41.24000 6.47700 24.87700
C  41.61500 10.39500 24.88100
C  42.84700 11.24300 24.42200
N  42.50200 10.00700 29.94000
C  43.41000 10.24400 28.90300
C  44.62500 10.88800 29.50900
C  44.29800 11.09900 30.86100
C  43.01100 10.49100 31.06700
C  45.78300 11.29100 28.66500
C  44.74000 11.70100 32.07000
O  45.81300 12.25600 32.32000
C  43.62800 11.24500 33.17600
C  44.33200 10.39100 34.16400
O  44.78500 9.29000 33.92600
O  44.37700 11.05700 35.32400
C  44.94900 10.46000 36.56100
H  37.51900 8.16900 32.94800
H  38.54700 6.82200 26.54400
H  43.98700 9.99900 26.83200
H  41.61000 9.43200 34.86200
H  38.60500 9.80700 34.54200
H  38.47900 8.09700 35.57700
H  40.25200 7.80500 35.55800
H  39.15200 7.00000 34.42700
H  40.36700 12.04400 34.20000
H  41.94100 11.76800 35.20300
H  39.68600 10.68300 36.58200
H  39.19600 12.27100 36.12700
H  34.36200 7.47200 30.84800
H  35.57400 7.97900 31.99300
H  35.51100 6.34100 31.69100
H  33.75700 6.54800 27.43800
H  34.20300 7.73400 28.67700
H  34.28300 6.04700 29.05500
H  39.91800 8.19700 24.87500
H  42.82700 8.64500 25.10000
H  42.23800 6.54400 24.44300
H  40.72300 6.04500 24.02100
H  41.19900 5.84100 25.76100
H  41.12500 11.05300 25.59900
H  41.01800 10.34700 23.97000
H  43.74700 10.62900 24.44500
H  42.89200 12.07200 25.12700
H  42.79700 11.75700 23.46200
H  46.38400 10.41600 28.41800
H  46.37300 11.98900 29.25900
H  45.49700 11.86400 27.78300
H  43.30700 12.17500 33.64600
H  45.87100 10.91400 36.92500
H  44.97300 9.37600 36.67200
H  44.27700 10.82400 37.33800

