158

Mg 24.96600 0.97000 29.33500
C  27.15800 0.78200 32.18400
C  22.28000 0.81400 31.62100
C  22.99600 0.62900 26.81400
C  27.77100 0.15900 27.45000
N  24.75600 0.85900 31.66700
C  25.78500 0.96500 32.54300
C  25.31700 1.45100 33.92500
C  23.72200 1.17900 33.85600
C  23.53800 1.04200 32.26300
C  23.12000 -0.06200 34.64000
C  25.61300 2.92800 34.29400
C  26.24800 3.00100 35.73700
H  25.53600 3.87900 36.77700
N  22.99900 0.90200 29.21800
C  22.04000 0.89200 30.21300
C  20.67600 0.82600 29.65500
C  20.87000 0.83000 28.25000
C  22.34900 0.75200 28.01600
C  19.42000 0.94300 30.54500
C  19.96500 0.80100 27.13200
O  20.24100 0.93500 25.97000
C  18.52800 0.65300 27.44000
N  25.40300 0.57500 27.39800
C  24.40100 0.58300 26.50400
C  24.87800 0.63000 25.04400
C  26.41800 0.52800 25.27100
C  26.58300 0.31700 26.76500
C  24.20000 -0.35000 24.05700
C  27.18300 1.78300 24.71300
C  27.25500 3.04900 25.59800
N  27.10800 0.47700 29.68400
C  28.12000 0.25700 28.80200
C  29.37600 0.20300 29.53100
C  29.03500 0.36600 30.85000
C  27.65100 0.51900 30.89700
C  30.70400 -0.04400 28.87400
C  29.60700 0.58100 32.14100
O  30.81900 0.52300 32.52700
C  28.39300 0.89400 33.10100
C  28.39200 -0.03900 34.30000
O  28.13300 -1.20800 34.27400
O  28.83800 0.64000 35.42400
C  29.06400 -0.14800 36.63700
H  21.43800 0.73700 32.31100
H  22.51500 0.67700 25.83500
H  28.54100 0.00700 26.69100
H  25.78300 0.71500 34.58100
H  23.09800 2.02900 34.13200
H  22.35300 -0.53800 34.02900
H  22.59500 0.30500 35.52200
H  23.96200 -0.69800 34.91400
H  24.69500 3.51200 34.23000
H  26.31600 3.30000 33.54900
H  27.27700 3.31400 35.56000
H  26.27600 1.98400 36.12900
H  19.05800 1.97100 30.56700
H  19.52900 0.46600 31.51900
H  18.60900 0.34900 30.12600
H  18.55700 -0.37100 27.81200
H  17.89300 0.75200 26.56000
H  18.22000 1.45500 28.11200
H  24.50800 1.62600 24.80400
H  26.78100 -0.40800 24.84700
H  23.36700 0.12100 23.53600
H  23.81800 -1.27500 24.48800
H  24.92700 -0.67000 23.31000
H  26.66900 2.09700 23.80400
H  28.14800 1.48100 24.30600
H  26.99900 2.76700 26.61900
H  26.63500 3.87400 25.24700
H  28.24700 3.47500 25.74900
H  31.01200 0.84400 28.32300
H  30.60300 -0.91700 28.22900
H  31.46400 -0.08100 29.65500
H  28.45900 1.90200 33.51100
H  28.08300 -0.33400 37.07400
H  29.71200 0.26900 37.40800
H  29.50000 -1.11800 36.39500
Mg 46.96300 16.79800 27.97700
C  44.98800 16.90200 30.87800
C  49.33800 18.73900 29.69200
C  48.88800 17.08800 25.15600
C  44.45400 15.26800 26.26100
N  47.19700 17.71800 30.07000
C  46.23300 17.60700 31.05200
C  46.79100 18.11100 32.39600
C  48.01300 19.02200 31.90600
C  48.20600 18.54400 30.46600
C  47.84700 20.54600 31.98700
C  47.21700 16.98400 33.39000
C  47.43000 17.40800 34.85500
H  46.87700 18.76100 35.37000
N  48.86400 17.67100 27.50900
C  49.62400 18.43200 28.35800
C  50.83700 18.88800 27.73200
C  50.74200 18.54400 26.34600
C  49.45800 17.73900 26.25700
C  51.95800 19.69200 28.47300
C  51.61800 18.86500 25.23300
O  51.33700 18.77000 24.07200
C  52.91900 19.45300 25.51600
N  46.72400 16.33000 26.06800
C  47.63200 16.48900 25.09100
C  47.04700 16.09300 23.68400
C  45.67500 15.42100 24.05200
C  45.65000 15.56200 25.59300
C  46.95700 17.19800 22.62300
C  45.41300 13.95800 23.55800
C  44.26600 13.79100 22.53100
N  45.08100 16.31100 28.39900
C  44.18700 15.58600 27.63300
C  42.99500 15.27700 28.37000
C  43.29900 15.65700 29.66900
C  44.57200 16.32400 29.65500
C  41.78300 14.55900 27.94600
C  42.87300 15.59200 31.04900
O  41.96500 14.94100 31.58000
C  43.93400 16.50400 31.87900
C  43.24000 17.69300 32.49600
O  42.66600 18.61900 31.89400
O  43.35000 17.63200 33.86300
C  42.55200 18.64000 34.63900
H  50.14500 19.25800 30.21200
H  49.39800 17.22700 24.20000
H  43.76000 14.65000 25.68700
H  46.10200 18.81600 32.86200
H  48.84000 18.67900 32.52800
H  46.86900 20.86200 32.35100
H  47.82300 21.05400 31.02300
H  48.44900 21.03900 32.75000
H  48.12200 16.60700 32.91500
H  46.52600 16.15000 33.51000
H  48.51900 17.42500 34.89800
H  46.99900 16.65700 35.51800
H  51.98200 19.76600 29.56000
H  51.65500 20.69500 28.17300
H  52.98300 19.54600 28.13300
H  52.78400 20.37700 26.07800
H  53.41900 19.54700 24.55200
H  53.50200 18.77300 26.13600
H  47.71700 15.30000 23.34900
H  44.83600 15.99200 23.65400
H  45.93600 17.57300 22.54400
H  47.36800 16.84700 21.67600
H  47.61700 18.00100 22.94900
H  45.27400 13.32100 24.43100
H  46.24700 13.56400 22.97700
H  43.87800 12.77800 22.43000
H  44.62100 14.03800 21.53000
H  43.49800 14.52900 22.76200
H  41.59600 14.97800 26.95700
H  41.01800 14.72500 28.70400
H  41.95200 13.48200 27.95300
H  44.31100 15.90700 32.71000
H  41.75300 18.99700 33.99000
H  43.10200 19.51400 34.98600
H  42.08600 18.13200 35.48400

