158

Mg -2.58800 17.28800 26.36500
C  -2.76000 14.90100 29.02900
C  -3.23500 19.65300 28.67900
C  -2.64200 19.44300 23.92100
C  -2.46600 14.65500 24.06700
N  -2.76800 17.26300 28.73000
C  -2.85600 16.18700 29.52400
C  -3.41000 16.58000 30.87600
C  -3.72600 18.11300 30.73100
C  -3.24600 18.36500 29.30400
C  -5.22600 18.53100 30.92100
C  -2.46400 16.25500 32.12600
C  -2.56300 16.99600 33.42600
H  -2.59100 16.25000 34.72300
N  -2.79200 19.33100 26.28400
C  -3.04600 20.12500 27.33100
C  -3.24900 21.51400 26.83600
C  -3.02500 21.44200 25.41500
C  -2.76900 20.02100 25.17100
C  -3.44900 22.75100 27.70100
C  -2.86700 22.57100 24.44100
O  -2.41100 22.34200 23.31700
C  -3.06400 24.02500 24.72700
N  -2.85600 17.05800 24.32300
C  -2.71100 18.11400 23.53700
C  -2.48300 17.67100 22.08800
C  -2.30200 16.15100 22.13000
C  -2.44300 15.94300 23.62200
C  -3.56400 18.04800 21.05500
C  -1.04300 15.59100 21.41700
C  0.27800 15.57400 22.20700
N  -2.55900 15.22100 26.42200
C  -2.51600 14.29500 25.39700
C  -2.47500 12.93700 25.96300
C  -2.61200 13.17300 27.32800
C  -2.66500 14.58800 27.59200
C  -2.47900 11.66200 25.19200
C  -2.76700 12.47800 28.59500
O  -2.76100 11.25600 28.74900
C  -2.81000 13.55200 29.69300
C  -1.66200 13.32500 30.62600
O  -0.59900 13.91400 30.59500
O  -2.07000 12.56400 31.63100
C  -0.93500 12.17500 32.47800
H  -3.29800 20.49600 29.37000
H  -2.51400 20.05500 23.02600
H  -2.41400 13.83600 23.34700
H  -4.32700 15.99100 30.86700
H  -3.05000 18.72600 31.32600
H  -5.75700 18.08300 31.76100
H  -5.81800 18.46300 30.00800
H  -5.22100 19.57300 31.24200
H  -1.44600 16.21300 31.73800
H  -2.77000 15.25900 32.44300
H  -3.43400 17.63200 33.27100
H  -1.71800 17.68300 33.47100
H  -3.64600 22.53200 28.75100
H  -4.35900 23.26400 27.39100
H  -2.67600 23.51400 27.61400
H  -4.08200 24.29800 25.00600
H  -3.00200 24.49300 23.74400
H  -2.35000 24.37200 25.47300
H  -1.48400 18.06600 21.90800
H  -3.14300 15.61300 21.69200
H  -3.41800 17.42600 20.17200
H  -3.39800 19.06700 20.70600
H  -4.55300 17.86600 21.47500
H  -0.86500 16.34100 20.64700
H  -1.30500 14.62400 20.98800
H  0.23000 15.80000 23.27200
H  0.91200 16.27300 21.66200
H  0.68400 14.56900 22.09400
H  -1.42800 11.43000 25.02400
H  -2.90100 11.78600 24.19400
H  -3.06700 10.91900 25.73100
H  -3.70000 13.50000 30.32100
H  0.04700 11.94900 32.06300
H  -1.22100 11.28200 33.03300
H  -0.84700 12.95800 33.23200
Mg 41.32400 8.15000 29.59900
C  43.08000 9.70000 32.29600
C  39.25600 6.70500 31.78300
C  39.81800 6.49100 26.96500
C  43.99400 9.01000 27.48100
N  41.21600 8.14500 31.80500
C  41.92700 8.98800 32.74600
C  41.23200 9.00200 34.05700
C  40.06800 8.00500 33.88700
C  40.22300 7.52700 32.39900
C  40.19100 6.87200 34.92800
C  40.72300 10.40400 34.56400
C  40.12600 10.45900 36.06300
H  40.78200 11.43800 36.98600
N  39.69700 6.91600 29.38600
C  39.02000 6.37800 30.42300
C  37.95500 5.61200 29.94400
C  37.94600 5.69900 28.50200
C  39.16700 6.43800 28.19400
C  37.04200 4.78600 30.93700
C  36.86200 5.35700 27.53800
O  37.07900 5.55900 26.36600
C  35.59000 4.68300 28.04700
N  41.86400 7.72900 27.56500
C  41.07300 7.13600 26.63400
C  41.61800 7.25000 25.15100
C  42.90600 8.15400 25.41000
C  42.91900 8.30300 26.90300
C  41.89100 5.93900 24.52400
C  42.94800 9.45100 24.59700
C  42.03000 10.52200 25.08600
N  43.22600 9.02800 29.80400
C  44.12300 9.44700 28.85000
C  45.19000 10.24400 29.43700
C  44.78500 10.35400 30.81900
C  43.61500 9.63600 30.95400
C  46.33900 10.68200 28.72100
C  45.15100 10.95000 32.06300
O  46.04000 11.71400 32.42000
C  43.98700 10.57500 33.08000
C  44.66700 9.66900 34.11100
O  45.59300 8.91900 33.86400
O  44.10900 9.90700 35.35100
C  44.81600 9.21800 36.44000
H  38.61300 6.26900 32.55100
H  39.44800 6.03900 26.04200
H  44.76900 9.35700 26.79400
H  41.97000 8.53900 34.71300
H  39.13400 8.56500 33.82000
H  40.80400 7.05000 35.81200
H  40.65100 6.08300 34.33300
H  39.22100 6.46800 35.21600
H  40.05500 10.96100 33.90600
H  41.60000 11.05200 34.53900
H  39.94200 9.52300 36.59100
H  39.14400 10.88200 35.85100
H  36.73900 3.86300 30.44300
H  36.27500 5.47400 31.29300
H  37.60300 4.46300 31.81400
H  35.72500 3.68600 28.46400
H  34.72300 4.65900 27.38600
H  35.28000 5.28000 28.90500
H  40.86300 7.72600 24.52500
H  43.80900 7.57300 25.22200
H  41.80000 5.20400 25.32400
H  42.93800 5.88400 24.22500
H  41.33800 5.64200 23.63300
H  42.63400 9.17800 23.58900
H  43.95500 9.86400 24.55000
H  41.72000 10.24700 26.09400
H  41.17900 10.83200 24.47900
H  42.57600 11.45800 25.20400
H  46.02300 11.64600 28.32400
H  46.67200 9.92100 28.01500
H  47.11600 10.78600 29.47800
H  43.67600 11.52800 33.50800
H  45.90000 9.29900 36.36500
H  44.45300 8.19200 36.38300
H  44.61000 9.71600 37.38700

