158

Mg 2.06200 -2.26400 43.92300
C  5.41000 -1.57600 43.38500
C  1.14000 0.55200 42.26700
C  -1.25000 -3.29000 43.95400
C  3.04800 -5.39300 45.20800
N  3.22600 -0.75900 42.77400
C  4.58500 -0.59600 42.81000
C  5.05000 0.75700 42.15300
C  3.63800 1.45500 41.96100
C  2.57500 0.38500 42.34200
C  3.35400 2.81900 42.67900
C  5.94500 0.44800 40.89100
C  7.05300 1.51400 40.61900
H  6.79400 2.51200 39.54800
N  0.15000 -1.46600 43.27900
C  0.05500 -0.29400 42.59700
C  -1.32000 0.04400 42.40600
C  -2.06500 -0.90900 43.07500
C  -1.07400 -2.03800 43.33100
C  -1.79300 1.33900 41.75900
C  -3.58000 -0.98400 43.42500
O  -4.32900 -0.16700 42.93700
C  -4.11100 -1.98700 44.37400
N  1.01900 -4.20600 44.35600
C  -0.32000 -4.33100 44.28600
C  -0.76100 -5.70500 44.91800
C  0.63500 -6.33400 45.33400
C  1.65400 -5.26700 44.98700
C  -1.76500 -5.55300 46.18100
C  0.99100 -7.70300 44.83000
C  1.86000 -8.68900 45.66800
N  3.85100 -3.38300 44.22400
C  4.10100 -4.60900 44.77500
C  5.54300 -4.83500 44.78200
C  6.05600 -3.65800 44.30900
C  5.00700 -2.79700 43.94800
C  6.22100 -5.97500 45.37100
C  7.32900 -2.92300 44.10500
O  8.45900 -3.24500 44.35000
C  6.88800 -1.57700 43.46700
C  7.39800 -0.32400 44.22000
O  8.25600 0.41800 43.87000
O  6.72500 -0.02500 45.38000
C  6.96800 1.28800 46.08300
H  0.88500 1.41700 41.65200
H  -2.28800 -3.62500 44.01400
H  3.25300 -6.37800 45.63200
H  5.58700 1.30600 42.92700
H  3.49300 1.60400 40.89200
H  2.45000 2.84100 43.28700
H  3.23500 3.58000 41.90800
H  4.23500 2.97300 43.30200
H  5.25700 0.42500 40.04600
H  6.41200 -0.53200 40.99300
H  7.94200 1.00900 40.24100
H  7.29900 2.01400 41.55600
H  -0.99300 2.03100 41.49700
H  -2.57600 1.83400 42.33300
H  -2.14000 0.92200 40.81300
H  -3.29400 -2.20600 45.06200
H  -4.34700 -2.93100 43.88300
H  -5.06600 -1.66100 44.78700
H  -1.27300 -6.27600 44.14300
H  0.74700 -6.25200 46.41500
H  -1.40700 -5.91700 47.14400
H  -2.73900 -6.02000 46.03400
H  -1.93300 -4.49600 46.39100
H  1.42100 -7.44500 43.86200
H  0.01700 -8.18600 44.76100
H  2.61200 -9.11700 45.00400
H  1.32000 -9.59300 45.94600
H  2.44700 -8.13800 46.40300
H  6.36400 -6.79000 44.66200
H  5.63500 -6.26500 46.24300
H  7.21800 -5.70800 45.72200
H  7.51300 -1.39300 42.59300
H  6.52200 1.45600 47.06400
H  6.57900 2.03400 45.39000
H  8.01700 1.56300 46.18600
Mg 8.94500 3.73200 27.07100
C  10.25700 2.16500 29.92700
C  7.00500 5.74300 29.07900
C  7.67200 5.29600 24.30600
C  10.43000 1.40500 25.09400
N  8.55700 3.80500 29.24900
C  9.34300 3.20700 30.24400
C  9.04600 3.74700 31.66300
C  8.11100 4.86600 31.35500
C  7.98000 4.92100 29.78700
C  6.68800 4.87000 32.09800
C  10.31500 4.22500 32.45400
C  9.96800 4.72900 33.85300
H  11.05100 4.47400 34.91600
N  7.46700 5.18500 26.73300
C  6.86200 5.92300 27.68600
C  5.96700 6.94900 27.07900
C  6.24800 6.93100 25.74200
C  7.16100 5.80400 25.48900
C  5.13800 7.94500 27.82200
C  5.81900 7.85600 24.61800
O  6.27000 7.74400 23.46500
C  4.90100 9.08200 24.92100
N  8.97400 3.36900 24.91000
C  8.46400 4.16600 24.01700
C  8.86400 3.74200 22.53900
C  9.61400 2.35300 22.86300
C  9.68200 2.37700 24.37700
C  7.87700 3.65100 21.34400
C  10.95500 2.14100 22.11900
C  10.84300 1.38000 20.76100
N  10.12400 2.15800 27.36100
C  10.67300 1.27500 26.47300
C  11.49200 0.30700 27.15300
C  11.45900 0.69000 28.50300
C  10.53200 1.75800 28.61500
C  12.10700 -0.86000 26.50300
C  11.92400 0.37000 29.86100
O  12.71100 -0.49300 30.24000
C  11.19500 1.30700 30.84300
C  10.50400 0.57100 31.85700
O  9.51700 -0.15000 31.74300
O  11.15900 0.84300 33.05700
C  10.53000 0.22100 34.25000
H  6.43800 6.41000 29.73300
H  7.46300 5.85800 23.39300
H  10.70000 0.54100 24.48400
H  8.58600 3.00600 32.31700
H  8.55900 5.81500 31.65300
H  5.95800 4.50500 31.37600
H  6.54600 5.89100 32.45100
H  6.52300 4.17400 32.92100
H  10.78300 5.00800 31.85700
H  11.09500 3.47000 32.36100
H  9.03000 4.26600 34.16100
H  9.75700 5.78300 33.67300
H  5.69500 8.88200 27.79600
H  4.96900 7.85000 28.89500
H  4.26400 8.14000 27.20100
H  5.28300 9.82300 25.62400
H  3.89400 8.80100 25.22700
H  4.87900 9.63200 23.98100
H  9.60200 4.47700 22.21700
H  8.90100 1.54500 22.70000
H  7.88800 2.61100 21.01600
H  8.17800 4.38300 20.59400
H  6.85700 3.92300 21.61500
H  11.67900 1.71300 22.81300
H  11.32800 3.15000 21.94300
H  11.59800 0.62900 20.52900
H  10.91300 2.18200 20.02600
H  9.82500 1.00200 20.67300
H  12.39500 -0.72300 25.46100
H  11.39200 -1.67800 26.41100
H  12.96700 -1.20600 27.07600
H  11.96300 1.95300 31.26800
H  9.49000 0.53100 34.35000
H  10.89700 0.75400 35.12700
H  10.66600 -0.84600 34.42300

