158

Mg 16.80900 -1.94500 27.69800
C  15.85100 0.15700 30.26600
C  18.82300 -3.57300 29.78800
C  17.98700 -3.64000 25.11000
C  14.99900 0.17300 25.41200
N  17.26400 -1.71600 29.75100
C  16.75300 -0.85600 30.63300
C  17.30400 -1.00600 32.05000
C  18.50500 -1.96800 31.85600
C  18.20900 -2.46100 30.40900
C  19.90600 -1.40900 32.02200
C  16.20400 -1.66000 32.96900
C  16.12200 -1.05900 34.36400
H  17.35500 -0.44300 34.95700
N  18.01300 -3.56000 27.49300
C  18.74500 -4.05400 28.49700
C  19.27000 -5.26500 28.04500
C  19.10600 -5.37900 26.68600
C  18.34200 -4.18800 26.35000
C  20.18900 -6.15500 28.96600
C  19.57800 -6.50300 25.66900
O  19.51600 -6.37900 24.45900
C  20.18900 -7.77100 26.24300
N  16.44400 -1.85200 25.57800
C  17.14700 -2.62400 24.70900
C  16.79800 -2.29500 23.21500
C  15.76800 -1.14800 23.32500
C  15.74200 -0.94100 24.88400
C  18.14500 -1.96600 22.54500
C  14.33600 -1.45200 22.79100
C  13.96300 -0.62200 21.50600
N  15.75900 -0.19600 27.74400
C  15.01000 0.53500 26.79800
C  14.19900 1.54400 27.41200
C  14.56100 1.49800 28.77300
C  15.47500 0.41900 28.94700
C  13.19700 2.47000 26.83900
C  14.30200 2.04700 30.06800
O  13.59800 2.94600 30.43400
C  15.15300 1.16600 31.11000
C  16.09300 2.08500 31.91700
O  17.19500 2.46500 31.63700
O  15.37500 2.39700 33.10100
C  16.15900 3.30200 33.98600
H  19.62600 -3.95700 30.42000
H  18.41200 -4.29200 24.34300
H  14.37800 0.74800 24.72200
H  17.57700 -0.04900 32.49400
H  18.41400 -2.85200 32.48800
H  20.50800 -1.98500 32.72500
H  19.86000 -0.44100 32.52100
H  20.49500 -1.29500 31.11200
H  16.44300 -2.72000 33.04800
H  15.20600 -1.55900 32.54300
H  15.65700 -1.84400 34.96100
H  15.38600 -0.25500 34.35100
H  21.19600 -6.08000 28.55600
H  19.98500 -7.22600 28.94000
H  20.12700 -5.97200 30.03800
H  19.52700 -8.07300 27.05500
H  21.15900 -7.41600 26.58900
H  20.22900 -8.52200 25.45400
H  16.31700 -3.15100 22.74000
H  16.22400 -0.21100 23.00700
H  18.95800 -1.85200 23.26100
H  18.13600 -0.94900 22.15400
H  18.34200 -2.67200 21.73800
H  13.52400 -1.30000 23.50100
H  14.31000 -2.44700 22.34600
H  14.89700 -0.37200 21.00100
H  13.50900 0.32000 21.81300
H  13.34700 -1.22600 20.84000
H  13.71700 3.42300 26.74600
H  12.30900 2.73500 27.41400
H  12.68600 2.17400 25.92300
H  14.38500 0.69500 31.72500
H  16.78400 3.99600 33.42400
H  16.68500 2.79500 34.79500
H  15.50800 3.93600 34.58700
Mg 49.81900 46.67600 42.41300
C  46.42800 47.04000 41.83000
C  49.67600 43.45600 41.15200
C  53.18200 46.40200 42.74100
C  50.03500 50.05900 43.13100
N  48.20800 45.41700 41.46800
C  46.90300 45.85100 41.26500
C  46.02600 44.74600 40.58400
C  47.11400 43.56600 40.52100
C  48.41300 44.18500 41.09000
C  46.67900 42.36400 41.28400
C  45.42900 45.19400 39.25400
C  43.95300 45.31600 39.26400
H  43.17800 45.01700 38.02700
N  51.27000 45.14100 42.16400
C  50.97900 43.89000 41.55900
C  52.20100 43.07500 41.50000
C  53.27900 43.87900 42.09000
C  52.61000 45.15200 42.34600
C  52.31400 41.67900 40.84400
C  54.75900 43.51300 42.24700
O  55.10000 42.36300 41.95900
C  55.75200 44.38000 43.00400
N  51.37700 48.06600 42.58400
C  52.67000 47.70000 42.86800
C  53.60100 48.90400 43.20900
C  52.58700 50.13500 43.14300
C  51.25500 49.39800 42.92300
C  54.17700 48.76300 44.64600
C  52.78200 51.05000 41.95200
C  52.41900 52.52400 42.16600
N  48.51000 48.21100 42.48500
C  48.71500 49.54200 42.99100
C  47.47000 50.21800 43.03800
C  46.49300 49.30600 42.69200
C  47.18700 48.13600 42.30000
C  47.27000 51.64100 43.50700
C  45.09200 49.16500 42.36800
O  44.20000 49.95000 42.44700
C  45.05000 47.66200 41.80300
C  44.09900 46.86700 42.68400
O  44.32300 46.21600 43.76700
O  42.88400 46.98700 42.09800
C  41.77600 46.39100 42.76000
H  49.72900 42.42400 40.79900
H  54.25000 46.41200 42.96500
H  50.08800 51.12400 43.36500
H  45.22000 44.55900 41.29400
H  47.33800 43.27300 39.49500
H  47.04300 41.52000 40.69900
H  45.60000 42.25300 41.18000
H  47.01300 42.26900 42.31800
H  45.84100 44.55600 38.47200
H  45.86900 46.18200 39.11700
H  43.75500 46.35600 39.52200
H  43.47000 44.65800 39.98600
H  52.52400 41.00400 41.67300
H  53.15900 41.63900 40.15800
H  51.51300 41.32800 40.19300
H  56.00800 45.23400 42.37600
H  56.65000 43.79200 43.19400
H  55.40400 44.86400 43.91600
H  54.42100 48.99400 42.49800
H  52.52800 50.68800 44.08000
H  54.47100 47.77500 45.00000
H  53.59500 49.30000 45.39600
H  55.15500 49.21800 44.48700
H  52.13000 50.68000 41.16100
H  53.80100 50.93300 41.58200
H  53.24900 53.19300 41.93800
H  52.35200 52.61200 43.25000
H  51.60500 52.85400 41.52000
H  47.71900 52.33200 42.79400
H  47.72900 51.75100 44.49000
H  46.21400 51.80700 43.71800
H  44.68100 47.67000 40.77800
H  40.92300 46.10100 42.14600
H  41.42800 47.13700 43.47500
H  41.99300 45.51800 43.37500

