158

Mg 24.83500 -5.26700 46.71400
C  27.27300 -3.22700 45.38000
C  22.64800 -4.11500 44.43500
C  22.76500 -7.69900 47.65900
C  27.34200 -6.58000 48.79500
N  25.03900 -3.94200 45.00500
C  26.07600 -3.11800 44.66700
C  25.71900 -2.12500 43.54000
C  24.15700 -2.18700 43.57800
C  23.88600 -3.46200 44.44300
C  23.46200 -0.95000 44.16300
C  26.36200 -2.45900 42.17300
C  26.61900 -1.15100 41.24200
H  26.02500 -1.15100 39.81300
N  22.97200 -5.85400 46.08300
C  22.16900 -5.19200 45.24200
C  20.91800 -5.95400 45.10000
C  20.94300 -7.04600 45.97900
C  22.27600 -6.95200 46.58800
C  19.96700 -5.66000 44.07300
C  19.76900 -8.09000 46.20700
O  18.77100 -8.02200 45.48500
C  19.89100 -9.24100 47.13500
N  25.05000 -6.89300 48.06500
C  23.96700 -7.70800 48.27800
C  24.44600 -8.91000 49.15800
C  25.89800 -8.54200 49.60000
C  26.10300 -7.27000 48.81900
C  23.50200 -9.23900 50.42400
C  26.84400 -9.75200 49.21000
C  28.11600 -9.83400 50.11300
N  26.84900 -4.91900 47.12500
C  27.72700 -5.55500 47.98600
C  28.98600 -4.91200 47.91000
C  28.86800 -3.96600 46.94100
C  27.57900 -4.05300 46.46600
C  30.21600 -5.30000 48.74800
C  29.57700 -2.98000 46.18600
O  30.68200 -2.39500 46.32600
C  28.57500 -2.38700 45.10900
C  28.33600 -0.96200 45.41900
O  27.49600 -0.46900 46.18300
O  29.26900 -0.17100 44.76200
C  28.93800 1.18500 44.89800
H  21.79900 -3.61100 43.96700
H  22.08400 -8.43700 48.08800
H  28.06000 -6.90000 49.55200
H  26.12000 -1.15100 43.82200
H  23.86000 -2.30400 42.53500
H  24.06300 -0.38200 44.87300
H  22.72900 -1.30500 44.88800
H  23.11900 -0.28200 43.37300
H  25.63900 -3.08100 41.64400
H  27.26400 -3.03700 42.37500
H  27.70200 -1.21300 41.14200
H  26.48300 -0.19100 41.73900
H  20.27100 -4.98600 43.27100
H  19.10500 -5.19100 44.54700
H  19.66400 -6.50900 43.46100
H  19.98400 -8.90400 48.16800
H  20.77100 -9.80700 46.83000
H  18.98600 -9.82200 46.96000
H  24.51500 -9.74700 48.46300
H  25.99000 -8.27800 50.65300
H  22.43800 -9.07100 50.26100
H  23.89000 -8.88300 51.37900
H  23.55900 -10.32000 50.55000
H  27.19900 -9.62800 48.18700
H  26.37100 -10.73300 49.25400
H  28.03000 -10.65700 50.82200
H  28.26900 -8.90100 50.65500
H  28.98900 -9.83100 49.46100
H  30.44000 -6.31700 48.42500
H  29.84200 -5.40200 49.76600
H  31.18300 -4.79800 48.72100
H  28.81700 -2.50100 44.05200
H  28.96800 1.45600 45.95400
H  27.92300 1.37900 44.55100
H  29.57300 1.83300 44.29400
Mg 47.91200 25.18600 28.56200
C  48.87400 27.69700 30.92600
C  47.01000 23.21200 31.17900
C  47.20100 22.93600 26.39900
C  49.30900 27.23100 25.96700
N  48.08300 25.42200 30.78600
C  48.32300 26.54800 31.52900
C  48.11900 26.25500 33.04200
C  47.78500 24.73200 33.03400
C  47.52600 24.45800 31.60000
C  48.89100 23.84000 33.57500
C  46.87800 27.03600 33.53100
C  47.31300 27.92000 34.79600
H  46.30100 28.06000 35.98400
N  47.20000 23.29900 28.71700
C  46.92000 22.62500 29.86900
C  46.60400 21.23200 29.57400
C  46.45100 21.21200 28.14300
C  46.98200 22.51200 27.71000
C  46.29800 20.22100 30.61400
C  45.88500 20.08800 27.25900
O  45.70100 20.20900 26.02600
C  45.51700 18.75600 27.87900
N  48.23300 25.12900 26.48800
C  47.68700 24.11400 25.80500
C  48.03400 24.27500 24.32400
C  48.46500 25.76500 24.08900
C  48.71700 26.01700 25.59600
C  48.82800 23.15000 23.63600
C  47.40600 26.66800 23.52000
C  47.86600 28.02500 22.98600
N  48.69400 27.14100 28.35300
C  49.23500 27.83500 27.25400
C  49.68300 29.17500 27.66800
C  49.55600 29.17000 29.13300
C  48.94900 27.83400 29.51300
C  50.40000 30.24600 27.00200
C  49.66900 29.93500 30.32600
O  50.15800 31.02700 30.49100
C  49.14400 29.08300 31.48900
C  50.10800 28.91000 32.68300
O  51.12300 28.22500 32.68100
O  49.84600 29.74200 33.69100
C  50.70200 29.75900 34.89400
H  46.72100 22.58500 32.02500
H  46.89000 22.19500 25.66000
H  49.79800 27.87500 25.23400
H  48.96700 26.58900 33.63900
H  46.78900 24.53000 33.42800
H  48.45100 22.88800 33.87200
H  49.42600 24.24900 34.43200
H  49.56900 23.70500 32.73200
H  46.00600 26.42900 33.77200
H  46.57600 27.76900 32.78300
H  47.34700 28.95800 34.46600
H  48.26300 27.65400 35.25900
H  45.22900 20.15700 30.81500
H  46.81500 20.50100 31.53200
H  46.67500 19.24900 30.29400
H  46.33400 18.17900 28.31300
H  44.95300 18.10400 27.21300
H  44.86700 18.82700 28.75100
H  47.10200 24.19100 23.76600
H  49.34800 25.86600 23.45800
H  49.63800 23.61100 23.07100
H  48.30100 22.46200 22.97500
H  49.27500 22.50800 24.39500
H  46.77500 26.81900 24.39600
H  46.87700 26.13000 22.73300
H  48.93800 28.22000 23.02700
H  47.34100 28.81100 23.52900
H  47.76400 27.96000 21.90300
H  49.98400 30.47300 26.02000
H  51.47000 30.11200 26.84900
H  50.27000 31.17300 27.56000
H  48.22700 29.58700 31.79500
H  51.71200 29.61900 34.50700
H  50.43100 29.02200 35.65000
H  50.68800 30.76300 35.31900

