158

Mg 17.49400 -1.04000 27.59600
C  16.41700 0.62900 30.54900
C  19.10700 -3.23600 29.55100
C  18.95400 -2.27500 24.76600
C  16.08000 1.45700 25.68200
N  17.65800 -1.17400 29.80400
C  17.16400 -0.51200 30.80800
C  17.56300 -0.98100 32.21100
C  18.34500 -2.26000 31.80600
C  18.34600 -2.26500 30.27200
C  19.70800 -2.46500 32.47800
C  16.36500 -1.37100 33.17700
C  16.43100 -0.70500 34.56800
H  17.82800 -0.32300 35.08000
N  18.77200 -2.60800 27.24800
C  19.34400 -3.35500 28.17700
C  20.11800 -4.42800 27.46000
C  20.01300 -4.19700 26.06800
C  19.16400 -2.97400 25.95600
C  20.84000 -5.57500 28.22900
C  20.60900 -4.97000 24.89000
O  20.18600 -4.92200 23.74800
C  21.73200 -5.87000 25.13200
N  17.41700 -0.50200 25.54000
C  18.14500 -1.10300 24.59600
C  17.99100 -0.51900 23.20300
C  16.90600 0.54700 23.52500
C  16.79200 0.51100 24.99700
C  19.28700 0.12900 22.69300
C  15.56500 0.41800 22.72900
C  14.41600 -0.19400 23.61200
N  16.33600 0.62100 27.95900
C  15.81800 1.56300 27.02900
C  14.96100 2.53300 27.86000
C  15.23800 2.15900 29.21400
C  16.11500 1.09700 29.25200
C  13.98800 3.62900 27.40000
C  14.84800 2.47800 30.57400
O  13.95300 3.26000 31.00400
C  15.64200 1.48300 31.42700
C  16.48900 2.34300 32.25100
O  17.69500 2.43200 32.15900
O  15.82600 2.85700 33.38700
C  16.65600 3.63800 34.32900
H  19.52500 -3.94600 30.26600
H  19.49700 -2.63700 23.89100
H  15.64200 2.22100 25.03700
H  18.16800 -0.10000 32.42600
H  17.85400 -3.19100 32.09000
H  19.83200 -3.13900 33.32500
H  19.82600 -1.47500 32.92000
H  20.53100 -2.58300 31.77300
H  16.33800 -2.44100 33.38200
H  15.41900 -1.21800 32.65700
H  16.03800 -1.49600 35.20700
H  15.86600 0.22400 34.50000
H  21.90900 -5.58000 28.01500
H  20.34000 -6.50300 27.95200
H  20.70300 -5.54200 29.30900
H  22.48400 -5.20000 25.54900
H  22.13800 -6.38600 24.26300
H  21.36700 -6.60600 25.84900
H  17.70800 -1.34100 22.54600
H  17.35100 1.52500 23.34600
H  19.04600 0.94600 22.01300
H  19.86900 -0.62900 22.16800
H  19.81900 0.60700 23.51500
H  15.74300 -0.28100 21.91200
H  15.29400 1.33100 22.19900
H  14.81300 -0.88500 24.35500
H  13.80800 -0.81100 22.95100
H  13.87400 0.66200 24.01400
H  13.57800 3.28800 26.44900
H  14.65100 4.43700 27.09100
H  13.33700 3.77800 28.26100
H  14.95200 1.01000 32.12500
H  17.43600 4.12100 33.74000
H  17.02600 3.05700 35.17400
H  16.14700 4.45200 34.84500
Mg -10.23400 16.51200 40.95900
C  -6.63600 16.61000 40.92000
C  -10.16200 19.69800 40.00800
C  -13.53700 16.31400 40.43400
C  -10.14900 13.09500 41.32500
N  -8.55100 17.94100 40.64600
C  -7.22400 17.82500 40.68300
C  -6.58200 19.09200 40.16200
C  -7.65400 20.15400 40.34100
C  -8.92100 19.22400 40.33500
C  -7.55500 20.95900 41.65500
C  -5.97500 18.83400 38.71400
C  -4.49000 19.11800 38.45000
H  -3.81100 18.27500 37.38000
N  -11.66500 17.89500 40.47600
C  -11.41600 19.17000 40.10700
C  -12.65400 19.82300 39.75900
C  -13.67600 18.89900 39.91100
C  -12.99600 17.62800 40.27800
C  -12.79300 21.32900 39.42100
C  -15.14800 19.22800 39.77800
O  -15.61800 20.35600 39.49700
C  -16.16900 18.14800 39.92200
N  -11.64600 14.88800 40.75000
C  -13.00500 15.10800 40.58500
C  -13.78600 13.81300 40.81200
C  -12.72400 12.76500 41.11200
C  -11.41400 13.60500 41.12600
C  -14.89600 13.78300 41.90600
C  -12.70200 11.41600 40.27400
C  -12.36600 11.59700 38.80000
N  -8.77700 15.10600 41.11000
C  -8.85400 13.76300 41.36300
C  -7.51200 13.23500 41.65600
C  -6.63900 14.34100 41.43000
C  -7.41900 15.46600 41.12800
C  -7.12700 11.76200 41.90800
C  -5.25800 14.60500 41.26500
O  -4.26900 13.88400 41.35700
C  -5.17400 16.15400 40.92000
C  -4.35700 16.97400 41.88100
O  -3.28400 17.53800 41.65800
O  -5.10400 16.94900 43.10500
C  -4.54600 17.72400 44.20600
H  -10.17400 20.76500 39.77700
H  -14.55900 16.21600 40.06400
H  -10.02800 12.02300 41.49400
H  -5.78300 19.51500 40.77100
H  -7.63700 20.97000 39.61900
H  -7.27400 20.24700 42.43100
H  -8.52200 21.29500 42.02700
H  -6.79200 21.73100 41.55600
H  -6.47800 19.59000 38.11300
H  -6.18400 17.85600 38.28000
H  -3.92500 18.76800 39.31400
H  -4.29900 20.17500 38.27100
H  -13.14300 21.38900 38.39100
H  -11.79600 21.76400 39.50100
H  -13.59600 21.81400 39.97700
H  -17.18000 18.55100 39.97100
H  -16.00000 17.63300 40.86800
H  -16.05600 17.52400 39.03500
H  -14.30100 13.51900 39.89700
H  -12.82200 12.41600 42.14000
H  -14.91500 12.80000 42.37800
H  -15.87400 13.90100 41.43900
H  -14.70600 14.60500 42.59500
H  -13.68300 10.94300 40.31800
H  -12.03500 10.73400 40.80100
H  -13.26800 11.60600 38.18800
H  -11.68000 10.86900 38.36700
H  -11.88100 12.52600 38.49900
H  -7.38700 11.17900 41.02400
H  -7.52600 11.34500 42.83200
H  -6.03700 11.77800 41.89900
H  -4.70900 16.24400 39.93800
H  -4.51200 17.09700 45.09700
H  -5.30900 18.48200 44.38600
H  -3.60100 18.18000 43.90800

