158

Mg 26.48300 50.85100 26.43300
C  24.56700 51.93200 29.01100
C  28.89700 49.83100 28.82700
C  28.31600 49.37300 24.04100
C  24.45800 52.29300 24.13200
N  26.81700 51.12500 28.72800
C  25.73600 51.29900 29.49400
C  26.07100 51.11200 31.00900
C  27.65100 50.90000 30.85500
C  27.82100 50.55900 29.38400
C  28.56000 52.04500 31.37100
C  25.27100 50.00500 31.62300
C  24.85900 50.28200 33.12100
H  25.88000 50.70000 34.24600
N  28.37500 49.81600 26.38800
C  29.17900 49.47400 27.51500
C  30.22900 48.63100 27.10700
C  30.10500 48.45800 25.64600
C  28.90000 49.25300 25.28300
C  31.27100 48.05700 27.97600
C  30.82500 47.58900 24.77000
O  30.61700 47.47500 23.62600
C  31.96500 46.70100 25.26200
N  26.48800 50.90800 24.32400
C  27.22100 50.07300 23.56500
C  26.60200 49.84600 22.19500
C  25.22300 50.76500 22.26300
C  25.38000 51.36000 23.63300
C  27.54600 50.13700 20.97400
C  23.87200 50.04600 22.04100
C  22.81600 50.67500 21.06300
N  24.87100 51.99500 26.54700
C  24.10900 52.52900 25.46800
C  22.95800 53.21900 26.08500
C  23.07400 52.98900 27.44800
C  24.24900 52.26200 27.69400
C  21.86600 53.86900 25.36600
C  22.40500 53.17900 28.71200
O  21.27600 53.62600 28.95400
C  23.38000 52.52400 29.85200
C  23.81000 53.61500 30.75500
O  24.66400 54.46600 30.51700
O  23.08600 53.67300 31.95300
C  23.58200 54.66100 33.01800
H  29.63700 49.56500 29.58500
H  28.79300 48.82200 23.22800
H  23.65100 52.54600 23.44100
H  26.00900 52.01000 31.62300
H  28.00800 50.01600 31.38500
H  27.90900 52.83900 31.73700
H  29.19800 52.44100 30.58100
H  29.08700 51.67100 32.24800
H  25.86400 49.09100 31.58900
H  24.36300 49.83700 31.04400
H  24.32400 49.43300 33.54700
H  24.07400 51.03500 33.04000
H  31.18600 48.44400 28.99200
H  32.25000 48.37400 27.61500
H  31.39200 46.98300 27.83700
H  32.66300 47.38600 25.74300
H  32.39700 46.21300 24.38800
H  31.43000 46.01000 25.91400
H  26.30900 48.81000 22.02500
H  25.37100 51.66100 21.66000
H  27.24100 50.96800 20.33800
H  27.53100 49.25200 20.33700
H  28.57600 50.39400 21.21900
H  23.40500 50.07700 23.02600
H  24.13800 49.02300 21.77500
H  22.47600 49.84300 20.44700
H  23.16800 51.43200 20.36200
H  21.95900 51.13800 21.55300
H  21.13000 54.28800 26.05200
H  21.30700 53.22800 24.68300
H  22.30000 54.57100 24.65400
H  22.77300 51.75600 30.33200
H  22.89900 54.80000 33.85600
H  23.70300 55.61400 32.50400
H  24.50900 54.32500 33.48200
Mg -1.94800 34.70900 26.49600
C  -3.93100 33.30200 29.08300
C  -0.69700 36.92600 28.78200
C  -0.60400 36.32000 23.89400
C  -3.70600 32.82000 24.23200
N  -2.37500 35.14200 28.71300
C  -3.06700 34.34900 29.53200
C  -2.81500 34.71900 31.00700
C  -1.85800 36.02300 30.90600
C  -1.59300 36.06900 29.41000
C  -2.29800 37.34900 31.46400
C  -2.17000 33.54300 31.81000
C  -1.57000 33.90000 33.20200
H  -2.49200 33.70700 34.41700
N  -0.83100 36.38400 26.36100
C  -0.39000 37.15900 27.41300
C  0.54500 38.08800 26.88200
C  0.62500 37.89100 25.47900
C  -0.28100 36.78400 25.16800
C  1.21700 39.16100 27.67800
C  1.57200 38.58800 24.51200
O  1.35800 38.57100 23.26900
C  2.81600 39.27500 25.07900
N  -2.15100 34.58600 24.31200
C  -1.51400 35.36700 23.51000
C  -1.74500 35.01500 22.01200
C  -2.81600 33.90000 22.12100
C  -2.91300 33.73900 23.64500
C  -2.10900 36.28100 21.12200
C  -2.48200 32.53700 21.45300
C  -1.16500 31.90000 22.02700
N  -3.51400 33.37300 26.56200
C  -4.15700 32.70300 25.54200
C  -5.14700 31.75500 26.03000
C  -5.08000 31.98800 27.39200
C  -4.16000 32.96000 27.70600
C  -6.05100 30.97000 25.26700
C  -5.53600 31.48200 28.71700
O  -6.22900 30.58800 28.94900
C  -4.85400 32.35200 29.82700
C  -5.75800 33.17000 30.69900
O  -6.68600 33.79600 30.28300
O  -5.46800 32.96600 32.01300
C  -6.44800 33.55900 32.99800
H  -0.04400 37.49200 29.45000
H  -0.36800 36.94000 23.02700
H  -4.15100 32.11100 23.53100
H  -3.75500 34.98700 31.49000
H  -0.82700 35.93300 31.24800
H  -1.48200 37.81700 32.01500
H  -3.13500 37.25200 32.15500
H  -2.53500 37.91200 30.56200
H  -1.37500 33.22400 31.13600
H  -2.95000 32.83800 32.09700
H  -1.46800 34.98600 33.19800
H  -0.62200 33.37100 33.30100
H  0.72700 39.33400 28.63600
H  1.24600 40.12300 27.16600
H  2.20900 38.78300 27.92700
H  2.73000 40.36100 25.11900
H  3.49900 39.04400 24.26100
H  3.28600 38.73800 25.90200
H  -0.86800 34.57500 21.53800
H  -3.79200 34.22400 21.75900
H  -2.12500 37.19800 21.71100
H  -3.08100 36.20400 20.63400
H  -1.45100 36.47400 20.27500
H  -2.25700 32.84600 20.43200
H  -3.29200 31.80900 21.49700
H  -0.40200 31.96900 21.25200
H  -1.43900 30.87700 22.28500
H  -0.77300 32.28400 22.96800
H  -5.54600 30.00600 25.20900
H  -6.13200 31.36400 24.25400
H  -7.06900 30.84800 25.63700
H  -4.23300 31.73100 30.47300
H  -7.32600 32.92200 33.09900
H  -6.85700 34.48800 32.59900
H  -6.12000 33.68400 34.03000

