158

Mg 47.03000 26.04700 28.93900
C  48.26800 27.95300 31.67000
C  45.93000 23.71900 31.38300
C  46.55700 23.83200 26.46600
C  48.49400 28.30400 26.68000
N  47.03100 25.93000 31.24500
C  47.54800 26.84400 32.07200
C  47.18500 26.48400 33.49400
C  46.75900 25.02300 33.45000
C  46.62900 24.78000 31.91600
C  47.74600 24.00100 34.07600
C  45.97300 27.39500 34.04700
C  45.92100 27.92300 35.48500
H  46.51100 27.09900 36.63000
N  46.30100 24.15900 28.92700
C  45.80500 23.45600 29.98000
C  45.18600 22.26000 29.48900
C  45.36700 22.22200 28.07100
C  46.13000 23.47000 27.74400
C  44.56400 21.19800 30.38000
C  44.83300 21.18700 27.06900
O  45.06800 21.28900 25.86900
C  44.13800 19.89100 27.53600
N  47.67800 26.06500 26.85000
C  47.15100 25.07500 26.06900
C  47.43700 25.43500 24.57000
C  47.89100 26.91500 24.61400
C  48.01900 27.13000 26.12300
C  48.45400 24.47400 23.80000
C  47.12700 27.94800 23.76300
C  47.33700 27.74000 22.28600
N  47.91400 27.93600 29.10900
C  48.50600 28.71300 28.10200
C  49.10600 29.89700 28.67400
C  48.89300 29.68600 30.10200
C  48.27700 28.43200 30.28400
C  49.89200 30.99100 28.00200
C  49.16200 30.23500 31.44000
O  49.68600 31.31300 31.74000
C  48.75000 29.13700 32.47000
C  49.86900 28.70900 33.31800
O  50.92500 28.30300 32.94400
O  49.54100 29.03700 34.62200
C  50.58200 28.76400 35.70300
H  45.68700 22.99500 32.16300
H  46.58500 23.09700 25.65800
H  48.88800 28.93500 25.88100
H  47.99000 26.76400 34.17300
H  45.75000 24.97100 33.86000
H  48.22700 24.50000 34.91700
H  48.42300 23.66600 33.29000
H  47.18500 23.11800 34.38200
H  45.04500 26.85300 33.86500
H  45.89400 28.26500 33.39500
H  44.88700 28.02100 35.81800
H  46.50400 28.83000 35.64500
H  44.43800 21.60300 31.38400
H  45.25200 20.36200 30.51200
H  43.65400 20.81800 29.91500
H  44.57700 19.51800 28.46200
H  44.39300 19.01900 26.93300
H  43.06100 20.05600 27.51500
H  46.39800 25.35600 24.25200
H  48.91600 27.00400 24.25400
H  49.16600 23.99900 24.47400
H  48.85800 25.03200 22.95500
H  47.74000 23.68500 23.56400
H  47.51300 28.94300 23.98400
H  46.09200 27.81200 24.07800
H  46.38200 27.45700 21.84300
H  47.94800 26.86000 22.08900
H  47.71200 28.56600 21.68000
H  49.94300 30.67500 26.96000
H  50.87600 31.01800 28.46900
H  49.41700 31.95300 28.19400
H  47.96900 29.52300 33.12400
H  50.00600 28.59200 36.61200
H  51.14200 29.69800 35.75100
H  51.06500 27.87600 35.29600
Mg 42.88200 42.43800 26.33800
C  42.10900 44.65400 28.87000
C  44.17000 40.25500 28.78300
C  44.19300 40.36900 23.94300
C  42.20100 44.85800 23.93800
N  42.97600 42.40500 28.58400
C  42.52800 43.40800 29.39900
C  42.56700 43.02200 30.90600
C  43.51900 41.77500 30.82300
C  43.50900 41.38600 29.32500
C  44.96100 42.04900 31.31400
C  41.15200 42.86900 31.57100
C  41.07400 42.42900 33.07900
H  40.95300 43.47300 34.22300
N  43.83400 40.45900 26.39600
C  44.24000 39.74200 27.48300
C  44.83900 38.54900 27.02800
C  44.71100 38.50300 25.63400
C  44.20100 39.81100 25.26400
C  45.30300 37.44000 28.06100
C  44.98200 37.40700 24.60500
O  44.58500 37.46900 23.42800
C  45.70500 36.17500 25.17000
N  43.34500 42.59200 24.27900
C  43.68700 41.55400 23.46900
C  43.49900 41.92600 21.94000
C  42.73200 43.23800 22.02000
C  42.80400 43.60900 23.53200
C  44.81700 41.89100 21.13200
C  41.27000 43.17900 21.55100
C  40.24000 42.23300 22.19300
N  42.38700 44.39100 26.29500
C  42.09700 45.28300 25.29800
C  41.58600 46.49600 25.94200
C  41.64200 46.34000 27.33800
C  42.09700 45.02200 27.48600
C  41.03900 47.71400 25.24200
C  41.32100 46.91000 28.61300
O  40.96000 48.01400 28.92900
C  41.71300 45.87900 29.68100
C  42.73900 46.49100 30.51500
O  43.90500 46.68700 30.27100
O  42.10700 46.67800 31.72500
C  42.97200 47.21100 32.82500
H  44.61300 39.64800 29.57500
H  44.48000 39.87400 23.01300
H  41.90900 45.49500 23.10000
H  43.05500 43.74900 31.55500
H  43.09000 41.01500 31.47600
H  45.18300 41.33300 32.10500
H  45.03900 43.05600 31.72400
H  45.69400 41.92100 30.51700
H  40.57200 42.07200 31.10500
H  40.54600 43.76500 31.43700
H  41.99600 41.92200 33.36600
H  40.31300 41.65700 33.19100
H  44.65100 36.57200 27.96300
H  45.31100 37.73000 29.11200
H  46.31300 37.19700 27.73000
H  46.55200 36.42400 25.81000
H  46.14300 35.55100 24.39200
H  44.90400 35.61000 25.64800
H  42.95400 41.08700 21.51000
H  43.24200 44.04100 21.48800
H  44.50100 41.90300 20.08900
H  45.40600 41.03600 21.46300
H  45.41000 42.78100 21.34300
H  41.18300 43.11500 20.46600
H  40.87200 44.19300 21.57900
H  40.69200 41.45900 22.81300
H  39.68000 41.65900 21.45600
H  39.53000 42.82300 22.77300
H  40.38000 48.23200 25.93900
H  40.49200 47.33200 24.37900
H  41.79300 48.38100 24.82400
H  40.78400 45.90900 30.25000
H  43.72500 47.92800 32.49700
H  43.34800 46.31000 33.31000
H  42.31100 47.71900 33.52700

