158

Mg 0.02700 7.99000 26.73800
C  0.84600 9.79600 29.64900
C  -0.22900 5.18900 28.70000
C  -0.11900 6.12900 23.80100
C  0.59200 10.80600 24.93500
N  0.40300 7.52400 28.95400
C  0.44800 8.43300 29.93900
C  0.15400 7.87500 31.32000
C  0.19900 6.33500 31.04300
C  0.18400 6.29800 29.46800
C  1.42600 5.65300 31.72500
C  -1.22500 8.44800 31.79100
C  -1.29200 9.06700 33.15100
H  -0.23200 8.84500 34.23000
N  -0.25700 5.93500 26.31300
C  -0.27300 4.94100 27.23900
C  -0.59800 3.62600 26.62400
C  -0.50800 3.85300 25.18400
C  -0.28500 5.37600 25.02900
C  -0.93100 2.37900 27.36600
C  -0.47600 2.89600 23.94900
O  -0.28200 3.22800 22.81000
C  -0.77700 1.35600 24.12100
N  0.49200 8.38300 24.62300
C  0.13300 7.48800 23.59200
C  0.10800 8.18200 22.23000
C  0.23400 9.74600 22.70000
C  0.41900 9.67000 24.20500
C  1.23200 7.68200 21.28200
C  -1.03200 10.61000 22.25800
C  -0.66800 11.75100 21.31600
N  0.59900 9.94700 27.12700
C  0.83000 10.99700 26.28300
C  1.23600 12.16000 27.02900
C  1.26500 11.75800 28.38000
C  0.93000 10.40100 28.36700
C  1.45200 13.52800 26.53500
C  1.61400 12.12900 29.71400
O  2.20200 13.10800 30.06300
C  1.24600 10.88200 30.61700
C  2.35700 10.45100 31.50600
O  3.11600 9.51200 31.40700
O  2.43100 11.35000 32.48700
C  3.69200 11.31300 33.19200
H  -0.24900 4.26900 29.28800
H  -0.19900 5.62800 22.83400
H  0.60900 11.74000 24.36900
H  0.92800 8.16400 32.03100
H  -0.74200 5.93700 31.42200
H  2.37800 5.86700 31.23900
H  1.20300 4.58900 31.65000
H  1.50000 5.94900 32.77200
H  -1.99100 7.67300 31.82700
H  -1.54100 9.17700 31.04500
H  -2.27800 8.76700 33.50700
H  -1.35600 10.13500 32.94200
H  -0.03700 1.81200 27.62600
H  -1.57000 1.84700 26.66100
H  -1.52200 2.55800 28.26400
H  -0.88200 0.90000 23.13700
H  -1.62000 1.08600 24.75700
H  0.12700 1.05500 24.65200
H  -0.82000 7.90100 21.73200
H  1.14600 10.21400 22.32800
H  1.93900 7.07800 21.85000
H  1.88100 8.42800 20.82500
H  0.82600 7.15600 20.41800
H  -1.43200 10.99700 23.19500
H  -1.79100 10.05400 21.70800
H  -1.50300 11.91800 20.63500
H  0.30900 11.73700 20.83300
H  -0.71800 12.67100 21.89700
H  2.53000 13.67100 26.46100
H  1.06100 14.27200 27.22800
H  0.92100 13.65800 25.59200
H  0.39700 11.14800 31.24600
H  4.46400 11.15400 32.43900
H  3.88500 10.48400 33.87300
H  3.90600 12.30400 33.59200
Mg -12.26100 15.66900 41.64000
C  -9.17800 13.92600 41.46200
C  -10.70000 18.42700 40.35900
C  -15.35900 17.04700 40.96200
C  -13.81000 12.62000 42.34900
N  -10.16200 16.03600 40.83900
C  -9.09700 15.27600 41.04900
C  -7.87900 15.96400 40.54800
C  -8.40600 17.46500 40.43900
C  -9.80500 17.33400 40.63600
C  -7.75200 18.45900 41.37700
C  -7.24500 15.33200 39.29000
C  -5.71500 15.56800 39.15400
H  -5.17500 16.26800 37.90300
N  -12.96600 17.52500 40.91800
C  -12.07100 18.51900 40.54600
C  -12.86900 19.68300 40.27000
C  -14.24000 19.35800 40.52700
C  -14.27100 17.92200 40.85500
C  -12.29700 21.05600 39.90000
C  -15.40900 20.29300 40.31200
O  -15.16900 21.43300 39.97000
C  -16.83400 19.95300 40.68000
N  -14.30300 14.85900 41.41300
C  -15.39900 15.65000 41.29600
C  -16.70900 14.85700 41.41000
C  -16.17900 13.49400 41.90600
C  -14.66600 13.61200 41.84400
C  -17.84500 15.46100 42.26000
C  -16.73600 12.24300 41.11600
C  -17.19800 11.15100 42.05000
N  -11.69900 13.69500 41.92800
C  -12.40600 12.61600 42.36400
C  -11.53000 11.46300 42.62000
C  -10.24100 12.00800 42.34100
C  -10.42500 13.30900 41.89100
C  -12.00700 10.18200 43.21900
C  -8.83800 11.66700 42.31600
O  -8.21900 10.64900 42.59500
C  -8.11000 12.89700 41.73900
C  -7.06500 13.24100 42.71800
O  -7.24800 13.47800 43.90800
O  -5.89500 13.49300 42.09000
C  -4.91100 14.31000 42.88000
H  -10.26000 19.38100 40.06500
H  -16.30500 17.55900 40.77600
H  -14.27500 11.69300 42.69100
H  -7.07900 16.01500 41.28600
H  -8.20300 17.90600 39.46300
H  -6.75100 18.16500 41.69100
H  -8.31100 18.62100 42.29900
H  -7.55200 19.35200 40.78500
H  -7.75100 15.82600 38.46100
H  -7.41500 14.25500 39.31100
H  -5.23200 14.59400 39.22400
H  -5.48000 16.04500 40.10500
H  -11.35600 21.12600 39.35500
H  -12.19900 21.57100 40.85500
H  -12.94500 21.67100 39.27500
H  -17.23800 19.22100 39.98000
H  -17.54400 20.74900 40.45400
H  -16.84100 19.69100 41.73800
H  -17.15300 14.69100 40.42800
H  -16.36500 13.46200 42.97900
H  -18.51400 16.02700 41.61100
H  -17.40600 16.14100 42.98900
H  -18.32900 14.63400 42.77900
H  -16.07200 11.74200 40.41200
H  -17.64100 12.65100 40.66500
H  -16.48700 10.33000 41.96800
H  -18.21400 10.76200 41.98700
H  -17.21400 11.43800 43.10100
H  -12.89700 9.83400 42.69600
H  -12.17400 10.39500 44.27500
H  -11.23600 9.41200 43.19800
H  -7.48000 12.52500 40.93100
H  -5.36100 15.21400 43.29200
H  -4.17300 14.76400 42.21900
H  -4.42800 13.69000 43.63600

