158

Mg 43.44700 4.19200 47.84700
C  41.41600 6.92100 47.74300
C  40.61900 2.19900 47.63500
C  45.44600 1.63000 47.10900
C  46.25800 6.40400 47.66400
N  41.26900 4.54700 47.51700
C  40.67700 5.77100 47.67800
C  39.19100 5.58600 47.76800
C  39.04700 4.08200 48.00300
C  40.38700 3.55800 47.68300
C  38.51500 3.41100 49.31800
C  38.42800 6.17600 46.54700
C  39.29200 6.15700 45.19700
H  38.45700 6.07700 43.86800
N  43.09800 2.16100 47.43500
C  41.86600 1.53100 47.45700
C  41.99300 0.14800 47.22900
C  43.36900 -0.05200 46.87200
C  44.05900 1.28300 47.12900
C  40.84300 -0.85600 47.14400
C  43.93100 -1.39500 46.42200
O  43.18600 -2.32000 46.22500
C  45.48000 -1.53800 46.06800
N  45.60500 4.05900 47.29600
C  46.17500 2.87100 47.14000
C  47.64500 2.98400 47.24400
C  47.91600 4.53500 47.54000
C  46.52800 5.04400 47.46300
C  48.31300 1.94200 48.11200
C  49.04000 5.12700 46.65500
C  50.44200 5.20200 47.31600
N  43.84000 6.28000 47.81400
C  44.97500 7.03200 47.81100
C  44.66500 8.39400 47.80000
C  43.22500 8.45200 47.78200
C  42.80000 7.13900 47.77100
C  45.58500 9.57500 47.76400
C  42.05400 9.32000 47.71300
O  41.83800 10.53900 47.61800
C  40.79600 8.34700 47.76600
C  40.04600 8.64400 48.98100
O  40.22700 8.13200 50.10800
O  39.11900 9.61200 48.71800
C  37.96700 9.91900 49.58700
H  39.65600 1.68400 47.61700
H  46.11200 0.80200 46.85800
H  47.15600 7.01700 47.76600
H  38.79900 6.03900 48.67900
H  38.38000 3.71000 47.22500
H  38.06500 4.17600 49.95000
H  39.38600 2.93300 49.76800
H  37.70800 2.69700 49.15200
H  38.19200 7.21600 46.77200
H  37.54300 5.57600 46.33700
H  40.06600 5.39000 45.18100
H  39.73000 7.15300 45.13900
H  40.69000 -1.18000 46.11500
H  39.95300 -0.29300 47.42300
H  41.02100 -1.71600 47.78900
H  46.10500 -1.21500 46.90100
H  45.58000 -0.94200 45.16100
H  45.68400 -2.59000 45.86600
H  47.97700 2.79700 46.22300
H  48.02400 4.77800 48.59700
H  48.71900 1.19300 47.43100
H  47.54700 1.49400 48.74400
H  49.14400 2.43200 48.61900
H  48.72800 6.07900 46.22500
H  49.14300 4.48700 45.77800
H  50.64700 6.26400 47.45200
H  51.14900 4.75200 46.61900
H  50.38400 4.80000 48.32800
H  45.09300 10.47900 47.40600
H  46.22300 9.28300 46.92900
H  46.28700 9.73900 48.58100
H  40.19000 8.55300 46.88400
H  38.33700 10.70600 50.24500
H  37.79000 8.99100 50.12900
H  37.09600 10.19100 48.99100
Mg 54.00600 24.32500 44.82500
C  51.48600 26.39800 43.59400
C  52.70100 21.61400 42.92000
C  56.89100 22.49500 45.11200
C  55.46900 27.09800 46.27000
N  52.41200 24.03400 43.25400
C  51.53100 25.11900 42.91800
C  50.47100 24.52700 41.81600
C  50.65900 22.97000 41.98000
C  52.04000 22.81100 42.72300
C  49.52300 22.25800 42.74300
C  50.63000 25.23600 40.40700
C  50.67500 24.46400 39.08000
H  52.03700 24.44200 38.26700
N  54.62500 22.24900 44.38400
C  53.91900 21.31000 43.59800
C  54.66200 20.06300 43.62600
C  55.87900 20.26600 44.37500
C  55.84000 21.67700 44.66700
C  54.09400 18.76700 42.98400
C  56.88900 19.21000 44.81800
O  56.79300 18.02700 44.45000
C  57.95000 19.67600 45.74700
N  55.88100 24.67600 45.76300
C  56.96700 23.83600 45.57800
C  58.23400 24.45000 46.17100
C  57.75200 25.95500 46.41200
C  56.27600 25.92900 46.15500
C  58.93600 23.73900 47.38100
C  58.56600 26.98200 45.53800
C  58.14800 27.11500 43.98700
N  53.53900 26.28100 45.03300
C  54.13800 27.27600 45.80400
C  53.29100 28.41500 46.00900
C  52.19900 28.13400 45.15700
C  52.49100 26.86000 44.50600
C  53.45000 29.60600 46.85000
C  50.98300 28.64500 44.64800
O  50.40400 29.69300 44.78200
C  50.45000 27.55200 43.58000
C  50.18100 28.14400 42.22800
O  51.04700 28.65200 41.48800
O  48.85800 28.06100 41.93000
C  48.33100 28.65400 40.73700
H  52.20300 20.73500 42.50500
H  57.92200 22.13800 45.09700
H  55.78300 27.84900 46.99700
H  49.48300 24.74800 42.22100
H  50.64300 22.50000 40.99700
H  48.73600 22.92300 43.10000
H  49.96200 21.68400 43.55900
H  49.06800 21.47900 42.13200
H  51.48400 25.90500 40.50900
H  49.75100 25.87200 40.30400
H  49.86300 24.88900 38.49000
H  50.32400 23.43600 39.17100
H  54.48800 18.48000 42.00900
H  53.01000 18.83700 42.89700
H  54.07600 17.93400 43.68600
H  57.57700 20.39100 46.48100
H  58.86700 20.10500 45.34400
H  58.34900 18.83100 46.30800
H  59.01400 24.55000 45.41600
H  57.90900 26.24700 47.45100
H  59.01800 24.43600 48.21500
H  59.92400 23.38200 47.09100
H  58.26600 22.99400 47.81000
H  59.58800 26.62700 45.67200
H  58.52000 27.99300 45.94300
H  59.08700 27.02100 43.44200
H  57.62300 28.02900 43.70900
H  57.55500 26.26800 43.64200
H  53.87800 29.14700 47.74100
H  52.50700 30.08700 47.11300
H  54.21700 30.18200 46.33300
H  49.54100 27.11400 43.99200
H  49.00800 28.73700 39.88700
H  47.84200 29.61700 40.88800
H  47.52500 28.09300 40.26600

