158

Mg 41.17000 9.06500 29.66000
C  43.09300 10.24600 32.31700
C  39.02600 7.69000 31.92900
C  39.55200 7.56300 27.15700
C  43.68700 10.02700 27.45800
N  41.10700 8.94200 31.92300
C  41.85600 9.72300 32.75100
C  41.34600 9.73500 34.24800
C  40.13100 8.83200 34.02200
C  40.01800 8.49400 32.57000
C  39.98900 7.68400 34.98800
C  41.20100 11.18100 34.80900
C  42.09200 11.43300 36.10400
H  41.35500 12.01700 37.34400
N  39.56500 7.77600 29.55300
C  38.85500 7.33700 30.60700
C  37.72700 6.54600 30.11900
C  37.77600 6.60600 28.70400
C  39.04500 7.26300 28.40000
C  36.68100 5.85000 31.00700
C  36.78600 6.21900 27.68000
O  36.98600 6.31000 26.49000
C  35.45000 5.66100 28.09400
N  41.60700 8.79000 27.62200
C  40.68700 8.31700 26.77600
C  41.14600 8.46900 25.27600
C  42.35100 9.47300 25.40100
C  42.56200 9.42200 26.92200
C  41.56600 7.07800 24.76600
C  42.20200 10.99200 24.94100
C  40.86500 11.74600 25.07700
N  43.04800 9.85500 29.80800
C  43.97100 10.16800 28.82300
C  45.07900 10.75200 29.44300
C  44.79500 10.92000 30.82400
C  43.51400 10.28700 30.95300
C  46.30900 11.40800 28.81800
C  45.26700 11.44300 32.08600
O  46.28300 12.10900 32.36100
C  44.17800 10.92900 33.10000
C  44.78700 10.00400 34.08700
O  44.98600 8.79900 34.00500
O  45.06000 10.72300 35.26300
C  45.57200 9.93900 36.37000
H  38.23100 7.49800 32.65300
H  39.16700 6.87800 26.39900
H  44.42800 10.43300 26.76700
H  42.07900 9.15000 34.80300
H  39.26900 9.47700 34.19400
H  40.23400 6.76100 34.46300
H  38.96300 7.47600 35.29200
H  40.59600 7.80800 35.88400
H  40.15200 11.23400 35.10000
H  41.39300 11.98900 34.10200
H  42.83400 12.14300 35.73800
H  42.59000 10.50900 36.39800
H  36.86600 4.82200 30.69800
H  35.65500 6.19000 30.86400
H  36.82800 5.99900 32.07700
H  35.71200 4.67500 28.48000
H  34.76800 5.54200 27.25200
H  34.95400 6.35800 28.77000
H  40.28200 8.77500 24.68700
H  43.21300 8.97700 24.95500
H  41.00200 6.82700 23.86800
H  41.27500 6.32400 25.49800
H  42.61500 6.91600 24.51700
H  42.43300 11.12700 23.88400
H  43.02500 11.64700 25.22800
H  40.27600 11.08600 25.71400
H  40.47300 11.84700 24.06500
H  41.08400 12.72500 25.50400
H  46.47100 11.08700 27.79000
H  47.19600 11.18000 29.40900
H  46.19800 12.48900 28.91000
H  43.78500 11.80500 33.61600
H  46.62400 9.77900 36.13400
H  44.98900 9.10300 36.75600
H  45.44100 10.50400 37.29200
Mg 42.05200 41.23500 26.02200
C  41.11200 43.48500 28.48300
C  43.18200 39.00400 28.39000
C  43.07200 39.17400 23.47900
C  41.30900 43.69100 23.65900
N  42.23100 41.31300 28.17000
C  41.60100 42.23100 28.99800
C  41.69000 41.80000 30.48500
C  42.49800 40.45300 30.41300
C  42.66800 40.17700 28.92500
C  43.87100 40.38100 31.12700
C  40.34200 41.80400 31.28000
C  40.34200 41.21400 32.71700
H  39.84800 42.09600 33.78300
N  43.02700 39.31700 25.95600
C  43.40200 38.58900 27.07000
C  43.83100 37.22800 26.62700
C  43.79900 37.22200 25.19800
C  43.32500 38.66100 24.79500
C  44.23100 36.23000 27.66200
C  44.23900 36.18200 24.22400
O  44.16000 36.36400 22.98600
C  44.81200 34.83600 24.78300
N  42.34700 41.48700 24.01500
C  42.69000 40.49600 23.13100
C  42.34300 40.74000 21.71800
C  41.51200 42.00300 21.84400
C  41.78300 42.48200 23.24500
C  43.56500 40.89900 20.79300
C  40.01200 41.81000 21.58200
C  39.25800 40.84500 22.51100
N  41.48900 43.27300 26.03700
C  41.25800 44.12700 25.00700
C  40.88700 45.43800 25.65300
C  40.69100 45.26800 26.96400
C  41.19500 43.89200 27.14800
C  40.47700 46.60000 24.75400
C  40.27500 45.88400 28.24000
O  39.88600 46.94500 28.68700
C  40.67100 44.73500 29.31700
C  41.60700 45.36900 30.26000
O  42.82300 45.29200 30.06600
O  41.08100 45.75500 31.50200
C  42.09900 46.34900 32.41600
H  43.44100 38.28600 29.17100
H  43.22400 38.44600 22.67900
H  40.95700 44.37200 22.88200
H  42.39700 42.54500 30.85100
H  41.92400 39.58300 30.73200
H  44.70200 40.05200 30.50300
H  43.73900 39.51900 31.78100
H  44.05700 41.33500 31.62200
H  39.63700 41.34600 30.58600
H  40.04400 42.84400 31.41100
H  41.41700 41.10600 32.86400
H  39.82700 40.25600 32.79000
H  45.22800 36.23200 28.10200
H  44.14000 35.26000 27.17300
H  43.47700 36.13900 28.44400
H  45.22900 34.31300 23.92200
H  44.06200 34.18500 25.23200
H  45.53300 34.95700 25.59100
H  41.70800 39.93400 21.35000
H  41.84800 42.83000 21.21800
H  44.42000 40.38300 21.22800
H  43.83700 41.95200 20.71800
H  43.41600 40.51800 19.78300
H  39.99800 41.36700 20.58600
H  39.48300 42.76300 21.60500
H  39.22800 39.86400 22.03800
H  38.28000 41.11900 22.90600
H  39.80300 40.66700 23.43900
H  39.90300 46.34600 23.86300
H  41.38500 47.14800 24.50200
H  39.84900 47.27100 25.34100
H  39.78000 44.56900 29.92400
H  42.97700 46.82600 31.98000
H  42.43200 45.47000 32.96700
H  41.62400 47.08400 33.06500

