158

Mg 24.18200 -6.87400 46.62800
C  25.85800 -4.20100 45.33700
C  21.50000 -5.98800 44.32600
C  22.68100 -9.85000 47.14900
C  26.85800 -7.84800 48.34700
N  23.75300 -5.27500 44.98800
C  24.63800 -4.25400 44.70600
C  24.03700 -3.35600 43.62400
C  22.51700 -3.80600 43.52600
C  22.58100 -5.08900 44.31900
C  21.45000 -2.73600 43.91800
C  24.86800 -3.48800 42.31100
C  25.14300 -2.20500 41.47900
H  24.65100 -2.17600 40.02200
N  22.25100 -7.82100 45.99300
C  21.32200 -7.30400 45.00200
C  20.16800 -8.15600 45.05000
C  20.46300 -9.21300 45.96600
C  21.81100 -8.99800 46.42000
C  18.93500 -7.91900 44.18200
C  19.49100 -10.33200 46.37200
O  18.40400 -10.45200 45.77300
C  19.84000 -11.32800 47.49600
N  24.66600 -8.59800 47.62200
C  23.83900 -9.62000 47.77300
C  24.42500 -10.63900 48.79000
C  25.82700 -10.05000 49.12600
C  25.77300 -8.72600 48.36000
C  23.53900 -11.01800 49.96200
C  27.13700 -10.92800 48.85700
C  28.03000 -11.16700 50.14500
N  25.99100 -6.26200 46.76300
C  27.05900 -6.70400 47.55300
C  28.10700 -5.71100 47.56800
C  27.68000 -4.74600 46.68500
C  26.37200 -5.11800 46.24000
C  29.31400 -5.76700 48.49200
C  28.02100 -3.43600 46.18500
O  28.90100 -2.62700 46.41800
C  26.85300 -3.06100 45.23500
C  26.35600 -1.79300 45.68400
O  26.87400 -0.71900 45.26900
O  25.17100 -1.90900 46.37300
C  24.73400 -0.68500 47.11300
H  20.61900 -5.77800 43.71500
H  22.28300 -10.84000 47.38200
H  27.68500 -8.09600 49.01500
H  24.01900 -2.29200 43.85700
H  22.27800 -4.07300 42.49700
H  20.88500 -3.11200 44.77000
H  20.73100 -2.58600 43.11300
H  21.84500 -1.80300 44.32100
H  24.37600 -4.18500 41.63300
H  25.80100 -3.99800 42.55200
H  26.22400 -2.27500 41.36400
H  24.99100 -1.29500 42.06100
H  18.83700 -8.78700 43.52900
H  19.02400 -7.11600 43.45100
H  17.98800 -7.82100 44.71300
H  20.40600 -12.07000 46.93200
H  18.94200 -11.79100 47.90600
H  20.40900 -10.78700 48.25300
H  24.55000 -11.59100 48.27600
H  25.75500 -9.81700 50.18900
H  22.73900 -10.28000 50.03200
H  23.99200 -11.05200 50.95200
H  23.13100 -12.00600 49.74900
H  27.82300 -10.52400 48.11300
H  26.70300 -11.86400 48.50500
H  28.00400 -12.23700 50.35300
H  27.66300 -10.66200 51.03800
H  29.05500 -10.82500 50.00100
H  29.35200 -4.83400 49.05500
H  30.21000 -5.87400 47.88100
H  29.12200 -6.56000 49.21400
H  27.18100 -3.02500 44.19600
H  24.07500 -0.07600 46.49400
H  25.59700 -0.06600 47.36000
H  24.28800 -1.00400 48.05500
Mg 0.12700 43.79000 26.75000
C  2.49800 43.57800 29.24500
C  -2.22700 42.65400 28.78700
C  -1.92000 43.41000 24.00300
C  2.72500 44.33300 24.54000
N  0.15400 43.14200 28.75900
C  1.18500 43.29700 29.66500
C  0.71400 43.00500 31.05800
C  -0.78000 42.54200 30.98500
C  -0.98900 42.79800 29.37400
C  -1.20800 41.18100 31.51400
C  0.81700 44.30700 31.95800
C  0.92600 44.15400 33.51500
H  0.84500 42.67300 34.08500
N  -1.90000 43.13400 26.50300
C  -2.71700 42.71400 27.46600
C  -4.03400 42.55100 26.92200
C  -3.98800 42.77300 25.51700
C  -2.60100 43.15000 25.26300
C  -5.28000 42.49000 27.77100
C  -5.09700 42.84000 24.48800
O  -4.90000 43.28400 23.35100
C  -6.48500 42.40900 24.80400
N  0.39000 43.83200 24.46800
C  -0.62700 43.65600 23.64400
C  -0.13300 43.92900 22.13500
C  1.33100 44.40000 22.34700
C  1.49600 44.12200 23.87000
C  -0.43900 42.79100 21.16500
C  1.69100 45.86500 21.91600
C  1.74300 47.01900 22.96700
N  2.19500 44.06100 26.86900
C  3.13700 44.21000 25.82400
C  4.51000 44.23200 26.34400
C  4.32600 43.93300 27.70300
C  2.89600 43.83800 27.94000
C  5.84100 44.39200 25.50100
C  4.94200 43.58700 29.02800
O  6.09700 43.36100 29.31300
C  3.79000 43.44000 30.05000
C  4.01700 42.05600 30.52300
O  3.87300 40.99600 29.91900
O  4.37600 42.15900 31.85700
C  4.91200 40.93800 32.48300
H  -2.98500 42.30100 29.49000
H  -2.64900 43.40200 23.19000
H  3.52600 44.64100 23.86500
H  1.33400 42.17900 31.40500
H  -1.34800 43.31800 31.50000
H  -1.58900 40.60800 30.66800
H  -2.03800 41.27600 32.21300
H  -0.44900 40.56200 31.99400
H  -0.07100 44.93900 31.97300
H  1.63000 45.00000 31.74200
H  0.03200 44.56700 33.98400
H  1.76900 44.70900 33.92500
H  -6.23900 42.80200 27.35800
H  -5.11700 42.98800 28.72600
H  -5.51600 41.44000 27.94600
H  -6.91500 42.13400 23.84100
H  -7.15500 43.17800 25.19000
H  -6.48200 41.51100 25.42000
H  -0.78200 44.75800 21.85100
H  2.01200 43.66400 21.92100
H  -0.36400 41.87400 21.74900
H  0.29300 42.67000 20.36600
H  -1.45300 43.01800 20.83800
H  0.92300 46.17800 21.20800
H  2.65200 45.84100 21.40300
H  2.77500 47.36500 23.02200
H  1.40400 46.75400 23.96900
H  1.11600 47.81100 22.55800
H  6.47800 43.54300 25.74900
H  6.30000 45.36900 25.65500
H  5.57500 44.39500 24.44400
H  3.72700 44.04500 30.95500
H  5.97100 41.04400 32.71900
H  4.94900 40.10300 31.78400
H  4.22500 40.74700 33.30800

