158

Mg -12.69000 15.41900 41.55300
C  -9.51400 13.76900 41.34100
C  -11.15800 18.15300 40.03700
C  -15.59700 16.81500 41.25000
C  -14.19600 12.24400 42.11300
N  -10.53300 15.82000 40.70800
C  -9.43200 15.07300 40.89800
C  -8.19000 15.95100 40.46000
C  -8.78200 17.31700 40.16200
C  -10.28200 17.09700 40.28200
C  -8.31300 18.41800 41.15000
C  -7.41200 15.41500 39.34200
C  -5.97600 15.94500 39.18500
H  -5.70600 16.80000 37.96000
N  -13.29100 17.30000 40.88400
C  -12.53600 18.27700 40.37400
C  -13.33200 19.49100 40.12400
C  -14.65700 19.13000 40.49600
C  -14.57400 17.71700 40.94200
C  -12.73100 20.82100 39.68000
C  -15.84400 19.95600 40.27800
O  -15.85400 21.08300 39.81300
C  -17.27600 19.44700 40.57400
N  -14.56200 14.57500 41.61000
C  -15.58800 15.48400 41.61700
C  -16.97100 14.74000 41.94300
C  -16.61800 13.22700 41.76200
C  -15.05900 13.29400 41.83100
C  -17.42600 15.06100 43.46600
C  -17.05800 12.71500 40.41400
C  -18.34400 11.90300 40.42600
N  -12.06100 13.39900 41.65100
C  -12.74400 12.25000 42.10700
C  -11.79100 11.24700 42.51300
C  -10.53600 11.82700 42.08900
C  -10.77300 13.11500 41.63400
C  -12.13900 9.93700 43.24700
C  -9.09800 11.54900 42.10700
O  -8.47600 10.58400 42.45800
C  -8.39700 12.85200 41.53000
C  -7.41800 13.40900 42.50800
O  -7.69200 13.74900 43.65300
O  -6.18900 13.38000 41.93500
C  -5.01800 13.54600 42.80400
H  -10.72600 19.03800 39.56500
H  -16.61100 17.21500 41.31900
H  -14.72200 11.33300 42.40700
H  -7.55300 15.96700 41.34500
H  -8.63500 17.69200 39.14900
H  -9.05200 18.62200 41.92400
H  -8.15100 19.30800 40.54100
H  -7.37200 18.23900 41.67000
H  -7.98900 15.55700 38.42800
H  -7.40200 14.33500 39.49200
H  -5.33800 15.09300 39.42000
H  -5.77400 16.58900 40.04000
H  -11.78400 21.10200 40.14000
H  -13.32600 21.70900 39.89500
H  -12.54000 20.71600 38.61200
H  -17.51300 18.63900 39.88300
H  -17.98300 20.22700 40.28900
H  -17.47000 19.19300 41.61600
H  -17.75400 15.16200 41.31300
H  -16.90400 12.70000 42.67200
H  -16.74700 15.86700 43.74100
H  -17.24700 14.21100 44.12400
H  -18.49100 15.22900 43.62700
H  -16.23700 12.13300 39.99500
H  -17.21100 13.63800 39.85500
H  -18.81700 11.76200 41.39800
H  -18.15200 10.95700 39.92000
H  -19.07300 12.49000 39.86900
H  -11.57100 9.04900 42.97000
H  -13.20100 9.76200 43.07700
H  -12.07700 9.99300 44.33400
H  -7.85100 12.53500 40.64100
H  -4.64500 14.56500 42.69900
H  -4.17300 12.90600 42.55000
H  -5.18500 13.39700 43.87100
Mg -5.66100 24.83900 26.19900
C  -4.42800 26.30300 29.09200
C  -7.94200 23.07900 28.13000
C  -6.38100 23.12900 23.45100
C  -3.21600 26.57300 24.44100
N  -6.11600 24.74100 28.41700
C  -5.46300 25.37900 29.38700
C  -5.97100 25.07800 30.72700
C  -6.94000 23.91700 30.46800
C  -6.97000 23.83300 28.92000
C  -6.71700 22.56300 31.16100
C  -6.68400 26.25100 31.41500
C  -6.35000 26.50700 32.95000
H  -5.86700 25.31500 33.80100
N  -6.94800 23.32200 25.87900
C  -7.89600 22.83400 26.73300
C  -8.85900 22.06200 25.90000
C  -8.36200 21.96500 24.57100
C  -7.19100 22.76500 24.60500
C  -10.06300 21.28900 26.51500
C  -8.76700 21.02700 23.42100
O  -7.97300 20.82200 22.56200
C  -10.09800 20.24600 23.39900
N  -4.77300 24.68000 24.29600
C  -5.19500 23.89000 23.34800
C  -4.40000 24.11900 22.01000
C  -3.65100 25.42800 22.26300
C  -3.98300 25.63600 23.72100
C  -3.70500 22.83900 21.59500
C  -3.80700 26.58200 21.22000
C  -2.64600 26.91000 20.34800
N  -4.07600 26.17900 26.60300
C  -3.27100 26.90300 25.81100
C  -2.35900 27.73600 26.55500
C  -2.80600 27.53700 27.83900
C  -3.92500 26.69500 27.79700
C  -1.30900 28.60300 25.95900
C  -2.46100 27.86500 29.26600
O  -1.62300 28.57000 29.79400
C  -3.53400 27.08400 30.08600
C  -2.67400 26.26700 31.13000
O  -2.14600 25.15700 30.90500
O  -2.49500 27.03800 32.29100
C  -1.58500 26.49800 33.27600
H  -8.69500 22.68800 28.81700
H  -6.77100 22.84300 22.47200
H  -2.34200 26.94800 23.90600
H  -5.15200 24.57800 31.24300
H  -7.93300 24.24900 30.77100
H  -7.47700 22.47700 31.93700
H  -5.73100 22.58000 31.62700
H  -6.72400 21.75500 30.43000
H  -7.77200 26.25300 31.36100
H  -6.43900 27.23100 31.00400
H  -7.16700 26.92800 33.53600
H  -5.55700 27.25500 32.93000
H  -11.04300 21.68900 26.25400
H  -10.18100 21.39400 27.59300
H  -9.95300 20.22800 26.29000
H  -10.82900 20.94800 23.80200
H  -9.97100 19.37200 24.03800
H  -10.25700 19.87900 22.38500
H  -5.24400 24.28600 21.34100
H  -2.57600 25.24700 22.23700
H  -2.61600 22.83100 21.63900
H  -3.81000 22.67400 20.52300
H  -4.12600 21.93500 22.03700
H  -3.95500 27.45100 21.86100
H  -4.72600 26.51100 20.63700
H  -2.20300 26.02600 19.89000
H  -1.84300 27.32000 20.96000
H  -3.00200 27.62600 19.60600
H  -0.42800 28.05500 25.62500
H  -0.86800 29.23400 26.73100
H  -1.61800 29.21200 25.11000
H  -4.19300 27.75100 30.64200
H  -0.67500 27.08200 33.14400
H  -1.33000 25.45200 33.10400
H  -1.88500 26.67700 34.30800

