158

Mg 35.55400 2.73800 29.94600
C  32.93500 3.45700 32.17300
C  37.73200 2.89800 32.56700
C  37.97200 2.27800 27.69900
C  33.24000 3.13200 27.33300
N  35.33600 3.03800 32.14400
C  34.15900 3.28000 32.79700
C  34.39700 3.39700 34.32500
C  36.05100 3.60200 34.36100
C  36.44300 3.06200 32.95500
C  36.52800 5.05700 34.57400
C  33.97300 2.16000 35.13500
C  33.42900 2.27800 36.58400
H  33.98500 3.55100 37.24600
N  37.58200 2.56500 30.13500
C  38.32000 2.64800 31.28900
C  39.76800 2.53800 30.90800
C  39.82800 2.24100 29.49500
C  38.43400 2.31400 29.00500
C  40.87600 2.78400 31.95000
C  41.05300 2.04300 28.67700
O  41.00500 1.88300 27.45200
C  42.43000 1.60500 29.18100
N  35.54200 2.74700 27.81600
C  36.71100 2.44300 27.14500
C  36.44200 2.36500 25.64200
C  34.90800 2.57200 25.46000
C  34.51800 2.81600 26.93300
C  37.34600 3.29000 24.83500
C  34.09100 1.41400 24.81000
C  33.94800 0.04300 25.48900
N  33.52400 3.26400 29.76600
C  32.76200 3.40100 28.60000
C  31.39100 3.75400 28.99100
C  31.42000 3.67800 30.38300
C  32.75200 3.43000 30.77800
C  30.17200 3.88800 28.17100
C  30.65900 3.86800 31.56100
O  29.48300 4.24700 31.66800
C  31.57600 3.69500 32.83300
C  31.48400 4.93900 33.68800
O  31.72900 6.03500 33.27700
O  31.07300 4.70400 34.91400
C  30.94100 5.82400 35.84800
H  38.40700 3.06200 33.40900
H  38.77100 2.26200 26.95600
H  32.46800 3.16800 26.56200
H  33.90000 4.31500 34.64000
H  36.49500 2.98100 35.13900
H  35.66300 5.71700 34.63300
H  37.07700 5.41300 33.70200
H  37.16100 5.19700 35.45000
H  34.83900 1.54100 35.37000
H  33.32700 1.59200 34.46600
H  33.72500 1.40600 37.16600
H  32.34000 2.27100 36.52900
H  41.83300 2.91900 31.44600
H  40.95800 1.96100 32.66000
H  40.51800 3.67400 32.46800
H  42.90800 1.11000 28.33600
H  42.31500 0.95500 30.04800
H  43.06900 2.45500 29.42300
H  36.74000 1.33700 25.44000
H  34.64800 3.55200 25.05800
H  36.78400 4.01200 24.24200
H  38.04300 2.75100 24.19400
H  37.86200 4.09100 25.36500
H  34.47900 1.31400 23.79600
H  33.04400 1.68300 24.67600
H  32.90300 -0.18400 25.70000
H  34.58400 -0.05800 26.36800
H  34.36200 -0.77000 24.89200
H  29.22200 3.95600 28.70200
H  30.18600 3.02300 27.50800
H  30.28900 4.74400 27.50600
H  31.22200 2.76300 33.27300
H  30.51000 6.72100 35.40300
H  31.90700 6.12300 36.25600
H  30.30300 5.56000 36.69100
Mg -1.14000 34.52400 26.36900
C  -3.23300 33.33900 28.74100
C  -0.12200 37.03600 28.68400
C  0.58500 35.93200 23.94700
C  -2.91100 32.62700 23.86000
N  -1.76000 35.12800 28.36300
C  -2.46200 34.38200 29.24500
C  -2.22300 34.66900 30.69600
C  -1.51700 36.11700 30.64300
C  -1.08100 36.10900 29.16600
C  -2.30700 37.37900 31.05400
C  -1.28800 33.55200 31.41600
C  -1.95500 32.84500 32.55600
H  -1.30400 32.94100 33.87100
N  0.20400 36.18200 26.32500
C  0.47600 37.12000 27.36200
C  1.41700 38.03400 26.83800
C  1.71600 37.62300 25.47900
C  0.82600 36.50300 25.16500
C  1.94000 39.07100 27.71300
C  2.76800 38.12600 24.50200
O  3.03500 37.56100 23.41900
C  3.52800 39.36800 24.87500
N  -1.05400 34.19800 24.16900
C  -0.11400 34.83200 23.44100
C  -0.05800 34.28900 22.00000
C  -1.04400 33.12300 22.06300
C  -1.70900 33.29800 23.39800
C  -0.46200 35.34900 20.89000
C  -0.43600 31.76900 21.74000
C  0.25900 31.07200 22.85500
N  -2.70800 33.18500 26.23000
C  -3.31500 32.41200 25.24900
C  -4.27900 31.50800 25.77700
C  -4.32700 31.83500 27.18200
C  -3.36900 32.92100 27.35600
C  -5.05100 30.53800 25.02200
C  -4.82800 31.41000 28.44800
O  -5.59600 30.56000 28.71600
C  -4.13200 32.34200 29.51700
C  -5.25000 33.01900 30.31400
O  -5.64400 34.15400 30.25900
O  -5.69800 32.05400 31.19000
C  -6.62600 32.37400 32.24300
H  0.27900 37.68500 29.46500
H  1.16300 36.17900 23.05400
H  -3.42100 32.05000 23.08600
H  -3.16300 34.79000 31.23300
H  -0.60700 36.11400 31.24300
H  -3.05100 36.97900 31.74300
H  -2.63100 38.00700 30.22400
H  -1.59300 38.06900 31.50400
H  -0.26900 33.78800 31.72000
H  -1.25900 32.81000 30.61800
H  -2.06900 31.80500 32.24900
H  -2.96600 33.23400 32.67500
H  1.32800 39.24500 28.59800
H  1.99300 40.01100 27.16400
H  2.93000 38.90800 28.13900
H  3.86200 39.46700 25.90700
H  2.86300 40.21700 24.71700
H  4.30200 39.60300 24.14400
H  0.92300 33.88900 21.74600
H  -1.94100 33.13100 21.44400
H  -1.34400 35.09700 20.30000
H  0.36100 35.47100 20.18500
H  -0.52300 36.33600 21.34800
H  0.33800 31.99300 21.00600
H  -1.22200 31.19300 21.25200
H  0.03100 31.63600 23.75900
H  1.32700 31.18400 22.66600
H  -0.03500 30.02800 22.96300
H  -4.86800 30.64800 23.95400
H  -6.09100 30.76400 25.25900
H  -4.99400 29.50800 25.37600
H  -3.50400 31.68800 30.12200
H  -7.50900 32.82700 31.79300
H  -6.24800 33.08900 32.97400
H  -6.95700 31.45300 32.72300

