158

Mg 1.35300 -2.77500 45.06800
C  4.34700 -1.18900 43.76100
C  -0.28500 -0.33700 43.38400
C  -1.28900 -4.38800 45.89300
C  3.44100 -5.39500 46.20000
N  2.00300 -1.07500 43.57100
C  3.23000 -0.55900 43.31900
C  3.20400 0.69000 42.50400
C  1.76700 1.13000 42.79500
C  1.09500 -0.20700 43.21600
C  1.53900 2.33300 43.80600
C  3.67300 0.49800 41.06800
C  4.77400 1.53800 40.59600
H  6.27100 0.97300 40.38600
N  -0.53800 -2.49500 44.62700
C  -1.00900 -1.45700 43.89300
C  -2.42900 -1.62100 43.70100
C  -2.78700 -2.79800 44.39700
C  -1.53000 -3.27800 45.04700
C  -3.26200 -0.76900 42.86800
C  -4.16100 -3.55200 44.39600
O  -5.07900 -2.98500 43.80100
C  -4.40700 -4.72800 45.25100
N  1.15300 -4.67000 45.97400
C  -0.11000 -5.10500 46.29000
C  -0.00700 -6.42900 47.13800
C  1.55000 -6.71800 47.11100
C  2.09600 -5.58900 46.32100
C  -0.68400 -6.44500 48.59200
C  1.90900 -8.15200 46.53000
C  2.46400 -9.29100 47.53500
N  3.45300 -3.20300 45.10500
C  4.13200 -4.32400 45.58000
C  5.57000 -4.13300 45.41500
C  5.67300 -2.89400 44.75500
C  4.35500 -2.39100 44.52700
C  6.64200 -5.12800 45.69400
C  6.58200 -1.86600 44.27100
O  7.80100 -1.90500 44.18900
C  5.70900 -0.70300 43.68600
C  5.98300 0.54600 44.47100
O  5.26200 1.13300 45.24700
O  7.19500 1.05700 44.03600
C  7.59500 2.32400 44.56900
H  -0.81300 0.53800 42.99800
H  -2.20000 -4.87600 46.24800
H  4.17500 -6.11400 46.57100
H  3.76000 1.51000 42.95800
H  1.33000 1.35200 41.82100
H  1.16900 3.10900 43.13600
H  2.42400 2.76100 44.27500
H  0.84400 2.04300 44.59400
H  2.82000 0.49300 40.38900
H  4.11400 -0.49400 40.96800
H  4.74300 2.28500 41.39000
H  4.42100 2.04700 39.70000
H  -3.87900 -1.34500 42.17900
H  -2.65800 -0.17200 42.18500
H  -3.85600 -0.19600 43.58000
H  -3.76100 -5.58300 45.05000
H  -5.41600 -5.10800 45.09100
H  -4.17200 -4.41200 46.26700
H  -0.41200 -7.19600 46.47800
H  1.79600 -6.66500 48.17100
H  -0.35600 -7.29500 49.19000
H  -1.76400 -6.51700 48.45700
H  -0.44600 -5.49500 49.07000
H  2.72700 -7.98000 45.83000
H  1.04600 -8.61400 46.05200
H  2.64000 -8.89200 48.53400
H  3.34400 -9.80200 47.14400
H  1.61400 -9.92700 47.78200
H  7.59500 -4.66300 45.44400
H  6.38200 -5.97600 45.06100
H  6.72000 -5.46500 46.72700
H  6.18200 -0.56900 42.71300
H  8.00900 2.29700 45.57700
H  6.76000 3.02500 44.55600
H  8.33600 2.62600 43.82900
Mg 34.96500 2.87600 29.31000
C  32.79200 4.30700 31.74700
C  37.28800 2.54400 31.70500
C  37.06400 1.72600 26.90200
C  32.54600 3.49400 26.84500
N  35.08300 3.76900 31.48000
C  34.01300 4.06500 32.31300
C  34.46700 3.93500 33.79900
C  36.00000 3.53600 33.63800
C  36.12700 3.25000 32.14700
C  36.98600 4.63300 33.99200
C  33.58900 2.94300 34.65500
C  33.24900 3.47100 36.08500
H  33.89500 4.69800 36.78100
N  37.02000 2.34200 29.27800
C  37.79000 2.27900 30.38700
C  39.12000 1.79800 30.02300
C  39.00800 1.57900 28.64000
C  37.66900 1.84500 28.20000
C  40.29900 1.66500 31.04200
C  40.16100 1.11900 27.70600
O  40.04300 0.99400 26.49800
C  41.49600 0.68200 28.25300
N  34.84600 2.78100 27.19800
C  35.86500 2.24300 26.43800
C  35.40800 2.05200 24.98500
C  33.89900 2.52400 24.97800
C  33.71100 2.86900 26.44100
C  36.31300 2.73100 23.95200
C  32.96200 1.47200 24.33400
C  31.86700 0.81000 25.16800
N  33.04500 3.71400 29.24000
C  32.19400 3.89700 28.17900
C  30.95300 4.50200 28.68200
C  31.14200 4.57800 30.06000
C  32.46700 4.18400 30.36400
C  29.69400 4.79200 27.95200
C  30.48000 4.86000 31.32600
O  29.35200 5.19800 31.63600
C  31.55000 4.67200 32.43500
C  31.68800 5.86900 33.27200
O  32.14200 6.89900 32.78100
O  31.05400 5.69000 34.49800
C  30.85600 7.01600 35.19200
H  37.97800 2.22400 32.48900
H  37.71200 1.20900 26.19100
H  31.71800 3.63000 26.14600
H  34.53800 4.92300 34.25500
H  36.20900 2.65400 34.24300
H  36.59600 5.03000 34.93000
H  37.06100 5.30500 33.13800
H  37.96700 4.16400 34.06500
H  34.03300 1.97400 34.88200
H  32.73000 2.70700 34.02700
H  33.48600 2.67400 36.78900
H  32.17800 3.63800 36.19400
H  40.02300 2.10900 31.99800
H  41.07100 2.34200 30.67800
H  40.56200 0.62200 31.21800
H  42.16100 1.52500 28.44500
H  41.91600 0.06500 27.45900
H  41.35800 -0.04600 29.05100
H  35.49000 0.97300 24.85600
H  33.78600 3.28900 24.21000
H  36.57400 3.75200 24.22900
H  35.93600 2.64400 22.93300
H  37.25400 2.19600 24.07300
H  33.62500 0.69100 23.96100
H  32.49200 2.07800 23.56000
H  32.10500 -0.25100 25.23700
H  30.88800 0.79700 24.69000
H  31.70600 1.19200 26.17600
H  29.02500 5.31900 28.63200
H  29.20400 3.89900 27.56300
H  29.93200 5.49500 27.15300
H  31.27200 3.86700 33.11600
H  31.66200 7.35500 35.84300
H  29.93600 6.98800 35.77500
H  30.67700 7.88300 34.55600

