158

Mg 24.66500 -5.86500 45.64400
C  26.75300 -3.41700 44.42800
C  22.07200 -4.58800 43.79100
C  23.06900 -8.70500 46.00200
C  27.36700 -7.13700 47.50900
N  24.41800 -4.15900 44.26600
C  25.42800 -3.31300 43.89600
C  24.95800 -2.43500 42.71500
C  23.39100 -2.56700 42.84300
C  23.26100 -3.81900 43.66900
C  22.60500 -1.32300 43.50000
C  25.56300 -2.98900 41.37000
C  25.95700 -1.82900 40.38200
H  25.37000 -1.81800 39.00700
N  22.76700 -6.52100 45.11800
C  21.84900 -5.81000 44.42100
C  20.59200 -6.57500 44.37900
C  20.88900 -7.75600 45.07200
C  22.30800 -7.69200 45.43600
C  19.38500 -6.19200 43.63100
C  19.83400 -8.78500 45.35000
O  18.69200 -8.66900 44.87300
C  20.11800 -9.99700 46.17900
N  25.10200 -7.67700 46.72600
C  24.34800 -8.74400 46.46600
C  24.90500 -9.96900 47.16600
C  26.37900 -9.52800 47.56600
C  26.25800 -7.98600 47.30400
C  24.11700 -10.25400 48.51900
C  27.52100 -10.13100 46.75400
C  28.80700 -10.53000 47.53600
N  26.68700 -5.37500 45.96200
C  27.61500 -5.95900 46.79700
C  28.80700 -5.09400 46.83700
C  28.60900 -4.16400 45.76800
C  27.27300 -4.36000 45.35300
C  30.04100 -5.31400 47.65200
C  29.20500 -3.02100 45.08900
O  30.27300 -2.44300 45.11700
C  28.00700 -2.59100 44.09000
C  27.77700 -1.24100 44.39100
O  27.11000 -0.79200 45.32800
O  28.41900 -0.46700 43.39700
C  27.90900 0.89600 43.36600
H  21.29300 -4.03500 43.26100
H  22.71400 -9.73300 46.09600
H  28.20100 -7.53900 48.08900
H  25.19600 -1.37200 42.77000
H  23.04900 -2.85900 41.85100
H  23.40600 -0.70300 43.90300
H  21.91800 -1.52700 44.32100
H  21.96500 -0.81400 42.78000
H  24.84300 -3.55300 40.77800
H  26.46600 -3.59000 41.48000
H  27.00900 -2.01000 40.16300
H  25.82600 -0.84000 40.82200
H  19.04800 -7.08300 43.10100
H  19.55700 -5.29500 43.03600
H  18.58600 -5.96900 44.33700
H  19.21000 -10.41900 46.61000
H  20.64000 -9.73300 47.09900
H  20.57700 -10.80000 45.60200
H  24.86500 -10.73100 46.38800
H  26.64900 -9.62100 48.61800
H  23.20900 -10.80800 48.27900
H  24.02700 -9.24400 48.91800
H  24.65200 -11.02500 49.07300
H  27.91900 -9.31400 46.15100
H  27.19700 -10.90400 46.05700
H  29.67400 -9.87000 47.56500
H  29.07800 -11.53700 47.21900
H  28.66800 -10.68600 48.60600
H  30.73500 -5.68300 46.89700
H  29.90800 -6.09200 48.40300
H  30.33200 -4.37500 48.12200
H  28.32800 -2.75700 43.06200
H  26.87100 0.91900 43.03400
H  28.55000 1.50400 42.72700
H  27.92200 1.24800 44.39800
Mg 49.39300 45.09200 43.81700
C  46.42300 46.05100 42.13200
C  49.09300 41.98400 42.36000
C  52.76600 44.74900 44.13800
C  49.73300 48.54600 44.66800
N  48.04200 44.24700 42.26900
C  46.85400 44.74100 41.87700
C  46.07200 43.76700 40.99000
C  46.86900 42.46100 41.08800
C  48.03900 42.84600 42.03300
C  46.08200 41.20900 41.58800
C  45.73900 44.28600 39.48600
C  44.26500 44.32500 39.07500
H  43.67000 43.43200 37.97600
N  50.72500 43.49400 43.43600
C  50.43100 42.30100 42.83500
C  51.62200 41.49800 42.76600
C  52.69100 42.28600 43.29000
C  52.09300 43.59200 43.64000
C  51.67200 40.09900 42.15100
C  54.11000 41.80200 43.64400
O  54.45700 40.70200 43.29900
C  55.11200 42.54400 44.42000
N  51.00400 46.48900 44.34000
C  52.22700 46.01300 44.59200
C  53.18600 47.07700 45.18500
C  52.13400 48.12200 45.55700
C  50.89100 47.72700 44.79000
C  54.16200 46.54000 46.34800
C  52.53900 49.69400 45.48800
C  52.71300 50.34000 46.86900
N  48.30900 46.92600 43.64200
C  48.54600 48.14800 44.11900
C  47.43900 49.02300 43.74600
C  46.55200 48.23700 43.08500
C  47.19200 46.98100 42.94000
C  47.32500 50.54300 43.94400
C  45.30000 48.20600 42.44300
O  44.48100 49.12000 42.40100
C  45.15100 46.80400 41.72400
C  43.98700 46.07200 42.16100
O  43.83200 45.38300 43.14000
O  43.03900 46.37000 41.21700
C  41.65800 45.84800 41.36500
H  49.00800 41.01800 41.85700
H  53.85100 44.69200 44.24400
H  49.87300 49.56100 45.04400
H  45.07900 43.55900 41.39100
H  47.14300 42.27100 40.05000
H  46.29700 41.01100 42.63800
H  46.49100 40.37900 41.01200
H  45.00900 41.27300 41.40800
H  46.19900 43.66100 38.72100
H  46.32700 45.19200 39.33900
H  44.19600 45.37600 38.79400
H  43.60700 44.25900 39.94100
H  50.64900 39.73600 42.04500
H  52.19900 39.27400 42.63100
H  52.05700 40.18000 41.13500
H  54.78200 42.98600 45.36000
H  55.71200 43.09600 43.69700
H  55.76600 41.75300 44.78900
H  53.76700 47.55400 44.39600
H  51.64500 48.02200 46.52600
H  53.95300 46.95900 47.33300
H  55.18100 46.73000 46.01100
H  54.09400 45.49200 46.64000
H  51.79300 50.28900 44.96200
H  53.45900 49.94300 44.96000
H  53.75300 50.66600 46.84300
H  52.53100 49.60500 47.65300
H  52.15600 51.26300 47.03400
H  47.89100 50.96400 43.11300
H  47.73000 50.83200 44.91400
H  46.28700 50.83600 43.79100
H  45.09700 46.86500 40.63800
H  41.67200 44.78100 41.58700
H  41.02600 45.92700 40.48000
H  41.06600 46.33100 42.14200

