158

Mg 48.46500 34.98300 26.87500
C  46.27600 33.53900 29.38900
C  48.74600 37.71400 28.91400
C  49.67700 36.47500 24.21000
C  47.46900 32.25300 24.83200
N  47.69300 35.45900 28.91000
C  46.97600 34.68000 29.74100
C  46.94300 35.31300 31.18400
C  47.36000 36.85100 30.88800
C  47.93500 36.69200 29.46300
C  46.09900 37.79800 30.83800
C  47.89200 34.41900 32.03900
C  49.29500 34.91900 32.53900
H  49.58400 35.20600 34.00900
N  49.24400 36.74700 26.69100
C  49.36100 37.76700 27.63000
C  50.32000 38.73900 27.09800
C  50.49300 38.46000 25.67900
C  49.77800 37.16000 25.51200
C  50.83900 39.91000 27.86200
C  51.25900 39.32400 24.68200
O  51.34300 38.99400 23.53700
C  51.99500 40.53900 25.10100
N  48.55200 34.38700 24.77700
C  49.18000 35.24500 23.85800
C  49.27300 34.57600 22.48600
C  48.82900 33.11900 22.74300
C  48.25200 33.21600 24.22900
C  48.53300 35.24200 21.33200
C  49.95100 32.00300 22.69100
C  50.14800 31.46400 21.21300
N  47.17200 33.28300 27.01300
C  46.81900 32.35100 26.08500
C  45.86400 31.38000 26.57200
C  45.57400 31.81800 27.88400
C  46.37400 32.96800 28.13800
C  45.26000 30.23500 25.85600
C  44.76800 31.59600 29.08200
O  43.88000 30.74700 29.26500
C  45.11200 32.80800 30.05700
C  45.45600 32.26800 31.48100
O  46.30400 31.48800 31.88000
O  44.64600 32.98800 32.35300
C  44.78900 32.57600 33.77100
H  48.98800 38.54300 29.58200
H  50.17700 36.96400 23.37000
H  47.18800 31.44000 24.16000
H  45.91100 35.26600 31.53000
H  48.15300 37.23300 31.53100
H  46.00900 38.41400 31.73300
H  45.22900 37.15700 30.69600
H  46.25600 38.53300 30.04900
H  48.03400 33.49500 31.48000
H  47.34900 34.21900 32.96300
H  49.70400 35.80700 32.05800
H  50.04000 34.22100 32.15500
H  51.91800 39.82500 27.99400
H  50.47400 39.92800 28.88900
H  50.70400 40.85500 27.33700
H  51.30100 41.37400 25.19700
H  52.67300 40.86300 24.31200
H  52.60200 40.23900 25.95600
H  50.32400 34.48800 22.21000
H  47.99700 32.74800 22.14500
H  47.85100 34.57100 20.80900
H  49.19700 35.60600 20.54800
H  47.88500 36.01800 21.73800
H  49.64000 31.20000 23.35900
H  50.90500 32.38800 23.05200
H  51.16000 31.73000 20.90700
H  49.42600 31.91600 20.53400
H  50.02500 30.38700 21.09300
H  44.90000 30.45000 24.85000
H  44.40500 29.98500 26.48400
H  46.02300 29.45600 25.86900
H  44.24900 33.46800 30.14300
H  45.37600 33.28000 34.36100
H  45.18500 31.58000 33.97000
H  43.81500 32.62600 34.25900
Mg 42.67600 42.29100 25.88900
C  41.54200 44.46800 28.45200
C  43.87100 40.15500 28.18300
C  44.15300 40.69200 23.32300
C  41.66800 44.81400 23.54900
N  42.91900 42.44500 28.16100
C  42.21400 43.29800 28.99900
C  42.30900 42.83700 30.46300
C  43.15800 41.52800 30.33200
C  43.30000 41.34300 28.78900
C  44.49400 41.58700 31.09200
C  41.05800 42.67600 31.21600
C  41.28700 42.06600 32.62100
H  40.92500 43.00600 33.88200
N  43.71500 40.55600 25.73000
C  44.11700 39.77700 26.77200
C  44.62600 38.58300 26.32900
C  44.97900 38.80000 24.92900
C  44.33100 40.08300 24.59100
C  45.04100 37.45000 27.21500
C  45.66400 37.87200 23.87400
O  46.11800 38.32700 22.81400
C  46.00500 36.38400 24.28400
N  42.97700 42.75800 23.78900
C  43.56600 41.87100 22.96700
C  43.47300 42.28700 21.50600
C  42.25000 43.32300 21.60900
C  42.33300 43.69900 23.04700
C  44.73300 42.91300 20.88800
C  40.85100 42.85400 21.07100
C  40.13800 41.82100 21.99700
N  41.93000 44.25900 25.95000
C  41.45400 45.10800 24.95100
C  40.85900 46.25500 25.52000
C  40.80600 46.01300 26.87500
C  41.48300 44.78600 27.09500
C  40.39300 47.44800 24.68900
C  40.40000 46.53900 28.18100
O  39.86800 47.57900 28.59300
C  40.73800 45.44700 29.22600
C  41.61400 46.11700 30.33600
O  42.77700 46.24100 30.28500
O  40.88600 46.40000 31.39600
C  41.58500 46.83200 32.59500
H  44.19700 39.37300 28.87200
H  44.56100 40.24200 22.41600
H  41.16700 45.49600 22.85800
H  43.03900 43.52600 30.88800
H  42.54300 40.72200 30.73300
H  44.62500 42.49800 31.67600
H  45.35000 41.58900 30.41700
H  44.63300 40.77100 31.80100
H  40.35100 42.17600 30.55400
H  40.89900 43.73400 31.42300
H  42.26900 41.62600 32.79500
H  40.60700 41.21500 32.60400
H  46.11900 37.31800 27.11600
H  44.61000 36.57400 26.73100
H  44.60800 37.52700 28.21200
H  46.40500 35.73900 23.50100
H  45.11400 35.91400 24.70000
H  46.62800 36.50300 25.17000
H  43.07300 41.49700 20.87000
H  42.45600 44.24900 21.07300
H  44.41200 43.80300 20.34600
H  45.30300 42.27500 20.21300
H  45.35400 43.08400 21.76800
H  41.08400 42.51600 20.06100
H  40.26000 43.77000 21.06500
H  39.41100 42.41600 22.55000
H  40.83800 41.30300 22.65200
H  39.68500 40.97500 21.47900
H  39.86300 48.12900 25.35500
H  39.61800 47.18300 23.97000
H  41.21500 47.83700 24.08900
H  39.74500 45.15100 29.56400
H  41.49200 46.02200 33.31800
H  41.01400 47.70800 32.90100
H  42.62000 47.12300 32.41600

