158

Mg 3.30700 -0.37800 43.98200
C  6.25700 1.57000 44.14400
C  1.71400 2.33300 42.57700
C  0.61800 -2.34700 43.68600
C  5.10500 -3.09400 45.14800
N  4.06000 1.62300 43.21400
C  5.22600 2.23000 43.48600
C  5.27500 3.69500 42.99500
C  3.72900 4.01400 42.94700
C  3.06700 2.59200 42.91100
C  3.32300 4.95200 44.11400
C  6.03500 3.97900 41.64300
C  6.51700 2.64400 40.89600
H  7.02900 2.94600 39.49700
N  1.42200 -0.01800 43.19900
C  0.91300 1.12700 42.62600
C  -0.57400 0.93000 42.33500
C  -0.90900 -0.35600 42.74000
C  0.36600 -1.00300 43.21300
C  -1.44100 2.00500 41.72200
C  -2.31000 -0.90000 42.73300
O  -3.23300 -0.14300 42.41300
C  -2.82200 -2.29400 43.18900
N  2.97000 -2.49200 44.10300
C  1.72200 -3.01700 44.13200
C  1.76500 -4.53500 44.41400
C  3.24000 -4.82200 44.82300
C  3.83100 -3.42000 44.65300
C  0.60400 -5.09700 45.26200
C  4.05400 -5.86700 43.94400
C  4.69900 -6.91000 44.77800
N  5.32300 -0.80700 44.47200
C  5.91400 -1.88100 44.98900
C  7.29500 -1.66900 45.42300
C  7.45200 -0.29900 45.13300
C  6.24500 0.19200 44.51800
C  8.15800 -2.67900 46.16900
C  8.36700 0.85500 45.19300
O  9.48900 0.87400 45.67000
C  7.61400 2.09500 44.54700
C  7.58000 3.26600 45.48100
O  8.45400 4.10800 45.53500
O  6.53800 3.19100 46.34300
C  6.57200 4.08300 47.49900
H  1.05200 3.13200 42.23700
H  -0.23000 -3.01500 43.52300
H  5.59700 -4.00300 45.50000
H  5.80600 4.18800 43.80900
H  3.53100 4.56600 42.02800
H  3.12800 4.46700 45.07000
H  2.56200 5.65500 43.77500
H  4.18300 5.57800 44.34900
H  6.99200 4.48500 41.76900
H  5.41000 4.60400 41.00600
H  5.79000 1.83800 40.79800
H  7.36400 2.27000 41.47100
H  -2.03300 2.47800 42.50600
H  -2.02000 1.78900 40.82400
H  -0.73400 2.75300 41.36400
H  -2.69700 -2.34700 44.27100
H  -2.33100 -3.13200 42.69300
H  -3.87000 -2.39500 42.90700
H  1.56000 -5.02600 43.46300
H  3.28400 -5.19000 45.84800
H  0.98400 -5.99200 45.75300
H  -0.24800 -5.29200 44.61000
H  0.38800 -4.38200 46.05600
H  4.81100 -5.36900 43.33800
H  3.49600 -6.37200 43.15600
H  3.95300 -7.21300 45.51200
H  5.60300 -6.50700 45.23500
H  4.95400 -7.86800 44.32500
H  7.90900 -2.76800 47.22700
H  9.11200 -2.15200 46.17000
H  8.32700 -3.66100 45.72600
H  8.26900 2.44500 43.74900
H  5.97200 4.98300 47.37200
H  7.57000 4.41800 47.78100
H  6.28400 3.45800 48.34400
Mg -9.48400 40.65600 43.62400
C  -8.04700 37.49400 42.90200
C  -6.94000 42.19300 41.86100
C  -11.17300 43.49800 43.77700
C  -12.23700 38.85500 45.03400
N  -7.88400 39.92100 42.28300
C  -7.44800 38.58300 42.19200
C  -6.31600 38.55300 41.25000
C  -5.62100 39.96200 41.58100
C  -6.91300 40.77400 41.95400
C  -4.55600 39.98000 42.64000
C  -6.71900 38.38400 39.76200
C  -6.32400 37.04300 39.16000
H  -5.24500 37.09400 38.12400
N  -9.14100 42.50300 42.81900
C  -8.02400 42.97000 42.18700
C  -8.12500 44.39800 41.93400
C  -9.37000 44.83500 42.41600
C  -9.94400 43.63400 43.07800
C  -7.14200 45.24300 41.22400
C  -9.85600 46.37400 42.38100
O  -9.24500 47.26200 41.81800
C  -11.23200 46.68100 42.92600
N  -11.37200 41.10900 44.26600
C  -11.78900 42.34300 44.30600
C  -13.10900 42.47400 45.13200
C  -13.52700 40.99400 45.42900
C  -12.31400 40.24900 44.87700
C  -12.92600 43.43200 46.33900
C  -14.77400 40.50700 44.64900
C  -15.82600 39.64400 45.37200
N  -10.00800 38.62100 44.07900
C  -11.06500 38.04400 44.73500
C  -10.96200 36.63900 44.68400
C  -9.69400 36.36500 44.19800
C  -9.23500 37.59900 43.66100
C  -12.02200 35.71400 45.14800
C  -8.80000 35.31700 43.84100
O  -8.84900 34.05600 43.99300
C  -7.70300 36.03000 42.87200
C  -6.27700 35.77400 43.35300
O  -5.66500 36.36000 44.23500
O  -5.72200 34.82400 42.56800
C  -4.31500 34.50200 42.68900
H  -6.01300 42.67900 41.55000
H  -11.69700 44.45600 43.80600
H  -13.02200 38.27900 45.52900
H  -5.62000 37.75500 41.50600
H  -5.10400 40.42500 40.74100
H  -4.76400 40.83400 43.28500
H  -3.56600 40.10400 42.20400
H  -4.52800 39.15800 43.35600
H  -6.33000 39.18700 39.13600
H  -7.80900 38.37300 39.75400
H  -7.24200 36.77500 38.63600
H  -6.07700 36.29300 39.91200
H  -6.35600 44.67300 40.72800
H  -6.74100 45.95200 41.94800
H  -7.65600 45.78100 40.42700
H  -11.39500 46.61400 44.00100
H  -12.00500 46.12700 42.39300
H  -11.36300 47.71700 42.61200
H  -13.88300 42.90400 44.49700
H  -13.57000 40.91600 46.51600
H  -13.57100 44.29700 46.18200
H  -11.88900 43.76000 46.41100
H  -13.23000 43.02500 47.30300
H  -14.52200 39.88400 43.79100
H  -15.34400 41.30900 44.17800
H  -16.15000 38.83700 44.71500
H  -16.67500 40.28600 45.60700
H  -15.44800 39.13700 46.25900
H  -12.88000 35.85500 44.49100
H  -12.27500 35.86000 46.19800
H  -11.67400 34.68800 45.02300
H  -7.85100 35.64400 41.86300
H  -4.11000 33.73500 41.94200
H  -4.07800 34.10000 43.67400
H  -3.61900 35.33500 42.59300

