158

Mg 47.79400 15.28000 29.13800
C  45.96800 15.06300 32.01500
C  49.81100 17.71500 30.80700
C  49.45600 15.95900 26.21400
C  45.32500 13.42100 27.41900
N  47.74200 16.39000 31.07200
C  47.08600 15.81000 32.22900
C  47.70700 16.36200 33.53800
C  48.48200 17.53100 33.04800
C  48.72400 17.17200 31.51700
C  47.78700 19.01400 33.19400
C  48.42100 15.31900 34.38200
C  48.17900 15.36100 35.89900
H  47.86600 16.58400 36.67400
N  49.44700 16.53800 28.61200
C  50.15500 17.40800 29.46200
C  51.25200 18.02200 28.69700
C  51.13000 17.59100 27.33000
C  49.98400 16.63000 27.32300
C  52.14000 19.01300 29.31000
C  51.97900 17.96100 26.10800
O  51.84500 17.48000 25.03100
C  53.02300 19.00800 26.29700
N  47.43100 14.76700 27.08200
C  48.30700 15.14300 26.09700
C  47.82000 14.57700 24.77700
C  46.57500 13.73200 25.16300
C  46.40500 13.92400 26.64400
C  47.48500 15.71300 23.76000
C  46.68400 12.19400 24.86600
C  46.16600 11.86800 23.41700
N  45.94900 14.46300 29.51100
C  45.07300 13.72800 28.75300
C  43.93100 13.29200 29.57000
C  44.25600 13.81000 30.83800
C  45.47800 14.45300 30.76700
C  42.78600 12.41600 29.24400
C  43.79800 13.80000 32.23500
O  42.79200 13.26900 32.75100
C  44.88300 14.55500 32.97500
C  44.31700 15.67000 33.80400
O  44.04700 16.77300 33.44700
O  44.22600 15.28300 35.11100
C  43.86700 16.33900 36.05700
H  50.51400 18.35500 31.34400
H  50.04800 16.13400 25.31300
H  44.63700 12.71900 26.94300
H  46.87300 16.70300 34.15100
H  49.42400 17.61400 33.59100
H  48.24300 19.35800 34.12200
H  46.71800 18.96100 33.40000
H  48.00800 19.73300 32.40600
H  49.48900 15.52400 34.29900
H  48.35300 14.32000 33.95200
H  49.05000 14.90300 36.36700
H  47.28700 14.73300 35.90100
H  53.19400 18.76500 29.18400
H  51.92600 19.17900 30.36500
H  51.91900 20.00400 28.91200
H  52.62200 19.93400 26.71000
H  53.36100 19.16400 25.27300
H  53.83900 18.66200 26.93200
H  48.52900 13.91900 24.27500
H  45.74900 14.25000 24.67600
H  47.55600 16.66500 24.28600
H  46.47600 15.59100 23.36600
H  48.13500 15.74400 22.88600
H  46.18500 11.71500 25.70900
H  47.74300 11.96100 24.97800
H  45.37400 11.12000 23.46800
H  46.95500 11.39600 22.83100
H  45.81600 12.77700 22.92800
H  41.87000 12.71600 29.75400
H  43.06500 11.38100 29.44000
H  42.57900 12.43900 28.17400
H  45.26700 13.82400 33.68600
H  42.78400 16.46000 36.04100
H  44.22000 17.35300 35.86800
H  44.12400 16.12500 37.09400
Mg 48.46500 46.29400 43.52900
C  45.33900 46.69300 42.37800
C  48.48600 43.20600 42.14900
C  51.82300 46.24300 44.22100
C  48.54700 49.62800 44.68700
N  47.09100 45.28200 42.23000
C  45.81400 45.49700 41.89000
C  45.14600 44.45500 40.97600
C  46.09900 43.28500 41.20600
C  47.30300 43.94200 41.96800
C  45.43600 42.04400 41.94000
C  44.99100 44.77200 39.41500
C  43.62200 44.47900 38.85200
H  43.65100 43.40700 37.82800
N  49.94600 44.89700 43.24900
C  49.76800 43.69600 42.63400
C  51.06900 43.03200 42.55000
C  52.03800 43.83100 43.18900
C  51.34600 45.03100 43.54500
C  51.22800 41.72200 41.81600
C  53.52700 43.46100 43.36300
O  54.08500 42.53400 42.83800
C  54.29400 44.23800 44.29500
N  49.97900 47.77300 44.39400
C  51.22100 47.42600 44.64300
C  52.07500 48.49400 45.24600
C  51.06600 49.72300 45.25300
C  49.79400 49.07400 44.73200
C  52.69800 48.14800 46.58300
C  51.43500 51.00300 44.35800
C  51.10500 52.35100 45.06900
N  47.26700 47.83600 43.65300
C  47.37400 49.04700 44.18100
C  46.08100 49.74700 44.15300
C  45.27000 48.86200 43.45200
C  46.00300 47.71800 43.20300
C  45.80600 51.14700 44.72100
C  43.91800 48.66100 43.00100
O  42.93400 49.39300 43.03000
C  43.95200 47.29500 42.26700
C  42.88700 46.43700 42.79900
O  42.89200 45.69600 43.79600
O  41.84300 46.52100 41.91700
C  40.81900 45.50600 42.27300
H  48.47100 42.17700 41.78500
H  52.87100 46.31600 44.51900
H  48.49200 50.66900 45.01200
H  44.18800 44.27900 41.46600
H  46.37100 42.82700 40.25500
H  44.43700 41.85500 41.54800
H  45.44600 42.15600 43.02400
H  46.05200 41.15100 41.82600
H  45.67600 44.22200 38.76900
H  45.16300 45.83900 39.27400
H  43.06000 45.31600 38.43700
H  43.03000 44.11500 39.69200
H  52.16800 41.78000 41.26700
H  50.45300 41.45000 41.10000
H  51.17600 40.89500 42.52500
H  53.60500 44.53300 45.08600
H  54.68100 45.06800 43.70500
H  55.11400 43.62900 44.67600
H  52.81800 48.60300 44.45600
H  50.79800 49.95500 46.28400
H  53.66700 47.66600 46.45100
H  52.03800 47.45800 47.10900
H  53.01700 49.05400 47.09700
H  50.96900 50.79700 43.39400
H  52.51600 50.93300 44.23600
H  50.74600 52.99300 44.26500
H  52.07600 52.68000 45.44100
H  50.30800 52.28400 45.81000
H  46.30400 51.19900 45.68900
H  44.73600 51.33700 44.80500
H  46.21200 51.95500 44.11200
H  43.71400 47.43100 41.21200
H  40.16900 45.82500 43.08800
H  41.24200 44.52400 42.48400
H  40.23600 45.52200 41.35200

