158

Mg 17.09500 -0.41900 27.76700
C  15.94300 1.61400 30.41600
C  19.10300 -2.02400 29.92600
C  18.72400 -1.75900 25.19200
C  15.28100 1.61700 25.52400
N  17.55300 -0.12500 29.91300
C  16.88400 0.68800 30.87100
C  17.51900 0.49400 32.22900
C  18.74600 -0.48300 31.91700
C  18.42700 -0.93700 30.45600
C  20.19900 0.06100 32.13300
C  16.33600 -0.16900 33.15600
C  16.36500 0.33500 34.63500
H  17.64900 0.91000 35.25600
N  18.58600 -1.87700 27.61100
C  19.19700 -2.45800 28.61100
C  19.98800 -3.50300 28.09500
C  20.01800 -3.33600 26.68900
C  19.09500 -2.29100 26.40600
C  20.83900 -4.38200 28.99800
C  20.78800 -4.13300 25.57300
O  20.45300 -4.00300 24.38300
C  21.76500 -5.18900 25.90600
N  16.95000 -0.15900 25.67600
C  17.84200 -0.71800 24.80800
C  17.68000 -0.30600 23.43300
C  16.43400 0.57500 23.49300
C  16.18800 0.73200 25.00200
C  18.93500 0.32300 22.74900
C  15.24500 -0.15200 22.77100
C  15.11500 0.20500 21.28300
N  15.66800 1.06900 27.91200
C  15.04200 1.80500 26.91900
C  14.24000 2.91800 27.47500
C  14.48000 2.75300 28.84100
C  15.45000 1.76400 29.04900
C  13.27500 3.85400 26.80000
C  14.23900 3.33500 30.18100
O  13.37800 4.18000 30.53500
C  15.14000 2.63200 31.25800
C  15.89700 3.62900 32.06000
O  16.90700 4.29300 31.80300
O  15.19300 3.72800 33.25800
C  15.70600 4.70900 34.17800
H  19.75100 -2.53600 30.63900
H  19.35900 -1.97500 24.33000
H  14.77100 2.31000 24.85200
H  17.83600 1.46700 32.60300
H  18.51800 -1.38800 32.48000
H  20.63700 -0.60700 32.87600
H  20.17400 0.99200 32.70000
H  20.74800 0.27800 31.21700
H  16.59000 -1.22300 33.26900
H  15.34300 0.06800 32.77300
H  16.01100 -0.45800 35.29300
H  15.58800 1.09900 34.63100
H  20.14700 -4.76200 29.74900
H  21.51500 -3.75400 29.57800
H  21.35700 -5.26700 28.62700
H  22.43400 -5.36800 25.06400
H  21.11400 -6.01900 26.18000
H  22.28500 -4.74800 26.75700
H  17.48800 -1.26200 22.94600
H  16.56400 1.60800 23.17000
H  19.73800 0.46800 23.47100
H  18.80500 1.30900 22.30100
H  19.18300 -0.37900 21.95300
H  14.32400 0.21400 23.22600
H  15.22300 -1.21000 23.03000
H  15.98700 0.74300 20.91100
H  14.21900 0.76000 21.00700
H  15.13100 -0.65900 20.61800
H  13.51400 3.88600 25.73700
H  13.36900 4.85600 27.21900
H  12.30400 3.41500 27.03300
H  14.40600 2.14000 31.89600
H  15.20700 5.66700 34.02700
H  16.79200 4.78700 34.21900
H  15.43900 4.40200 35.18900
Mg 49.25400 34.74000 26.54000
C  46.91000 33.84700 29.15800
C  50.10200 37.57900 28.50100
C  50.63500 36.02400 23.90100
C  47.68700 32.19000 24.65600
N  48.61900 35.60000 28.55600
C  47.80000 34.92700 29.43700
C  47.74300 35.67800 30.76700
C  48.39400 37.07700 30.40600
C  49.13400 36.71300 29.10600
C  47.43100 38.24100 30.22800
C  48.34600 35.07600 32.03900
C  47.59000 35.16900 33.37400
H  47.95300 36.24800 34.37400
N  50.35900 36.52200 26.29700
C  50.69300 37.51000 27.17400
C  51.49900 38.54000 26.53400
C  51.57800 38.16900 25.13800
C  50.83300 36.86100 25.06800
C  52.01800 39.73100 27.23000
C  52.33700 38.92500 23.96400
O  52.37300 38.43400 22.83500
C  52.87700 40.29100 24.04900
N  49.11300 34.21800 24.55200
C  49.93100 34.84600 23.72700
C  50.06900 33.99500 22.43400
C  49.22200 32.73900 22.73600
C  48.53900 33.09100 24.01800
C  49.61500 34.76200 21.10500
C  49.98600 31.38600 22.85300
C  50.03400 30.59800 21.51000
N  47.80900 33.09300 26.93400
C  47.24900 32.22200 25.95800
C  46.27100 31.34800 26.57200
C  46.10700 31.97900 27.85700
C  47.06500 33.03300 28.01200
C  45.60000 30.12100 25.96300
C  45.33900 31.94200 29.10600
O  44.47700 31.18000 29.48200
C  45.77800 33.17200 30.02400
C  46.11800 32.62100 31.32400
O  46.91300 31.70800 31.54300
O  45.32300 33.11500 32.24800
C  45.09800 32.40400 33.51800
H  50.38000 38.48500 29.04200
H  51.33200 36.29800 23.10500
H  47.39500 31.32300 24.05900
H  46.70900 35.91000 31.02000
H  49.10900 37.39100 31.16700
H  47.30400 38.48400 29.17300
H  47.84900 39.12600 30.70700
H  46.52300 37.98800 30.77500
H  49.33900 35.50100 32.18800
H  48.49600 33.99800 31.97300
H  47.70400 34.22400 33.90600
H  46.51800 35.31400 33.24800
H  51.95800 40.64900 26.64500
H  53.00400 39.57700 27.66900
H  51.42700 39.95000 28.11900
H  53.68600 40.39800 24.77200
H  52.06600 40.99700 24.22900
H  53.22400 40.58800 23.06000
H  51.12300 33.73000 22.34600
H  48.45000 32.55000 21.98900
H  49.07100 34.08200 20.45000
H  50.55200 35.07900 20.64600
H  49.12500 35.71800 21.29100
H  49.48300 30.73400 23.56700
H  51.01500 31.63400 23.11300
H  49.46300 29.68200 21.65900
H  51.06400 30.40700 21.21200
H  49.46600 31.14700 20.75900
H  46.21300 29.22100 26.00200
H  45.35300 30.07500 24.90200
H  44.72800 29.79400 26.53100
H  44.96100 33.88100 30.15900
H  44.10300 31.97800 33.64900
H  45.18900 33.19900 34.25900
H  45.84300 31.68100 33.85400

