158

Mg 8.08500 3.00700 27.77400
C  9.51900 1.66300 30.61700
C  6.63300 5.48600 29.78200
C  6.70900 4.21300 24.95900
C  9.46100 0.26000 25.93100
N  8.00500 3.49500 29.88400
C  8.72900 2.78600 30.87600
C  8.46500 3.41500 32.24300
C  7.52900 4.63600 32.00500
C  7.39400 4.57300 30.42200
C  6.22300 4.82700 32.85900
C  9.74300 3.84700 33.07300
C  9.56800 4.72000 34.31900
H  10.49700 4.41700 35.47700
N  6.90300 4.68300 27.44400
C  6.42400 5.55900 28.35200
C  5.55900 6.50200 27.62600
C  5.46100 6.09900 26.28100
C  6.40400 4.97600 26.13200
C  4.90400 7.69500 28.27900
C  4.64000 6.75900 25.14100
O  4.77400 6.39100 23.98500
C  3.61700 7.82500 25.38000
N  7.94600 2.31900 25.80700
C  7.37800 3.03300 24.77700
C  7.56200 2.35900 23.42200
C  8.35500 1.09000 23.73500
C  8.65200 1.22700 25.20600
C  6.28800 2.04300 22.65200
C  9.67900 1.00600 22.96600
C  9.39500 0.89900 21.44300
N  9.20900 1.32400 28.12900
C  9.70700 0.34900 27.30800
C  10.71600 -0.40500 28.03300
C  10.61700 0.03100 29.35900
C  9.67700 1.08400 29.37600
C  11.52200 -1.51600 27.42800
C  11.10100 -0.22500 30.68600
O  11.92600 -0.96400 31.19900
C  10.41200 0.88300 31.53900
C  9.72700 0.10200 32.56200
O  8.97700 -0.82500 32.29800
O  9.99300 0.61100 33.82100
C  9.39000 -0.09500 34.94900
H  6.25600 6.34200 30.34500
H  6.39300 4.56400 23.97400
H  9.91900 -0.59000 25.42100
H  8.00000 2.63300 32.84300
H  8.27400 5.42500 32.09700
H  6.45000 5.51900 33.66900
H  5.92000 3.89700 33.33900
H  5.39800 5.10000 32.20100
H  10.35200 4.48500 32.43200
H  10.34900 2.98300 33.34800
H  8.55600 4.62700 34.71300
H  9.64600 5.79300 34.14400
H  4.93600 8.62900 27.71700
H  5.36200 7.89200 29.24900
H  3.86500 7.37800 28.37000
H  4.25700 8.70500 25.44800
H  3.05300 7.72300 26.30700
H  2.87000 7.80800 24.58600
H  8.26500 2.97100 22.85600
H  7.73600 0.19500 23.68100
H  6.17200 0.99300 22.38200
H  6.37900 2.72300 21.80500
H  5.46200 2.24600 23.33400
H  10.12000 0.07100 23.31000
H  10.35100 1.82200 23.23200
H  9.74100 1.76500 20.87900
H  8.34200 0.69100 21.25300
H  9.98800 0.13900 20.93400
H  12.53500 -1.51900 27.83100
H  11.52500 -1.58900 26.34000
H  11.11200 -2.47500 27.74500
H  11.18900 1.52000 31.96100
H  8.95000 0.70800 35.54000
H  10.09400 -0.68000 35.54200
H  8.44900 -0.62400 34.79300
Mg 40.62800 8.29000 29.76400
C  42.31700 9.61200 32.68900
C  38.23300 7.03500 31.83700
C  39.41700 7.06700 27.09200
C  43.69400 9.27700 27.96100
N  40.31700 8.40700 32.03200
C  41.11200 8.97400 33.02100
C  40.48700 8.93600 34.42200
C  39.18600 8.04700 34.11200
C  39.22600 7.78900 32.55600
C  39.10400 6.83100 35.06100
C  40.15500 10.32900 34.94600
C  40.05700 10.35700 36.45800
H  40.91900 11.26800 37.30100
N  39.00500 7.21000 29.50700
C  38.11000 6.78800 30.44800
C  37.05700 6.09900 29.77700
C  37.27100 6.24100 28.37700
C  38.63800 6.84300 28.26100
C  35.88700 5.54500 30.53300
C  36.41600 5.81300 27.20700
O  36.63600 6.13400 26.02300
C  35.26000 5.04200 27.50600
N  41.56800 8.03700 27.80100
C  40.74300 7.54700 26.88400
C  41.34700 7.70300 25.44300
C  42.75100 8.45000 25.66800
C  42.68000 8.63500 27.23700
C  41.44300 6.39000 24.74400
C  42.88900 9.74700 24.95200
C  41.77300 10.73700 25.11500
N  42.56400 9.21400 30.17400
C  43.65500 9.55300 29.31500
C  44.70400 10.09600 30.08200
C  44.27100 10.08800 31.41600
C  42.91600 9.65800 31.39600
C  45.98900 10.56200 29.45900
C  44.65000 10.33900 32.78600
O  45.72400 10.77600 33.27500
C  43.41400 10.01100 33.66800
C  43.77400 8.90400 34.67500
O  44.32200 7.84300 34.43900
O  43.32800 9.25300 35.96500
C  43.55300 8.32000 37.06700
H  37.49900 6.60400 32.52200
H  38.98300 6.72900 26.14800
H  44.57600 9.65300 27.43700
H  41.26300 8.40300 34.97100
H  38.27800 8.64700 34.15700
H  38.68100 5.99700 34.50000
H  38.47900 7.04300 35.92900
H  40.11100 6.50900 35.32700
H  39.23800 10.75500 34.53700
H  40.92700 10.97900 34.53400
H  40.15800 9.33700 36.82800
H  39.06200 10.66400 36.77800
H  35.61900 4.54400 30.19400
H  34.95800 6.09900 30.39800
H  36.15600 5.34700 31.57000
H  35.53300 4.18600 28.12400
H  34.89700 4.58300 26.58700
H  34.45200 5.59200 27.98900
H  40.60000 8.35800 24.99500
H  43.57300 7.81200 25.34300
H  42.33400 6.15600 24.16200
H  40.69500 6.52600 23.96300
H  41.34300 5.53600 25.41400
H  42.85700 9.41900 23.91300
H  43.85900 10.16600 25.21900
H  41.20000 10.69800 24.18900
H  42.18900 11.70800 25.38600
H  41.03000 10.54000 25.88800
H  45.98400 11.24500 28.61000
H  46.70300 9.74100 29.38400
H  46.35700 11.14300 30.30400
H  43.17700 10.95300 34.16100
H  43.08300 8.90400 37.85800
H  44.62900 8.22800 37.22100
H  43.08500 7.35400 36.87900

