158

Mg 45.25700 3.09100 47.94100
C  42.99800 5.67900 47.28800
C  42.71500 0.78300 47.48900
C  47.58000 0.54400 47.84700
C  47.87000 5.41200 47.69500
N  43.04200 3.24600 47.57800
C  42.40200 4.40800 47.25100
C  40.88700 4.13700 46.86900
C  40.83600 2.58900 46.93100
C  42.28500 2.17900 47.30600
C  39.69600 2.10600 47.92000
C  40.51600 4.63600 45.42000
C  39.31700 5.47900 45.31700
H  38.40100 5.42600 44.09600
N  45.09900 0.87600 47.86900
C  44.00400 0.16400 47.71600
C  44.33100 -1.29700 47.80800
C  45.72000 -1.36500 47.89700
C  46.23100 0.06800 47.91400
C  43.25500 -2.34600 47.66800
C  46.58700 -2.68600 48.04300
O  46.01700 -3.81100 47.92800
C  48.02700 -2.59700 48.15100
N  47.44900 3.01500 47.57600
C  48.12900 1.83900 47.75700
C  49.61200 2.13100 47.99300
C  49.73200 3.65800 47.83600
C  48.30800 4.08400 47.66400
C  50.07300 1.58700 49.36700
C  50.73800 4.15000 46.74700
C  51.94200 4.93500 47.19200
N  45.43300 5.11100 47.64400
C  46.54400 5.89400 47.63400
C  46.14900 7.31300 47.27500
C  44.75100 7.22100 47.27600
C  44.36800 5.89000 47.44600
C  47.10200 8.51800 47.14500
C  43.52500 8.01900 47.20200
O  43.35700 9.21900 47.19400
C  42.27100 7.00600 47.13600
C  41.27400 7.32100 48.15600
O  41.30500 7.08800 49.33700
O  40.23500 7.97100 47.54800
C  39.14200 8.37600 48.53100
H  41.96800 0.01000 47.29700
H  48.34800 -0.21500 48.01000
H  48.66600 6.15600 47.61900
H  40.26100 4.66700 47.58600
H  40.62400 2.04500 46.01000
H  40.11300 1.57000 48.77300
H  39.00500 1.49900 47.33500
H  39.27400 3.02200 48.33500
H  40.37200 3.75500 44.79400
H  41.37500 5.18100 45.02800
H  39.66400 6.50200 45.17000
H  38.93500 5.58200 46.33300
H  43.60400 -3.31700 48.01800
H  42.91800 -2.21600 46.64000
H  42.53600 -2.09000 48.44700
H  48.48100 -2.24600 47.22400
H  48.51800 -3.53800 48.40100
H  48.25800 -2.04800 49.06400
H  50.07900 1.53200 47.21100
H  50.15000 3.98300 48.79000
H  49.15700 1.32100 49.89300
H  50.67100 2.25100 49.99100
H  50.71400 0.73500 49.13600
H  50.26100 4.68000 45.92100
H  51.19900 3.23100 46.38600
H  51.70200 5.97900 46.98800
H  52.70400 4.64800 46.46800
H  52.27500 4.75300 48.21400
H  47.21800 8.62400 46.06600
H  48.01100 8.32700 47.71500
H  46.58200 9.36200 47.59800
H  41.86100 7.06200 46.12700
H  38.45800 9.06200 48.03100
H  39.43400 8.93100 49.42200
H  38.41700 7.59100 48.74400
Mg 52.69900 23.93000 44.79900
C  49.81800 25.69600 44.07800
C  51.35300 21.18800 43.36700
C  55.80000 22.69700 44.70400
C  54.16800 27.02700 46.04600
N  50.74400 23.48900 43.94400
C  49.73500 24.37900 43.67800
C  48.67600 23.65800 42.74700
C  49.08600 22.14500 42.99600
C  50.45100 22.25700 43.51800
C  48.19900 21.36000 43.99800
C  48.97500 24.02100 41.30300
C  47.90300 24.57200 40.39700
H  47.98800 24.04100 38.96900
N  53.42900 22.18600 44.19700
C  52.76500 21.15200 43.68100
C  53.61900 20.02900 43.48200
C  54.86300 20.35700 44.03400
C  54.76900 21.83200 44.37400
C  53.18700 18.71500 42.98100
C  56.03600 19.46700 44.02900
O  56.12500 18.33000 43.41700
C  57.22100 19.83100 44.92600
N  54.75200 24.89800 45.12800
C  55.79900 24.05400 45.11000
C  57.08400 24.76600 45.68800
C  56.50800 26.20900 46.07900
C  55.07800 26.10800 45.65100
C  57.81800 23.93500 46.80900
C  57.29200 27.38500 45.44900
C  57.67900 28.59000 46.34300
N  52.10300 25.98500 45.09800
C  52.81700 27.11000 45.63500
C  51.85700 28.23000 45.73800
C  50.64900 27.67500 45.17100
C  50.88400 26.39100 44.74200
C  52.03600 29.54200 46.40100
C  49.24200 28.03100 44.87600
O  48.50500 29.00500 45.19900
C  48.65600 26.77800 44.16800
C  48.27400 27.37500 42.85600
O  48.99400 27.42200 41.86100
O  46.96700 27.53600 42.75000
C  46.43300 28.13100 41.54800
H  51.02600 20.31900 42.79300
H  56.82700 22.33400 44.63300
H  54.42900 27.91000 46.63300
H  47.65400 23.87400 43.05800
H  49.31000 21.51800 42.13300
H  47.24400 21.85400 44.17200
H  48.68900 21.27700 44.96900
H  48.08800 20.34900 43.60600
H  49.36400 23.13800 40.79600
H  49.78500 24.74200 41.19900
H  48.08600 25.64100 40.29300
H  46.93000 24.32400 40.82200
H  53.67600 18.68200 42.00700
H  52.13300 18.47200 42.85000
H  53.59000 17.93300 43.62400
H  57.96200 20.48700 44.46800
H  57.56800 18.84800 45.24300
H  56.89900 20.36300 45.82100
H  57.85800 24.88200 44.92900
H  56.41000 26.25900 47.16400
H  58.18100 24.60400 47.59000
H  58.71900 23.51000 46.36800
H  57.17100 23.25600 47.36400
H  56.54700 27.84300 44.79800
H  58.07700 27.00600 44.79500
H  58.74400 28.72300 46.53200
H  57.24500 28.56500 47.34300
H  57.24800 29.43500 45.80700
H  52.56600 29.40400 47.34300
H  51.04200 29.97400 46.52300
H  52.56800 30.29200 45.81500
H  47.82300 26.35500 44.73100
H  45.46500 28.55600 41.81300
H  46.34900 27.38200 40.76100
H  47.07100 28.95300 41.22400

