158

Mg 48.56000 35.36700 26.99400
C  46.62200 34.02700 29.41800
C  49.15000 38.21700 29.24200
C  50.05500 37.21800 24.43400
C  47.70600 32.86600 24.75700
N  47.85900 36.06700 29.04400
C  47.14800 35.20400 29.85800
C  47.13200 35.70100 31.30500
C  47.69700 37.20500 31.22500
C  48.31000 37.14800 29.80600
C  46.70900 38.37500 31.33400
C  48.16000 34.81600 32.12700
C  47.66100 34.33000 33.52300
H  46.48200 35.13700 34.15400
N  49.57000 37.35200 26.90000
C  49.78000 38.25300 27.91800
C  50.45200 39.39900 27.38000
C  50.77500 39.20700 25.98100
C  50.17000 37.89300 25.73400
C  50.74900 40.58500 28.28400
C  51.55500 40.00600 25.01400
O  51.91200 39.56900 23.91900
C  52.01400 41.36900 25.31900
N  48.75200 35.14200 24.89300
C  49.45000 35.97200 24.08300
C  49.59900 35.36600 22.69000
C  48.86000 33.97400 22.84800
C  48.39900 33.98200 24.24300
C  49.28300 36.24100 21.45100
C  49.73700 32.69400 22.51300
C  49.03000 31.58600 21.85600
N  47.48400 33.75100 27.01100
C  47.28300 32.75500 26.09000
C  46.43100 31.71000 26.72500
C  46.10400 32.19800 27.97800
C  46.79900 33.38800 28.10700
C  46.05700 30.41300 26.07000
C  45.34700 32.03900 29.20300
O  44.60800 31.12100 29.46500
C  45.65300 33.13100 30.24500
C  46.21300 32.30500 31.31400
O  47.23400 31.65300 31.28300
O  45.32600 32.23500 32.30700
C  45.55600 31.12700 33.26100
H  49.32100 38.99300 29.99100
H  50.65200 37.66900 23.63900
H  47.35200 32.02800 24.15400
H  46.12400 35.67200 31.71900
H  48.46000 37.45900 31.96100
H  45.82800 38.08800 31.90600
H  46.35900 38.74400 30.36900
H  47.14500 39.12800 31.99100
H  49.07600 35.40000 32.21400
H  48.43600 33.98800 31.47300
H  48.53800 34.36100 34.17000
H  47.43400 33.26700 33.44600
H  49.86100 41.21700 28.28700
H  51.54100 41.21400 27.87800
H  50.94200 40.34100 29.32900
H  52.72400 41.38100 26.14500
H  51.12000 41.97400 25.47000
H  52.49800 41.70400 24.40100
H  50.65400 35.09600 22.73800
H  47.95600 34.05300 22.24500
H  48.62000 35.76700 20.72800
H  50.25400 36.57700 21.08600
H  48.78600 37.15800 21.76600
H  50.10200 32.31800 23.46900
H  50.62500 32.94500 21.93200
H  48.04100 31.75300 21.42900
H  49.02300 30.72200 22.52000
H  49.60400 31.32500 20.96700
H  44.97200 30.36400 25.98300
H  46.44900 29.56800 26.63700
H  46.52100 30.39700 25.08400
H  44.67000 33.57500 30.40400
H  44.70100 31.21400 33.93100
H  46.45600 31.28700 33.85500
H  45.65900 30.13500 32.82300
Mg -1.50900 35.25700 26.42200
C  -2.86300 33.32400 28.92300
C  -0.75400 37.70200 28.73700
C  -0.09200 36.97600 23.91500
C  -2.94500 33.05100 24.02000
N  -2.01200 35.53400 28.62200
C  -2.42300 34.53600 29.45900
C  -2.24500 34.99800 30.91100
C  -1.64800 36.52900 30.76100
C  -1.48500 36.63500 29.27000
C  -2.63500 37.58400 31.33500
C  -1.18200 34.10300 31.68700
C  -1.50300 33.26900 32.87500
H  -0.62400 33.36000 34.13000
N  -0.53800 37.02200 26.30800
C  -0.34900 37.88900 27.38000
C  0.51600 38.94200 26.92000
C  0.68400 38.79500 25.49500
C  0.03300 37.51400 25.19000
C  1.15600 39.95000 27.83300
C  1.38900 39.73300 24.56000
O  1.64100 39.45700 23.37400
C  1.88000 41.03600 25.05600
N  -1.49300 35.00800 24.29200
C  -0.71500 35.77000 23.47900
C  -0.67400 35.35100 21.95700
C  -1.48800 33.99200 22.12100
C  -2.08100 34.06600 23.57700
C  -1.28400 36.29400 20.93500
C  -0.67800 32.70200 21.76000
C  0.48200 32.39900 22.78200
N  -2.89500 33.68800 26.45000
C  -3.36300 32.94000 25.40100
C  -4.15400 31.94200 25.97300
C  -3.91000 31.95700 27.35600
C  -3.24800 33.16500 27.57900
C  -4.95000 30.91200 25.15700
C  -4.18900 31.22700 28.56100
O  -4.89900 30.23400 28.72100
C  -3.42500 32.11800 29.69200
C  -4.41000 32.35600 30.82800
O  -5.18900 33.24400 30.91400
O  -4.17300 31.39000 31.68600
C  -5.18700 31.34600 32.78300
H  -0.35400 38.37400 29.49900
H  0.22800 37.59500 23.07300
H  -3.36200 32.31100 23.33400
H  -3.16800 34.93200 31.48800
H  -0.66700 36.60900 31.22900
H  -3.37700 36.98400 31.86100
H  -3.03100 38.13400 30.48100
H  -2.19600 38.27400 32.05600
H  -0.27300 34.68500 31.83900
H  -0.99700 33.25900 31.02200
H  -1.47000 32.24600 32.50000
H  -2.50900 33.65900 33.02500
H  0.83500 39.89000 28.87300
H  1.04100 40.94300 27.39700
H  2.23000 39.76600 27.85400
H  2.61200 40.83700 25.83900
H  0.98400 41.53400 25.42700
H  2.23200 41.59600 24.18900
H  0.35100 35.08500 21.69600
H  -2.39700 33.99700 21.51900
H  -2.20900 35.87100 20.54300
H  -0.66900 36.36700 20.03800
H  -1.49500 37.27600 21.35900
H  -0.25700 32.91300 20.77700
H  -1.21700 31.75800 21.68200
H  0.20800 31.41700 23.16800
H  0.41600 33.08500 23.62700
H  1.44800 32.46800 22.28200
H  -5.96100 31.31400 25.08900
H  -5.05000 29.97000 25.69600
H  -4.45400 30.78700 24.19500
H  -2.60200 31.56400 30.14400
H  -5.19100 30.36200 33.25200
H  -6.20200 31.65800 32.53500
H  -4.73200 32.08300 33.44300

