158

Mg 41.44800 41.66000 26.63900
C  40.70000 43.93700 29.27500
C  42.88400 39.54800 29.05600
C  42.30800 39.69200 24.22300
C  40.44400 44.19400 24.33400
N  41.57200 41.72600 28.85300
C  41.12500 42.64100 29.76100
C  41.21900 42.14700 31.18300
C  41.92700 40.75200 31.04300
C  42.21500 40.67500 29.49400
C  43.21300 40.57100 31.97700
C  39.90300 42.17200 32.01300
C  39.89100 43.36700 33.10800
H  39.47300 43.03400 34.54500
N  42.41600 39.86200 26.63900
C  42.96500 39.11700 27.69100
C  43.43000 37.82200 27.19400
C  43.13400 37.79300 25.81100
C  42.62700 39.12700 25.48000
C  44.00300 36.82900 28.15900
C  43.30900 36.73600 24.75600
O  43.05400 36.88600 23.59200
C  43.85800 35.47600 25.25800
N  41.49900 42.00400 24.51600
C  41.79600 40.95500 23.81900
C  41.53300 41.18200 22.32200
C  40.60800 42.39600 22.38000
C  40.90300 42.98300 23.79800
C  42.82300 41.40800 21.49800
C  39.05900 42.13000 22.13600
C  38.45800 40.85100 22.72700
N  40.72800 43.69500 26.70100
C  40.46100 44.52700 25.69400
C  40.04900 45.81800 26.28900
C  40.18200 45.68700 27.65800
C  40.54400 44.28000 27.89400
C  39.43500 46.91200 25.53900
C  39.95400 46.28200 28.95700
O  39.57800 47.39100 29.15000
C  40.30300 45.23200 30.03900
C  41.46100 45.78600 30.71600
O  42.59700 45.60800 30.40200
O  41.10100 46.34200 31.91000
C  42.12700 46.59700 32.92900
H  43.19700 38.71500 29.69000
H  42.49500 39.18000 23.27700
H  40.04900 44.91300 23.61400
H  41.93900 42.85800 31.58700
H  41.33900 39.87700 31.32100
H  43.39800 41.41100 32.64600
H  44.03800 40.57500 31.26500
H  43.16200 39.65400 32.56400
H  39.81500 41.18200 32.46000
H  39.07500 42.43000 31.35300
H  39.11600 44.07300 32.81200
H  40.83500 43.91200 33.10800
H  44.55600 36.03500 27.65700
H  43.24700 36.43800 28.83800
H  44.74500 37.33600 28.77600
H  43.90400 34.79800 24.40600
H  43.20700 35.05200 26.02300
H  44.85800 35.67200 25.64300
H  41.12700 40.27200 21.88000
H  40.86400 43.23100 21.72800
H  42.88000 40.76100 20.62200
H  43.76600 41.28900 22.03200
H  42.91600 42.44200 21.16600
H  38.83900 42.01900 21.07500
H  38.59500 42.98600 22.62600
H  38.66300 40.02300 22.04800
H  37.40300 41.12300 22.75900
H  38.85400 40.72900 23.73500
H  38.70600 47.39700 26.18800
H  38.96000 46.57900 24.61600
H  40.23700 47.59600 25.26100
H  39.58100 44.89700 30.78300
H  42.24800 47.67900 32.98300
H  43.11700 46.17900 32.74500
H  41.71100 46.28000 33.88600
Mg 35.22500 49.17000 25.19800
C  35.31400 47.79500 28.40900
C  33.89800 52.04100 26.63300
C  34.51500 50.21600 22.03600
C  36.29300 46.11500 23.88900
N  34.61500 49.73400 27.27600
C  34.80800 49.09100 28.45500
C  34.29800 49.89700 29.69000
C  33.89600 51.31800 29.09300
C  34.17500 51.04400 27.58300
C  32.51200 51.89100 29.50300
C  35.28300 49.94600 30.85500
C  34.78500 49.67900 32.31000
H  34.88400 50.74000 33.42600
N  34.33600 50.98200 24.45600
C  33.89600 52.05300 25.17200
C  33.41700 53.03600 24.27900
C  33.67400 52.55100 22.91500
C  34.18300 51.18500 23.09000
C  32.90400 54.37100 24.83900
C  33.55700 53.27500 21.61100
O  33.89800 52.78700 20.50500
C  33.01100 54.57000 21.56700
N  35.58400 48.39700 23.28700
C  35.15100 48.99800 22.20100
C  35.60100 48.19100 20.97100
C  36.28300 46.93600 21.51100
C  36.10300 47.15800 22.98100
C  34.43000 47.83900 20.00500
C  37.75000 46.82800 21.14200
C  38.68500 47.93400 21.72500
N  35.81300 47.31000 25.90200
C  36.17100 46.18100 25.30900
C  36.38000 45.11500 26.29000
C  36.20500 45.74800 27.46600
C  35.69600 47.07900 27.24500
C  36.74500 43.62700 26.01400
C  36.31300 45.57100 28.93400
O  36.76100 44.68000 29.65500
C  35.58100 46.83700 29.55200
C  34.34600 46.39500 30.23900
O  33.21700 46.32600 29.78600
O  34.64700 45.95300 31.48900
C  33.57200 45.24600 32.28600
H  33.51000 52.97100 27.05300
H  34.39000 50.45800 20.97800
H  36.61200 45.14800 23.49300
H  33.38200 49.39300 29.99600
H  34.72700 51.96700 29.36800
H  31.97100 51.03100 29.89800
H  32.06300 52.36700 28.63200
H  32.63500 52.62800 30.29700
H  35.80100 50.89200 31.00800
H  36.05600 49.24000 30.54900
H  35.61500 49.05100 32.63400
H  33.83300 49.16700 32.44200
H  32.79300 54.34800 25.92400
H  31.90100 54.51600 24.43800
H  33.50500 55.18000 24.42300
H  33.73800 55.18800 22.09400
H  32.08800 54.52000 22.14400
H  32.73400 54.88500 20.56100
H  36.34400 48.67600 20.33800
H  35.59600 46.11100 21.32200
H  33.47300 48.32500 20.19200
H  34.29600 46.76000 19.91700
H  34.73100 48.30700 19.06800
H  37.98600 46.80600 20.07800
H  38.08000 45.84200 21.47000
H  39.38500 47.62500 22.50100
H  38.26600 48.88300 22.06200
H  39.34800 48.22200 20.90900
H  37.79200 43.46200 26.26700
H  36.58900 43.32600 24.97800
H  36.17700 42.88000 26.56900
H  36.27300 47.19300 30.31600
H  33.28900 44.32500 31.77700
H  32.63100 45.79500 32.25400
H  33.85100 45.17100 33.33700

