158

Mg 48.68200 35.47600 27.81800
C  46.72800 33.59900 30.12900
C  48.82500 37.96500 30.15900
C  50.55000 37.21100 25.63500
C  48.06200 33.01500 25.40200
N  47.72200 35.72900 29.78100
C  47.21400 34.79000 30.62100
C  47.42200 35.19000 32.08100
C  47.72100 36.75200 32.04100
C  48.10900 36.86100 30.52300
C  46.55900 37.62200 32.49500
C  48.63600 34.48900 32.73400
C  48.56000 34.22200 34.23100
H  47.55100 35.08800 35.11400
N  49.70600 37.36500 27.90100
C  49.55000 38.25300 28.95700
C  50.46100 39.43300 28.56600
C  50.93100 39.20600 27.20800
C  50.38600 37.95300 26.83800
C  50.64700 40.60900 29.54900
C  51.80800 40.10000 26.35600
O  52.15500 39.76400 25.21200
C  52.41800 41.38300 26.98000
N  49.06200 35.28100 25.81000
C  49.95500 36.10300 25.14400
C  50.57900 35.44300 23.96400
C  49.69700 34.14900 23.81100
C  48.92200 34.08700 25.10100
C  50.60100 36.43300 22.76600
C  50.62100 32.93100 23.61400
C  50.10500 31.80300 22.71800
N  47.54100 33.73900 27.65900
C  47.41500 32.79100 26.60400
C  46.62600 31.63300 27.07800
C  46.27600 31.96700 28.39800
C  46.88900 33.17300 28.73900
C  46.34700 30.43200 26.33200
C  45.49000 31.52200 29.53300
O  44.74500 30.54200 29.65200
C  45.72800 32.59200 30.65400
C  46.26200 31.99600 31.91900
O  47.32700 31.36800 31.99400
O  45.34400 32.34500 32.97800
C  45.61800 31.67800 34.23900
H  48.94000 38.69100 30.96600
H  51.28900 37.67400 24.97900
H  47.98900 32.26400 24.61200
H  46.48300 35.03800 32.61300
H  48.58600 36.95600 32.67100
H  46.82400 38.11900 33.42900
H  45.60600 37.09900 32.57500
H  46.32200 38.43800 31.81200
H  49.55800 34.88800 32.31200
H  48.57900 33.50600 32.26700
H  49.58000 34.47200 34.52200
H  48.46400 33.16000 34.45700
H  50.36800 41.56200 29.10100
H  51.65700 40.60300 29.96100
H  49.97000 40.60200 30.40300
H  53.05000 41.16700 27.84200
H  51.64300 42.11800 27.19500
H  53.08500 41.88800 26.28100
H  51.61600 35.13100 24.08800
H  48.96500 34.25500 23.01000
H  49.81000 37.17300 22.88200
H  50.39400 35.85800 21.86300
H  51.56200 36.93600 22.65500
H  50.69400 32.49800 24.61200
H  51.62000 33.26500 23.33400
H  50.66800 30.89500 22.93100
H  50.30300 32.25000 21.74300
H  49.05200 31.59100 22.90100
H  47.25300 29.83500 26.23100
H  45.95200 30.69800 25.35200
H  45.52500 29.96500 26.87600
H  44.74300 33.02800 30.82400
H  44.64900 31.22800 34.45800
H  45.91700 32.32600 35.06300
H  46.36400 30.89000 34.14200
Mg 1.12000 42.36700 25.50200
C  2.64400 42.50600 28.73900
C  -1.71100 41.09400 27.01300
C  -0.02200 41.78800 22.53900
C  4.16800 43.77200 24.22200
N  0.53700 41.83000 27.72000
C  1.28100 42.11400 28.81000
C  0.47400 41.96400 30.10600
C  -0.88700 41.40500 29.50000
C  -0.70200 41.46200 27.97300
C  -1.21700 39.89900 29.98000
C  0.40600 43.10700 31.14300
C  0.68400 42.63100 32.62100
H  -0.45100 43.00500 33.67300
N  -0.59200 41.56400 24.89900
C  -1.64800 41.19900 25.63100
C  -2.71700 40.61500 24.72100
C  -2.26700 40.86800 23.38800
C  -0.92000 41.44600 23.57600
C  -3.95100 39.83700 25.17100
C  -2.91300 40.62100 22.07400
O  -2.37300 40.90700 21.00900
C  -4.21200 39.90900 21.89700
N  1.98300 42.71900 23.62300
C  1.33400 42.23100 22.49800
C  2.13400 42.55400 21.31300
C  3.22600 43.56300 21.77600
C  3.13100 43.40600 23.32700
C  2.51600 41.45800 20.31800
C  3.03900 44.95000 21.20100
C  3.31900 45.10400 19.75300
N  2.94900 43.03400 26.26100
C  4.11500 43.52000 25.59200
C  5.17200 43.73800 26.55700
C  4.63000 43.36900 27.76100
C  3.30800 42.86700 27.56400
C  6.62100 44.15700 26.23600
C  4.98800 43.09100 29.15200
O  6.02200 43.25200 29.74100
C  3.67100 42.69600 29.87500
C  3.79400 41.56300 30.81300
O  3.88900 40.37100 30.43900
O  3.67200 42.04400 32.08300
C  3.69300 41.12000 33.17700
H  -2.74100 40.95200 27.34700
H  -0.39000 41.77400 21.51100
H  5.05700 44.21200 23.76700
H  0.97000 41.07900 30.50400
H  -1.65100 42.09200 29.86300
H  -0.59000 39.51100 30.78200
H  -1.32600 39.22200 29.13200
H  -2.23000 39.84500 30.37700
H  -0.63800 43.41400 31.20700
H  0.92400 44.01100 30.82300
H  1.51500 43.19200 33.04700
H  0.79100 41.55400 32.74400
H  -3.85100 38.90500 24.61400
H  -4.93300 40.23000 24.90600
H  -3.99500 39.69900 26.25200
H  -3.85600 38.89100 22.05500
H  -4.54100 40.08400 20.87300
H  -5.05300 40.24700 22.50200
H  1.49300 43.23800 20.75600
H  4.21200 43.21600 21.46600
H  2.62200 40.48200 20.79300
H  3.44700 41.64500 19.78300
H  1.72800 41.42300 19.56600
H  3.71000 45.61600 21.74400
H  2.05400 45.21500 21.58600
H  3.90800 46.01900 19.68500
H  2.37800 45.24400 19.22000
H  3.79100 44.22300 19.31800
H  6.98300 44.01000 25.21900
H  7.17500 43.48700 26.89500
H  6.81700 45.17900 26.56100
H  3.55200 43.52900 30.56700
H  2.81300 41.40700 33.75200
H  4.63500 41.12300 33.72500
H  3.50900 40.10200 32.83300

