158

Mg -2.20100 17.15500 25.88300
C  -2.39500 14.74900 28.39700
C  -2.74000 19.60100 28.21500
C  -2.52200 19.27500 23.39000
C  -1.93300 14.47900 23.60500
N  -2.57700 17.15600 28.09600
C  -2.45400 16.05400 28.92500
C  -2.67400 16.48500 30.39200
C  -2.79600 18.06200 30.29700
C  -2.67500 18.31500 28.78700
C  -4.17500 18.52700 30.89700
C  -1.63500 15.96000 31.36900
C  -1.48200 16.56000 32.72400
H  -1.91300 15.98100 34.12100
N  -2.63200 19.19600 25.81700
C  -2.72200 20.07900 26.84500
C  -2.70700 21.45500 26.31900
C  -2.61800 21.33900 24.90600
C  -2.65300 19.89600 24.66700
C  -2.88400 22.60400 27.23100
C  -2.61200 22.38400 23.86500
O  -2.56100 22.18700 22.65600
C  -2.44800 23.82600 24.25700
N  -2.13800 16.95100 23.76800
C  -2.26200 17.97300 22.93700
C  -2.06100 17.53900 21.52900
C  -1.69700 15.99500 21.62500
C  -1.90300 15.79200 23.10500
C  -3.26200 17.85800 20.59200
C  -0.34900 15.64900 21.15100
C  0.80400 16.22400 21.88100
N  -2.10100 15.07600 25.89900
C  -2.02900 14.11400 24.89500
C  -1.91300 12.79800 25.45300
C  -2.02700 13.00000 26.81600
C  -2.17800 14.40600 27.03900
C  -1.89300 11.45000 24.84600
C  -2.06000 12.33900 28.07200
O  -2.04600 11.11500 28.34900
C  -2.26600 13.51400 29.14600
C  -1.00500 13.41900 29.85800
O  -0.00800 14.05600 29.53200
O  -1.16300 12.56200 30.94600
C  -0.00800 12.58300 31.88100
H  -2.92800 20.43900 28.89000
H  -2.70600 19.88300 22.50200
H  -1.84700 13.77500 22.77500
H  -3.54900 15.88300 30.64100
H  -1.97900 18.57800 30.80000
H  -4.51600 17.67700 31.48800
H  -5.01800 18.78600 30.25600
H  -4.06600 19.37200 31.57600
H  -0.69500 15.94400 30.81800
H  -1.96900 14.94300 31.57500
H  -2.13000 17.43600 32.70700
H  -0.48700 16.99900 32.78900
H  -1.99000 23.07700 27.63800
H  -3.52200 22.38500 28.08600
H  -3.47500 23.33900 26.68400
H  -1.72600 23.90600 25.07000
H  -3.46900 24.13700 24.47900
H  -2.02500 24.39200 23.42700
H  -1.17200 17.99400 21.09100
H  -2.48800 15.39100 21.17900
H  -2.92300 18.41900 19.72100
H  -4.11100 18.30600 21.11000
H  -3.63900 16.96200 20.10000
H  -0.30600 16.19100 20.20600
H  -0.19500 14.58800 20.95600
H  0.64500 16.24500 22.95900
H  1.12700 17.15000 21.40500
H  1.65400 15.54700 21.79700
H  -1.37100 11.34100 23.89500
H  -2.88600 11.02300 24.70700
H  -1.38300 10.76100 25.51800
H  -3.13200 13.31200 29.77700
H  -0.32800 11.92900 32.69200
H  0.31900 13.53100 32.31000
H  0.91000 12.25600 31.39300
Mg 53.51400 23.76700 43.51500
C  51.02500 26.12900 42.83300
C  51.65200 21.32300 41.79500
C  56.22600 21.69400 43.60000
C  55.42300 26.34600 44.81300
N  51.63500 23.76800 42.40000
C  50.74000 24.82400 42.25400
C  49.52500 24.33000 41.43700
C  49.58600 22.75900 41.56200
C  51.10100 22.56800 41.90100
C  48.59100 22.24600 42.61100
C  49.49400 25.05700 40.08500
C  49.83800 24.25600 38.89900
H  50.03500 24.95700 37.49400
N  53.90800 21.78800 42.79600
C  52.97100 20.95700 42.21000
C  53.52800 19.68900 42.12700
C  54.87300 19.65000 42.64700
C  55.11800 21.13000 43.04500
C  52.76400 18.46700 41.54800
C  55.83300 18.47900 42.74400
O  55.56000 17.34400 42.32800
C  57.24700 18.57500 43.29200
N  55.56200 24.02000 43.93800
C  56.46400 23.01000 43.97900
C  57.90200 23.49900 44.42900
C  57.69300 25.08100 44.49400
C  56.14500 25.16500 44.44400
C  58.37000 22.94100 45.77300
C  58.34400 25.78200 43.26100
C  57.89800 27.19500 42.95400
N  53.26700 25.86000 43.82700
C  54.07500 26.72600 44.46800
C  53.35200 27.98900 44.72100
C  52.12600 27.80700 44.11200
C  52.14800 26.47100 43.60400
C  53.71000 29.14000 45.54900
C  50.84100 28.36900 43.80300
O  50.30700 29.40600 44.16900
C  50.01800 27.28300 42.99600
C  49.62100 27.87700 41.66400
O  50.40400 28.31300 40.85700
O  48.23200 27.91700 41.55300
C  47.73600 28.54400 40.35600
H  51.05900 20.51600 41.36000
H  57.07200 21.00600 43.65100
H  55.97100 27.21600 45.18100
H  48.66400 24.75000 41.95600
H  49.35700 22.25900 40.62100
H  48.14500 23.05500 43.19000
H  48.96100 21.47800 43.29000
H  47.79900 21.78700 42.02000
H  50.15300 25.92400 40.03600
H  48.49600 25.49500 40.07800
H  49.09000 23.49000 38.69300
H  50.72900 23.65100 39.06800
H  53.37600 17.72000 41.04100
H  52.07700 18.76900 40.75800
H  52.12400 18.01400 42.30500
H  57.25700 18.92400 44.32500
H  57.74900 19.22300 42.57300
H  57.81700 17.66600 43.09800
H  58.66000 23.24900 43.68700
H  58.06600 25.52800 45.41600
H  59.39900 22.70500 45.50000
H  57.86300 22.10100 46.24900
H  58.37500 23.74200 46.51200
H  57.94800 25.24800 42.39700
H  59.42800 25.85600 43.34200
H  57.01600 27.18900 42.31400
H  58.65400 27.77000 42.41900
H  57.65400 27.76900 43.84800
H  52.81000 29.38500 46.11300
H  53.91100 30.03800 44.96500
H  54.52200 28.90500 46.23700
H  49.09600 26.90100 43.43400
H  48.33100 28.43300 39.44900
H  47.51200 29.60100 40.49800
H  46.77400 28.09600 40.10900

