158

Mg 24.68900 -7.87000 45.87700
C  27.12600 -5.52000 45.00700
C  22.39600 -6.38600 43.96100
C  22.61400 -10.45000 46.64800
C  27.30500 -9.59300 47.73500
N  24.76900 -6.18100 44.62900
C  25.92000 -5.35800 44.40000
C  25.52900 -4.21400 43.32400
C  23.93500 -4.35000 43.20800
C  23.68900 -5.72200 43.92600
C  23.20200 -3.16300 43.84200
C  26.29600 -4.45500 42.00200
C  25.68600 -3.61000 40.85000
H  24.90200 -4.22700 39.69600
N  22.81300 -8.37900 45.33900
C  21.97300 -7.55500 44.65400
C  20.65300 -8.19700 44.55000
C  20.68100 -9.34600 45.33600
C  22.11300 -9.46500 45.81300
C  19.47100 -7.61500 43.67300
C  19.39600 -10.22600 45.68500
O  18.30400 -9.97500 45.16200
C  19.48400 -11.50000 46.41200
N  24.94300 -9.72800 46.92700
C  23.92600 -10.52500 47.14000
C  24.25100 -11.75600 48.05100
C  25.83900 -11.66800 48.19200
C  26.07500 -10.25600 47.53200
C  23.58800 -11.70200 49.45000
C  26.72900 -12.72800 47.45500
C  28.00000 -13.25900 48.25400
N  26.82800 -7.57900 46.36600
C  27.66900 -8.30800 47.14200
C  28.91400 -7.61600 47.24700
C  28.74500 -6.50300 46.42100
C  27.47300 -6.52100 45.86600
C  30.13600 -8.10000 48.05100
C  29.38100 -5.37500 45.85300
O  30.54200 -4.97400 46.06600
C  28.42300 -4.67100 44.81500
C  28.30200 -3.25200 45.09600
O  28.82800 -2.44900 44.32000
O  27.44800 -2.92600 46.13600
C  27.00500 -1.50400 46.17100
H  21.64600 -5.86900 43.35900
H  21.88900 -11.23300 46.88000
H  28.05600 -10.18500 48.26200
H  25.94900 -3.33900 43.82100
H  23.64300 -4.49900 42.16800
H  22.74200 -2.66000 42.99200
H  23.66600 -2.47900 44.55100
H  22.36300 -3.51900 44.44000
H  26.11400 -5.51100 41.80300
H  27.28900 -4.04100 42.17500
H  26.54500 -3.00200 40.56600
H  24.92500 -2.93000 41.23400
H  19.56400 -6.53700 43.53800
H  18.50000 -7.75400 44.14800
H  19.51700 -8.22300 42.76900
H  19.95100 -11.23700 47.36100
H  20.15600 -12.14800 45.84900
H  18.52300 -11.99900 46.53300
H  24.06400 -12.64400 47.44800
H  26.16800 -11.71500 49.23100
H  23.14900 -12.69800 49.52100
H  22.80700 -10.95100 49.57300
H  24.19600 -11.75600 50.35300
H  26.94800 -12.31600 46.47000
H  26.10500 -13.59500 47.23400
H  28.23900 -12.71500 49.16800
H  28.86600 -13.18400 47.59600
H  27.80400 -14.32600 48.36600
H  30.50700 -9.00900 47.57700
H  29.88500 -8.20000 49.10700
H  30.85500 -7.28700 47.94800
H  28.90100 -4.74500 43.83900
H  26.45000 -1.28500 45.25900
H  27.81200 -0.79400 45.99100
H  26.36200 -1.29800 47.02700
Mg -10.38200 16.97100 42.41300
C  -6.95200 17.49700 42.78400
C  -10.74600 20.35000 41.62300
C  -13.54500 16.30600 41.73100
C  -9.59000 13.52400 42.36900
N  -8.92600 18.65300 42.00100
C  -7.56100 18.66200 42.34000
C  -7.01800 20.03100 41.99100
C  -8.25000 20.93900 41.94200
C  -9.40100 19.91800 41.75900
C  -8.40900 21.83800 43.26200
C  -6.04000 20.08600 40.76900
C  -4.68200 20.79500 41.01300
H  -4.13600 21.64500 39.86500
N  -11.88300 18.18500 41.82100
C  -11.94300 19.54600 41.63800
C  -13.31600 19.96300 41.34500
C  -14.16000 18.75400 41.31400
C  -13.18400 17.64400 41.62500
C  -13.69800 21.41600 41.09000
C  -15.63800 18.70300 41.08300
O  -16.23000 19.76000 40.92500
C  -16.34600 17.44400 40.71400
N  -11.38100 15.15800 41.97100
C  -12.72700 15.21200 41.90300
C  -13.35800 13.77400 41.97800
C  -12.04000 12.88600 41.85300
C  -10.89300 13.90900 42.04200
C  -14.09900 13.50800 43.32500
C  -11.89600 12.26200 40.45600
C  -12.48000 10.87800 40.25100
N  -8.70700 15.69800 42.73200
C  -8.49900 14.32300 42.75300
C  -7.05600 13.98600 43.02700
C  -6.50500 15.24600 43.19700
C  -7.50400 16.20700 42.85000
C  -6.39700 12.64500 43.15200
C  -5.24900 15.90000 43.42100
O  -4.14000 15.57300 43.82300
C  -5.51900 17.40300 43.25500
C  -5.21000 18.03000 44.53600
O  -5.92800 18.01900 45.54200
O  -4.04400 18.66900 44.51100
C  -3.47400 19.15200 45.77000
H  -10.85600 21.42800 41.48400
H  -14.60600 16.08700 41.59400
H  -9.48000 12.43900 42.42200
H  -6.32500 20.39500 42.75000
H  -8.08000 21.62200 41.11000
H  -8.44100 22.89400 42.99100
H  -7.54300 21.72400 43.91500
H  -9.32900 21.61200 43.80000
H  -6.63500 20.47200 39.94200
H  -5.72000 19.05100 40.65000
H  -3.89900 20.11600 41.35100
H  -4.74600 21.45600 41.87700
H  -14.34200 21.49200 40.21400
H  -12.90300 22.16000 41.14100
H  -14.27200 21.77400 41.94400
H  -17.33900 17.61800 40.30000
H  -16.43000 16.94800 41.68100
H  -15.78700 16.89500 39.95700
H  -14.13100 13.54200 41.24500
H  -11.93700 12.16100 42.66000
H  -15.02900 12.97900 43.11800
H  -14.42600 14.41800 43.82800
H  -13.43000 13.02300 44.03500
H  -10.86800 12.10800 40.13000
H  -12.34200 12.93900 39.72800
H  -11.82000 10.06600 39.94500
H  -13.31300 10.96400 39.55300
H  -13.02100 10.54400 41.13700
H  -6.66700 12.06900 44.03700
H  -5.33600 12.86700 43.04100
H  -6.78100 11.96800 42.38800
H  -4.88800 17.90000 42.51900
H  -2.85300 20.02800 45.58200
H  -2.80000 18.40600 46.19000
H  -4.21000 19.39900 46.53500

