158

Mg 7.07400 54.22500 40.81200
C  6.66300 50.63600 40.62400
C  10.26100 53.76300 39.79800
C  7.19800 57.43000 40.18500
C  3.63900 54.31400 41.59600
N  8.21500 52.46500 40.31700
C  7.86600 51.12700 40.21300
C  9.08000 50.30000 39.84700
C  10.31000 51.26600 40.05200
C  9.55700 52.58700 40.14400
C  11.11500 50.96300 41.35300
C  8.89200 49.74500 38.41000
C  8.45800 50.84200 37.29300
H  7.18200 50.55000 36.54700
N  8.57200 55.49400 40.02100
C  9.83100 55.09600 39.65700
C  10.52500 56.33200 39.28700
C  9.66700 57.41300 39.33300
C  8.42300 56.82000 39.86400
C  11.95100 56.32300 38.76000
C  9.88600 58.85900 38.90200
O  11.03300 59.21700 38.65000
C  8.85700 59.94600 38.93400
N  5.55800 55.58600 40.60600
C  5.93600 56.91600 40.49000
C  4.65800 57.74100 40.53200
C  3.60300 56.81700 41.03500
C  4.28900 55.46000 41.11200
C  4.73700 59.09200 41.41600
C  2.37700 56.82600 40.13000
C  1.07900 57.31700 40.86800
N  5.51700 52.81000 41.35200
C  4.21600 53.04100 41.75000
C  3.67500 51.77000 42.17100
C  4.57400 50.80200 41.72100
C  5.64700 51.47100 41.18800
C  2.28900 51.38600 42.68100
C  4.76700 49.37200 41.61600
O  4.15000 48.38500 41.89400
C  6.18300 49.26000 40.76300
C  5.87600 48.48300 39.50000
O  5.21000 48.86600 38.53200
O  6.52700 47.25200 39.56900
C  6.36500 46.47400 38.30400
H  11.33000 53.59500 39.65200
H  7.22000 58.51000 40.03000
H  2.59700 54.48400 41.87400
H  9.18100 49.42200 40.48400
H  10.97600 51.18500 39.19200
H  10.49700 50.46900 42.10200
H  11.50700 51.87800 41.79800
H  11.91800 50.24200 41.19900
H  8.34800 48.80400 38.33000
H  9.94200 49.45600 38.35800
H  9.27900 50.72900 36.58500
H  8.47200 51.87100 37.65400
H  12.47100 57.03200 39.40400
H  11.93800 56.65500 37.72200
H  12.44500 55.35800 38.87800
H  7.97300 59.76500 38.32300
H  9.29300 60.77300 38.37300
H  8.70500 60.36300 39.93000
H  4.34300 57.99400 39.51900
H  3.35400 56.87000 42.09500
H  5.51600 59.01800 42.17400
H  3.79500 59.20400 41.95400
H  4.94900 59.95600 40.78600
H  2.11300 55.86300 39.69300
H  2.52200 57.48600 39.27400
H  0.67000 58.21400 40.40400
H  1.14400 57.54600 41.93200
H  0.29700 56.58000 40.68600
H  1.66500 52.19500 43.06100
H  2.52900 50.74700 43.53100
H  1.86000 50.70400 41.94800
H  6.87000 48.63500 41.33400
H  7.01700 45.60200 38.35600
H  6.64900 46.97500 37.37800
H  5.31100 46.20800 38.22800
Mg 0.19200 43.68000 25.60100
C  2.22900 43.31700 28.45300
C  -2.42200 42.69000 27.47000
C  -1.50600 43.91500 22.85500
C  3.16900 44.31800 23.62700
N  -0.03900 43.23100 27.73300
C  0.88900 43.12200 28.72400
C  0.32800 42.79100 30.09100
C  -1.20300 42.37800 29.70800
C  -1.26400 42.83800 28.24300
C  -1.54100 40.87700 29.85500
C  0.32900 44.10000 30.93000
C  -0.16400 44.00700 32.43400
H  -0.24700 42.63200 33.14100
N  -1.68400 43.29700 25.22000
C  -2.69500 42.87200 26.08800
C  -3.92000 42.82100 25.37700
C  -3.68400 43.24200 24.09000
C  -2.24100 43.49900 23.99800
C  -5.23500 42.39800 26.14500
C  -4.66500 43.59600 23.00900
O  -4.39300 44.27900 22.03100
C  -6.12400 43.15100 23.19400
N  0.77500 44.04000 23.44100
C  -0.18200 44.20500 22.55100
C  0.38000 44.65300 21.23300
C  1.84200 44.90700 21.52200
C  1.97800 44.32300 22.95500
C  0.19200 43.47300 20.14400
C  2.35600 46.37100 21.59700
C  1.37700 47.43100 22.19700
N  2.31400 43.89700 25.94800
C  3.40400 44.09900 25.02800
C  4.59600 43.97500 25.79100
C  4.18500 43.66600 27.06200
C  2.78600 43.54000 27.16800
C  5.98500 44.14000 25.26000
C  4.73300 43.37700 28.37200
O  5.89900 43.30300 28.74100
C  3.45900 43.20600 29.38000
C  3.63500 42.04000 30.21300
O  3.34800 40.89100 29.87900
O  4.29600 42.35700 31.33000
C  4.81900 41.20500 32.12600
H  -3.29600 42.25900 27.96200
H  -2.11400 43.91900 21.94800
H  4.06800 44.46900 23.02700
H  0.84000 41.95800 30.57400
H  -1.97200 42.86600 30.30600
H  -2.05300 40.55300 28.94900
H  -2.25200 40.72600 30.66700
H  -0.70000 40.22200 30.08500
H  -0.29800 44.86300 30.46800
H  1.35400 44.43800 30.78100
H  -1.15200 44.45600 32.53800
H  0.60000 44.55500 32.98500
H  -6.04500 43.11700 26.02000
H  -5.13500 42.19800 27.21200
H  -5.60200 41.42900 25.80700
H  -6.16000 42.08200 23.40100
H  -6.66400 43.17000 22.24700
H  -6.59000 43.71500 24.00200
H  -0.10400 45.57100 20.89900
H  2.47100 44.34300 20.83200
H  1.14600 43.06900 19.80500
H  -0.24900 43.89100 19.23900
H  -0.37800 42.67000 20.61200
H  2.64800 46.70300 20.60100
H  3.21700 46.40200 22.26500
H  1.80000 48.09200 22.95400
H  0.53400 46.94200 22.68400
H  1.04100 47.98400 21.31900
H  6.02400 45.10800 24.76000
H  6.23900 43.33000 24.57600
H  6.84400 44.15800 25.93100
H  3.56000 44.09900 29.99800
H  5.55600 41.51000 32.86900
H  5.33200 40.46500 31.51100
H  3.94000 40.84400 32.65800

