158

Mg -0.21000 7.65900 27.36000
C  0.47500 9.98800 29.83700
C  -0.64200 5.28500 29.59300
C  -0.74100 5.58600 24.66800
C  0.81800 10.14000 25.04500
N  0.11500 7.69500 29.54500
C  0.06600 8.74500 30.38000
C  -0.17400 8.33100 31.77100
C  -0.39400 6.77700 31.68900
C  -0.27500 6.54400 30.17400
C  0.64400 5.93700 32.35700
C  -1.29800 9.06200 32.47400
C  -1.35800 8.94100 34.01900
H  -0.16700 8.47900 34.82300
N  -0.53300 5.73200 27.14700
C  -0.81600 4.92600 28.21800
C  -1.10900 3.59400 27.71800
C  -1.09500 3.60900 26.31800
C  -0.80100 5.05600 26.01600
C  -1.36100 2.40500 28.69300
C  -1.34300 2.47700 25.22200
O  -1.39100 2.64700 23.99900
C  -1.63700 1.02600 25.85400
N  0.10600 7.83100 25.12500
C  -0.28800 6.84900 24.28800
C  -0.29600 7.39200 22.85000
C  -0.08600 8.88500 22.97100
C  0.36200 8.95500 24.43800
C  0.65800 6.46200 22.03100
C  -1.46300 9.63900 22.84000
C  -1.79300 10.29800 21.41900
N  0.55100 9.63100 27.40100
C  0.98200 10.50300 26.40000
C  1.37700 11.82100 26.95400
C  1.22300 11.68000 28.33400
C  0.86500 10.28800 28.52100
C  1.80300 13.01400 26.15900
C  1.33900 12.28100 29.58100
O  1.61400 13.43600 29.93000
C  0.92400 11.20900 30.61100
C  1.92800 11.18300 31.64600
O  3.02300 10.65500 31.48800
O  1.48300 11.82800 32.75100
C  2.38400 11.81000 33.86700
H  -0.80100 4.58100 30.41300
H  -0.90400 4.87400 23.85700
H  0.96900 10.90000 24.27600
H  0.73100 8.41500 32.37300
H  -1.36000 6.40200 32.02800
H  1.45400 5.73500 31.65700
H  0.27300 4.95000 32.63700
H  1.07600 6.38800 33.25000
H  -2.17500 8.50700 32.14000
H  -1.39300 10.13500 32.30600
H  -2.25700 8.36200 34.22800
H  -1.62200 9.91300 34.43600
H  -2.41600 2.32600 28.95600
H  -0.87600 2.69000 29.62600
H  -0.99900 1.42500 28.38100
H  -1.99800 0.45100 25.00100
H  -2.42800 1.11700 26.59800
H  -0.73000 0.59300 26.27800
H  -1.32000 7.30600 22.48900
H  0.72200 9.19600 22.30900
H  0.95700 5.52100 22.49300
H  1.46300 7.00700 21.53700
H  0.04300 6.03200 21.24000
H  -1.40600 10.49200 23.51700
H  -2.35400 9.09500 23.15300
H  -2.79600 10.00100 21.11300
H  -1.00200 10.16200 20.68200
H  -1.74000 11.36800 21.62300
H  0.86600 13.33000 25.70100
H  2.55800 12.75100 25.41800
H  2.32100 13.69300 26.83700
H  0.02900 11.63900 31.06000
H  2.53600 10.76200 34.12400
H  2.07100 12.36300 34.75200
H  3.41400 12.11800 33.68600
Mg 49.04800 46.48900 42.43100
C  45.83000 47.03900 41.21900
C  49.22300 43.59600 40.51900
C  52.43600 46.18200 43.15400
C  49.14400 49.71300 43.57000
N  47.63900 45.44800 41.05000
C  46.37000 45.85800 40.66900
C  45.81000 45.09600 39.53100
C  46.86300 43.84700 39.50000
C  48.05100 44.33200 40.37100
C  46.22000 42.47300 39.88000
C  45.77900 45.91400 38.17100
C  44.45100 45.70500 37.27100
H  44.71300 44.70700 36.18100
N  50.59700 44.94800 42.06500
C  50.44300 43.85700 41.26400
C  51.62000 43.04500 41.36300
C  52.59000 43.75300 42.14800
C  51.91600 45.07300 42.47100
C  51.71900 41.63900 40.72900
C  54.00200 43.22600 42.64600
O  54.42900 42.16400 42.27100
C  54.86600 43.98600 43.68300
N  50.58200 47.81700 43.21800
C  51.87000 47.42900 43.50600
C  52.66100 48.62100 44.04600
C  51.58800 49.80800 44.07900
C  50.35600 49.06000 43.57400
C  53.40400 48.52700 45.32500
C  51.98700 51.10000 43.20100
C  52.36200 52.37400 43.93700
N  47.66500 48.03700 42.62000
C  47.88300 49.32400 43.03900
C  46.67000 50.08000 43.01000
C  45.79500 49.23300 42.23600
C  46.47700 48.04000 42.07200
C  46.42000 51.42900 43.54100
C  44.54000 49.14100 41.61000
O  43.60400 49.88100 41.70500
C  44.53200 47.75000 40.81000
C  43.28600 47.00700 41.04900
O  42.35100 46.98000 40.28500
O  43.19000 46.43900 42.23000
C  41.93100 45.73000 42.54800
H  49.30200 42.67000 39.94600
H  53.51000 46.17800 43.35200
H  49.21700 50.74200 43.92800
H  44.79200 44.77700 39.75500
H  47.27500 43.63800 38.51200
H  45.14400 42.46100 39.70400
H  46.32100 42.28000 40.94800
H  46.67200 41.58800 39.43200
H  46.69200 45.64900 37.63800
H  45.99300 46.95400 38.41700
H  44.10800 46.63800 36.82400
H  43.67900 45.24800 37.88900
H  51.07400 40.91100 41.22100
H  52.73400 41.26000 40.60300
H  51.34500 41.61700 39.70500
H  55.47600 43.24800 44.20300
H  54.16600 44.29600 44.45900
H  55.48400 44.76900 43.24200
H  53.41200 48.70400 43.26000
H  51.20900 49.98000 45.08700
H  54.10600 47.69400 45.28900
H  52.66500 48.38800 46.11500
H  53.91600 49.46600 45.53100
H  51.17500 51.35900 42.52200
H  52.82900 50.92600 42.53200
H  52.88000 53.07700 43.28600
H  52.98200 52.27400 44.82800
H  51.41600 52.89900 44.07300
H  46.77800 52.16200 42.81700
H  46.97300 51.57000 44.46900
H  45.35200 51.47100 43.75200
H  44.53500 47.90200 39.73100
H  41.15300 46.49100 42.60800
H  41.84300 45.28000 43.53700
H  41.76000 44.96600 41.79000

