158

Mg 44.13800 4.24900 47.76200
C  42.12300 7.10400 47.53900
C  41.23100 2.38800 48.04000
C  45.88500 1.44600 47.16000
C  46.95600 6.22900 47.20500
N  41.86600 4.69800 47.79400
C  41.34200 5.96400 47.64500
C  39.81200 5.91300 47.50200
C  39.52800 4.36300 47.77800
C  40.94900 3.75000 47.85100
C  38.65100 4.00300 48.97500
C  39.14800 6.44800 46.16900
C  39.84300 6.23900 44.77500
H  39.77800 7.42000 43.75800
N  43.66000 2.23300 47.51200
C  42.42900 1.62700 47.77800
C  42.50400 0.25300 47.47000
C  43.89200 -0.04400 47.21800
C  44.52600 1.21500 47.27000
C  41.24900 -0.70000 47.45900
C  44.46700 -1.31300 46.75800
O  43.71900 -2.27400 46.63000
C  45.94100 -1.62400 46.31100
N  46.13000 3.92000 47.23400
C  46.65000 2.62500 47.23200
C  48.16700 2.64200 47.14900
C  48.57800 4.13500 47.07000
C  47.18500 4.82000 47.21600
C  48.83900 2.00100 48.43600
C  49.18500 4.49900 45.68900
C  50.63300 4.97100 45.73000
N  44.49300 6.23100 47.57700
C  45.69900 6.96500 47.33400
C  45.45600 8.39500 47.17900
C  44.05300 8.45000 47.31200
C  43.51900 7.20900 47.54200
C  46.44900 9.47700 46.94900
C  42.93500 9.38000 47.32200
O  43.00500 10.60000 47.15400
C  41.61500 8.52900 47.49500
C  40.97700 8.94200 48.81600
O  40.96700 8.31500 49.85600
O  40.18500 10.11700 48.58600
C  39.25300 10.46600 49.67900
H  40.30300 1.84100 48.22100
H  46.58800 0.61200 47.20600
H  47.84400 6.83800 47.02200
H  39.43600 6.44600 48.37500
H  39.10100 3.96300 46.85800
H  39.09300 3.09300 49.38000
H  37.57100 3.88900 48.88000
H  38.73100 4.67500 49.82900
H  38.79300 7.44500 46.42800
H  38.22500 5.88200 46.04100
H  39.41000 5.38100 44.26000
H  40.89400 5.98300 44.90500
H  40.99000 -0.85300 46.41200
H  40.44100 -0.22100 48.01300
H  41.51100 -1.66300 47.89800
H  46.55200 -1.67300 47.21200
H  46.26800 -0.76000 45.73300
H  46.01300 -2.58200 45.79500
H  48.43800 2.04800 46.27700
H  49.20400 4.39000 47.92500
H  49.12100 0.95100 48.35200
H  48.12500 1.88000 49.25000
H  49.71600 2.46500 48.88800
H  48.65300 5.37200 45.31200
H  49.03200 3.70400 44.95800
H  50.81100 5.42600 44.75500
H  51.34200 4.15300 45.85900
H  50.78500 5.69600 46.52900
H  46.67700 9.98200 47.88700
H  46.08700 10.20800 46.22500
H  47.45900 9.11900 46.74800
H  40.92300 8.64800 46.66200
H  39.62900 11.24300 50.34500
H  39.09200 9.58500 50.30100
H  38.34900 10.86000 49.21500
Mg 1.72100 42.49200 25.45000
C  3.87100 42.40800 28.08700
C  -0.89100 41.15400 27.47900
C  -0.17000 41.81800 22.74500
C  4.41300 43.33300 23.31300
N  1.56400 41.78200 27.53400
C  2.57200 42.01300 28.39700
C  2.02600 41.67000 29.85100
C  0.59900 41.14200 29.57000
C  0.33600 41.48900 28.13100
C  0.26800 39.61200 30.00800
C  2.12900 42.95800 30.72900
C  2.49300 42.69300 32.25200
H  2.22700 41.31500 32.90700
N  -0.37400 41.76500 25.17300
C  -1.24400 41.27200 26.08300
C  -2.50500 40.97500 25.35900
C  -2.31200 41.27100 23.95600
C  -0.90700 41.60400 23.92700
C  -3.68800 40.34200 26.15800
C  -3.24500 41.17700 22.76700
O  -2.97800 41.49600 21.60900
C  -4.61500 40.64400 23.01100
N  2.08700 42.54800 23.33500
C  1.12100 42.24200 22.44600
C  1.65400 42.47700 21.02600
C  3.03900 43.34100 21.27900
C  3.14500 43.16000 22.71100
C  1.89000 41.15400 20.34100
C  3.02100 44.78300 20.73300
C  2.18100 45.74900 21.57500
N  3.76200 42.92400 25.61700
C  4.73600 43.21900 24.69500
C  6.00600 43.23400 25.36500
C  5.72800 42.95300 26.69000
C  4.38300 42.79000 26.77900
C  7.36200 43.61700 24.75300
C  6.29500 42.76200 28.01400
O  7.47900 42.81900 28.33300
C  5.07100 42.41800 28.99500
C  5.43400 41.15600 29.66500
O  5.23000 40.12000 29.19800
O  5.92800 41.39900 30.85700
C  5.83000 40.28400 31.78100
H  -1.67100 40.85400 28.18300
H  -0.70900 41.63400 21.81300
H  5.24000 43.44800 22.61000
H  2.65900 40.90700 30.30400
H  -0.05000 41.77500 30.17400
H  -0.03800 38.98100 29.17400
H  -0.47600 39.70100 30.80000
H  1.21600 39.20100 30.35200
H  1.22300 43.56100 30.65700
H  2.89000 43.66300 30.39600
H  1.92200 43.44200 32.80000
H  3.53200 43.02000 32.28500
H  -3.34200 40.34700 27.19200
H  -3.86600 39.28400 25.96500
H  -4.59300 40.92400 25.98300
H  -5.26300 40.87600 22.16600
H  -5.14300 41.09500 23.85200
H  -4.57400 39.56100 23.12600
H  1.00800 43.15200 20.46400
H  3.94800 42.87700 20.89600
H  1.19200 40.43700 20.77400
H  2.92600 40.89600 20.56000
H  1.68300 41.37300 19.29300
H  2.60900 44.75200 19.72400
H  3.99700 45.23600 20.55900
H  1.42700 46.05000 20.84700
H  2.73600 46.62300 21.91800
H  1.66600 45.18000 22.34900
H  7.21700 44.33400 23.94400
H  7.95000 42.80500 24.32600
H  7.95300 44.08800 25.53800
H  4.93500 43.29600 29.62600
H  6.81000 39.82000 31.66600
H  5.10600 39.48500 31.61900
H  5.71600 40.68100 32.79000

