158

Mg 35.39000 49.33800 25.00900
C  35.00800 47.55000 28.08400
C  33.78200 52.03100 26.65300
C  35.19600 50.89700 22.14600
C  36.39600 46.40100 23.45700
N  34.57900 49.76100 27.18700
C  34.60700 48.92700 28.21600
C  34.03600 49.46600 29.50800
C  33.55300 50.92400 29.03200
C  34.04200 50.98200 27.54800
C  32.08100 51.22700 29.18600
C  35.07000 49.47300 30.69800
C  34.55100 49.09900 32.10400
H  33.00800 48.81800 32.27700
N  34.74300 51.22900 24.53300
C  34.11000 52.18400 25.33700
C  33.93300 53.41600 24.58700
C  34.33600 53.10800 23.22300
C  34.72600 51.66800 23.27100
C  33.13900 54.59200 25.12100
C  34.26500 54.09500 21.99700
O  34.30100 53.64600 20.82800
C  33.96200 55.57000 22.20400
N  35.62300 48.67800 23.05700
C  35.50200 49.56100 21.99500
C  35.93900 48.90000 20.66200
C  36.45200 47.46500 21.15600
C  36.21100 47.50700 22.64600
C  34.84500 48.98600 19.57800
C  37.83500 47.05700 20.71600
C  39.07800 47.39100 21.58500
N  35.72400 47.37200 25.58500
C  36.18900 46.24300 24.90000
C  36.32100 45.13100 25.75700
C  35.89100 45.57100 26.99500
C  35.44000 46.92800 26.87200
C  36.96900 43.76200 25.53400
C  35.80000 45.24000 28.38200
O  36.20500 44.25000 28.99900
C  35.12000 46.41100 29.09800
C  33.76000 45.92400 29.63700
O  32.68400 46.39300 29.26700
O  33.96700 45.26400 30.86100
C  32.77700 44.84800 31.60000
H  33.41300 52.85500 27.26600
H  35.23100 51.49200 21.23100
H  36.79500 45.48100 23.02500
H  33.18100 48.88300 29.85100
H  34.12800 51.64200 29.61600
H  31.90700 51.91100 30.01700
H  31.65700 50.26900 29.48800
H  31.61300 51.73600 28.34300
H  35.65100 50.39100 30.60500
H  35.84800 48.71000 30.73700
H  34.86400 49.91700 32.75400
H  35.13900 48.30900 32.57000
H  33.76700 55.47000 24.97300
H  32.98500 54.58600 26.20000
H  32.22800 54.65700 24.52600
H  32.90400 55.49400 22.45300
H  34.06300 55.97600 21.19800
H  34.44600 56.17700 22.96900
H  36.73400 49.61000 20.43200
H  35.95500 46.65500 20.62300
H  33.94500 49.23300 20.14100
H  34.71300 48.07800 18.98800
H  34.99300 49.81900 18.89000
H  38.11800 47.58400 19.80500
H  37.81800 46.00500 20.43200
H  39.54400 48.24700 21.09700
H  39.77400 46.55200 21.58500
H  38.85600 47.67200 22.61400
H  37.78300 43.76100 24.80900
H  36.14700 43.06900 25.35600
H  37.47800 43.50700 26.46400
H  35.67600 46.63200 30.00800
H  32.68900 43.76200 31.57900
H  31.78700 45.23500 31.35800
H  33.06300 45.12200 32.61600
Mg -0.08400 43.27700 25.07300
C  2.34900 42.30000 27.60100
C  -2.51400 42.39300 27.36600
C  -2.26200 43.76700 22.77900
C  2.63500 43.73700 22.87700
N  -0.09600 42.48200 27.29400
C  1.01700 42.23100 28.07500
C  0.60600 41.95700 29.49200
C  -0.96000 41.66000 29.33400
C  -1.23100 42.23200 27.92400
C  -1.31200 40.16900 29.56200
C  1.08700 43.04700 30.56900
C  0.24700 43.34700 31.76900
H  -0.30200 42.18500 32.67900
N  -2.15900 43.18500 25.04600
C  -2.97500 42.75200 26.04700
C  -4.37300 42.97100 25.57300
C  -4.31300 43.39300 24.21500
C  -2.85800 43.44800 23.93000
C  -5.59000 42.67700 26.42700
C  -5.41300 43.76300 23.25000
O  -5.19700 44.15100 22.08600
C  -6.78300 43.74700 23.75500
N  0.21200 43.70200 23.07700
C  -0.90400 43.94700 22.37200
C  -0.51000 44.40300 21.00000
C  1.07300 44.38200 20.99700
C  1.36000 43.90300 22.38400
C  -1.23100 43.64600 19.78400
C  1.73800 45.78200 20.81700
C  1.66400 46.28400 19.37400
N  2.07300 43.03700 25.10200
C  3.00600 43.35700 24.16800
C  4.35900 43.08700 24.65000
C  4.15400 42.70800 26.01600
C  2.75900 42.79700 26.28700
C  5.63100 43.19800 23.90200
C  4.83500 42.33200 27.29400
O  5.99500 42.13300 27.58300
C  3.66700 42.16100 28.34800
C  3.97800 40.90900 29.02900
O  3.71300 39.80700 28.66400
O  4.51400 41.25400 30.20600
C  4.70500 40.10700 31.09800
H  -3.21100 41.94800 28.07800
H  -2.92700 44.16800 22.01100
H  3.53800 43.92700 22.29300
H  1.13300 41.05700 29.80800
H  -1.59900 42.21600 30.02000
H  -1.71600 39.87200 28.59400
H  -2.01600 40.10000 30.39100
H  -0.46500 39.51600 29.77400
H  1.37100 43.93500 30.00500
H  2.09100 42.77600 30.89600
H  -0.53500 44.02800 31.43200
H  0.84000 43.96100 32.44700
H  -6.10300 43.63500 26.50300
H  -5.24900 42.40500 27.42600
H  -6.28500 41.96900 25.97500
H  -7.06600 44.55800 24.42700
H  -7.00400 42.73300 24.08600
H  -7.49500 43.77900 22.93000
H  -0.82300 45.44600 20.94400
H  1.48000 43.67500 20.27400
H  -1.37600 44.28200 18.91000
H  -2.06600 43.11300 20.23800
H  -0.48500 42.87800 19.57600
H  2.77000 45.76900 21.16700
H  1.34000 46.61100 21.40200
H  0.81200 45.83000 18.86800
H  2.62100 46.05000 18.90700
H  1.43300 47.35000 19.37100
H  5.80800 44.22500 23.58200
H  5.41400 42.57400 23.03500
H  6.54300 42.73700 24.28100
H  3.75600 42.98600 29.05400
H  5.04400 39.23200 30.54300
H  3.84400 39.88400 31.72800
H  5.58500 40.17400 31.73700

