158

Mg 1.53300 -0.90500 43.60500
C  4.92000 0.17200 43.38200
C  0.47200 1.92200 42.17600
C  -1.41000 -2.49100 42.98300
C  2.91400 -4.07200 44.42500
N  2.62500 0.82000 42.96400
C  3.99500 1.10500 42.89900
C  4.25300 2.44500 42.27500
C  2.74600 3.14100 42.20300
C  1.88800 1.94100 42.49200
C  2.54000 4.41600 43.20000
C  5.07100 2.30200 40.97700
C  6.47000 3.11200 40.86100
H  6.77900 3.87200 39.53400
N  -0.24600 -0.35300 42.75900
C  -0.45400 0.83400 42.22100
C  -1.89400 0.91600 41.77200
C  -2.52100 -0.25100 42.23500
C  -1.37900 -1.10300 42.68000
C  -2.48400 2.15800 41.08500
C  -4.03300 -0.48200 42.24500
O  -4.85100 0.32600 41.85700
C  -4.64800 -1.77500 42.89500
N  0.88100 -2.99500 43.63500
C  -0.40800 -3.36300 43.46900
C  -0.71600 -4.81500 43.98600
C  0.73100 -5.35900 44.26000
C  1.61500 -4.07200 44.02600
C  -1.86100 -4.84900 45.10700
C  1.23400 -6.57500 43.44600
C  2.16000 -7.54100 44.25600
N  3.53100 -1.82100 43.99500
C  3.86100 -3.04500 44.37400
C  5.29900 -3.06500 44.62600
C  5.77100 -1.79800 44.25500
C  4.66100 -1.11400 43.87400
C  5.99900 -4.25200 45.16500
C  6.92700 -0.93100 44.15500
O  8.10100 -1.11200 44.40300
C  6.38800 0.36100 43.61100
C  6.73400 1.39600 44.57300
O  6.14100 1.49200 45.63400
O  7.66600 2.25600 44.07400
C  7.67200 3.68400 44.49400
H  -0.01300 2.84700 41.85600
H  -2.39500 -2.92800 42.80800
H  3.25700 -5.08200 44.65600
H  4.90400 3.01700 42.93700
H  2.42800 3.45500 41.20800
H  3.39000 4.53600 43.87200
H  1.56700 4.39300 43.69200
H  2.36700 5.31200 42.60500
H  4.41500 2.60700 40.16100
H  5.24100 1.24000 40.80100
H  7.32400 2.45700 41.03000
H  6.54700 3.80100 41.70200
H  -2.28500 2.02200 40.02200
H  -2.14600 3.14000 41.41500
H  -3.54600 2.24800 41.31200
H  -5.65300 -1.56200 43.26000
H  -4.08500 -1.83300 43.82700
H  -4.60000 -2.58700 42.16900
H  -1.06300 -5.42300 43.15100
H  0.87500 -5.66300 45.29700
H  -2.80000 -5.32100 44.81500
H  -2.04400 -3.83000 45.44600
H  -1.48200 -5.36300 45.99000
H  1.81500 -6.27600 42.57400
H  0.30300 -7.04200 43.12800
H  3.04700 -7.61300 43.62600
H  1.59000 -8.45900 44.39700
H  2.42900 -7.18200 45.24900
H  5.64300 -4.39300 46.18600
H  7.06000 -4.00800 45.20700
H  5.77100 -5.10700 44.52800
H  6.81400 0.55700 42.62700
H  8.70500 4.01400 44.37600
H  7.44100 3.93800 45.52800
H  6.96200 4.27700 43.91700
Mg 26.12000 1.56100 29.22900
C  28.04900 1.22200 32.14400
C  23.42800 2.25000 31.30300
C  24.21600 1.40100 26.64100
C  28.84700 0.27800 27.39000
N  25.86700 1.77700 31.51900
C  26.74600 1.53200 32.47400
C  26.24200 1.95800 33.85000
C  24.71600 2.19800 33.63100
C  24.64300 2.00600 32.02800
C  23.78700 1.25300 34.55200
C  26.88800 3.20500 34.39600
C  27.19400 3.07100 35.91900
H  26.77200 4.16400 36.97400
N  24.11800 1.87600 28.98900
C  23.16100 2.21000 29.92800
C  21.83000 2.32200 29.33900
C  22.01800 2.00200 27.99400
C  23.49800 1.80900 27.82500
C  20.48000 2.63800 30.04600
C  21.05800 1.98000 26.85500
O  21.36000 1.76900 25.69600
C  19.66100 2.39000 27.14700
N  26.51500 0.85800 27.27600
C  25.50300 0.93900 26.40200
C  25.99100 0.74100 24.95300
C  27.55200 0.66000 25.16700
C  27.64800 0.55300 26.65500
C  25.25500 -0.37100 24.11700
C  28.40000 1.89700 24.68100
C  29.58500 1.48800 23.74300
N  28.09400 0.80900 29.60500
C  29.11900 0.42300 28.77100
C  30.34700 0.29600 29.53300
C  30.02700 0.54400 30.89700
C  28.59500 0.84700 30.89300
C  31.60000 -0.14300 28.84500
C  30.49000 0.58400 32.24700
O  31.56200 0.41400 32.81700
C  29.26800 1.00900 33.08600
C  28.94000 -0.07600 34.16300
O  28.36800 -1.07500 33.94500
O  29.28500 0.35600 35.43900
C  29.15000 -0.58900 36.47200
H  22.52900 2.35800 31.91400
H  23.64500 1.42900 25.71000
H  29.68400 0.05900 26.72400
H  26.19300 1.18000 34.61200
H  24.41400 3.22200 33.85500
H  22.83300 1.02600 34.07600
H  23.70600 1.79100 35.49600
H  24.14700 0.24700 34.77200
H  26.33400 4.12400 34.20700
H  27.86100 3.45800 33.97500
H  28.28400 3.09600 35.90700
H  26.76200 2.12000 36.23000
H  20.60400 2.95100 31.08300
H  19.77400 1.81100 30.10700
H  19.95100 3.37200 29.43800
H  19.25700 1.77500 27.95100
H  19.07800 2.20200 26.24600
H  19.50500 3.46700 27.20900
H  25.69200 1.66500 24.46000
H  28.00300 -0.28000 24.84800
H  24.80400 0.04100 23.21400
H  24.42500 -0.76900 24.70100
H  25.95100 -1.15400 23.81600
H  28.81000 2.42300 25.54300
H  27.80800 2.60100 24.09600
H  30.58100 1.60800 24.16900
H  29.52800 2.04600 22.80800
H  29.48600 0.45800 23.40200
H  32.17800 0.63900 28.35200
H  31.41300 -0.85800 28.04400
H  32.23300 -0.72200 29.51700
H  29.51600 1.88400 33.68600
H  30.12000 -0.65300 36.96500
H  28.87600 -1.62000 36.24900
H  28.42700 -0.38000 37.26100

