158

Mg 26.16800 -0.76700 29.43100
C  28.14500 -1.14700 32.43400
C  23.53600 -0.37200 31.44700
C  24.44800 -0.24400 26.57900
C  29.02100 -1.66500 27.50800
N  25.89800 -0.92000 31.71800
C  26.86400 -0.82100 32.72800
C  26.22000 -0.64900 34.16300
C  24.64300 -0.72900 33.82600
C  24.68000 -0.66300 32.25400
C  23.91100 -1.96600 34.36000
C  26.80100 0.57600 34.95100
C  27.37200 0.38200 36.30100
H  26.48900 -0.30400 37.35000
N  24.27900 -0.30900 29.05600
C  23.26300 -0.25900 29.99900
C  22.02900 -0.06200 29.35200
C  22.25000 0.06400 27.99700
C  23.71100 -0.12600 27.82200
C  20.64300 0.00500 30.07400
C  21.27800 0.09200 26.79600
O  21.59600 0.23000 25.61100
C  19.78600 0.10600 26.98900
N  26.63800 -1.07800 27.27000
C  25.80100 -0.65300 26.31200
C  26.44400 -0.60500 24.90500
C  27.87200 -1.17200 25.20200
C  27.85300 -1.42700 26.73800
C  25.63600 -1.30200 23.82300
C  28.98800 -0.14200 24.71900
C  30.31600 -0.89600 24.49900
N  28.16400 -1.24400 29.83300
C  29.20000 -1.64600 28.93000
C  30.43000 -1.69000 29.73300
C  30.05600 -1.57200 31.05900
C  28.66400 -1.35500 31.09100
C  31.81200 -1.99200 29.18900
C  30.55200 -1.58800 32.43600
O  31.71300 -1.85300 32.83000
C  29.39700 -1.32200 33.32400
C  29.28100 -2.50900 34.18800
O  28.54900 -3.45400 33.87400
O  30.04100 -2.39300 35.33700
C  29.76400 -3.43800 36.36100
H  22.59100 -0.27200 31.98400
H  23.96500 0.05100 25.64500
H  29.94300 -1.80900 26.94200
H  26.56300 -1.53900 34.69000
H  24.18600 0.21800 34.11200
H  23.46000 -2.59300 33.59100
H  23.16700 -1.55600 35.04200
H  24.61200 -2.57000 34.93700
H  25.90700 1.19900 34.97500
H  27.48900 1.11800 34.30100
H  27.42900 1.34400 36.80900
H  28.29300 -0.20000 36.33100
H  20.22200 0.99300 29.88700
H  20.74300 -0.18400 31.14300
H  20.02400 -0.78200 29.64200
H  19.63900 1.04100 27.52900
H  19.41100 -0.77200 27.51400
H  19.29100 0.20500 26.02400
H  26.57000 0.41800 24.55000
H  28.04800 -2.10100 24.66100
H  26.13100 -2.22000 23.50500
H  25.50200 -0.61000 22.99100
H  24.63500 -1.54000 24.18200
H  29.19800 0.60500 25.48400
H  28.62900 0.35700 23.81900
H  30.91500 -0.67500 25.38200
H  30.70800 -0.71900 23.49800
H  30.28100 -1.98400 24.43900
H  31.98800 -1.40600 28.28600
H  31.87100 -3.01700 28.82500
H  32.52100 -1.82300 29.99900
H  29.57400 -0.43600 33.93400
H  29.60300 -4.45100 35.99000
H  28.94500 -3.21600 37.04500
H  30.58200 -3.36800 37.07800
Mg 15.95700 53.27600 24.99300
C  17.45900 51.96000 27.79900
C  13.34500 54.34400 26.89500
C  14.42600 54.21300 22.14300
C  18.34500 51.45000 23.11100
N  15.43300 53.01400 27.06500
C  16.24900 52.70100 28.08300
C  15.70700 53.11900 29.42500
C  14.21400 53.58200 29.09200
C  14.25400 53.57500 27.54800
C  13.12400 52.49700 29.60600
C  16.64900 54.21200 30.06000
C  16.98800 53.99800 31.53200
H  16.03500 53.22000 32.46000
N  14.19100 54.37500 24.63400
C  13.25500 54.73700 25.55000
C  12.20900 55.41400 24.84900
C  12.54400 55.39500 23.47000
C  13.79900 54.65800 23.33000
C  11.00800 55.92900 25.63000
C  11.78900 55.88500 22.24700
O  12.16500 55.77400 21.06700
C  10.45200 56.46700 22.42800
N  16.28800 52.82000 22.90800
C  15.48100 53.30200 21.92500
C  16.12100 53.03900 20.55100
C  17.46700 52.20500 20.88800
C  17.40700 52.21600 22.39200
C  15.26900 52.31500 19.48200
C  18.77900 52.83900 20.22700
C  19.30100 52.18800 18.93200
N  17.48400 51.97500 25.33200
C  18.43100 51.39500 24.51400
C  19.40100 50.67100 25.17200
C  19.08600 50.95500 26.50100
C  17.85700 51.65100 26.52900
C  20.51400 49.82900 24.57500
C  19.58600 50.79400 27.80300
O  20.68800 50.36200 28.13600
C  18.50900 51.40800 28.77800
C  18.09300 50.42800 29.72400
O  17.14000 49.62500 29.54600
O  18.91000 50.59000 30.84900
C  18.43600 49.88200 32.03500
H  12.63000 54.78100 27.59500
H  14.00400 54.50700 21.18000
H  19.07800 50.92700 22.49400
H  15.59000 52.21700 30.02600
H  13.93600 54.55500 29.49700
H  12.62500 52.68200 30.55700
H  13.53200 51.49200 29.71700
H  12.42200 52.56600 28.77500
H  16.24300 55.22300 30.05600
H  17.61500 54.23900 29.55400
H  17.21000 54.99200 31.92100
H  17.99000 53.57100 31.56600
H  10.27700 55.13100 25.76300
H  10.53700 56.73900 25.07300
H  11.27500 56.37900 26.58500
H  10.12000 56.66400 21.40900
H  10.55400 57.42700 22.93500
H  9.66200 55.89900 22.92000
H  16.45500 54.01600 20.20100
H  17.26200 51.17600 20.59500
H  15.75100 51.71800 18.70800
H  14.96400 53.18500 18.89900
H  14.42800 51.81100 19.95900
H  19.54500 52.89900 20.99900
H  18.54300 53.85300 19.90500
H  18.57600 51.55500 18.42000
H  20.12500 51.55500 19.26300
H  19.63600 52.94800 18.22600
H  20.32800 49.31500 23.63200
H  20.46600 49.13200 25.41100
H  21.41000 50.44200 24.48000
H  18.98400 52.19600 29.36300
H  18.68900 48.83300 31.88000
H  17.36800 49.87600 32.25200
H  18.91200 50.29900 32.92200

