158

Mg 29.84200 58.23900 40.70900
C  26.83700 56.60900 39.39200
C  31.66600 55.90800 39.44000
C  32.40800 60.39200 40.92700
C  27.64200 60.87400 41.59600
N  29.26600 56.52100 39.55600
C  28.07400 55.98300 39.12500
C  28.26300 54.65600 38.36100
C  29.71200 54.33700 38.78400
C  30.33800 55.64000 39.24700
C  29.85400 53.10700 39.79400
C  28.09800 54.95800 36.83600
C  27.31300 53.91000 36.05600
H  27.48300 53.96900 34.54100
N  31.83500 58.19300 40.31400
C  32.40200 57.12800 39.81900
C  33.81500 57.30600 39.80300
C  34.09700 58.63500 40.26200
C  32.77700 59.16000 40.52900
C  34.82000 56.24400 39.34100
C  35.51500 59.15400 40.49200
O  36.51500 58.42100 40.46000
C  35.77100 60.71800 40.87900
N  30.02200 60.29300 41.24800
C  31.14900 61.02700 41.18400
C  30.97600 62.49200 41.58100
C  29.50200 62.48500 42.05000
C  28.96400 61.16500 41.52000
C  32.02400 63.14900 42.47200
C  28.80100 63.83500 41.54800
C  27.79000 64.40000 42.56100
N  27.65400 58.61500 40.66400
C  26.94900 59.80400 40.99900
C  25.48900 59.57000 40.84300
C  25.43400 58.37100 40.16700
C  26.75100 57.81000 40.09700
C  24.38700 60.49000 41.13400
C  24.50100 57.37400 39.52100
O  23.31900 57.53500 39.30100
C  25.36600 56.20500 39.22000
C  24.93100 55.00500 40.05800
O  25.50600 54.55000 41.02800
O  23.88200 54.43500 39.44100
C  23.03800 53.71500 40.37300
H  32.28700 55.03800 39.21400
H  33.16500 61.17200 41.03300
H  26.94600 61.62600 41.97200
H  27.49000 53.93700 38.63300
H  30.24900 54.08200 37.87000
H  28.89700 52.59300 39.89000
H  30.17200 53.52300 40.75000
H  30.66200 52.43000 39.51600
H  29.06100 54.95800 36.32600
H  27.78800 55.99700 36.72500
H  26.27200 54.08700 36.32700
H  27.66400 52.91600 36.33500
H  34.38900 55.50700 38.66300
H  35.26100 55.64800 40.14000
H  35.64600 56.65900 38.76200
H  36.79200 61.08600 40.77300
H  35.20500 60.92700 41.78600
H  35.32600 61.43000 40.18400
H  31.05600 62.95600 40.59800
H  29.43600 62.28600 43.12000
H  31.41200 63.52400 43.29200
H  32.55700 63.92900 41.92800
H  32.70900 62.40800 42.88200
H  28.19800 63.58100 40.67600
H  29.41300 64.65900 41.18100
H  27.86400 65.48400 42.65100
H  27.98100 63.90500 43.51400
H  26.79000 64.09000 42.25900
H  23.83500 60.15400 42.01200
H  23.79200 60.62200 40.23100
H  24.80700 61.48300 41.29400
H  25.26700 55.81300 38.20800
H  23.51100 52.82300 40.78300
H  22.08800 53.46100 39.90300
H  22.75400 54.37600 41.19100
Mg 0.79000 42.81500 25.35800
C  2.16000 43.04800 28.68600
C  -2.22300 42.26200 26.66400
C  -0.35600 42.35100 22.23000
C  3.88700 43.36100 24.16400
N  0.14400 42.60200 27.53000
C  0.75400 42.77100 28.70400
C  -0.22000 42.68300 29.82000
C  -1.57400 42.28400 29.09100
C  -1.18900 42.41700 27.61900
C  -2.05100 40.86100 29.47300
C  -0.40700 44.03400 30.50700
C  -1.28800 44.00600 31.82900
H  -2.26200 42.83600 32.09800
N  -1.10900 42.34700 24.57800
C  -2.22000 42.15300 25.24600
C  -3.30300 41.90200 24.27500
C  -2.65800 41.89400 22.97900
C  -1.27800 42.21700 23.23500
C  -4.74300 41.64700 24.78800
C  -3.27900 41.65400 21.66400
O  -2.67800 41.65500 20.56000
C  -4.72800 41.37300 21.62500
N  1.60900 42.79700 23.48000
C  0.95700 42.59400 22.35300
C  1.88500 42.65400 21.12200
C  3.12100 43.29500 21.75300
C  2.90000 43.06200 23.22400
C  2.11400 41.40000 20.26100
C  3.40100 44.78600 21.39300
C  2.94300 45.98500 22.28600
N  2.59800 43.25900 26.20500
C  3.77500 43.49600 25.58000
C  4.88900 43.81300 26.54700
C  4.25700 43.61700 27.76100
C  2.88800 43.30900 27.51900
C  6.40000 44.18100 26.20500
C  4.45300 43.61100 29.19600
O  5.42800 43.77700 29.92200
C  3.06400 43.22400 29.83600
C  3.24500 41.99500 30.57100
O  3.88700 41.00600 30.20500
O  2.55700 42.12000 31.75100
C  2.44200 40.89100 32.58700
H  -3.18500 42.00900 27.11600
H  -0.58800 42.26600 21.16700
H  4.82500 43.73600 23.75000
H  0.06800 41.97700 30.59900
H  -2.32900 43.03200 29.33100
H  -3.12200 40.89100 29.67300
H  -1.46500 40.34100 30.23000
H  -1.82800 40.26000 28.59100
H  -0.92300 44.71700 29.83300
H  0.60200 44.35500 30.76700
H  -2.05400 44.76800 31.68800
H  -0.75300 44.27700 32.73900
H  -5.40300 42.42900 24.41100
H  -4.75900 41.62400 25.87800
H  -5.02600 40.67000 24.39800
H  -4.95200 40.46900 22.19200
H  -5.02000 41.11000 20.60800
H  -5.35600 42.16300 22.03600
H  1.30900 43.35200 20.51500
H  4.01500 42.73200 21.48600
H  3.15000 41.19000 19.99600
H  1.54800 41.52000 19.33700
H  1.85300 40.51100 20.83500
H  3.09500 45.00700 20.37000
H  4.49000 44.78200 21.36300
H  2.54800 45.74300 23.27300
H  2.25200 46.57700 21.68500
H  3.76300 46.68700 22.43500
H  7.22600 43.50100 26.41400
H  6.54300 45.17400 26.63000
H  6.56300 44.40500 25.15100
H  2.73300 43.97400 30.55300
H  2.56300 41.24400 33.61100
H  3.12400 40.05900 32.41000
H  1.39200 40.61200 32.50900

