158

Mg -1.09100 7.00300 27.00500
C  0.22200 9.34000 29.24300
C  -1.52900 4.69300 29.41000
C  -2.11300 4.81800 24.57600
C  -0.36600 9.39000 24.42000
N  -0.63300 7.01900 29.02400
C  -0.20500 8.11700 29.79700
C  -0.38500 7.73800 31.28100
C  -0.38000 6.23200 31.20700
C  -0.83100 5.94600 29.77700
C  0.84900 5.32500 31.49800
C  -1.71800 8.33000 31.89000
C  -1.75400 8.71600 33.30600
H  -0.66700 8.04100 34.21600
N  -1.87400 5.02800 27.01200
C  -2.00000 4.27400 28.13600
C  -2.69900 3.04200 27.78400
C  -2.73500 3.03900 26.33900
C  -2.26400 4.35300 25.90600
C  -2.99100 2.01000 28.80800
C  -3.30800 2.06700 25.34900
O  -3.40400 2.31400 24.16400
C  -3.75900 0.71300 25.86100
N  -1.02100 7.02500 24.80000
C  -1.50400 6.00700 24.06600
C  -1.60100 6.35900 22.57400
C  -1.05100 7.86300 22.51400
C  -0.79300 8.14400 24.03000
C  -0.69800 5.45600 21.57400
C  -2.00800 8.92200 21.81900
C  -1.47700 9.77400 20.69400
N  -0.29900 9.01000 26.80600
C  -0.11600 9.83500 25.73500
C  0.28900 11.12900 26.15800
C  0.51200 10.97000 27.53700
C  0.15400 9.65400 27.87100
C  0.69600 12.31500 25.30100
C  0.93700 11.61100 28.70700
O  1.37000 12.75000 28.81800
C  0.71800 10.63100 29.90800
C  1.93700 10.50400 30.78100
O  2.70000 9.56000 30.79100
O  2.07200 11.64200 31.56300
C  3.12000 11.67100 32.53700
H  -1.58800 4.04700 30.28900
H  -2.35400 4.14500 23.75000
H  -0.21700 10.12900 23.62900
H  0.46000 8.18700 31.80300
H  -1.13600 5.84300 31.88900
H  1.71600 5.93000 31.76300
H  1.13900 4.84000 30.56600
H  0.69700 4.55600 32.25500
H  -2.62700 7.74400 31.76000
H  -1.84100 9.31700 31.44400
H  -2.76000 8.66100 33.72000
H  -1.56200 9.78800 33.35600
H  -2.26500 1.20100 28.88900
H  -3.93100 1.49600 28.60500
H  -3.15800 2.44900 29.79100
H  -4.32500 0.12700 25.13700
H  -4.37500 0.85000 26.74900
H  -2.87600 0.17800 26.21100
H  -2.65100 6.27900 22.29400
H  -0.05100 7.99800 22.10200
H  0.01500 6.01500 20.96900
H  -1.38800 4.93000 20.91400
H  -0.14900 4.71900 22.16100
H  -2.31100 9.56400 22.64700
H  -2.91100 8.40600 21.49400
H  -2.21700 9.75900 19.89400
H  -0.47300 9.46400 20.40300
H  -1.47200 10.77600 21.12300
H  0.24200 12.12500 24.32800
H  1.78600 12.32200 25.28200
H  0.24200 13.17200 25.79800
H  -0.11400 11.02800 30.48900
H  4.12400 11.62500 32.11600
H  2.99400 10.87900 33.27500
H  2.96700 12.63600 33.01800
Mg 47.83500 16.22800 27.72900
C  46.09100 16.35200 30.74900
C  50.37100 17.96300 29.21900
C  49.31900 16.60700 24.80200
C  45.01300 14.95200 26.19400
N  48.12000 17.04600 29.68500
C  47.28900 16.93600 30.78400
C  47.92300 17.63100 32.01700
C  49.20200 18.26600 31.46900
C  49.24200 17.69300 30.03500
C  49.14500 19.80300 31.57100
C  48.18600 16.56900 33.13900
C  47.61500 16.88900 34.51600
H  47.46000 18.37900 34.82700
N  49.65600 17.08600 27.12600
C  50.55200 17.70900 27.88900
C  51.74900 17.94100 27.13000
C  51.52900 17.59300 25.81000
C  50.10300 17.06600 25.85000
C  52.94600 18.74500 27.78900
C  52.36600 17.67900 24.55800
O  51.96200 17.24500 23.49600
C  53.79800 18.18600 24.64600
N  47.14200 15.99600 25.69200
C  48.02400 16.07300 24.70200
C  47.33100 15.75400 23.35400
C  46.02800 15.08200 23.89800
C  45.99400 15.39500 25.34900
C  47.14200 17.03200 22.46200
C  45.83000 13.57600 23.65800
C  44.73700 13.25100 22.72600
N  45.89700 15.75000 28.28100
C  44.92700 15.13500 27.61200
C  43.77700 14.84900 28.49400
C  44.16600 15.33700 29.72900
C  45.47200 15.78400 29.60100
C  42.51000 14.16300 28.08900
C  43.75700 15.49300 31.11100
O  42.76700 15.21300 31.75200
C  45.02600 16.16100 31.81200
C  44.54000 17.43500 32.45600
O  44.48200 18.54700 31.94300
O  44.07700 17.16900 33.72900
C  43.44800 18.20500 34.51800
H  51.24900 18.27300 29.78900
H  49.78000 16.71300 23.81700
H  44.17100 14.36600 25.81900
H  47.17600 18.35300 32.34900
H  50.08500 17.93500 32.01600
H  50.11700 20.25600 31.77100
H  48.52800 19.88000 32.46600
H  48.58600 20.14300 30.69900
H  49.24300 16.39300 33.33600
H  47.67600 15.67800 32.77300
H  48.29000 16.34500 35.17700
H  46.67600 16.33800 34.58400
H  53.83200 18.48800 27.20700
H  53.16800 18.28500 28.75100
H  52.77500 19.82000 27.85500
H  54.34800 17.40300 25.16600
H  53.82500 19.15100 25.15300
H  54.16400 18.23700 23.62000
H  47.94400 15.02400 22.82500
H  45.23600 15.63900 23.39600
H  46.19800 16.79900 21.96900
H  47.81700 17.26500 21.63900
H  46.92400 17.88600 23.10300
H  45.59000 13.09000 24.60300
H  46.75600 13.17900 23.24100
H  44.17100 12.33900 22.91400
H  45.22700 12.92700 21.80700
H  44.13500 14.09400 22.38800
H  42.58100 13.11900 27.78600
H  41.88800 14.71400 27.38300
H  41.91600 14.13100 29.00200
H  45.37900 15.42200 32.53100
H  43.49800 17.91100 35.56700
H  42.40500 18.05700 34.23800
H  43.70800 19.21300 34.19500

