158

Mg 17.57800 51.05600 26.00700
C  19.35200 49.89900 28.95500
C  15.21400 52.26600 28.04400
C  16.12300 51.91200 23.20200
C  20.21400 49.36400 24.08400
N  17.30000 50.99200 28.27400
C  18.16300 50.53300 29.24100
C  17.63900 50.97600 30.55700
C  16.18500 51.43400 30.36300
C  16.17700 51.59200 28.85100
C  15.07200 50.54000 30.82600
C  18.58300 52.03000 31.23900
C  18.55300 52.12300 32.75100
H  17.57600 51.27000 33.53900
N  15.89900 52.04900 25.62000
C  14.99900 52.51800 26.61900
C  13.95700 53.26300 25.96500
C  14.14300 53.13000 24.54500
C  15.44100 52.34800 24.35300
C  12.92200 53.92800 26.73600
C  13.38000 53.82300 23.41800
O  13.86000 53.89200 22.31800
C  12.11200 54.54500 23.63600
N  18.05800 50.67600 23.99500
C  17.27800 51.17000 23.03300
C  17.69400 50.72900 21.62700
C  19.08300 50.09700 21.86600
C  19.15200 50.06700 23.40000
C  16.62100 49.90500 20.79000
C  20.26200 50.82700 21.05400
C  20.50300 52.34800 21.44600
N  19.46300 49.86000 26.36300
C  20.39700 49.31400 25.52400
C  21.48500 48.77300 26.31300
C  21.11300 49.03200 27.62100
C  19.93600 49.70800 27.64200
C  22.56100 47.97000 25.86000
C  21.44500 48.64000 29.01100
O  22.39400 48.00000 29.49700
C  20.37900 49.26400 29.91600
C  19.74700 48.22000 30.75300
O  18.77600 47.52800 30.42700
O  20.39000 48.26300 31.97900
C  19.76900 47.44800 33.05300
H  14.45300 52.71800 28.68400
H  15.51000 52.05300 22.31000
H  21.04900 48.99200 23.48700
H  17.65700 50.07100 31.16500
H  16.00800 52.40600 30.82300
H  15.39500 49.81200 31.57100
H  14.57800 50.05700 29.98300
H  14.29600 51.17700 31.25100
H  18.43000 53.03600 30.84800
H  19.60400 51.80100 30.93300
H  18.37800 53.16800 33.00600
H  19.52500 51.86300 33.16900
H  12.00200 53.34800 26.67000
H  12.64000 54.90700 26.35000
H  13.16400 54.24200 27.75200
H  11.53600 53.94900 24.34400
H  11.63000 54.51900 22.65900
H  12.36300 55.59700 23.77100
H  17.74400 51.72300 21.18400
H  19.16500 49.08600 21.46800
H  15.96000 49.33000 21.43800
H  17.15100 49.25200 20.09600
H  15.90600 50.58400 20.32700
H  20.11600 50.89500 19.97600
H  21.19100 50.29400 21.25600
H  20.28500 53.01900 20.61600
H  21.50800 52.48100 21.84500
H  19.82200 52.60800 22.25600
H  22.98100 48.57600 25.05700
H  22.08000 47.19200 25.26800
H  23.28000 47.74100 26.64600
H  20.94500 49.95200 30.54400
H  20.11400 46.41500 33.05700
H  18.68900 47.37200 32.92300
H  20.10500 47.83300 34.01600
Mg 10.71100 47.15800 25.52500
C  8.25800 47.61000 28.08300
C  13.06300 48.34900 27.60700
C  12.81500 46.85900 22.90300
C  8.05800 46.34100 23.31300
N  10.53300 48.00800 27.59700
C  9.52100 47.98200 28.51800
C  10.05200 48.38200 29.89400
C  11.43700 49.03500 29.44500
C  11.72700 48.35400 28.16100
C  11.49000 50.58500 29.29000
C  10.06000 47.39300 31.09800
C  10.19700 48.20200 32.40000
H  9.26000 47.86900 33.50700
N  12.72100 47.50300 25.27900
C  13.52900 48.00700 26.30600
C  14.89900 47.93500 25.84100
C  14.88500 47.56600 24.44700
C  13.40400 47.33600 24.11600
C  16.03300 48.36900 26.71200
C  15.99200 47.31900 23.58700
O  15.84100 47.03800 22.37800
C  17.26500 47.29900 24.12900
N  10.45900 46.86100 23.35700
C  11.47400 46.74300 22.51200
C  11.04600 46.00700 21.19400
C  9.48500 45.86800 21.37800
C  9.32500 46.36200 22.77300
C  11.46300 46.70100 19.89200
C  8.97200 44.38300 21.20200
C  7.57000 44.40800 20.48700
N  8.63300 47.04500 25.57900
C  7.65300 46.73800 24.63800
C  6.35400 46.84900 25.21900
C  6.57400 47.09300 26.56500
C  7.96300 47.21400 26.76300
C  5.12800 46.58000 24.55000
C  5.89500 47.18900 27.86400
O  4.69700 47.09500 28.12200
C  6.96800 47.64200 28.91900
C  6.86500 46.62200 29.95300
O  7.29200 45.51200 29.80100
O  6.04600 46.97700 30.93200
C  6.15100 46.10400 32.13300
H  13.83900 48.67500 28.30200
H  13.49400 46.58800 22.09200
H  7.26600 45.96400 22.66400
H  9.35100 49.16300 30.18900
H  12.16600 48.80600 30.22200
H  12.38200 50.89500 29.83400
H  10.66100 51.08000 29.79600
H  11.71800 51.00100 28.30800
H  11.00600 46.86700 30.96900
H  9.17100 46.76500 31.04200
H  9.89700 49.23200 32.21000
H  11.26800 48.26100 32.59200
H  15.66600 48.64000 27.70200
H  16.57000 49.22100 26.29700
H  16.82400 47.63400 26.85800
H  17.16700 46.66200 25.00700
H  17.58700 48.31200 24.37200
H  17.90700 46.92300 23.33300
H  11.50000 45.01700 21.16000
H  8.91100 46.60000 20.81100
H  12.05400 45.96000 19.35400
H  12.16100 47.53900 19.87900
H  10.55500 47.00200 19.37000
H  8.75500 43.85500 22.13000
H  9.58500 43.62200 20.71900
H  7.72700 44.27400 19.41700
H  7.08900 45.38400 20.54200
H  6.92900 43.67000 20.97000
H  4.21000 46.82800 25.08200
H  5.07100 45.49500 24.45500
H  5.13300 47.06200 23.57300
H  6.82100 48.62300 29.37000
H  7.09900 45.56900 32.09700
H  5.29500 45.43300 32.06500
H  6.04600 46.78500 32.97800

