158

Mg 23.90100 -6.24700 45.64400
C  26.51300 -4.01500 44.52900
C  21.82300 -4.53000 43.63700
C  21.74200 -8.81100 46.01000
C  26.40300 -8.09800 47.35900
N  24.20600 -4.52000 44.29400
C  25.24200 -3.69800 44.06900
C  24.78300 -2.40500 43.30300
C  23.21200 -2.50300 43.30900
C  23.09900 -3.93300 43.76400
C  22.52800 -1.55200 44.28300
C  25.38500 -2.31800 41.89000
C  25.45600 -1.02600 41.11800
H  24.76400 -0.91200 39.75400
N  22.09400 -6.52900 44.93300
C  21.31900 -5.68900 44.15600
C  20.03300 -6.25500 43.90500
C  19.94400 -7.49800 44.52800
C  21.34300 -7.68500 45.18300
C  18.85500 -5.52800 43.21800
C  18.71800 -8.35500 44.62400
O  17.65800 -7.89100 44.24700
C  18.74900 -9.74800 45.05700
N  24.11900 -8.28400 46.41400
C  23.00300 -9.05500 46.60100
C  23.29400 -10.32600 47.42700
C  24.73700 -10.03800 48.05000
C  25.15600 -8.71800 47.22800
C  22.23800 -10.73300 48.56900
C  25.54500 -11.31000 47.66800
C  26.58000 -11.70500 48.83700
N  25.99000 -5.99100 46.14600
C  26.85600 -6.83300 46.78500
C  28.20100 -6.27900 46.82300
C  28.05600 -5.15700 45.93700
C  26.73800 -5.05800 45.53400
C  29.47800 -6.79200 47.42400
C  28.76400 -4.01700 45.38800
O  29.85900 -3.61300 45.71400
C  27.76700 -3.20600 44.46800
C  27.60300 -1.87800 45.00700
O  27.53200 -1.52000 46.23000
O  27.75200 -1.00200 44.00500
C  27.56900 0.43600 44.40700
H  21.09400 -3.97200 43.04500
H  21.12200 -9.63700 46.36700
H  27.25700 -8.58900 47.83000
H  25.14300 -1.54600 43.86900
H  22.78600 -2.33000 42.32100
H  21.56900 -1.20200 43.90200
H  23.16500 -0.68500 44.45500
H  22.28600 -2.07900 45.20600
H  24.96400 -3.04900 41.19900
H  26.42600 -2.63200 41.97100
H  26.47500 -0.69000 40.92400
H  25.04100 -0.24300 41.75300
H  18.60000 -6.11500 42.33600
H  19.22300 -4.57400 42.84100
H  18.01400 -5.41400 43.90200
H  17.92500 -10.30000 44.60400
H  18.62800 -9.93500 46.12400
H  19.65100 -10.19200 44.63700
H  23.34900 -11.10100 46.66200
H  24.74000 -9.81600 49.11700
H  22.82600 -10.71000 49.48800
H  21.86200 -11.75600 48.56800
H  21.39000 -10.05200 48.50000
H  26.16900 -11.07800 46.80500
H  24.90900 -12.19100 47.58500
H  26.51600 -12.78000 49.00600
H  26.56600 -11.11400 49.75200
H  27.57000 -11.43700 48.46800
H  29.94000 -7.49000 46.72500
H  29.28200 -7.24700 48.39400
H  30.25400 -6.02900 47.49600
H  28.21900 -3.18400 43.47600
H  26.61700 0.50800 44.93300
H  27.40300 0.92500 43.44700
H  28.48400 0.73300 44.92000
Mg -5.79200 25.26100 26.71800
C  -3.84200 26.60800 29.23500
C  -7.30000 23.15400 29.01800
C  -7.20000 23.59900 24.17200
C  -3.86300 27.20800 24.34600
N  -5.34900 24.73400 28.78600
C  -4.67600 25.56800 29.64700
C  -5.05300 25.25700 31.11900
C  -5.90300 23.95300 30.99200
C  -6.25100 23.93000 29.49000
C  -5.22200 22.62600 31.42900
C  -5.83600 26.39100 31.76600
C  -5.83200 26.55400 33.31600
H  -5.81800 25.32700 34.19500
N  -7.07900 23.63500 26.59800
C  -7.70500 22.95300 27.66600
C  -8.68500 21.97300 27.08800
C  -8.70700 22.23300 25.65600
C  -7.65700 23.21300 25.44300
C  -9.50400 21.06100 27.87800
C  -9.57200 21.50300 24.53100
O  -9.51300 21.81200 23.35600
C  -10.46100 20.36200 24.83600
N  -5.52500 25.43500 24.62300
C  -6.22900 24.62700 23.75500
C  -5.73500 24.76500 22.27800
C  -4.78900 25.93200 22.37600
C  -4.75200 26.25100 23.87000
C  -5.18400 23.48900 21.53800
C  -5.14000 27.22900 21.50700
C  -4.38500 27.29500 20.14100
N  -4.14800 26.73400 26.75000
C  -3.52900 27.46900 25.75300
C  -2.55800 28.34300 26.39100
C  -2.62100 28.05100 27.78900
C  -3.59900 27.07800 27.91200
C  -1.63100 29.37400 25.67600
C  -2.13000 28.24300 29.14500
O  -1.20100 28.96600 29.55300
C  -3.03100 27.44300 30.12000
C  -2.15600 26.60100 30.94800
O  -1.58500 25.54400 30.66600
O  -1.97200 27.18300 32.17000
C  -1.13700 26.42800 33.06100
H  -7.91000 22.52100 29.66600
H  -7.56400 22.94100 23.38000
H  -3.21000 27.74200 23.65200
H  -4.10500 25.16200 31.64900
H  -6.85800 24.06200 31.50800
H  -5.01600 22.08600 30.50500
H  -5.99700 22.06400 31.95100
H  -4.37400 22.77500 32.09700
H  -6.89500 26.24100 31.55500
H  -5.49700 27.26900 31.21500
H  -6.69500 27.18200 33.54000
H  -4.97300 27.18900 33.53500
H  -10.56500 21.03600 27.63100
H  -9.50600 21.19600 28.95900
H  -8.99200 20.09800 27.85100
H  -9.77800 19.63700 25.27900
H  -10.83300 20.00800 23.87500
H  -11.36000 20.61400 25.39800
H  -6.68100 24.99000 21.78600
H  -3.81300 25.53700 22.09600
H  -4.81800 22.86500 22.35400
H  -4.27300 23.70200 20.97800
H  -5.83000 23.09100 20.75600
H  -4.90500 28.14900 22.04100
H  -6.18800 27.28300 21.21000
H  -3.64800 26.50000 20.25800
H  -3.83900 28.23800 20.09500
H  -5.02600 27.08500 19.28500
H  -2.16900 29.83200 24.84600
H  -0.73500 28.85500 25.33500
H  -1.43900 30.23300 26.31800
H  -3.65900 28.13700 30.67800
H  -1.27300 26.92000 34.02400
H  -0.05700 26.53400 32.95200
H  -1.25900 25.34500 33.06500

