158

Mg 2.56300 -1.16500 43.72500
C  6.00900 -0.39500 43.30300
C  1.85700 1.98200 42.21100
C  -0.44300 -2.20100 43.02500
C  3.49200 -4.40200 44.77600
N  3.77100 0.57500 42.80600
C  5.13700 0.66800 42.80700
C  5.66700 1.91300 42.10700
C  4.36500 2.71000 41.85900
C  3.23800 1.79900 42.38400
C  4.30300 4.11700 42.36700
C  6.47200 1.60300 40.75400
C  7.28100 2.77400 40.16500
H  6.90700 3.23800 38.73000
N  0.87800 -0.17500 43.06200
C  0.78600 1.10700 42.45300
C  -0.51900 1.43100 42.19200
C  -1.27200 0.21000 42.39100
C  -0.30200 -0.80600 42.88500
C  -0.99400 2.73100 41.59600
C  -2.65600 -0.03700 41.96900
O  -3.35600 0.76000 41.37900
C  -3.36500 -1.40700 42.30800
N  1.67000 -3.07000 43.87600
C  0.38600 -3.27800 43.49500
C  0.02400 -4.81700 43.57400
C  1.16200 -5.35500 44.44500
C  2.16100 -4.24500 44.41800
C  -1.41800 -5.18300 43.95900
C  1.71100 -6.79800 44.04400
C  1.75100 -7.85900 45.18800
N  4.32300 -2.18000 44.08600
C  4.57600 -3.44000 44.55600
C  5.96200 -3.67300 44.74100
C  6.55900 -2.52900 44.21300
C  5.58400 -1.58700 43.88700
C  6.58900 -4.92200 45.31900
C  7.85700 -1.86500 43.96500
O  8.98900 -2.20300 44.19600
C  7.52700 -0.53300 43.26100
C  8.48700 0.52100 43.79600
O  9.60300 0.81000 43.30400
O  7.99000 1.09600 44.99500
C  8.93400 1.99000 45.72300
H  1.54900 2.93900 41.78500
H  -1.42200 -2.64000 42.82000
H  3.79600 -5.36200 45.19800
H  6.27300 2.55500 42.74700
H  4.20400 2.86900 40.79200
H  3.26000 4.42800 42.30700
H  4.90200 4.74100 41.70400
H  4.82500 4.09000 43.32400
H  5.70300 1.39200 40.01100
H  7.10700 0.72300 40.85500
H  8.37000 2.73100 40.20100
H  6.98400 3.66100 40.72500
H  -2.02200 3.01800 41.81900
H  -0.58100 2.88500 40.59900
H  -0.42400 3.46400 42.16600
H  -4.42700 -1.17300 42.23700
H  -3.42300 -1.78700 43.32800
H  -3.12000 -2.17800 41.57800
H  0.26100 -5.19100 42.57800
H  0.79700 -5.40000 45.47100
H  -1.41300 -6.03200 44.64300
H  -2.02400 -5.50900 43.11400
H  -1.99800 -4.32700 44.30300
H  2.69600 -6.61000 43.61800
H  1.15000 -7.33400 43.27800
H  2.83000 -7.95900 45.30700
H  1.10500 -8.71100 44.98100
H  1.33400 -7.32800 46.04400
H  6.34300 -5.87500 44.85000
H  6.09200 -4.93000 46.28900
H  7.67300 -4.83600 45.39700
H  7.80200 -0.73100 42.22500
H  8.70800 2.99500 45.36800
H  9.99300 1.73500 45.74500
H  8.61500 1.93600 46.76400
Mg 17.18400 52.18400 24.59900
C  18.89000 50.95600 27.31200
C  14.48800 53.04000 26.52000
C  15.36900 53.02300 21.70200
C  19.65500 50.86300 22.47700
N  16.74900 51.96200 26.68900
C  17.67900 51.51100 27.63300
C  17.11600 51.86100 29.00000
C  15.60100 52.23200 28.71100
C  15.59800 52.45800 27.19100
C  14.55100 51.19100 29.22900
C  17.89200 52.99100 29.68700
C  17.49900 53.71000 31.00200
H  16.58800 52.92900 32.01600
N  15.17600 52.94800 24.21900
C  14.24800 53.23100 25.11500
C  13.06500 53.76100 24.46000
C  13.34400 53.92600 23.09100
C  14.70400 53.30500 22.91800
C  11.82900 54.05300 25.22600
C  12.45500 54.50700 22.04900
O  12.80800 54.67200 20.86500
C  11.00000 54.83400 22.36700
N  17.46000 51.98300 22.41800
C  16.60100 52.43200 21.45800
C  17.22800 52.39200 20.10000
C  18.61900 51.90800 20.32300
C  18.61700 51.54300 21.84300
C  16.39700 51.35400 19.16400
C  19.74800 52.87900 19.98600
C  21.10000 52.20300 19.80300
N  19.04800 51.20600 24.81800
C  19.89300 50.68500 23.87200
C  20.96000 49.91600 24.54600
C  20.69200 50.16800 25.98200
C  19.40400 50.77000 26.03200
C  22.08800 49.09900 23.88900
C  21.14800 49.94100 27.25500
O  22.14300 49.36600 27.62300
C  20.01800 50.52100 28.22900
C  19.64500 49.59200 29.30900
O  19.17500 48.45400 29.21400
O  19.86200 50.19300 30.53200
C  19.24200 49.53000 31.72400
H  13.67700 53.28400 27.21000
H  14.76500 53.17800 20.80600
H  20.47400 50.49400 21.85600
H  17.23700 51.02700 29.69100
H  15.25400 53.18800 29.10200
H  13.67700 51.77900 29.50700
H  14.91500 50.56600 30.04400
H  14.21600 50.54000 28.42100
H  17.93700 53.79800 28.95500
H  18.95100 52.75300 29.78900
H  17.01000 54.65700 30.77400
H  18.45900 53.98200 31.44200
H  11.60400 55.09700 25.00800
H  11.99500 54.19200 26.29500
H  11.04700 53.35800 24.92200
H  10.49600 54.20600 23.10300
H  10.38300 54.65100 21.48700
H  10.99800 55.85900 22.73600
H  17.24800 53.37600 19.63200
H  18.84000 50.95700 19.83700
H  17.01300 50.67700 18.57100
H  15.89900 51.92900 18.38400
H  15.70800 50.78200 19.78500
H  19.78600 53.60900 20.79400
H  19.56100 53.34100 19.01700
H  21.85300 52.55600 20.50800
H  21.44900 52.45200 18.80100
H  21.01900 51.11600 19.79900
H  22.74700 49.83500 23.42900
H  21.73800 48.37100 23.15800
H  22.63900 48.49700 24.61200
H  20.42400 51.43200 28.66700
H  19.24700 48.44500 31.62000
H  18.19800 49.83700 31.67500
H  19.74000 49.73400 32.67200

