158

Mg 23.90700 -5.31400 45.61900
C  26.12900 -3.07600 44.06000
C  21.54700 -4.16400 43.61900
C  22.25900 -8.19800 46.17600
C  26.83100 -6.70800 47.18400
N  23.97600 -3.97800 43.83400
C  24.83700 -3.03600 43.54900
C  24.29100 -1.99000 42.58300
C  22.73100 -2.03800 42.87700
C  22.73500 -3.47200 43.52200
C  22.17000 -0.90800 43.81700
C  24.59400 -2.23800 41.12300
C  25.58400 -1.29800 40.44400
H  25.46000 -1.31000 38.94300
N  22.01200 -6.03200 45.11000
C  21.13700 -5.43000 44.23500
C  19.93600 -6.19700 44.19000
C  20.09500 -7.28700 45.04300
C  21.46900 -7.25100 45.49900
C  18.72700 -5.67700 43.48900
C  18.91900 -8.25400 45.40700
O  17.79200 -8.15100 44.93000
C  19.05000 -9.40600 46.32900
N  24.48500 -7.17600 46.49000
C  23.63300 -8.23200 46.63500
C  24.17800 -9.32900 47.46800
C  25.59000 -8.77600 47.90000
C  25.66500 -7.45900 47.14000
C  23.22100 -9.77600 48.59400
C  26.74900 -9.83300 47.73700
C  27.42800 -10.39100 49.10700
N  26.02700 -4.89100 45.82500
C  27.06500 -5.50600 46.50000
C  28.34800 -4.75100 46.31500
C  28.03100 -3.81400 45.34500
C  26.62600 -3.89000 45.16900
C  29.69600 -5.01100 46.90100
C  28.47200 -2.77300 44.48400
O  29.60600 -2.40200 44.33500
C  27.28700 -2.25900 43.66600
C  27.09500 -0.83700 43.86800
O  26.49200 -0.28000 44.77800
O  27.73600 -0.13000 42.94900
C  27.71300 1.37600 42.85400
H  20.70000 -3.78800 43.04200
H  21.68500 -9.12200 46.27600
H  27.69000 -7.16800 47.67700
H  24.58900 -0.96800 42.81800
H  22.16800 -2.02400 41.94400
H  23.06100 -0.55000 44.33200
H  21.43000 -1.38700 44.45700
H  21.67400 -0.14900 43.21100
H  23.71100 -2.27800 40.48500
H  25.12000 -3.19200 41.12700
H  26.64400 -1.48100 40.61700
H  25.43900 -0.34000 40.94400
H  18.18600 -6.49400 43.01200
H  18.85900 -4.98300 42.65900
H  18.10400 -5.23200 44.26500
H  18.02800 -9.68800 46.58200
H  19.61800 -9.19400 47.23400
H  19.51100 -10.18000 45.71400
H  24.32900 -10.11800 46.73100
H  25.47700 -8.34700 48.89600
H  22.68800 -8.93600 49.04000
H  23.74700 -10.29900 49.39300
H  22.53000 -10.44900 48.08800
H  27.42600 -9.36200 47.02500
H  26.30100 -10.67900 47.21600
H  26.85100 -10.02600 49.95700
H  28.51100 -10.28900 49.18600
H  27.22000 -11.45600 49.20700
H  29.76600 -4.61900 47.91600
H  30.40500 -4.36900 46.38000
H  29.89200 -6.07900 46.80700
H  27.59400 -2.33000 42.62200
H  28.23100 1.81800 43.70500
H  26.65200 1.62300 42.83200
H  28.22300 1.65700 41.93200
Mg 36.62800 49.44200 25.12300
C  36.39200 47.63400 28.11600
C  35.15200 52.15900 26.75100
C  36.15500 51.05300 22.21000
C  37.77000 46.69100 23.55900
N  35.80700 49.77900 27.23500
C  35.92100 48.94300 28.29000
C  35.53400 49.62700 29.60200
C  35.12000 51.05000 29.15900
C  35.34000 51.00100 27.57200
C  33.59100 51.43700 29.55200
C  36.76800 49.72300 30.61400
C  36.51900 49.21000 32.05100
H  35.03600 49.15700 32.47800
N  35.79500 51.33500 24.64000
C  35.38100 52.31400 25.41900
C  35.30900 53.61900 24.70700
C  35.41700 53.26900 23.32200
C  35.76800 51.82300 23.35100
C  34.97100 54.92700 25.33700
C  35.30000 54.12200 22.05600
O  35.48900 53.71700 20.93400
C  35.08100 55.69200 22.17700
N  36.83700 48.92300 23.19900
C  36.63300 49.75700 22.14900
C  37.02300 49.09700 20.83400
C  37.82700 47.83000 21.33100
C  37.54700 47.82000 22.79200
C  35.82600 48.81900 19.84000
C  39.34800 47.78800 20.87200
C  40.25700 48.66600 21.68700
N  37.12400 47.61800 25.72700
C  37.64900 46.61100 24.95800
C  37.94400 45.41700 25.85100
C  37.48500 45.83300 27.06000
C  36.98100 47.13900 26.92500
C  38.61600 44.08500 25.54500
C  37.33100 45.31400 28.42300
O  37.70900 44.30200 29.00000
C  36.62000 46.50500 29.17500
C  35.33900 46.06100 29.81600
O  34.24900 46.09200 29.28500
O  35.59000 45.58400 31.06100
C  34.58100 44.66200 31.50500
H  34.74000 53.06700 27.19700
H  36.13700 51.49100 21.21000
H  38.24800 45.86900 23.02200
H  34.75300 48.93300 29.91300
H  35.74600 51.80300 29.63700
H  33.05900 50.64300 30.07400
H  32.93500 51.70100 28.72200
H  33.65200 52.18400 30.34300
H  37.12600 50.73900 30.77800
H  37.57200 49.17300 30.12500
H  37.00800 49.82200 32.80900
H  36.84500 48.17300 32.12200
H  34.00800 55.19800 24.90500
H  35.82700 55.55500 25.09000
H  34.95800 54.93200 26.42700
H  34.08400 55.78100 22.60700
H  35.01000 56.11900 21.17700
H  35.74100 56.26400 22.82800
H  37.72500 49.84200 20.45900
H  37.37900 46.91000 20.95600
H  34.87500 49.30400 20.06100
H  35.57100 47.76100 19.88400
H  36.17900 49.04700 18.83500
H  39.32800 48.07700 19.82100
H  39.70000 46.75700 20.92300
H  40.76100 49.33200 20.98700
H  41.11100 48.09600 22.05300
H  39.79500 49.26500 22.47200
H  37.99100 43.39200 24.98100
H  39.01900 43.54200 26.40000
H  39.45600 44.34200 24.89900
H  37.40400 46.73400 29.89700
H  33.91900 44.21500 30.76300
H  34.04700 45.22200 32.27200
H  35.17600 43.95200 32.08100

