158

Mg 53.67500 24.31600 45.12600
C  50.65900 25.98200 44.28500
C  52.25000 21.57000 43.69900
C  56.65300 22.76600 45.38800
C  54.95400 27.18400 46.32000
N  51.73000 23.87300 44.01600
C  50.77400 24.76800 43.65500
C  49.71700 24.06300 42.74400
C  49.91600 22.57300 43.20500
C  51.37300 22.66800 43.59500
C  48.91500 22.21900 44.28000
C  50.03500 24.20400 41.22200
C  48.80900 24.48500 40.27900
H  47.97800 23.32800 39.75800
N  54.35600 22.41500 44.63800
C  53.65200 21.46700 43.98500
C  54.42800 20.26300 43.91100
C  55.74100 20.53700 44.42600
C  55.66600 21.94500 44.80200
C  53.89200 18.98300 43.32200
C  56.90900 19.52800 44.52700
O  56.72100 18.34300 44.29400
C  58.25900 20.06900 45.12300
N  55.64500 25.03800 45.41600
C  56.63100 24.16000 45.68500
C  57.83200 24.91400 46.39600
C  57.20200 26.37500 46.57700
C  55.80600 26.15800 46.08600
C  58.48700 24.18400 47.72700
C  57.96500 27.59600 45.92500
C  58.63200 28.53900 46.98400
N  52.93100 26.19800 45.46800
C  53.54700 27.23500 46.10800
C  52.55200 28.30900 46.26600
C  51.43300 27.87800 45.50000
C  51.65400 26.58300 45.04700
C  52.79700 29.61200 46.92200
C  50.01300 28.15600 45.17200
O  49.37500 29.12100 45.51100
C  49.52200 26.92900 44.34700
C  49.20500 27.47500 42.98600
O  50.10800 27.80800 42.17600
O  47.85500 27.51700 42.82000
C  47.41100 28.25800 41.61500
H  51.73300 20.68100 43.33200
H  57.61500 22.32200 45.65000
H  55.32800 28.14600 46.67700
H  48.78600 24.56200 43.01200
H  49.84700 21.90800 42.34400
H  48.14900 21.53400 43.91500
H  48.45000 23.17700 44.51300
H  49.50500 21.75200 45.06800
H  50.48600 23.30200 40.80800
H  50.71500 25.03000 41.00900
H  49.20300 25.10900 39.47600
H  48.14100 25.14500 40.83300
H  53.83600 19.16700 42.24900
H  52.81600 18.83200 43.40700
H  54.43600 18.06700 43.55400
H  58.67900 20.89100 44.54300
H  58.97600 19.25000 45.17800
H  58.07300 20.36200 46.15600
H  58.55700 25.03100 45.59100
H  57.13900 26.45000 47.66300
H  58.91100 24.91400 48.41600
H  59.21400 23.48800 47.30700
H  57.83600 23.51700 48.29200
H  57.31700 28.14000 45.23800
H  58.84400 27.33400 45.33600
H  59.71000 28.49000 46.83300
H  58.42900 28.19400 47.99700
H  58.29500 29.57600 47.01300
H  53.34400 29.51100 47.85800
H  51.86300 30.16800 47.01200
H  53.37800 30.23200 46.23800
H  48.65600 26.53600 44.88000
H  48.17300 28.75600 41.01600
H  46.60100 28.94900 41.85100
H  47.08400 27.44700 40.96400
Mg 48.34100 14.67800 28.03400
C  46.52000 14.96700 31.08300
C  50.63900 16.75200 29.43200
C  50.17500 14.38000 25.19000
C  45.77400 12.82000 26.76900
N  48.57700 15.72600 29.97000
C  47.74700 15.68900 31.08000
C  48.26900 16.39600 32.31700
C  49.35100 17.24000 31.63400
C  49.58400 16.53900 30.31700
C  48.89600 18.74800 31.37000
C  48.68200 15.40600 33.45600
C  47.94100 15.58800 34.78000
H  48.68400 15.39100 36.09400
N  50.19600 15.33500 27.49100
C  51.01500 16.18000 28.16900
C  52.31100 16.35500 27.45800
C  52.12100 15.78500 26.18300
C  50.75100 15.13400 26.23000
C  53.46900 17.11500 28.05800
C  53.07100 15.65100 24.93800
O  52.90000 14.93200 23.98100
C  54.30500 16.50800 24.96300
N  47.91900 13.83100 26.20800
C  48.86600 13.78400 25.16100
C  48.30600 13.01800 23.93500
C  47.00000 12.41400 24.53700
C  46.85700 13.04400 25.90000
C  48.13900 13.92800 22.63900
C  47.01300 10.84500 24.48600
C  48.18300 10.14600 25.17700
N  46.52800 14.06600 28.69300
C  45.58200 13.26400 28.04500
C  44.39800 13.10600 28.91700
C  44.72700 13.67800 30.09100
C  46.01600 14.23700 29.95300
C  43.31600 12.19500 28.60000
C  44.27200 13.94200 31.51100
O  43.26500 13.53100 32.13900
C  45.50600 14.68600 32.23900
C  44.80600 15.84900 32.79600
O  44.64200 16.90400 32.23900
O  44.53000 15.62300 34.09900
C  44.05700 16.84700 34.76400
H  51.34300 17.45100 29.88700
H  50.53400 14.38900 24.15800
H  44.99800 12.19600 26.32000
H  47.48600 17.02600 32.73900
H  50.29400 17.16300 32.17700
H  48.53300 18.75300 30.34200
H  49.74800 19.41100 31.51200
H  48.11400 19.06700 32.05900
H  49.76600 15.49700 33.53000
H  48.47100 14.34800 33.29800
H  47.19200 14.81800 34.96700
H  47.37000 16.51600 34.77900
H  53.36000 18.19800 28.11800
H  54.43900 16.89800 27.61100
H  53.45200 16.82800 29.10900
H  54.88600 16.54400 24.04100
H  54.99500 16.04400 25.66700
H  54.01800 17.53800 25.17600
H  48.98300 12.18100 23.76300
H  46.10400 12.61800 23.95100
H  48.51700 13.41800 21.75300
H  48.72000 14.84600 22.72500
H  47.10800 14.22800 22.45100
H  46.91900 10.54200 23.44300
H  46.09800 10.54300 24.99500
H  47.93900 9.47800 26.00300
H  48.88800 10.75700 25.74100
H  48.87600 9.72500 24.44900
H  42.73400 11.85500 29.45600
H  43.58000 11.28800 28.05600
H  42.66700 12.83200 27.99900
H  45.86900 14.02400 33.02500
H  43.29400 17.35200 34.17200
H  44.82500 17.61900 34.70500
H  43.77900 16.79600 35.81700

