158

Mg -2.02800 17.50300 27.68300
C  -2.43000 15.25500 30.37600
C  -2.96200 20.04100 29.78400
C  -1.49000 19.56400 25.13400
C  -1.58700 14.76100 25.58900
N  -2.69600 17.58700 29.85800
C  -2.63400 16.57600 30.79700
C  -2.83300 17.15100 32.24800
C  -3.42000 18.60200 31.92200
C  -2.98400 18.81400 30.44300
C  -4.84500 18.81800 32.33000
C  -1.47600 17.12500 33.10800
C  -1.78100 16.35500 34.50100
H  -0.70000 16.35400 35.47600
N  -2.08500 19.55600 27.52600
C  -2.54000 20.42300 28.48200
C  -2.36600 21.76100 27.99300
C  -1.94000 21.64900 26.67400
C  -1.90100 20.18700 26.33300
C  -2.59100 22.95700 28.88200
C  -1.55300 22.71100 25.69100
O  -1.25300 22.57100 24.48700
C  -1.42700 24.11800 26.10300
N  -1.90600 17.22300 25.54600
C  -1.48700 18.20100 24.76600
C  -1.18500 17.63000 23.27900
C  -1.07400 16.11600 23.59800
C  -1.56700 16.02300 25.00800
C  -2.31400 17.93300 22.21200
C  0.30400 15.41700 23.15300
C  1.41300 15.62600 24.16500
N  -2.10900 15.44600 27.80500
C  -1.98800 14.43800 26.90900
C  -2.13500 13.13400 27.56800
C  -2.26200 13.38000 28.94000
C  -2.30800 14.81400 29.05000
C  -1.93500 11.79500 26.93500
C  -2.31500 12.79200 30.20400
O  -2.25900 11.58400 30.53800
C  -2.40400 14.00900 31.15000
C  -1.02000 13.91900 31.79100
O  -0.02700 14.52200 31.50000
O  -1.09400 13.05000 32.88600
C  0.08300 12.64700 33.60100
H  -3.21500 20.89500 30.41500
H  -1.26300 20.26200 24.32500
H  -1.15400 13.93300 25.02300
H  -3.68600 16.66400 32.72100
H  -2.82500 19.37200 32.41300
H  -5.25300 18.10900 33.05100
H  -5.29800 18.76200 31.34100
H  -4.86900 19.82700 32.74100
H  -1.11600 18.13900 33.28100
H  -0.71600 16.58700 32.54000
H  -1.99900 15.29900 34.34100
H  -2.68600 16.74600 34.96700
H  -2.95300 23.83300 28.34300
H  -1.57700 23.12800 29.24100
H  -3.21200 22.80000 29.76400
H  -2.37800 24.64500 26.17200
H  -0.70000 24.60600 25.45400
H  -1.08900 24.00900 27.13400
H  -0.24600 18.04000 22.90600
H  -1.84800 15.66400 22.97800
H  -3.02900 18.63100 22.64700
H  -2.86000 17.04000 21.91100
H  -1.87100 18.40200 21.33300
H  0.53400 15.66300 22.11600
H  0.08000 14.36100 23.00100
H  1.92300 16.54300 23.86900
H  2.12800 14.80600 24.09900
H  1.11700 15.81600 25.19600
H  -2.21200 11.95800 25.89300
H  -2.61600 11.09300 27.41600
H  -0.90400 11.52200 27.16100
H  -3.28600 13.85900 31.77300
H  0.28700 13.29400 34.45400
H  1.00300 12.77000 33.03000
H  0.07800 11.61300 33.94600
Mg 41.24100 41.36900 26.67300
C  40.74700 44.11800 29.01900
C  41.87100 39.31700 29.35900
C  42.06500 39.10400 24.52000
C  41.14300 43.77200 24.19000
N  41.27500 41.73900 28.92600
C  40.91900 42.80900 29.64100
C  40.96600 42.55500 31.10700
C  41.43700 41.02600 31.32500
C  41.63600 40.70700 29.80200
C  42.74500 40.60500 32.12800
C  39.64700 42.86300 31.92500
C  39.81400 43.78900 33.19400
H  39.32100 43.25900 34.54800
N  41.80500 39.48300 26.93000
C  42.00500 38.80600 28.08700
C  42.41300 37.45800 27.82800
C  42.38400 37.33000 26.42300
C  42.07600 38.70300 25.88200
C  42.90200 36.42200 28.90400
C  42.58400 36.14000 25.53000
O  42.46600 36.17500 24.31700
C  43.12900 34.89700 26.08000
N  41.69200 41.39000 24.65000
C  41.85600 40.31200 23.94900
C  41.67800 40.56600 22.43500
C  41.35700 42.10600 22.35000
C  41.41600 42.48000 23.82900
C  42.90400 40.10300 21.57500
C  40.01100 42.48300 21.69700
C  38.69300 42.26200 22.46500
N  40.94900 43.53400 26.56500
C  41.00500 44.31700 25.45000
C  40.83100 45.66500 25.90600
C  40.78000 45.62500 27.31500
C  40.84100 44.32300 27.66700
C  40.79200 46.85300 25.09700
C  40.70600 46.40800 28.46600
O  40.69100 47.61900 28.62500
C  40.68600 45.42300 29.65800
C  41.81700 45.79500 30.52900
O  42.96600 45.34000 30.40400
O  41.42100 46.79900 31.37600
C  42.56200 47.30500 32.17500
H  42.06300 38.79000 30.29600
H  42.11900 38.45200 23.64600
H  41.05200 44.57000 23.45000
H  41.77400 43.09500 31.60000
H  40.67700 40.33200 31.68300
H  42.69300 39.60800 32.56500
H  42.70700 41.36100 32.91200
H  43.59500 40.70600 31.45200
H  39.26800 41.92100 32.32100
H  38.89300 43.39400 31.34300
H  39.15900 44.64900 33.05800
H  40.86100 43.98700 33.42400
H  43.92300 36.07400 28.74100
H  42.32200 35.50500 29.01100
H  42.89500 36.87400 29.89600
H  42.41600 34.49600 26.80000
H  44.01000 35.08700 26.69400
H  43.38000 34.22100 25.26200
H  40.76300 40.02000 22.20500
H  42.15900 42.62000 21.82000
H  43.64400 39.53700 22.14000
H  43.57300 40.77500 21.03700
H  42.52200 39.33300 20.90500
H  39.85400 42.01000 20.72800
H  40.06500 43.52700 21.38700
H  38.80100 42.03500 23.52600
H  38.17300 41.48800 21.90000
H  38.15800 43.20300 22.34300
H  40.04300 47.57100 25.42900
H  40.57100 46.69100 24.04200
H  41.75800 47.34700 24.98800
H  39.69700 45.61000 30.07500
H  43.34900 47.72400 31.54800
H  43.06900 46.48900 32.69000
H  42.28500 48.11200 32.85300

