158

Mg 26.39800 0.13400 29.04800
C  28.11800 0.08000 32.26800
C  23.51100 0.78800 30.76600
C  24.73800 -0.07400 26.23400
C  29.24200 -1.05800 27.59900
N  25.94300 0.30800 31.28900
C  26.78100 0.34700 32.42600
C  26.02000 0.82300 33.68100
C  24.48300 0.89400 33.15000
C  24.58400 0.64700 31.59100
C  23.54800 -0.11500 33.90100
C  26.57100 2.13500 34.21300
C  26.02100 2.64100 35.54900
H  27.09100 2.81100 36.69900
N  24.33300 0.36300 28.54600
C  23.35200 0.66900 29.42900
C  22.09400 0.66700 28.74900
C  22.35700 0.45400 27.35800
C  23.83800 0.20600 27.30900
C  20.73800 1.02100 29.33100
C  21.51100 0.48400 26.11400
O  21.94200 0.24500 25.01800
C  20.08000 0.75400 26.26000
N  26.95000 -0.49000 27.20400
C  26.11100 -0.36000 26.16600
C  26.79000 -0.61500 24.83100
C  28.20400 -1.05900 25.26800
C  28.10100 -0.95800 26.81200
C  26.11400 -1.64700 23.89600
C  29.34100 -0.21800 24.57300
C  29.72600 -0.58300 23.14500
N  28.28700 -0.41800 29.74700
C  29.32700 -0.82100 28.99100
C  30.51600 -0.97300 29.81800
C  30.11500 -0.63400 31.14800
C  28.71300 -0.33500 31.01700
C  31.83300 -1.54300 29.30200
C  30.51500 -0.46500 32.53400
O  31.58000 -0.57100 33.09200
C  29.19800 0.07700 33.24100
C  28.88500 -0.91200 34.32000
O  28.60300 -2.10800 34.12500
O  28.94100 -0.25400 35.54600
C  28.87400 -1.08500 36.70200
H  22.67600 1.03500 31.42500
H  24.29500 -0.10600 25.23700
H  30.18900 -1.38900 27.16600
H  26.10100 0.07900 34.47400
H  24.14900 1.91400 33.34000
H  23.10500 0.36700 34.77200
H  24.24400 -0.85900 34.28900
H  22.77000 -0.47700 33.22900
H  26.40800 2.94500 33.50300
H  27.65500 2.14200 34.33000
H  25.20300 2.02100 35.91600
H  25.61700 3.63500 35.35800
H  20.51600 2.06900 29.13100
H  20.97100 0.99200 30.39600
H  19.88300 0.42300 29.01800
H  19.57700 0.77600 25.29300
H  20.04500 1.78300 26.61800
H  19.59400 -0.01700 26.85900
H  26.77900 0.38900 24.40600
H  28.36400 -2.12100 25.08300
H  25.23000 -1.97000 24.44400
H  26.81100 -2.39700 23.52000
H  25.74900 -1.07700 23.04100
H  30.34600 -0.26800 24.99200
H  29.08100 0.84000 24.57700
H  30.78400 -0.84200 23.09200
H  29.57200 0.31100 22.54100
H  29.18400 -1.43600 22.73700
H  31.59200 -2.22100 28.48300
H  32.27900 -2.00600 30.18200
H  32.51900 -0.77400 28.94700
H  29.40500 1.09400 33.57500
H  29.87100 -1.26400 37.10400
H  28.32400 -2.01600 36.56700
H  28.34500 -0.56600 37.50100
Mg -2.40600 34.60300 26.74400
C  -4.02900 32.68700 29.21600
C  -1.04100 36.52000 29.22100
C  -1.18700 36.62900 24.43600
C  -4.34700 32.98900 24.30600
N  -2.46900 34.48900 28.95300
C  -3.19000 33.70500 29.73100
C  -2.85300 34.00100 31.21600
C  -1.88600 35.28800 31.12700
C  -1.79600 35.42500 29.65700
C  -2.51400 36.46500 31.95700
C  -2.21300 32.77900 31.91700
C  -3.01100 32.19600 33.16600
H  -2.32200 32.07100 34.54100
N  -1.15700 36.29600 26.81800
C  -0.65900 36.90900 27.90800
C  0.22700 38.01600 27.50500
C  0.27600 37.91800 26.08400
C  -0.80500 36.98100 25.71800
C  0.87500 38.84100 28.54400
C  1.20100 38.69000 25.11300
O  1.15100 38.45100 23.94000
C  2.10000 39.71700 25.64000
N  -3.01100 34.95700 24.66300
C  -2.24000 35.80300 24.01700
C  -2.72900 35.84700 22.55900
C  -3.54700 34.56800 22.40300
C  -3.65000 34.11200 23.86100
C  -3.54800 37.22100 22.23200
C  -2.75900 33.55400 21.50600
C  -1.67900 32.70400 22.21700
N  -3.91300 33.16100 26.72400
C  -4.47400 32.48100 25.64100
C  -5.21200 31.32100 26.15200
C  -5.04600 31.44400 27.57300
C  -4.25800 32.53700 27.85000
C  -6.00900 30.25900 25.34400
C  -5.46600 30.78500 28.83600
O  -6.10700 29.67700 28.95500
C  -4.93800 31.67300 29.94800
C  -6.04400 32.29700 30.69400
O  -6.72900 33.14400 30.16800
O  -6.10800 31.89700 32.07800
C  -6.99500 32.69500 32.97400
H  -0.59400 37.11500 30.02100
H  -0.89100 37.29900 23.62600
H  -4.82800 32.33700 23.57300
H  -3.73100 34.33700 31.76900
H  -0.90100 35.20100 31.58500
H  -2.74400 37.24400 31.23100
H  -1.82400 36.97700 32.62800
H  -3.43100 36.25400 32.50800
H  -1.23400 33.07400 32.29500
H  -1.99000 31.94700 31.24900
H  -3.25200 31.13800 33.06400
H  -3.94800 32.75300 33.16900
H  1.93200 38.96200 28.30600
H  0.86300 38.51900 29.58500
H  0.45600 39.84500 28.49100
H  2.70600 39.23900 26.41000
H  1.52200 40.54800 26.04500
H  2.80400 40.03600 24.87100
H  -1.86100 35.87200 21.90000
H  -4.52500 34.82000 21.99400
H  -3.84800 37.12800 21.18800
H  -2.89600 38.06000 22.47700
H  -4.48500 37.30200 22.78300
H  -2.12000 34.10000 20.81200
H  -3.44400 32.88300 20.98700
H  -0.86200 32.66300 21.49600
H  -2.09300 31.69500 22.20700
H  -1.32900 32.98000 23.21100
H  -5.54600 30.20300 24.35900
H  -7.08700 30.42000 25.34600
H  -5.78500 29.32800 25.86400
H  -4.31000 31.04000 30.57300
H  -6.31800 33.38800 33.47300
H  -7.59200 32.07900 33.64700
H  -7.73400 33.31300 32.46400

