158

Mg 41.03100 8.52600 29.87600
C  42.72600 9.92100 32.63500
C  38.60000 7.46800 32.08300
C  39.31800 7.13900 27.25700
C  43.83700 8.75000 28.04800
N  40.69000 8.71800 32.14800
C  41.49500 9.45700 33.02200
C  40.75200 9.53100 34.36100
C  39.53600 8.67200 34.17700
C  39.57300 8.30200 32.69400
C  39.38500 7.33000 34.98900
C  40.62800 11.03100 34.94500
C  39.87400 11.33800 36.24400
H  40.67900 12.14500 37.34600
N  39.17400 7.49000 29.67600
C  38.40300 7.10500 30.71700
C  37.20500 6.48200 30.18500
C  37.33700 6.47000 28.77700
C  38.60000 7.10800 28.47900
C  36.09500 6.08200 31.09200
C  36.53300 5.79000 27.67700
O  36.78200 5.78800 26.45700
C  35.32200 4.98400 28.07000
N  41.51100 7.94300 28.02400
C  40.61600 7.47500 27.11100
C  41.35200 7.04300 25.75500
C  42.72800 7.66900 26.00200
C  42.71000 8.17400 27.43400
C  41.30000 5.54000 25.43600
C  43.06800 8.80100 24.88600
C  42.34900 10.11700 25.20700
N  42.89800 9.34000 30.20000
C  44.01400 9.31400 29.32600
C  45.08500 9.96800 29.99700
C  44.67400 10.28600 31.25500
C  43.33000 9.77300 31.36000
C  46.33700 10.21300 29.33600
C  45.06600 10.83700 32.46500
O  46.02400 11.42600 32.84300
C  43.81500 10.53500 33.53500
C  44.26500 9.69300 34.65200
O  45.02100 8.72600 34.54800
O  43.64700 10.02300 35.79900
C  44.18200 9.34300 36.96800
H  37.88500 7.19000 32.85900
H  38.91200 6.76200 26.31600
H  44.68100 8.67600 27.35900
H  41.30800 9.01800 35.14500
H  38.65700 9.30000 34.32400
H  39.48400 6.54800 34.23600
H  38.39500 7.29200 35.44300
H  40.17700 7.04700 35.68300
H  40.09600 11.65600 34.22800
H  41.61800 11.42100 35.18100
H  39.55400 10.36300 36.61100
H  38.99200 11.96400 36.10500
H  36.25400 6.04400 32.17000
H  35.89100 5.02000 30.95000
H  35.20400 6.68300 30.91200
H  35.62700 4.25500 28.82100
H  35.03300 4.45000 27.16400
H  34.52500 5.62700 28.44300
H  40.82700 7.54500 24.94200
H  43.56100 6.97000 26.08000
H  42.33100 5.19100 25.50400
H  40.96500 5.44500 24.40300
H  40.64400 5.01400 26.12900
H  42.77600 8.57400 23.86100
H  44.15200 8.89500 24.93700
H  41.55300 10.19600 24.46800
H  42.97100 11.01000 25.15600
H  41.80200 10.16300 26.14900
H  46.58700 9.39400 28.66100
H  47.17300 10.28900 30.03000
H  46.18300 11.15000 28.80000
H  43.55000 11.51300 33.93600
H  45.25800 9.23600 37.10200
H  43.72300 8.36100 37.08200
H  43.82000 9.86600 37.85300
Mg 16.48100 52.31900 26.32800
C  17.93100 50.66500 29.20200
C  13.95800 53.39100 28.52800
C  15.25100 53.84500 23.76400
C  19.11500 50.91000 24.34900
N  16.06200 52.06500 28.58500
C  16.85100 51.44700 29.59800
C  16.34600 51.71400 31.06300
C  15.06200 52.46800 30.73900
C  14.99900 52.68200 29.17300
C  13.79200 51.67100 31.29200
C  17.44700 52.66700 31.82000
C  17.77600 52.27300 33.25800
H  16.87000 51.16700 33.87900
N  14.80700 53.35100 26.13700
C  13.82300 53.71600 27.10800
C  12.79900 54.59000 26.46100
C  13.24600 54.79800 25.06400
C  14.46900 53.95700 24.95700
C  11.58700 55.21000 27.17000
C  12.54700 55.64000 23.91500
O  13.02500 55.67400 22.82200
C  11.30700 56.44800 24.21800
N  17.03100 52.25300 24.26300
C  16.41100 53.11000 23.37900
C  17.16600 53.17900 22.04400
C  18.46100 52.32000 22.31600
C  18.18700 51.78000 23.70500
C  16.27000 52.50000 20.94700
C  19.79300 53.16800 22.37900
C  20.73200 52.83600 21.21100
N  18.04900 50.93100 26.58200
C  19.07400 50.56800 25.73100
C  20.05600 49.78300 26.39300
C  19.65600 49.82300 27.79100
C  18.41700 50.45800 27.85000
C  21.21900 48.96900 25.74400
C  20.19400 49.49900 29.14900
O  21.20900 48.91800 29.51300
C  19.02600 49.93600 30.11800
C  18.49000 48.65200 30.70100
O  17.64800 47.91800 30.20000
O  19.19000 48.39000 31.82700
C  18.76700 47.18800 32.59900
H  13.23900 53.75800 29.26300
H  14.89100 54.38300 22.88500
H  20.04600 50.66100 23.83500
H  16.20300 50.81100 31.65500
H  15.16900 53.43900 31.22200
H  13.90800 50.59100 31.37300
H  12.92900 51.79300 30.63700
H  13.50400 52.00200 32.29000
H  17.08600 53.68500 31.67200
H  18.30600 52.71400 31.15000
H  17.85200 53.17800 33.86100
H  18.79400 51.89100 33.19000
H  11.89400 56.17600 27.57100
H  11.29100 54.54200 27.97900
H  10.67300 55.32000 26.58600
H  10.95600 56.99200 23.34100
H  11.60000 57.24000 24.90700
H  10.41000 55.85200 24.38500
H  17.34900 54.21500 21.75600
H  18.50300 51.59700 21.50200
H  16.24700 53.22400 20.13200
H  15.26300 52.45900 21.36300
H  16.58600 51.52100 20.58900
H  20.29500 53.14700 23.34600
H  19.50200 54.21500 22.29400
H  20.96800 53.78600 20.73100
H  20.30900 52.07700 20.55200
H  21.56500 52.29400 21.65900
H  20.86200 48.70300 24.74900
H  21.24400 48.08000 26.37400
H  22.13300 49.56300 25.74900
H  19.45600 50.55900 30.90200
H  17.69700 46.98100 32.58400
H  19.01400 47.38900 33.64100
H  19.21100 46.28700 32.17400

