158

Mg -11.03300 38.85600 41.12600
C  -9.23800 35.93400 40.50200
C  -8.37900 40.64000 39.72500
C  -12.98700 41.57100 41.23800
C  -13.82000 36.87000 42.14900
N  -9.08200 38.36600 40.01300
C  -8.53500 37.10300 39.96500
C  -7.24800 37.09200 39.17700
C  -6.81800 38.61600 39.23700
C  -8.16100 39.25100 39.71900
C  -5.58900 39.00300 40.18700
C  -7.34600 36.36900 37.84000
C  -6.34800 35.14400 37.66800
H  -5.09300 35.58000 36.86200
N  -10.71300 40.93200 40.60600
C  -9.51400 41.41600 40.05600
C  -9.71500 42.85400 39.90100
C  -11.07100 43.14000 40.25400
C  -11.71100 41.85100 40.68900
C  -8.70600 43.82400 39.27800
C  -11.79400 44.57200 40.08600
O  -11.19600 45.53700 39.65800
C  -13.17500 44.78100 40.41800
N  -13.14800 39.20400 41.56500
C  -13.64500 40.45400 41.63800
C  -15.20600 40.46400 41.82000
C  -15.48200 38.93500 41.99900
C  -14.10500 38.26200 41.85800
C  -15.69500 41.40300 42.98800
C  -16.47900 38.52400 40.90000
C  -17.06100 37.10200 40.95600
N  -11.42600 36.85900 41.42900
C  -12.55200 36.21300 41.92800
C  -12.24700 34.84100 42.00800
C  -10.97700 34.70400 41.41000
C  -10.51900 35.96700 41.08000
C  -13.17300 33.79200 42.38800
C  -9.91000 33.76700 41.03200
O  -9.89600 32.55200 41.02900
C  -8.78100 34.58000 40.32600
C  -7.53600 34.24300 41.06200
O  -7.11300 33.12500 41.03300
O  -7.05300 35.17200 41.87100
C  -5.93200 34.83300 42.70600
H  -7.66400 41.34800 39.30100
H  -13.55800 42.48400 41.41900
H  -14.65800 36.24300 42.46000
H  -6.43900 36.57600 39.69400
H  -6.53800 38.81800 38.20300
H  -4.96000 39.82300 39.84000
H  -5.09700 38.06700 40.44900
H  -5.98400 39.44100 41.10400
H  -7.07900 37.10900 37.08600
H  -8.36300 36.07900 37.57600
H  -6.82400 34.40400 37.02500
H  -6.00700 34.71200 38.60900
H  -9.14600 44.21100 38.35900
H  -7.85500 43.16900 39.09200
H  -8.56500 44.63800 39.99000
H  -13.38500 44.63800 41.47800
H  -13.56700 43.92300 39.87100
H  -13.72700 45.64700 40.05200
H  -15.64500 40.77300 40.87100
H  -15.94700 38.82400 42.97800
H  -16.64100 41.89900 42.76900
H  -15.02700 42.23700 43.20100
H  -15.90000 40.81400 43.88300
H  -16.09200 38.38700 39.89000
H  -17.41600 39.07900 40.84700
H  -18.14300 37.18200 41.06500
H  -16.53800 36.50500 41.70300
H  -16.73400 36.63100 40.02900
H  -13.23800 33.73500 43.47500
H  -12.80400 32.84400 41.99700
H  -14.15300 34.13700 42.05800
H  -8.62600 34.27200 39.29200
H  -5.63400 33.78500 42.65200
H  -6.23000 35.03800 43.73400
H  -5.13100 35.56900 42.63600
Mg -0.78000 34.23600 26.77100
C  -2.77900 32.59300 29.30600
C  0.83200 35.97600 29.27300
C  0.29200 36.31600 24.37900
C  -2.63900 32.52000 24.37400
N  -1.08700 34.31500 29.04000
C  -1.87600 33.53000 29.85900
C  -1.59500 33.83300 31.35100
C  -0.52600 35.05900 31.28800
C  -0.19600 35.10700 29.77000
C  -0.98600 36.42500 31.98000
C  -1.16800 32.54300 32.26800
C  -1.80100 32.37300 33.65200
H  -0.82900 32.62600 34.90800
N  0.40400 35.87100 26.84200
C  1.12500 36.38000 27.92600
C  2.10400 37.39200 27.44400
C  1.86300 37.51400 26.07300
C  0.76200 36.59000 25.72500
C  3.02100 38.09900 28.41600
C  2.54600 38.50000 25.11400
O  2.19500 38.65800 23.94000
C  3.71600 39.25800 25.56400
N  -1.04700 34.42400 24.62000
C  -0.56000 35.38000 23.90900
C  -0.87700 35.12200 22.44000
C  -1.64800 33.72700 22.37900
C  -1.77400 33.51700 23.87800
C  -1.61200 36.30800 21.89200
C  -0.94000 32.66700 21.61800
C  0.18200 31.80600 22.20700
N  -2.29100 32.75500 26.75900
C  -2.88300 32.15100 25.74100
C  -3.78900 31.11400 26.23000
C  -3.76700 31.31800 27.59700
C  -2.85800 32.35500 27.88500
C  -4.61700 30.14200 25.47900
C  -4.37100 30.86600 28.80900
O  -5.24300 30.02100 28.97700
C  -3.76700 31.63900 30.01800
C  -4.83700 32.25500 30.78400
O  -5.49500 33.20700 30.41700
O  -4.99300 31.61200 32.01000
C  -6.01100 32.06300 32.93200
H  1.26800 36.60600 30.05000
H  0.77100 36.91700 23.60400
H  -3.13900 31.97100 23.57400
H  -2.51200 34.15100 31.84700
H  0.35900 34.70400 31.81800
H  -0.82300 36.37600 33.05700
H  -2.04800 36.49200 31.74300
H  -0.51500 37.30900 31.55200
H  -0.08800 32.65600 32.36700
H  -1.23300 31.62200 31.68800
H  -2.28600 31.39900 33.71100
H  -2.62100 33.09100 33.66000
H  2.80200 37.71700 29.41300
H  2.94500 39.18000 28.30100
H  4.06900 37.97000 28.14900
H  4.25800 39.79100 24.78400
H  4.37100 38.67800 26.21400
H  3.37500 40.12100 26.13600
H  0.13300 35.19100 22.03500
H  -2.60400 33.92500 21.89600
H  -0.85400 36.94300 21.43400
H  -2.35600 36.79700 22.52100
H  -2.14800 35.84900 21.06000
H  -0.50400 33.25800 20.81300
H  -1.69600 32.03400 21.15200
H  -0.05400 30.77700 22.48000
H  0.78100 32.27000 22.99000
H  0.96700 31.66700 21.46300
H  -4.38100 29.15000 25.86200
H  -4.39400 30.11600 24.41200
H  -5.63100 30.43400 25.75000
H  -3.22000 31.03800 30.74500
H  -5.46500 32.21800 33.86300
H  -6.85300 31.38200 33.05200
H  -6.48300 32.93800 32.48600

