158

Mg 2.31100 -1.12800 44.39600
C  5.65800 -0.16600 44.16900
C  1.41800 1.99400 43.28900
C  -0.83600 -2.13200 43.98500
C  3.36500 -4.42200 44.92600
N  3.50200 0.69600 43.85000
C  4.84100 0.87800 43.82800
C  5.20100 2.30000 43.37200
C  3.80800 3.05600 43.62900
C  2.78500 1.89300 43.63500
C  3.78700 3.93000 44.95200
C  5.78500 2.43200 41.88700
C  4.80400 2.17700 40.71900
H  4.85000 3.07400 39.46000
N  0.57700 -0.23000 43.57900
C  0.38900 1.07300 43.14000
C  -0.92900 1.30200 42.60500
C  -1.52500 -0.03100 42.70400
C  -0.61700 -0.89000 43.47900
C  -1.42900 2.60800 42.10200
C  -2.86500 -0.39800 42.13800
O  -3.46600 0.48100 41.58500
C  -3.38600 -1.73500 42.14800
N  1.47300 -2.98700 44.36200
C  0.11300 -3.08800 44.43100
C  -0.37700 -4.47100 44.76700
C  1.00700 -5.31900 44.97900
C  2.02200 -4.17300 44.72100
C  -1.44400 -4.50800 45.88700
C  1.19600 -6.53800 44.01300
C  1.23100 -7.88400 44.67100
N  4.10200 -2.09500 44.75600
C  4.40500 -3.46700 44.91400
C  5.77400 -3.65600 44.95400
C  6.34700 -2.41600 44.70200
C  5.31000 -1.50800 44.52000
C  6.47100 -4.96700 45.25400
C  7.62200 -1.67500 44.56200
O  8.78700 -2.03800 44.58600
C  7.14500 -0.29000 44.04600
C  7.92500 0.73400 44.68900
O  8.75100 1.33800 44.12700
O  7.63300 0.84900 46.02600
C  8.16000 2.11500 46.58700
H  1.19700 3.01200 42.96000
H  -1.88400 -2.43400 44.03100
H  3.66300 -5.45400 45.12300
H  5.92800 2.58400 44.13300
H  3.47200 3.53100 42.70800
H  3.31000 3.35700 45.74700
H  3.24600 4.83900 44.69000
H  4.77000 4.30400 45.23800
H  6.74400 1.95200 41.69000
H  6.11900 3.46500 41.79600
H  3.76500 1.99800 40.99500
H  5.05800 1.17900 40.36100
H  -2.49000 2.84800 42.16500
H  -1.08500 2.83900 41.09400
H  -0.87200 3.30500 42.72700
H  -4.15400 -1.66400 41.37700
H  -3.87000 -1.95600 43.10000
H  -2.54700 -2.38400 41.89900
H  -0.86700 -5.05900 43.99200
H  1.14400 -5.62200 46.01700
H  -1.46000 -3.53300 46.37500
H  -1.21700 -5.25000 46.65200
H  -2.47100 -4.71400 45.58500
H  2.11000 -6.37000 43.44200
H  0.42500 -6.58100 43.24500
H  0.68000 -8.64900 44.12400
H  0.64700 -7.91000 45.59200
H  2.20700 -8.29200 44.93500
H  6.47100 -5.11500 46.33400
H  7.50600 -4.97400 44.91200
H  5.99000 -5.81500 44.76700
H  7.39600 -0.15100 42.99500
H  8.01000 2.02100 47.66200
H  7.74700 3.06300 46.24300
H  9.24200 2.10900 46.45900
Mg 6.74700 56.51400 41.83000
C  5.94100 53.10000 41.35500
C  9.79800 55.94700 40.29400
C  7.20200 59.84600 41.60300
C  3.39600 56.94400 42.87200
N  7.72900 54.74500 40.91800
C  7.16700 53.46600 40.74700
C  8.11900 52.48800 40.02600
C  9.43800 53.38600 40.09600
C  8.97500 54.81300 40.43200
C  10.50500 52.91900 41.11300
C  7.67700 52.14200 38.58900
C  8.24400 50.78700 38.12000
H  7.51900 50.11900 36.94400
N  8.28000 57.71700 41.13300
C  9.45100 57.28800 40.54100
C  10.28500 58.44800 40.27700
C  9.59800 59.56400 40.70000
C  8.33200 59.06700 41.20000
C  11.67000 58.36600 39.68800
C  10.12600 61.03500 40.62800
O  11.28400 61.22600 40.17300
C  9.40600 62.21900 41.17800
N  5.36900 58.16200 41.94200
C  5.91100 59.47300 42.02600
C  4.77500 60.47000 42.23900
C  3.74500 59.53500 42.92800
C  4.15700 58.09000 42.52700
C  5.11800 61.86500 42.85300
C  2.26400 59.79100 42.52700
C  1.33400 60.08200 43.73000
N  5.03900 55.30500 42.08000
C  3.78800 55.61900 42.66500
C  3.12600 54.34500 43.06000
C  3.91600 53.34900 42.54300
C  5.10500 53.95800 41.97000
C  1.76200 54.25000 43.61800
C  4.02900 51.91100 42.37500
O  3.24400 51.05700 42.70400
C  5.37700 51.67000 41.57600
C  4.89700 51.01200 40.36600
O  4.10100 51.43100 39.58200
O  5.33900 49.74500 40.34900
C  4.75300 48.82900 39.43600
H  10.73700 55.71100 39.78900
H  7.21000 60.91900 41.40100
H  2.48100 57.17800 43.41900
H  8.22400 51.64100 40.70400
H  10.02800 53.30800 39.18300
H  11.48900 52.83900 40.65000
H  10.24700 51.90300 41.41000
H  10.53000 53.46300 42.05700
H  8.03400 52.96400 37.96800
H  6.59800 52.10000 38.43500
H  8.00400 50.13000 38.95600
H  9.33000 50.88000 38.09000
H  11.90500 57.41700 39.20700
H  12.44900 58.55300 40.42700
H  11.82300 59.02300 38.83100
H  9.13000 61.98900 42.20800
H  8.53400 62.47300 40.57700
H  10.03600 63.10200 41.07300
H  4.39800 60.67500 41.23700
H  3.98400 59.79100 43.96000
H  4.26700 62.28700 43.38800
H  5.42000 62.49700 42.01800
H  6.00200 61.58100 43.42300
H  2.02500 58.95400 41.87200
H  2.19900 60.68400 41.90400
H  0.93400 61.09100 43.82600
H  1.91800 60.03000 44.64900
H  0.49000 59.39500 43.79300
H  1.14800 53.55300 43.04800
H  1.29600 55.23200 43.54500
H  1.89400 53.92100 44.64900
H  6.04200 51.10300 42.22700
H  5.13400 49.08200 38.44700
H  3.67200 48.95900 39.37700
H  5.06400 47.81700 39.69700

