158

Mg 26.90000 50.75200 25.93200
C  25.09400 51.97400 28.84400
C  29.40900 49.80100 27.98700
C  28.55800 49.62400 23.24400
C  24.56400 52.28500 23.83400
N  27.11400 50.72900 28.21600
C  26.27700 51.22600 29.18100
C  26.90500 51.17900 30.54100
C  28.37600 50.70800 30.20800
C  28.36300 50.41700 28.66700
C  29.53400 51.59000 30.71500
C  26.06200 50.40400 31.64000
C  25.74700 51.16500 32.94900
H  26.72400 51.07800 34.13500
N  28.65200 49.69500 25.68800
C  29.57800 49.38700 26.67300
C  30.67100 48.62700 26.04300
C  30.28100 48.41700 24.70400
C  29.13200 49.33800 24.49100
C  31.83800 48.09200 26.79000
C  30.88400 47.50500 23.65300
O  30.41700 47.50100 22.49300
C  31.95000 46.48800 23.98200
N  26.64300 51.03400 23.81100
C  27.42400 50.37800 22.89300
C  27.01400 50.61000 21.41100
C  25.63700 51.27400 21.68200
C  25.58200 51.56900 23.22000
C  28.11100 51.41100 20.69400
C  24.40500 50.42100 21.50400
C  23.35400 50.89400 20.36000
N  25.18400 51.85400 26.19300
C  24.31300 52.38000 25.23600
C  23.20000 52.96900 25.95300
C  23.47900 52.84500 27.32300
C  24.70300 52.17600 27.43900
C  21.97000 53.58300 25.33400
C  22.94200 53.04900 28.66600
O  21.81200 53.44000 29.00500
C  24.02300 52.56300 29.67700
C  24.45300 53.68200 30.59200
O  25.36200 54.45100 30.40000
O  23.60600 53.79500 31.68000
C  23.97900 55.04600 32.41400
H  30.22900 49.52700 28.65500
H  29.11000 49.25000 22.38000
H  23.75200 52.74500 23.26700
H  26.98400 52.22400 30.83900
H  28.57800 49.74600 30.67800
H  30.22900 51.84300 29.91400
H  30.02200 51.11700 31.56800
H  29.08400 52.53300 31.02300
H  26.70600 49.54200 31.81400
H  25.14300 49.98100 31.23400
H  24.76500 50.85000 33.30100
H  25.50700 52.20100 32.71000
H  31.76100 48.29600 27.85800
H  32.62400 48.74600 26.41200
H  32.17800 47.08700 26.54200
H  31.68300 45.75100 24.73900
H  32.71900 47.17100 24.34000
H  32.17400 46.06100 23.00400
H  26.91800 49.80200 20.68600
H  25.51800 52.19100 21.10600
H  28.76400 51.95400 21.37800
H  27.51100 52.17600 20.20100
H  28.64800 50.78600 19.98000
H  23.70900 50.37000 22.34100
H  24.69200 49.38100 21.34700
H  23.73100 51.53700 19.56400
H  22.51500 51.35200 20.88400
H  22.90000 50.06900 19.81200
H  22.04600 54.66900 25.38900
H  21.08700 53.27200 25.89100
H  21.76600 53.25300 24.31500
H  23.45300 51.80900 30.22000
H  25.03600 55.14500 32.66100
H  23.55300 54.92300 33.41000
H  23.58200 55.89500 31.85800
Mg 16.86600 52.69500 26.51800
C  18.83900 51.33700 29.04300
C  14.57400 53.65400 28.93900
C  14.82600 53.76800 24.06000
C  18.92100 51.28200 24.09900
N  16.79500 52.59000 28.72500
C  17.71900 52.05700 29.53900
C  17.37400 52.25500 30.98800
C  15.81300 52.48400 30.88800
C  15.73100 52.99900 29.41800
C  14.91600 51.22700 31.13100
C  18.20800 53.44300 31.54500
C  18.75800 53.31400 32.92100
H  17.81700 52.55700 33.86300
N  14.95100 53.56300 26.48500
C  14.28100 54.00400 27.59800
C  13.20600 54.92900 27.22400
C  13.26600 54.92800 25.80500
C  14.36000 54.05600 25.37100
C  12.35300 55.68600 28.20900
C  12.31700 55.67900 24.89700
O  12.43600 55.68500 23.69900
C  11.07000 56.38000 25.31900
N  16.77600 52.44800 24.29300
C  15.86200 53.03500 23.52000
C  16.15100 52.92300 22.05900
C  17.45900 52.10000 22.02100
C  17.76800 51.93900 23.53800
C  14.98300 52.37100 21.12000
C  18.50800 52.85700 21.20000
C  19.41600 53.99900 21.79600
N  18.52700 51.59600 26.48000
C  19.26600 51.09700 25.41800
C  20.46600 50.39600 25.92200
C  20.25700 50.43600 27.33500
C  19.13700 51.18100 27.61900
C  21.61300 49.76800 25.19000
C  20.84900 50.02100 28.55300
O  21.90600 49.43600 28.76400
C  19.92900 50.64600 29.74000
C  19.48000 49.64000 30.64600
O  18.51500 48.94100 30.38400
O  20.18700 49.65200 31.84200
C  19.66600 48.64400 32.81800
H  13.89600 53.90500 29.75700
H  14.25300 54.23700 23.25800
H  19.59700 50.87000 23.34600
H  17.55100 51.33900 31.55200
H  15.56300 53.25300 31.61900
H  14.21300 51.55800 31.89500
H  15.41000 50.33100 31.50700
H  14.43500 50.82300 30.24000
H  17.72000 54.40500 31.39000
H  19.13300 53.44600 30.96900
H  18.90800 54.30100 33.36000
H  19.70700 52.78600 33.01300
H  12.79800 55.69700 29.20400
H  11.31600 55.35300 28.24500
H  12.35000 56.73500 27.91400
H  11.41500 57.16600 25.99100
H  10.41400 55.69900 25.86000
H  10.42200 56.76600 24.53200
H  16.48900 53.90700 21.73400
H  17.21400 51.13200 21.58500
H  15.29600 51.55800 20.46500
H  14.58100 53.17400 20.50300
H  14.22100 51.98800 21.79900
H  17.96500 53.30100 20.36500
H  19.25400 52.19400 20.76400
H  19.07200 54.12400 22.82300
H  19.13100 54.94200 21.32900
H  20.49200 53.87500 21.67500
H  21.32300 49.66300 24.14400
H  21.81900 48.78600 25.61700
H  22.49200 50.37900 25.39300
H  20.49500 51.38700 30.30500
H  18.60300 48.44600 32.68200
H  19.74700 49.03800 33.83100
H  20.28900 47.74900 32.84600

