158

Mg 29.92900 57.74100 41.07500
C  27.09500 55.77300 40.14300
C  31.89000 55.26600 39.55200
C  32.46100 59.84700 41.38000
C  27.66300 60.34500 41.93100
N  29.57000 55.69400 40.05500
C  28.31200 55.09100 39.81400
C  28.45500 53.71400 39.21300
C  29.96800 53.63100 38.93300
C  30.52700 54.87200 39.60300
C  30.60400 52.21900 39.23200
C  27.53200 53.52900 37.90100
C  27.40900 54.79200 36.95200
H  27.73700 54.68300 35.47600
N  31.88300 57.52500 40.70200
C  32.50500 56.47600 40.07100
C  33.97300 56.75600 40.03300
C  34.14700 58.01000 40.59800
C  32.76500 58.55200 40.87900
C  34.91700 55.68800 39.60300
C  35.48700 58.68700 40.83100
O  36.51900 58.06800 40.57600
C  35.68800 60.13700 41.23800
N  30.03900 59.81800 41.56800
C  31.20600 60.40100 41.70700
C  31.04000 61.89700 41.82900
C  29.57300 62.05500 42.26100
C  29.02100 60.64300 41.87400
C  32.02100 62.70200 42.69800
C  28.88000 63.36700 41.63600
C  27.97600 64.22100 42.58800
N  27.82700 58.01600 41.07700
C  27.06100 59.12200 41.49900
C  25.66600 58.80900 41.25400
C  25.66500 57.45900 40.89000
C  26.98800 57.06000 40.72700
C  24.47900 59.71200 41.36700
C  24.76200 56.46600 40.46100
O  23.52100 56.45000 40.44400
C  25.64900 55.25900 39.94400
C  25.38200 54.15700 40.84600
O  25.73000 54.15500 42.03900
O  24.82000 53.08800 40.23300
C  24.57900 51.88100 41.07800
H  32.59800 54.57700 39.08600
H  33.30800 60.53600 41.34900
H  27.00700 61.20200 42.09700
H  28.19200 53.02000 40.01100
H  30.07000 53.71200 37.85100
H  30.19800 51.56600 38.45900
H  30.22800 51.80400 40.16800
H  31.68900 52.30100 39.18000
H  26.52000 53.29200 38.22700
H  27.87000 52.72400 37.24900
H  28.22300 55.42500 37.30400
H  26.49200 55.38200 36.93700
H  35.96900 55.97500 39.58500
H  34.66800 55.25800 38.63200
H  34.81800 54.87600 40.32300
H  35.36700 60.73600 40.38600
H  36.75200 60.37000 41.27800
H  35.17200 60.35600 42.17200
H  31.21600 62.31000 40.83600
H  29.67600 62.07800 43.34600
H  32.29100 63.65800 42.24900
H  32.97100 62.18100 42.81400
H  31.72600 62.86000 43.73500
H  28.21500 63.12200 40.80800
H  29.69200 63.97300 41.23400
H  27.02100 64.42800 42.10400
H  28.51200 65.14300 42.81000
H  27.70900 63.69500 43.50400
H  24.23500 60.13300 40.39200
H  24.66100 60.48300 42.11600
H  23.65700 59.05100 41.64200
H  25.46400 55.07700 38.88500
H  25.29200 51.07100 40.92300
H  23.58800 51.47000 40.88500
H  24.61900 52.01600 42.15900
Mg 6.27300 53.05200 40.46500
C  5.68600 49.54300 40.45900
C  9.37100 52.37600 39.27800
C  6.49800 56.31500 39.62600
C  2.87900 53.43000 41.27400
N  7.35700 51.18700 39.91400
C  6.94100 49.89100 39.99700
C  8.03000 48.88200 39.50600
C  9.30800 49.79200 39.56600
C  8.68500 51.22400 39.65000
C  10.42400 49.50400 40.64700
C  7.80900 48.31000 38.05000
C  7.00000 49.04900 36.98400
H  7.81500 49.54700 35.71900
N  7.74000 54.15300 39.58100
C  8.98100 53.72500 39.30000
C  9.82900 54.92700 38.86100
C  9.00800 56.04300 38.88600
C  7.67200 55.50100 39.36000
C  11.25900 54.85700 38.40800
C  9.39400 57.35800 38.30000
O  10.59500 57.62400 37.96500
C  8.41600 58.47600 38.20100
N  4.88800 54.60800 40.31000
C  5.26900 55.86900 40.02300
C  4.19500 56.90500 40.44000
C  3.00300 56.00300 40.91500
C  3.59600 54.56600 40.84300
C  4.75600 57.91500 41.53700
C  1.69100 56.22400 40.16800
C  0.43100 56.77800 40.93700
N  4.59800 51.81700 40.91800
C  3.30100 52.06600 41.26100
C  2.58700 50.88600 41.54800
C  3.48700 49.86600 41.18800
C  4.66300 50.48300 40.75000
C  1.19100 50.66100 42.11000
C  3.70200 48.41700 41.17900
O  2.93500 47.51100 41.37300
C  5.15800 48.18800 40.62600
C  5.01100 47.26300 39.41600
O  4.51300 47.61800 38.35600
O  5.19200 45.93700 39.80700
C  4.93500 44.94100 38.76100
H  10.33200 51.99800 38.92200
H  6.51800 57.38700 39.41700
H  1.82200 53.46100 41.54200
H  8.06500 48.07200 40.23400
H  9.84000 49.73000 38.61700
H  11.43900 49.85000 40.45200
H  10.53800 48.42100 40.68700
H  10.19000 49.85500 41.65200
H  7.25400 47.37600 38.13300
H  8.76800 47.95800 37.66800
H  6.57600 49.92200 37.48100
H  6.22700 48.35900 36.64500
H  11.36800 55.24600 37.39600
H  11.58300 53.82000 38.31800
H  11.89200 55.25700 39.20100
H  8.11900 58.69200 39.22700
H  7.66600 58.19300 37.46300
H  8.80300 59.47000 37.97800
H  3.81400 57.44400 39.57200
H  2.65600 56.15500 41.93700
H  5.63300 57.45100 41.98800
H  4.05000 58.06700 42.35300
H  5.00500 58.84900 41.03400
H  1.29900 55.26500 39.83100
H  1.86800 56.76700 39.24000
H  0.68400 56.86800 41.99400
H  -0.49300 56.20300 40.98800
H  0.23300 57.78100 40.56100
H  0.59700 51.54200 42.35200
H  1.20400 49.99500 42.97200
H  0.61800 50.08500 41.38300
H  5.72200 47.59400 41.34500
H  5.88700 44.94800 38.23000
H  4.18700 45.14800 37.99700
H  4.62100 44.00500 39.22200

