158

Mg 0.02500 7.71800 24.64100
C  1.09500 9.55700 27.43500
C  0.00300 4.95400 26.58300
C  -0.77800 5.95100 21.89900
C  0.62500 10.62800 22.62600
N  0.51400 7.31200 26.87200
C  0.86200 8.22100 27.76400
C  0.99600 7.55000 29.12200
C  0.68100 6.01500 28.81900
C  0.40500 6.05100 27.33500
C  1.68700 4.94300 29.31700
C  0.05400 8.02500 30.27400
C  0.65400 8.35000 31.63800
H  1.90600 7.50600 32.06700
N  -0.32700 5.69800 24.29000
C  -0.27400 4.73000 25.21900
C  -0.58200 3.44000 24.58100
C  -0.78300 3.70400 23.19500
C  -0.67800 5.16300 23.08100
C  -0.46700 2.08000 25.30800
C  -1.03100 2.69700 22.09200
O  -1.21500 2.96800 20.88000
C  -0.90100 1.28800 22.34100
N  -0.02100 8.26800 22.62000
C  -0.40600 7.33900 21.70300
C  -0.57400 8.04300 20.30900
C  0.03900 9.42500 20.56900
C  0.24000 9.43900 22.02900
C  -0.00100 7.22300 19.09900
C  -0.94400 10.60800 20.02000
C  -2.10400 11.11200 20.91700
N  0.69100 9.70200 24.91000
C  0.87400 10.80500 24.06900
C  1.24100 11.96700 24.76800
C  1.31500 11.55800 26.13300
C  1.02500 10.16500 26.11800
C  1.49200 13.30000 24.22100
C  1.62700 12.00400 27.47000
O  1.90100 13.16800 27.79200
C  1.48500 10.69000 28.39700
C  2.71600 10.50500 29.18000
O  3.58000 9.72700 28.83300
O  2.71600 11.20900 30.32100
C  4.03500 11.04700 31.02900
H  -0.19600 4.11500 27.25300
H  -0.97900 5.41800 20.96700
H  0.72400 11.55300 22.05400
H  2.05900 7.54800 29.35900
H  -0.29400 5.76300 29.23600
H  2.20900 4.47400 28.48300
H  1.26800 4.05900 29.79900
H  2.50100 5.33200 29.92800
H  -0.83600 7.40100 30.35100
H  -0.27500 8.99600 29.90500
H  -0.02800 8.06200 32.43700
H  0.88100 9.39700 31.84000
H  -0.15300 2.11000 26.35200
H  0.21100 1.43400 24.75200
H  -1.42700 1.56200 25.29700
H  -1.01400 0.70300 21.42800
H  -1.63500 0.89700 23.04600
H  0.09400 0.94600 22.62600
H  -1.65800 8.07100 20.19600
H  1.03500 9.55900 20.14600
H  0.25400 6.22400 19.45200
H  0.81400 7.81000 18.67600
H  -0.64800 7.08600 18.23300
H  -1.40900 10.18400 19.13100
H  -0.30600 11.43500 19.70800
H  -1.77700 12.08700 21.27700
H  -2.35700 10.50800 21.78700
H  -2.99600 11.25900 20.30900
H  1.35000 13.22400 23.14300
H  2.43400 13.75400 24.52900
H  0.72200 13.93300 24.66100
H  0.68800 10.92600 29.10200
H  4.86600 11.57700 30.56400
H  4.35300 10.00700 31.10800
H  3.95700 11.36800 32.06700
Mg 17.43100 -1.35500 26.48400
C  16.31300 0.63800 29.27200
C  19.11900 -3.25800 28.72500
C  18.78800 -2.88300 23.86900
C  16.00300 1.06500 24.41200
N  17.61800 -1.27200 28.73900
C  17.09600 -0.42600 29.68500
C  17.54800 -0.85300 31.05200
C  18.43000 -2.11300 30.86300
C  18.41500 -2.28800 29.31200
C  19.78800 -1.90400 31.55000
C  16.42100 -0.95300 32.17000
C  16.56500 -0.11600 33.40000
H  17.96000 0.30700 33.89100
N  18.67700 -2.98900 26.30200
C  19.20600 -3.64000 27.39300
C  19.99000 -4.73700 26.83400
C  19.97900 -4.62100 25.37800
C  19.14900 -3.46100 25.15400
C  20.55400 -5.79900 27.67100
C  20.55000 -5.54800 24.39300
O  20.40100 -5.39100 23.19400
C  21.29500 -6.80100 24.84100
N  17.46200 -0.97200 24.41600
C  18.07000 -1.77500 23.52200
C  17.99000 -1.25800 22.11000
C  17.04300 -0.00400 22.28100
C  16.81300 0.08400 23.82000
C  19.37300 -1.00300 21.49000
C  15.65400 0.08500 21.52900
C  14.52800 -0.89300 21.81600
N  16.26400 0.44900 26.71000
C  15.69600 1.30100 25.79800
C  14.93000 2.31800 26.43600
C  15.14900 2.09800 27.81200
C  15.93100 0.95900 27.94200
C  14.02900 3.28200 25.83200
C  14.79500 2.60500 29.14900
O  14.00400 3.44700 29.51800
C  15.57100 1.67200 30.14400
C  16.45500 2.49400 31.04600
O  17.66400 2.54100 31.00500
O  15.55800 3.14000 31.97400
C  16.09000 4.01600 33.08900
H  19.73100 -3.80200 29.44700
H  19.20100 -3.41600 23.01000
H  15.62000 1.78100 23.68200
H  18.19800 -0.03600 31.36500
H  17.85700 -2.90900 31.33700
H  19.71000 -1.77300 32.63000
H  20.40400 -1.04000 31.30500
H  20.46400 -2.74300 31.38400
H  16.54400 -1.99000 32.48000
H  15.42500 -0.77300 31.76400
H  16.09100 -0.67500 34.20700
H  16.03500 0.80300 33.15000
H  20.02700 -6.71800 27.41500
H  20.36400 -5.60900 28.72700
H  21.62900 -5.94400 27.56600
H  22.13300 -6.78900 25.53900
H  21.76900 -7.11200 23.91100
H  20.54400 -7.53700 25.13000
H  17.36200 -1.95800 21.55900
H  17.54500 0.91600 21.98100
H  19.30900 -0.21400 20.74100
H  19.91000 -1.86400 21.09300
H  20.10200 -0.70300 22.24300
H  15.89600 0.00500 20.46900
H  15.21600 1.07100 21.68300
H  14.09800 -1.32200 20.91100
H  13.73800 -0.52500 22.47000
H  14.95900 -1.76000 22.31700
H  13.83400 3.11600 24.77200
H  14.46100 4.24800 26.09300
H  13.05200 3.11700 26.28400
H  14.91500 1.14900 30.84000
H  15.48500 4.00900 33.99600
H  16.22600 5.00000 32.63900
H  17.13000 3.75900 33.29300

