158

Mg 9.72700 47.45400 26.26500
C  7.70800 48.08000 29.02700
C  12.50200 48.18900 28.07200
C  11.37800 47.13300 23.40000
C  6.67400 46.87700 24.43700
N  10.01000 48.09100 28.33900
C  9.07000 48.11600 29.29400
C  9.83500 48.22600 30.70500
C  11.25700 48.75200 30.26300
C  11.26900 48.23900 28.81000
C  11.44200 50.32800 30.25000
C  9.89900 46.80900 31.41100
C  10.46400 46.88400 32.79600
H  9.72100 46.29100 34.06900
N  11.69100 47.84000 25.77000
C  12.72400 48.09600 26.73000
C  13.98600 47.96100 26.04200
C  13.69800 47.62100 24.67300
C  12.19700 47.51000 24.53200
C  15.31000 48.19500 26.79100
C  14.67600 47.48300 23.53400
O  14.28800 47.14800 22.44300
C  16.14600 47.50600 23.69400
N  9.11400 47.07300 24.26300
C  10.04800 46.85300 23.32700
C  9.49400 46.27200 22.05300
C  7.96200 46.10100 22.39500
C  7.87200 46.77900 23.76800
C  9.73400 47.04000 20.67800
C  7.43300 44.65300 22.44200
C  8.22500 43.67800 23.33700
N  7.59500 47.67100 26.55300
C  6.50500 47.37000 25.74600
C  5.32100 47.48500 26.53700
C  5.71800 47.81300 27.87100
C  7.10100 47.89900 27.76200
C  3.98900 47.31200 26.06300
C  5.26400 48.02400 29.23500
O  4.12000 48.04000 29.70200
C  6.54100 48.20800 30.02300
C  6.45500 47.10600 30.99400
O  6.27200 45.89600 30.72700
O  6.05600 47.68500 32.14200
C  5.42700 46.76800 33.15300
H  13.37600 48.16900 28.72500
H  11.99300 46.81900 22.55500
H  5.77000 46.63400 23.87400
H  9.40900 48.94600 31.40500
H  12.00900 48.23300 30.85700
H  11.42200 50.53300 29.18000
H  12.49900 50.36800 30.51500
H  10.79500 51.02100 30.78600
H  10.52500 46.13700 30.82500
H  8.91200 46.37300 31.25700
H  10.66800 47.94700 32.93000
H  11.34300 46.24000 32.75600
H  15.71000 49.11300 26.36000
H  16.01300 47.39600 26.55700
H  15.20600 48.31600 27.86900
H  16.67800 47.63200 22.75100
H  16.22600 46.45800 23.98000
H  16.52900 48.20000 24.44200
H  9.80000 45.23600 21.90800
H  7.41300 46.70600 21.67300
H  9.48500 48.09200 20.82100
H  9.02500 46.60700 19.97300
H  10.73500 46.83500 20.29900
H  7.54400 44.16600 21.47300
H  6.38600 44.54000 22.72000
H  9.05700 44.10500 23.89800
H  8.61000 42.82400 22.78000
H  7.61900 43.26600 24.14300
H  3.91400 46.43600 25.41900
H  3.73400 48.24900 25.56800
H  3.28100 47.20800 26.88500
H  6.53700 49.21300 30.44400
H  5.93000 45.80100 33.17300
H  4.35900 46.60600 33.01200
H  5.68300 47.40700 33.99800
Mg -12.17200 16.99200 42.19500
C  -8.99500 15.71400 41.61800
C  -10.88800 20.16600 41.15500
C  -15.23800 18.06000 41.62800
C  -13.36900 13.78700 42.63900
N  -10.13200 17.86300 41.46200
C  -8.99700 17.07900 41.35200
C  -7.82700 18.00400 41.01100
C  -8.40600 19.49800 41.10100
C  -9.84600 19.20800 41.31900
C  -7.90700 20.52400 42.16900
C  -7.26200 17.64900 39.53200
C  -5.74000 17.36400 39.45100
H  -5.27700 16.09600 38.68500
N  -12.94300 18.86800 41.63100
C  -12.31900 19.99900 41.24700
C  -13.25600 21.02100 40.76200
C  -14.49100 20.43800 41.10200
C  -14.28800 19.06100 41.45300
C  -12.81100 22.36200 40.18200
C  -15.77800 21.33900 41.10500
O  -15.64400 22.51700 40.77000
C  -17.12800 20.82500 41.39400
N  -14.02100 15.99700 42.01900
C  -15.14000 16.67400 41.88100
C  -16.40200 15.88400 42.29800
C  -15.83600 14.55300 42.79400
C  -14.31600 14.74600 42.53100
C  -17.39600 16.57700 43.30600
C  -16.30700 13.26600 42.13600
C  -17.54000 12.52100 42.79900
N  -11.33200 15.11800 42.37500
C  -12.00800 13.89100 42.51800
C  -10.99600 12.83600 42.50800
C  -9.79500 13.53300 42.18600
C  -10.12400 14.91800 41.98500
C  -11.22200 11.44900 42.77700
C  -8.41000 13.24100 42.04600
O  -7.71900 12.25500 42.23900
C  -7.80500 14.73400 41.70100
C  -6.88500 15.07000 42.78500
O  -7.22300 15.56400 43.86700
O  -5.60600 14.62700 42.46000
C  -4.58300 15.03700 43.38700
H  -10.47400 21.16400 40.99400
H  -16.25900 18.43900 41.55800
H  -13.68800 12.78000 42.91800
H  -6.97700 17.94200 41.69000
H  -8.36400 20.02200 40.14600
H  -8.41800 20.55200 43.13200
H  -8.06100 21.45800 41.62800
H  -6.82400 20.42500 42.25300
H  -7.45200 18.39600 38.76100
H  -7.77700 16.75200 39.18700
H  -5.38700 17.26100 40.47600
H  -5.27000 18.25900 39.04200
H  -11.83100 22.33200 39.70600
H  -12.79500 23.09000 40.99300
H  -13.51100 22.73800 39.43600
H  -17.42000 20.23900 40.52300
H  -17.76200 21.71100 41.36800
H  -17.21800 20.08800 42.19200
H  -16.99600 15.73500 41.39700
H  -15.93500 14.48200 43.87700
H  -18.45400 16.55200 43.04500
H  -17.07500 17.61400 43.40000
H  -17.37600 16.07000 44.27000
H  -15.47500 12.57400 42.00300
H  -16.63500 13.47700 41.11800
H  -18.29900 12.55100 42.01700
H  -17.74600 13.06000 43.72400
H  -17.23800 11.49600 43.01200
H  -11.60400 10.93300 41.89700
H  -12.06100 11.14200 43.40200
H  -10.34700 11.00200 43.25000
H  -7.29900 14.73100 40.73500
H  -3.67600 15.12200 42.79000
H  -4.53000 14.30200 44.19100
H  -4.84100 16.02500 43.76800

