158

Mg 24.97800 2.13100 29.28900
C  27.18100 1.96200 31.98800
C  22.36200 2.15900 31.49400
C  22.91300 1.95500 26.62000
C  27.64700 1.83900 27.10900
N  24.82600 2.15700 31.50400
C  25.84200 2.08900 32.41000
C  25.28500 2.09000 33.80100
C  23.75000 2.08600 33.60900
C  23.60600 2.20500 32.13900
C  23.09900 0.80200 34.09300
C  25.74700 3.38100 34.57700
C  24.87100 3.71800 35.78500
H  25.54700 4.13100 37.16400
N  22.87900 2.07400 29.09200
C  21.98100 2.14900 30.09300
C  20.65400 2.15600 29.46800
C  20.86700 2.17000 28.01700
C  22.28200 2.12800 27.86800
C  19.39200 2.19700 30.30700
C  19.85400 2.23200 26.84200
O  20.18300 2.40300 25.66400
C  18.44100 2.06800 27.17000
N  25.19300 1.71600 27.15700
C  24.22200 1.83700 26.22200
C  24.73400 1.89300 24.76600
C  26.28200 2.14200 24.97400
C  26.36600 1.90600 26.50800
C  24.30600 0.68200 23.92300
C  26.89200 3.58700 24.56200
C  26.32900 4.69700 25.41100
N  26.94700 1.83900 29.48200
C  27.91300 1.74600 28.51000
C  29.23900 1.56100 29.18700
C  28.96800 1.68400 30.53500
C  27.58900 1.85800 30.70400
C  30.55100 1.26800 28.60200
C  29.57000 1.54200 31.85300
O  30.70300 1.31400 32.22900
C  28.42500 1.85100 32.83000
C  28.40300 0.97400 33.99500
O  28.00300 -0.17400 34.02400
O  28.95700 1.69500 35.08200
C  28.92700 1.01500 36.41400
H  21.50600 2.18000 32.17200
H  22.31200 1.91200 25.70900
H  28.41800 2.08300 26.37400
H  25.58200 1.15400 34.27400
H  23.29000 3.00600 33.97000
H  23.62100 0.44900 34.98200
H  23.10700 0.14600 33.22300
H  22.06100 0.89400 34.41300
H  25.86000 4.26400 33.94800
H  26.76000 3.33700 34.97700
H  24.23500 2.86100 36.00400
H  24.25300 4.55800 35.46900
H  18.73800 1.34100 30.14700
H  18.65700 2.90300 29.92100
H  19.52800 2.36100 31.37600
H  18.31300 1.12100 27.69500
H  17.90700 1.99200 26.22300
H  18.17700 2.95200 27.75100
H  24.18800 2.74100 24.35300
H  26.90100 1.31400 24.63000
H  24.03100 1.05000 22.93400
H  23.45100 0.19600 24.39400
H  25.08600 -0.07800 23.87700
H  26.67800 3.72500 23.50200
H  27.94100 3.60700 24.85900
H  25.43200 4.45800 25.98200
H  26.25400 5.51500 24.69500
H  27.06600 5.01500 26.14800
H  31.19600 1.94700 29.16000
H  30.63300 1.46500 27.53300
H  31.01500 0.33100 28.90900
H  28.60400 2.83000 33.27500
H  28.39600 1.59700 37.16700
H  29.97400 0.79100 36.61800
H  28.48600 0.03000 36.26700
Mg 9.74900 47.30700 27.00300
C  7.99500 47.23300 29.89200
C  12.48000 48.46900 28.50100
C  11.27700 47.31000 24.02500
C  6.56500 46.51100 25.27500
N  10.16300 47.95500 28.96300
C  9.35600 47.62600 30.01900
C  10.10700 48.00800 31.37500
C  11.41100 48.66700 30.76800
C  11.35900 48.25000 29.33800
C  11.40000 50.22100 30.85800
C  10.34600 46.67400 32.20900
C  10.08600 46.73000 33.65500
H  10.45300 45.58800 34.57000
N  11.61100 47.80700 26.36200
C  12.61500 48.22000 27.15300
C  13.80900 48.31500 26.43800
C  13.50600 48.04200 25.08300
C  12.01600 47.74800 25.10400
C  15.04600 48.98700 26.92800
C  14.38600 47.95200 23.85100
O  13.90800 47.69100 22.79200
C  15.91400 48.10900 23.92500
N  8.92600 47.08700 24.89300
C  9.86200 46.96900 23.94700
C  9.20100 46.68700 22.60600
C  7.75200 46.20000 23.03700
C  7.75100 46.66300 24.48000
C  9.25700 47.86900 21.60700
C  7.64900 44.60600 22.93900
C  8.72900 43.80400 23.68000
N  7.75400 46.89700 27.40900
C  6.54800 46.65900 26.66400
C  5.39600 46.47700 27.56000
C  5.98600 46.62000 28.79600
C  7.35700 46.96000 28.66300
C  3.95200 46.27500 27.17900
C  5.60700 46.71700 30.16800
O  4.53200 46.69100 30.74700
C  6.94400 47.06700 30.92700
C  7.08800 45.91600 31.83700
O  7.52800 44.78500 31.56300
O  6.71600 46.36800 33.05800
C  6.57800 45.31400 34.05500
H  13.37600 48.76000 29.05400
H  11.74700 47.27700 23.04000
H  5.62400 46.36500 24.74100
H  9.56600 48.68700 32.03500
H  12.33300 48.22200 31.14200
H  12.10500 50.53500 31.62700
H  10.39700 50.62100 31.01000
H  11.73900 50.53300 29.87000
H  11.41300 46.45100 32.20000
H  9.86500 45.83800 31.70100
H  9.04800 47.01500 33.82500
H  10.59000 47.65000 33.95200
H  14.88500 49.44000 27.90600
H  15.30500 49.82900 26.28600
H  15.96200 48.39700 26.97100
H  16.28200 47.90300 22.91900
H  16.16000 47.38200 24.69900
H  16.22000 49.13600 24.12200
H  9.70200 45.84100 22.13600
H  6.97400 46.45100 22.31600
H  9.88400 48.69500 21.94400
H  8.29100 48.30300 21.34700
H  9.68800 47.56600 20.65300
H  7.90200 44.45200 21.89000
H  6.65000 44.28800 23.23600
H  8.60900 44.31300 24.63700
H  9.70900 43.96900 23.23100
H  8.45400 42.75100 23.73500
H  3.80500 46.19300 26.10200
H  3.35700 47.07800 27.61300
H  3.64700 45.35000 27.66800
H  6.88600 48.00000 31.48700
H  6.30800 45.77000 35.00800
H  7.58600 45.01200 34.33800
H  5.86000 44.54600 33.76800

