158

Mg 40.53000 9.71500 28.88600
C  42.40300 10.80500 31.78000
C  38.38300 8.22400 30.89400
C  38.91200 8.74300 26.19000
C  43.24200 10.79800 26.86100
N  40.44400 9.38400 30.99600
C  41.23400 10.02300 31.97500
C  40.51300 10.00600 33.33800
C  39.47400 8.83500 33.13800
C  39.45700 8.70700 31.59900
C  39.91200 7.46000 33.85300
C  39.89100 11.29500 33.82000
C  39.83300 11.48200 35.37400
H  40.49800 12.64300 36.06500
N  38.87200 8.59700 28.58500
C  38.01800 8.10800 29.55500
C  36.87500 7.38800 28.96400
C  36.95700 7.58500 27.50300
C  38.29200 8.32900 27.39200
C  35.85400 6.53800 29.75500
C  36.10400 6.99300 26.32700
O  36.33100 7.25300 25.18300
C  34.82300 6.28300 26.63100
N  41.16300 9.60800 26.81400
C  40.23800 9.26700 25.91100
C  40.83600 9.23300 24.51800
C  42.26200 9.91200 24.67800
C  42.25300 10.13300 26.13100
C  40.77400 7.88500 23.78000
C  42.40900 11.17000 23.88100
C  41.40600 12.29800 24.09700
N  42.41700 10.74900 29.21500
C  43.36700 11.09800 28.25100
C  44.48900 11.76500 28.96500
C  44.09800 11.76400 30.33600
C  42.86400 11.06600 30.44600
C  45.85200 12.16300 28.40800
C  44.41200 12.14600 31.68500
O  45.44500 12.67200 32.06000
C  43.28200 11.53200 32.66900
C  43.91300 10.49700 33.56200
O  44.61800 9.57400 33.18300
O  43.41600 10.65400 34.78500
C  43.85800 9.79500 35.92000
H  37.51900 7.87500 31.46200
H  38.35300 8.52900 25.27700
H  44.04900 11.21200 26.25300
H  41.17300 9.62900 34.11900
H  38.45000 8.98700 33.48100
H  40.86600 7.45900 34.38100
H  40.13500 6.73000 33.07500
H  39.04300 7.14000 34.42700
H  38.89000 11.52100 33.45300
H  40.49500 12.10600 33.41400
H  40.17800 10.60800 35.92800
H  38.80700 11.73700 35.63700
H  36.17500 6.44500 30.79300
H  35.94000 5.53100 29.34700
H  34.84000 6.91100 29.60900
H  34.22000 6.14900 25.73200
H  34.27200 6.82500 27.39900
H  35.22300 5.31100 26.92200
H  40.07800 9.80500 23.98200
H  43.06200 9.18400 24.55000
H  41.64200 7.25000 23.95800
H  40.69800 8.13400 22.72200
H  39.86200 7.32200 23.98000
H  42.34500 10.95200 22.81500
H  43.39400 11.57500 24.10900
H  40.66400 12.06300 24.85900
H  40.92700 12.42300 23.12600
H  41.84300 13.25800 24.37200
H  46.14000 11.70600 27.46100
H  46.52800 11.95500 29.23800
H  45.95500 13.24800 28.43800
H  43.04000 12.39300 33.29200
H  44.57900 9.11700 35.46200
H  42.94500 9.55500 36.46500
H  44.35900 10.55800 36.51600
Mg 17.14500 50.90700 26.88300
C  19.18100 49.92100 29.57200
C  14.84500 52.14500 28.98700
C  15.38200 51.86200 24.27200
C  19.61300 49.52700 24.66600
N  17.03000 51.01300 28.94100
C  17.96600 50.56100 29.90800
C  17.43500 50.83700 31.34100
C  15.88900 51.14300 31.07900
C  15.92400 51.51300 29.55100
C  14.96500 49.99600 31.38200
C  18.23700 52.05400 31.91500
C  18.16900 52.41700 33.45100
H  17.07400 51.92500 34.37200
N  15.47700 52.03800 26.68500
C  14.57800 52.46800 27.63800
C  13.48500 53.22600 27.07400
C  13.64400 53.15100 25.68100
C  14.90000 52.35900 25.48900
C  12.31500 53.71100 27.89400
C  12.74000 53.66400 24.59300
O  12.87900 53.50300 23.39700
C  11.51600 54.41000 25.00200
N  17.43600 50.72700 24.76600
C  16.48200 51.18700 23.87400
C  16.78800 50.81800 22.43600
C  18.27400 50.16400 22.52800
C  18.51500 50.13600 24.04600
C  15.69800 49.98900 21.70000
C  19.33700 50.78200 21.56500
C  20.10400 51.97800 22.18000
N  18.95700 49.88900 26.97000
C  19.87600 49.46600 26.04000
C  20.97500 48.83300 26.67600
C  20.73500 48.96500 28.08400
C  19.54000 49.65800 28.21400
C  22.13900 48.08100 25.99100
C  21.27700 48.64900 29.36700
O  22.20500 47.99100 29.69600
C  20.25100 49.31600 30.42000
C  19.69400 48.31400 31.31300
O  19.22900 47.25600 30.96500
O  19.98000 48.68000 32.64100
C  19.53700 47.78400 33.71100
H  14.02900 52.49000 29.62500
H  14.79700 52.38300 23.51100
H  20.30500 49.04800 23.97000
H  17.52200 49.90900 31.90700
H  15.58000 51.99200 31.68900
H  14.13200 50.38800 31.96600
H  15.57700 49.21800 31.83900
H  14.55600 49.54900 30.47500
H  17.85200 52.99200 31.51500
H  19.26300 52.00400 31.55000
H  18.06700 53.50100 33.48900
H  19.11600 52.14600 33.91800
H  12.46300 53.69400 28.97300
H  11.35400 53.30700 27.57500
H  12.17900 54.78700 27.78100
H  11.71500 55.36000 25.49800
H  10.82800 53.69700 25.45400
H  10.94000 54.72400 24.13100
H  16.94100 51.87400 22.21200
H  18.13900 49.10700 22.30000
H  14.88400 49.76100 22.38900
H  16.21200 49.09800 21.34000
H  15.25200 50.56700 20.89000
H  18.91000 50.92700 20.57200
H  20.04500 49.97100 21.39900
H  19.73300 52.19900 23.18100
H  19.87800 52.89300 21.63300
H  21.19300 51.92200 22.20000
H  21.97500 47.01800 26.17100
H  23.14800 48.34200 26.31200
H  22.04400 48.18900 24.91000
H  20.78200 50.09200 30.97200
H  20.27100 46.97800 33.70600
H  18.53500 47.36700 33.61000
H  19.58900 48.43300 34.58500

