158

Mg 36.02500 48.31000 26.01300
C  36.30600 46.25300 29.01400
C  34.97100 50.94000 28.07500
C  34.89000 49.84300 23.39200
C  36.31300 45.31900 24.22200
N  35.68300 48.60700 28.32200
C  36.04700 47.64200 29.29000
C  35.86100 48.27300 30.67300
C  35.40300 49.72200 30.35300
C  35.30200 49.80600 28.80500
C  34.02500 50.12000 31.01400
C  37.10800 48.13400 31.64400
C  36.83100 47.63100 33.04500
H  36.46100 48.60300 34.13700
N  35.26900 50.21500 25.76300
C  34.91000 51.15400 26.70800
C  34.67900 52.36500 26.14000
C  34.62200 52.09400 24.71500
C  34.93100 50.63200 24.54500
C  34.52600 53.67100 26.92100
C  34.29800 52.97100 23.53800
O  34.28800 52.52100 22.39900
C  33.89500 54.44300 23.83000
N  35.68200 47.67400 24.06800
C  35.20700 48.53000 23.16900
C  35.13800 47.90900 21.74600
C  35.61500 46.44500 22.01400
C  35.87900 46.48200 23.49900
C  33.71900 48.02700 21.10900
C  36.93700 45.97100 21.17600
C  38.32400 46.09600 21.82700
N  36.42600 46.26400 26.43700
C  36.56200 45.22800 25.60500
C  36.87900 44.02500 26.38400
C  36.75100 44.39100 27.70900
C  36.49800 45.75600 27.69400
C  37.20000 42.60900 25.89300
C  36.77800 43.90500 29.08000
O  36.85300 42.73300 29.53000
C  36.47700 45.12600 29.98400
C  35.16000 44.82500 30.62700
O  34.05100 45.12600 30.17000
O  35.39100 44.33000 31.85000
C  34.32900 44.15700 32.79700
H  34.72100 51.81700 28.67500
H  34.65200 50.34300 22.45100
H  36.32800 44.35400 23.71100
H  35.06300 47.70000 31.14500
H  36.12700 50.42800 30.76000
H  34.35800 50.83600 31.76500
H  33.57500 49.25500 31.50100
H  33.38200 50.59700 30.27400
H  37.64700 49.08000 31.69100
H  37.82900 47.39300 31.30000
H  37.76300 47.12500 33.29500
H  36.07200 46.84900 33.03600
H  33.49600 53.77400 27.26000
H  34.72800 54.56900 26.33800
H  35.16700 53.74600 27.79900
H  34.76400 55.05800 24.06200
H  33.13100 54.41000 24.60800
H  33.35800 54.81100 22.95600
H  35.75700 48.37800 20.98100
H  34.80200 45.75200 21.79600
H  33.57600 47.01600 20.72800
H  33.81800 48.72500 20.27700
H  33.00500 48.22600 21.90800
H  37.03700 46.58900 20.28400
H  36.78300 44.91900 20.94000
H  38.18900 46.83000 22.62200
H  39.08100 46.40100 21.10400
H  38.51400 45.12300 22.28000
H  38.20900 42.43200 26.26500
H  37.36400 42.44100 24.82800
H  36.52800 41.90800 26.38700
H  37.35100 45.27500 30.61800
H  34.42200 44.97600 33.51000
H  34.57100 43.24800 33.34800
H  33.29900 44.20500 32.44300
Mg -9.98200 16.97000 41.00600
C  -6.47000 16.50600 41.31200
C  -9.36900 20.37200 40.73700
C  -13.13300 17.43400 40.33500
C  -10.32200 13.45000 41.09500
N  -8.17000 18.24800 41.17900
C  -6.85500 17.85100 41.14400
C  -5.94100 19.01300 40.68900
C  -6.78400 20.24300 41.04600
C  -8.24000 19.61500 41.07700
C  -6.37300 20.90800 42.36900
C  -5.39100 18.95800 39.22400
C  -3.85800 19.02500 38.97100
H  -3.40000 18.13500 37.85900
N  -11.07400 18.66300 40.42900
C  -10.67300 19.97400 40.39400
C  -11.84300 20.90600 40.11700
C  -12.93900 20.01200 40.20600
C  -12.41600 18.66500 40.28400
C  -11.67800 22.40200 40.04800
C  -14.39800 20.47200 40.07200
O  -14.64400 21.69500 40.00800
C  -15.61500 19.55500 40.05700
N  -11.42200 15.53600 40.45700
C  -12.69800 16.04900 40.55600
C  -13.75400 14.93200 40.59000
C  -12.83400 13.63800 40.62600
C  -11.46100 14.20800 40.76700
C  -14.82100 15.07300 41.74200
C  -13.01400 12.55800 39.53800
C  -13.32000 11.16400 40.00500
N  -8.75300 15.32900 41.37500
C  -9.01900 13.95300 41.35700
C  -7.87000 13.18400 41.71000
C  -6.79200 14.10800 41.60500
C  -7.40300 15.38600 41.42000
C  -7.83500 11.72400 42.01700
C  -5.39300 14.24700 41.53700
O  -4.49000 13.41500 41.57800
C  -5.10400 15.78500 41.16400
C  -4.17800 16.25400 42.18900
O  -3.08000 16.75200 41.99600
O  -4.68700 16.15200 43.47800
C  -4.00600 16.60300 44.71600
H  -9.22300 21.45400 40.75800
H  -14.21200 17.45000 40.16800
H  -10.47800 12.37100 41.14600
H  -5.13500 18.87600 41.41000
H  -6.71900 21.00900 40.27400
H  -5.57100 20.44700 42.94500
H  -7.24900 21.03400 43.00600
H  -5.98200 21.88400 42.08100
H  -5.81700 19.76600 38.62900
H  -5.77500 18.04200 38.77500
H  -3.36600 18.70100 39.88900
H  -3.67400 20.04300 38.62700
H  -12.55000 22.85000 39.57100
H  -10.79500 22.59000 39.43800
H  -11.59500 22.77800 41.06800
H  -15.60000 18.92000 39.17100
H  -16.52700 20.14700 39.98500
H  -15.68800 19.14600 41.06400
H  -14.26500 14.95000 39.62800
H  -13.07400 13.08900 41.53700
H  -14.98000 16.03000 42.23900
H  -14.61800 14.35800 42.53900
H  -15.76600 14.76600 41.29400
H  -12.18400 12.48300 38.83600
H  -13.81600 12.81100 38.84400
H  -12.85900 10.41700 39.35900
H  -14.38600 10.93800 39.96500
H  -12.96300 10.95000 41.01300
H  -8.83500 11.37600 42.27600
H  -7.16400 11.30300 42.76600
H  -7.55800 11.23700 41.08200
H  -4.62400 15.89800 40.19200
H  -4.51900 17.51400 45.02400
H  -2.92700 16.71900 44.61900
H  -4.12600 15.95200 45.58200

