158

Mg 30.30800 58.25200 39.53900
C  27.24200 56.39200 38.55000
C  32.02600 55.51700 38.37600
C  32.94900 60.20800 39.86300
C  28.10200 61.04500 40.08800
N  29.54000 56.19200 38.66100
C  28.37100 55.66500 38.29800
C  28.56500 54.24300 37.68000
C  30.10300 54.06300 37.61000
C  30.63600 55.36200 38.26100
C  30.64200 52.74800 38.24700
C  27.67800 53.88500 36.47100
C  27.42300 55.01300 35.47100
H  28.05000 54.90300 34.08000
N  32.26000 57.94300 39.18300
C  32.77600 56.71500 38.77500
C  34.18000 56.87600 38.74300
C  34.57800 58.19500 39.16800
C  33.24400 58.84900 39.47400
C  35.08900 55.87200 38.32000
C  36.00800 58.69800 39.25700
O  37.02900 58.12500 38.96500
C  36.15700 60.04100 39.72900
N  30.47000 60.28300 40.09700
C  31.75900 60.86100 40.18800
C  31.60200 62.37600 40.30600
C  30.08500 62.59300 40.63400
C  29.47100 61.27200 40.19700
C  32.57000 62.97900 41.34400
C  29.54200 63.91500 40.00900
C  28.24800 64.57900 40.46300
N  28.15600 58.64500 39.58700
C  27.40700 59.82500 39.78300
C  26.01700 59.60500 39.58300
C  25.90800 58.30600 39.14300
C  27.21700 57.74800 39.15400
C  24.97700 60.64400 39.81200
C  24.93800 57.29800 38.71300
O  23.73500 57.31000 38.72600
C  25.76500 56.00800 38.47500
C  25.28500 54.83700 39.37700
O  25.55000 54.68400 40.57300
O  24.59800 53.89900 38.62500
C  23.98500 52.75800 39.27000
H  32.59500 54.64000 38.06000
H  33.75300 60.94400 39.93300
H  27.44400 61.91500 40.13800
H  28.23300 53.51300 38.41700
H  30.43200 53.97900 36.57400
H  31.36100 52.42600 37.49300
H  29.79300 52.09300 38.44300
H  31.14800 53.03600 39.16800
H  26.75600 53.46900 36.87700
H  28.06300 52.98500 35.99000
H  27.89000 55.95800 35.74700
H  26.34700 55.08200 35.30900
H  34.61500 54.96300 37.95200
H  35.65200 55.52400 39.18700
H  35.84300 56.10900 37.56900
H  35.54900 60.15200 40.62600
H  35.71100 60.58100 38.89400
H  37.19800 60.25300 39.97400
H  31.89000 62.81500 39.35000
H  30.00200 62.58100 41.72000
H  33.44500 63.45000 40.89700
H  32.81100 62.31200 42.17200
H  32.02900 63.74400 41.90000
H  29.49600 63.77200 38.92900
H  30.30500 64.64200 40.28500
H  27.45300 64.51200 39.72000
H  28.35200 65.66000 40.55100
H  27.89100 64.08000 41.36500
H  24.06000 60.29800 39.33400
H  25.33800 61.58100 39.38700
H  24.88700 60.73800 40.89400
H  25.57300 55.58000 37.49200
H  24.61000 51.86500 39.25300
H  23.06900 52.48500 38.74600
H  23.70100 53.02700 40.28700
Mg -11.75200 17.48800 41.84800
C  -8.57500 15.88000 41.59600
C  -10.43800 20.24100 40.39200
C  -14.81600 18.44700 41.21400
C  -13.10400 14.23800 42.73400
N  -9.69900 17.97700 41.21300
C  -8.52600 17.20300 41.15800
C  -7.36400 17.96500 40.40700
C  -8.01500 19.43900 40.29100
C  -9.50300 19.19700 40.64100
C  -7.41000 20.56800 41.22900
C  -7.09700 17.30300 38.97800
C  -5.62800 17.17000 38.68100
H  -5.21000 17.73300 37.29400
N  -12.50300 19.17200 41.17900
C  -11.79100 20.24300 40.63700
C  -12.70200 21.32600 40.25800
C  -14.04300 20.84800 40.40000
C  -13.86400 19.43000 40.92500
C  -12.29700 22.64300 39.70600
C  -15.28500 21.64100 40.27000
O  -15.26200 22.81200 39.87700
C  -16.60600 20.99100 40.50300
N  -13.68200 16.36700 41.83200
C  -14.77700 17.16400 41.78300
C  -16.03200 16.49300 42.25100
C  -15.51800 15.13900 42.75900
C  -13.99700 15.27700 42.45400
C  -16.72200 17.31800 43.35800
C  -16.09800 13.92700 41.94900
C  -17.11600 13.04600 42.76100
N  -10.99700 15.47800 42.19300
C  -11.68100 14.35600 42.59500
C  -10.72700 13.18800 42.62100
C  -9.44700 13.77200 42.31700
C  -9.65200 15.17300 42.05700
C  -10.97500 11.76600 42.90900
C  -8.03800 13.54100 42.07600
O  -7.38500 12.49900 42.10300
C  -7.44800 14.87100 41.68700
C  -6.45000 15.33100 42.69500
O  -6.68600 15.46200 43.89400
O  -5.26900 15.66400 42.09200
C  -4.16400 16.06600 42.97200
H  -9.97000 21.09000 39.89100
H  -15.84000 18.68000 40.91700
H  -13.53200 13.38100 43.25800
H  -6.49700 17.94800 41.06700
H  -8.10900 19.78800 39.26300
H  -7.39800 21.43900 40.57400
H  -6.37800 20.36500 41.51500
H  -8.13000 20.75100 42.02600
H  -7.38900 18.04200 38.23200
H  -7.71100 16.41200 38.84700
H  -5.31600 16.12600 38.69900
H  -4.88800 17.63200 39.33400
H  -11.32800 22.58200 39.21000
H  -12.12200 23.45500 40.41100
H  -12.95300 22.99500 38.91000
H  -17.41700 21.71800 40.46300
H  -16.53700 20.54700 41.49700
H  -16.79000 20.25000 39.72500
H  -16.76600 16.46400 41.44600
H  -15.60800 15.09500 43.84400
H  -17.12900 16.65800 44.12500
H  -17.47700 17.83200 42.76300
H  -15.98100 17.96500 43.82800
H  -15.29500 13.26200 41.63300
H  -16.58400 14.19900 41.01100
H  -17.11500 13.46100 43.76800
H  -16.66600 12.05400 42.81200
H  -18.12100 13.00600 42.34100
H  -10.09600 11.12900 43.01400
H  -11.55300 11.46200 42.03600
H  -11.47800 11.57100 43.85600
H  -7.10000 14.77400 40.65900
H  -3.91800 17.12800 42.97700
H  -3.25300 15.63900 42.55100
H  -4.17700 15.67400 43.98900

