158

Mg -0.06800 7.76000 27.37500
C  0.83800 9.88600 29.89900
C  0.20100 5.14700 29.46600
C  -0.44900 5.73000 24.66400
C  0.01000 10.63200 25.25400
N  0.43800 7.52600 29.41100
C  0.71900 8.50000 30.25300
C  0.77400 7.92900 31.71100
C  0.81100 6.42000 31.51900
C  0.50200 6.36100 30.06100
C  2.13000 5.71600 31.92000
C  -0.44700 8.37600 32.57500
C  -0.73100 7.67700 33.90000
H  0.32900 6.90500 34.68000
N  -0.18800 5.68600 27.10100
C  -0.09700 4.83500 28.13100
C  -0.47200 3.49400 27.61300
C  -0.49000 3.61000 26.18700
C  -0.33600 5.06900 25.87400
C  -0.85000 2.38500 28.56200
C  -0.64300 2.47500 25.14800
O  -0.54100 2.65900 23.94000
C  -1.03300 0.99900 25.61000
N  -0.21300 8.18800 25.30900
C  -0.38500 7.14000 24.43800
C  -0.39600 7.70900 23.01900
C  -0.73600 9.26700 23.17000
C  -0.36800 9.42000 24.70100
C  1.02800 7.48400 22.31000
C  -2.26000 9.77100 22.87600
C  -2.37000 10.62000 21.61300
N  0.28900 9.88200 27.59700
C  0.37500 10.85700 26.64800
C  0.88600 12.17800 27.24800
C  1.05100 11.80000 28.57700
C  0.62500 10.45500 28.70900
C  1.20600 13.45900 26.43200
C  1.56400 12.18300 29.83900
O  2.00600 13.26300 30.24300
C  1.20400 11.05100 30.83300
C  2.22700 10.84200 31.85600
O  3.38000 10.65200 31.61800
O  1.73800 11.21300 33.05200
C  2.61700 11.54500 34.21300
H  0.12700 4.27200 30.11600
H  -0.66400 5.17700 23.74700
H  0.10800 11.42700 24.51200
H  1.60600 8.32500 32.29300
H  -0.01400 5.95100 32.05600
H  1.96600 5.24200 32.88800
H  2.85200 6.53200 31.95300
H  2.48400 4.92900 31.25500
H  -1.38400 8.13600 32.07300
H  -0.38000 9.45200 32.73200
H  -1.63300 7.10600 33.68300
H  -1.03200 8.54600 34.48500
H  -1.86600 2.18300 28.22600
H  -0.87000 2.40700 29.65200
H  -0.19800 1.52400 28.41100
H  -0.18000 0.66900 26.20300
H  -1.14800 0.35800 24.73500
H  -1.98300 1.06800 26.13800
H  -1.26300 7.35600 22.46000
H  0.03600 9.76000 22.57900
H  1.74100 8.29300 22.46600
H  0.87100 7.21900 21.26500
H  1.53700 6.65200 22.79800
H  -2.62600 10.38100 23.70200
H  -2.99600 8.97600 22.75900
H  -1.54800 10.27500 20.98600
H  -2.45200 11.65400 21.94800
H  -3.28600 10.38000 21.07400
H  1.68100 13.03500 25.54700
H  1.80300 14.01000 27.15800
H  0.27800 13.95500 26.14900
H  0.25300 11.34900 31.27600
H  2.13300 11.32900 35.16600
H  2.95200 12.57400 34.08300
H  3.50400 10.92400 34.08600
Mg -5.88200 24.84600 26.86300
C  -4.27900 25.93300 29.75100
C  -8.01200 22.93600 28.78400
C  -7.20800 23.59800 24.02500
C  -3.58500 26.70900 25.01400
N  -6.11900 24.50700 28.98800
C  -5.33400 25.00800 30.00600
C  -5.85800 24.57600 31.32800
C  -6.77000 23.36700 31.02500
C  -7.05400 23.67700 29.51300
C  -6.14400 21.97400 31.24700
C  -6.57800 25.73600 32.17400
C  -6.07400 25.98200 33.62100
H  -5.15600 24.98600 34.37100
N  -7.46400 23.51700 26.44400
C  -8.19300 22.83700 27.38700
C  -9.28500 22.15500 26.74500
C  -9.07300 22.36800 25.35500
C  -7.90400 23.19700 25.18700
C  -10.36600 21.33200 27.51200
C  -9.93300 21.90600 24.11700
O  -9.64800 22.12200 22.96400
C  -11.20200 21.02200 24.30500
N  -5.44500 25.12300 24.74000
C  -6.09100 24.41200 23.80500
C  -5.56500 24.64200 22.47000
C  -4.37700 25.68900 22.72600
C  -4.50000 25.91600 24.25800
C  -4.99300 23.46300 21.75200
C  -4.34300 27.04900 21.84500
C  -3.13200 27.17800 20.89500
N  -4.34200 26.16800 27.20900
C  -3.51200 26.95700 26.38300
C  -2.57400 27.62100 27.13400
C  -2.85500 27.31200 28.46600
C  -3.90900 26.39500 28.46500
C  -1.53900 28.51000 26.51900
C  -2.40600 27.56800 29.86800
O  -1.43800 28.21200 30.25500
C  -3.34400 26.58600 30.83600
C  -2.36800 25.71300 31.53100
O  -1.97300 24.65800 31.08000
O  -1.97000 26.26500 32.75000
C  -0.96500 25.57700 33.45700
H  -8.64000 22.40100 29.49900
H  -7.56400 23.11700 23.11100
H  -2.85100 27.26800 24.42900
H  -4.94900 24.33900 31.88200
H  -7.67100 23.32500 31.63700
H  -5.08200 22.18400 31.37700
H  -6.09000 21.36700 30.34400
H  -6.60300 21.41300 32.06100
H  -7.56300 25.29900 32.33800
H  -6.66500 26.61400 31.53500
H  -6.95600 26.16400 34.23500
H  -5.49900 26.90600 33.55600
H  -11.32200 21.83000 27.66900
H  -9.94100 21.11700 28.49300
H  -10.57200 20.41600 26.95800
H  -11.81600 21.50400 25.06600
H  -10.79700 20.08400 24.68200
H  -11.60100 20.90200 23.29700
H  -6.26600 25.04000 21.73700
H  -3.41400 25.18000 22.71100
H  -3.98400 23.39100 21.34600
H  -5.48800 23.41700 20.78200
H  -5.20300 22.53800 22.28900
H  -4.24000 27.83800 22.59000
H  -5.31000 27.17800 21.35800
H  -2.50700 26.30400 21.07900
H  -2.59100 28.04500 21.27400
H  -3.38300 27.30900 19.84200
H  -0.92100 27.78400 25.98900
H  -1.04200 28.95300 27.38100
H  -1.89100 29.27600 25.82800
H  -3.94000 27.13600 31.56500
H  -0.09300 26.20500 33.63900
H  -0.63800 24.67600 32.93700
H  -1.30800 25.22000 34.42800

