158

Mg 30.16500 58.47100 41.09600
C  27.31000 56.75800 40.02500
C  31.98700 56.02500 39.46100
C  32.98900 60.46300 41.15500
C  28.18800 61.14900 42.32800
N  29.67800 56.46800 40.08600
C  28.47100 56.03500 39.67500
C  28.54500 54.75800 38.84500
C  30.05500 54.38500 38.93900
C  30.63900 55.71600 39.53400
C  30.45500 53.07500 39.64600
C  28.01800 54.95500 37.39400
C  27.46000 53.76400 36.61400
H  27.80300 53.71900 35.10900
N  32.14300 58.31600 40.35700
C  32.68300 57.17900 39.73400
C  34.03900 57.38900 39.43800
C  34.35200 58.64900 39.97500
C  33.10700 59.23800 40.47900
C  34.94300 56.29100 38.84700
C  35.69000 59.29800 39.67900
O  36.71300 58.64300 39.44300
C  35.96400 60.78400 39.77700
N  30.49200 60.52900 41.63600
C  31.79600 61.08000 41.72200
C  31.66100 62.52300 41.97300
C  30.15700 62.72700 42.44400
C  29.51700 61.41000 42.12500
C  32.69600 63.07900 43.03600
C  29.39200 64.02500 41.80200
C  28.56800 64.80700 42.85500
N  28.20400 58.89800 41.27200
C  27.57600 59.98100 41.85700
C  26.15100 59.73900 41.80800
C  26.00500 58.49000 41.11000
C  27.27500 58.02000 40.83100
C  25.03400 60.64500 42.33700
C  25.05200 57.53100 40.58700
O  23.86200 57.58000 40.48300
C  25.89600 56.33500 39.90800
C  25.52100 55.15500 40.69300
O  26.03200 54.77000 41.72900
O  24.46300 54.49100 40.14900
C  23.88800 53.29400 40.80900
H  32.57500 55.16700 39.12800
H  33.82700 61.14300 41.32100
H  27.53500 61.86500 42.83300
H  27.97600 53.90400 39.21100
H  30.36100 54.25100 37.90100
H  31.21700 53.19600 40.41700
H  30.92200 52.39100 38.93700
H  29.56700 52.53900 39.98300
H  28.81000 55.45600 36.83700
H  27.17100 55.63700 37.47500
H  26.37400 53.69200 36.67200
H  27.90600 52.87900 37.06700
H  34.50900 55.86600 37.94300
H  34.99700 55.42000 39.50100
H  35.92700 56.65000 38.54700
H  35.14400 61.38000 39.37600
H  36.79800 60.94200 39.09200
H  36.29600 61.00800 40.79100
H  31.84800 62.91600 40.97300
H  30.15600 62.79100 43.53200
H  33.50500 63.50900 42.44600
H  33.06000 62.24300 43.63300
H  32.21300 63.94100 43.49800
H  28.67300 63.67600 41.06000
H  30.07900 64.78600 41.43100
H  27.54200 64.82800 42.48700
H  28.94900 65.82800 42.87900
H  28.64700 64.42400 43.87300
H  25.27000 61.68800 42.12500
H  25.29800 60.76700 43.38700
H  24.02500 60.24300 42.25100
H  25.57200 56.22400 38.87300
H  24.70500 52.79800 41.33300
H  23.57100 52.61200 40.02100
H  23.09800 53.59400 41.49900
Mg -12.18600 16.34900 41.54000
C  -9.25600 14.25800 41.07400
C  -10.49400 18.81400 40.06100
C  -15.10100 17.92000 41.05700
C  -13.82600 13.48000 42.53300
N  -10.19900 16.36800 40.49100
C  -9.05700 15.55800 40.58800
C  -7.75100 16.20300 40.05800
C  -8.16500 17.66700 40.14800
C  -9.73300 17.65000 40.29800
C  -7.41600 18.62100 41.18400
C  -7.40400 15.71300 38.64300
C  -5.95600 15.28300 38.29900
H  -5.25300 15.88100 37.04900
N  -12.69500 18.25900 40.87800
C  -11.81200 19.07200 40.32700
C  -12.57900 20.32800 39.88700
C  -13.92000 20.14500 40.33500
C  -13.94700 18.77000 40.84300
C  -11.97400 21.52400 39.25600
C  -15.04600 21.12500 40.37900
O  -14.83600 22.28300 40.04100
C  -16.40200 20.83000 40.88300
N  -14.21300 15.74100 41.59800
C  -15.23100 16.59500 41.39900
C  -16.56300 15.83200 41.58700
C  -16.19400 14.45800 42.27300
C  -14.66200 14.56200 42.12300
C  -17.61800 16.66500 42.42300
C  -16.80500 13.26900 41.50400
C  -17.56300 12.14900 42.26000
N  -11.73500 14.29100 41.75800
C  -12.47800 13.28200 42.36900
C  -11.64300 12.11400 42.67300
C  -10.31200 12.40400 42.19100
C  -10.45200 13.72700 41.61600
C  -12.08100 10.80100 43.30100
C  -8.94300 11.96800 42.00700
O  -8.47900 10.85800 42.28200
C  -8.23700 13.18500 41.23600
C  -6.98800 13.56400 41.96500
O  -6.91700 13.82100 43.11800
O  -5.82200 13.60100 41.13200
C  -4.50100 14.03600 41.65900
H  -9.81600 19.61700 39.76500
H  -16.08500 18.39300 41.07300
H  -14.43500 12.65900 42.91800
H  -6.89500 15.95700 40.68700
H  -8.06600 18.19500 39.19900
H  -6.98700 19.46200 40.64100
H  -6.56200 18.07000 41.57900
H  -8.14000 18.96300 41.92400
H  -7.71100 16.45300 37.90400
H  -8.12400 14.90500 38.51300
H  -5.88200 14.19800 38.23700
H  -5.28600 15.46500 39.13900
H  -12.59600 22.08500 38.55900
H  -11.11300 21.17200 38.68700
H  -11.57800 22.13100 40.07000
H  -16.21500 20.33400 41.83500
H  -17.01700 20.22400 40.21600
H  -16.98100 21.71500 41.14700
H  -16.92400 15.57700 40.59100
H  -16.46000 14.43400 43.33000
H  -17.22100 17.48300 43.02400
H  -18.20800 16.06300 43.11300
H  -18.31400 17.10900 41.71100
H  -15.98900 12.72600 41.02800
H  -17.50300 13.55800 40.71900
H  -18.44800 11.95400 41.65500
H  -17.90500 12.48200 43.24000
H  -16.84700 11.33000 42.33700
H  -12.92300 10.54100 42.66000
H  -12.53600 10.82500 44.29100
H  -11.34100 10.00600 43.20200
H  -7.94200 12.77500 40.27100
H  -4.56600 15.11800 41.54900
H  -3.72400 13.54500 41.07400
H  -4.46800 13.67500 42.68700

