158

Mg 0.87100 7.29800 26.36200
C  1.89100 8.97600 29.12500
C  1.01100 4.43700 28.21300
C  0.62200 5.41600 23.49600
C  1.33900 10.16200 24.41600
N  1.36000 6.78700 28.45200
C  1.57200 7.69000 29.45300
C  1.53100 7.02600 30.81800
C  1.34900 5.49900 30.45100
C  1.26000 5.61200 28.91200
C  2.48000 4.57200 30.97600
C  0.29900 7.56400 31.57900
C  0.32900 7.73800 33.11800
H  1.43400 6.97900 33.91200
N  0.83500 5.24500 25.90100
C  0.85000 4.22500 26.85100
C  0.55500 2.93900 26.20900
C  0.48200 3.22600 24.80200
C  0.60700 4.65700 24.67400
C  0.19600 1.68800 26.94300
C  0.25900 2.24900 23.61400
O  0.45700 2.51200 22.46100
C  -0.10000 0.91400 23.91700
N  0.74400 7.71900 24.32300
C  0.59600 6.80200 23.33300
C  0.58900 7.53300 22.00200
C  0.45700 9.09100 22.29200
C  0.86500 8.98500 23.76300
C  1.72800 7.14500 21.11100
C  -0.99000 9.70900 22.23800
C  -1.00700 10.97700 21.40000
N  1.27400 9.22800 26.68500
C  1.58900 10.28500 25.82000
C  1.90500 11.45700 26.59500
C  1.99200 10.98300 27.86900
C  1.67300 9.60700 27.90000
C  2.10400 12.86900 26.13100
C  2.33100 11.40200 29.19500
O  2.66200 12.48000 29.63400
C  2.15500 10.10800 30.16400
C  3.30300 9.97900 31.09900
O  4.48000 9.98000 30.81200
O  2.79300 10.21900 32.41300
C  3.80300 10.38500 33.37700
H  1.08200 3.54900 28.84400
H  0.45800 4.74500 22.65000
H  1.54800 11.04400 23.80700
H  2.48400 7.14000 31.33500
H  0.52600 5.07100 31.02400
H  2.02300 3.62400 31.25800
H  2.89800 4.99800 31.88800
H  3.22500 4.40000 30.19900
H  -0.54000 6.91100 31.33800
H  0.11300 8.59100 31.26700
H  -0.63100 7.48100 33.56400
H  0.46700 8.80200 33.31200
H  0.81300 0.91900 26.47800
H  -0.87900 1.57600 26.80200
H  0.43900 1.71800 28.00600
H  0.68300 0.40600 24.48000
H  -0.18100 0.34600 22.99000
H  -0.99500 0.75700 24.52000
H  -0.34900 7.20800 21.55300
H  1.20900 9.62200 21.71000
H  2.59100 7.78300 21.30100
H  1.46700 7.13800 20.05300
H  2.00800 6.12800 21.38800
H  -1.47500 9.83300 23.20600
H  -1.64200 9.02400 21.69600
H  0.00300 11.36400 21.26100
H  -1.45500 11.76500 22.00400
H  -1.52400 10.89300 20.44400
H  3.01000 13.12900 25.58400
H  2.16400 13.42700 27.06600
H  1.16300 13.15700 25.66200
H  1.31600 10.26600 30.84200
H  4.50400 11.20600 33.22600
H  4.41700 9.53200 33.66600
H  3.32300 10.81100 34.25800
Mg 47.37600 44.66100 42.55200
C  44.00800 43.46000 42.41800
C  48.23800 41.20200 42.36700
C  50.37200 45.63200 42.36600
C  46.15300 47.89500 42.03300
N  46.20700 42.60100 42.50800
C  44.86000 42.33500 42.51100
C  44.51900 40.89000 42.28000
C  45.87000 40.14600 42.55600
C  46.88100 41.39400 42.52200
C  45.74300 39.30800 43.88000
C  43.84000 40.60900 40.83800
C  44.40600 41.24800 39.54500
H  44.15100 40.54700 38.20000
N  49.07500 43.55800 42.42900
C  49.30200 42.16200 42.35500
C  50.74200 41.95700 42.23300
C  51.40400 43.18400 42.20500
C  50.27700 44.19600 42.32600
C  51.33600 40.57000 42.22500
C  52.91500 43.34000 42.16600
O  53.62700 42.34000 42.00700
C  53.47400 44.67300 42.07100
N  48.16700 46.60600 42.23700
C  49.49400 46.70600 42.33200
C  49.88300 48.19800 42.42200
C  48.59400 48.87400 41.83800
C  47.56600 47.78100 42.01100
C  50.15300 48.64200 43.92400
C  48.84300 49.27800 40.38600
C  47.92500 50.23100 39.66700
N  45.54200 45.51700 42.15600
C  45.18500 46.86200 42.06400
C  43.72100 47.02200 42.01000
C  43.21700 45.68800 42.21700
C  44.34200 44.81700 42.25300
C  42.99000 48.38900 41.69600
C  42.00900 44.95100 42.27700
O  40.83400 45.32700 42.17300
C  42.44900 43.44800 42.51800
C  42.02800 42.95000 43.84000
O  41.52500 41.85000 44.11000
O  42.33800 43.89800 44.80100
C  41.80600 43.56200 46.10600
H  48.48800 40.13900 42.38800
H  51.32300 46.16300 42.28300
H  45.82700 48.89200 41.73100
H  43.66700 40.64700 42.91600
H  46.18400 39.42500 41.80200
H  46.17900 39.75100 44.77500
H  46.12400 38.29200 43.77800
H  44.68800 39.18000 44.12300
H  42.80600 40.94600 40.91500
H  43.77000 39.52200 40.79600
H  45.45600 41.53800 39.58200
H  43.88700 42.19600 39.40500
H  50.71800 39.69600 42.43000
H  52.18400 40.48700 42.90500
H  51.71900 40.28000 41.24700
H  53.27300 45.01700 41.05700
H  54.55800 44.59200 42.15200
H  53.02000 45.20200 42.90900
H  50.80500 48.43300 41.89200
H  48.30000 49.83100 42.27100
H  51.13200 49.10100 44.06000
H  50.12700 47.72400 44.51100
H  49.35900 49.28300 44.30500
H  48.86900 48.38700 39.76000
H  49.85700 49.67200 40.32100
H  48.60000 50.93900 39.18500
H  47.15000 50.67700 40.29000
H  47.47100 49.66400 38.85500
H  43.50800 49.05100 42.39000
H  41.96200 48.41800 42.05600
H  43.09300 48.75000 40.67300
H  41.88800 42.76100 41.88400
H  40.72300 43.47100 46.18800
H  42.21800 44.19700 46.89000
H  42.17400 42.61100 46.49100

