158

Mg 26.92100 50.18500 26.89600
C  25.08800 51.52600 29.40100
C  29.31400 49.49600 29.12500
C  28.97300 49.37700 24.25500
C  24.41800 51.19400 24.44300
N  27.11900 50.49500 29.00100
C  26.17000 50.92500 29.83000
C  26.46700 50.47100 31.26500
C  27.94800 50.08000 31.23400
C  28.17400 49.98100 29.73100
C  28.88900 51.09400 31.95100
C  25.46300 49.37000 31.88100
C  24.84800 49.81100 33.23200
H  25.28200 49.13200 34.47200
N  28.85600 49.58400 26.75000
C  29.67900 49.33400 27.77000
C  30.89100 48.71800 27.31700
C  30.90000 48.76400 25.86300
C  29.56200 49.26000 25.55400
C  31.98900 48.19700 28.27500
C  31.92400 48.45500 24.85100
O  31.78300 48.60800 23.67700
C  33.29600 48.04800 25.37300
N  26.69300 50.28200 24.66800
C  27.75300 49.83600 23.87100
C  27.35600 49.82500 22.39400
C  25.89900 50.38900 22.41300
C  25.62200 50.62900 23.91300
C  28.24200 50.71300 21.51200
C  24.78400 49.46800 21.84900
C  24.79400 49.42800 20.36600
N  25.11500 51.24700 26.85600
C  24.18100 51.47100 25.82200
C  23.10000 52.19200 26.44100
C  23.37400 52.12100 27.82900
C  24.63100 51.58900 28.02700
C  21.91300 52.76800 25.73300
C  22.77800 52.47500 29.15100
O  21.64700 52.86500 29.53100
C  23.91000 52.11000 30.31300
C  24.43100 53.29900 30.86200
O  25.08100 54.10100 30.26700
O  23.99700 53.52300 32.14000
C  24.36500 54.76900 32.83400
H  29.96300 49.04500 29.87900
H  29.70000 49.02000 23.52300
H  23.66500 51.45900 23.69800
H  26.30800 51.39000 31.83000
H  28.01600 49.01000 31.42900
H  29.73400 51.38400 31.32700
H  29.07300 50.54500 32.87400
H  28.43100 52.05400 32.18900
H  25.99000 48.42400 32.00300
H  24.68600 49.15600 31.14600
H  23.76700 49.78800 33.09900
H  24.96900 50.87800 33.42300
H  32.95000 48.67100 28.07600
H  32.08700 47.15700 27.96500
H  31.94400 48.26600 29.36200
H  33.98400 47.88000 24.54400
H  33.30200 47.19800 26.05500
H  33.71500 48.90400 25.90100
H  27.42900 48.80500 22.01800
H  25.89900 51.33600 21.87300
H  29.13200 51.06200 22.03600
H  27.78500 51.51200 20.92900
H  28.62200 49.97000 20.81200
H  23.79200 49.63600 22.26800
H  25.12100 48.48800 22.18700
H  24.92600 48.38800 20.06800
H  25.64500 49.86400 19.84100
H  23.93400 49.93300 19.92600
H  21.50200 52.10000 24.97700
H  22.10400 53.71500 25.22700
H  21.15500 52.92200 26.50100
H  23.46300 51.54600 31.13100
H  24.82500 55.57600 32.26400
H  25.11300 54.52500 33.58800
H  23.58100 55.34400 33.32600
Mg 16.80900 52.10900 26.95200
C  18.87600 50.68600 29.35300
C  14.58800 52.99600 29.34500
C  14.83000 53.16900 24.54200
C  18.98000 50.79200 24.53800
N  16.81300 51.87100 29.15400
C  17.76300 51.22700 29.95300
C  17.44600 51.48200 31.42700
C  15.90700 51.89500 31.30900
C  15.74400 52.37400 29.87700
C  14.96400 50.79400 31.71100
C  18.39500 52.55600 32.10800
C  18.95200 52.16800 33.48000
H  18.10200 51.40400 34.39000
N  15.04100 53.10600 26.98500
C  14.28300 53.37200 28.02900
C  13.11600 54.12300 27.59800
C  13.10600 54.10800 26.21800
C  14.35800 53.44300 25.83600
C  12.10100 54.78400 28.62800
C  12.12300 54.72400 25.16500
O  12.35600 54.76400 23.95500
C  10.96200 55.41000 25.75500
N  16.96400 52.01800 24.76700
C  16.00400 52.56000 24.01300
C  16.35000 52.46700 22.54200
C  17.73200 51.67000 22.55100
C  17.92200 51.42400 24.04200
C  15.21600 51.76000 21.71100
C  18.94900 52.49700 21.93000
C  19.64600 53.47300 22.85000
N  18.60000 50.94400 26.89400
C  19.37800 50.47400 25.81200
C  20.44400 49.68600 26.32300
C  20.30300 49.76900 27.72100
C  19.16000 50.52100 28.00500
C  21.55600 48.98400 25.60700
C  20.95400 49.36800 28.93200
O  22.00500 48.80400 29.12400
C  19.97800 49.86300 30.05200
C  19.32800 48.75900 30.72800
O  18.44500 48.01000 30.35700
O  19.95400 48.57600 31.98800
C  19.39500 47.48900 32.86600
H  13.92300 53.28500 30.16100
H  14.23700 53.49400 23.68400
H  19.52400 50.33300 23.71000
H  17.54100 50.48500 31.85800
H  15.76300 52.68500 32.04600
H  14.57600 50.32400 30.80700
H  14.07000 51.21300 32.17200
H  15.35800 50.16100 32.50600
H  17.83200 53.48900 32.10800
H  19.29900 52.81900 31.55800
H  19.31700 52.98500 34.10300
H  19.92500 51.70100 33.32700
H  12.42200 54.67200 29.66400
H  11.22800 54.13400 28.67300
H  11.85100 55.83700 28.49600
H  10.28200 55.71600 24.96000
H  11.31400 56.33000 26.22100
H  10.34100 54.77000 26.38200
H  16.67400 53.46900 22.26000
H  17.60700 50.86400 21.82700
H  14.32000 51.47000 22.26000
H  15.52800 50.92000 21.09000
H  14.86300 52.48100 20.97500
H  18.48100 53.03100 21.10200
H  19.85200 52.01200 21.55900
H  20.70800 53.24300 22.93000
H  19.22000 53.53500 23.85100
H  19.41000 54.44200 22.41000
H  21.84800 49.73300 24.87200
H  21.15800 48.18600 24.98000
H  22.32000 48.61500 26.29100
H  20.55000 50.38200 30.82100
H  18.42800 47.11800 32.52600
H  19.24700 47.76200 33.91100
H  19.98300 46.57100 32.89600

