158

Mg 17.17600 -0.62600 28.09400
C  15.90500 1.11300 30.76300
C  19.35600 -2.16900 30.29100
C  18.34200 -2.37900 25.43300
C  15.39100 1.41100 26.00700
N  17.66200 -0.41600 30.33800
C  16.83900 0.19900 31.21600
C  17.11600 -0.20300 32.66200
C  18.45500 -1.02900 32.49600
C  18.49700 -1.21900 30.93000
C  19.74100 -0.34800 33.07600
C  15.91000 -0.81300 33.35500
C  15.54800 -0.35300 34.77000
H  16.68800 0.00500 35.69100
N  18.65800 -1.99800 27.88300
C  19.39500 -2.62100 28.90200
C  20.06900 -3.73000 28.38900
C  19.94300 -3.75300 26.97800
C  18.97400 -2.69200 26.66300
C  20.94400 -4.63000 29.19400
C  20.51800 -4.60300 25.90700
O  20.31100 -4.42500 24.69300
C  21.46700 -5.74000 26.28500
N  17.07700 -0.35700 26.07400
C  17.48900 -1.32500 25.21600
C  17.10000 -0.89700 23.77500
C  15.96000 0.09700 24.02100
C  16.10600 0.41400 25.46500
C  18.31900 -0.41900 22.91400
C  14.49600 -0.34800 23.58200
C  14.15500 -0.05200 22.15800
N  15.90500 0.85600 28.24000
C  15.27800 1.71100 27.35700
C  14.52500 2.70900 27.97300
C  14.63900 2.45500 29.35600
C  15.57900 1.36200 29.41400
C  13.85500 3.86200 27.28100
C  14.21800 2.97700 30.62500
O  13.38500 3.74800 30.94500
C  14.95100 2.01700 31.59100
C  15.69600 2.94000 32.50100
O  16.80300 3.42400 32.24500
O  14.99300 3.22400 33.66000
C  15.68100 4.01800 34.60900
H  19.95700 -2.74700 30.99600
H  18.60400 -2.86800 24.49300
H  14.77600 2.01600 25.33700
H  17.19900 0.71200 33.24800
H  18.38100 -1.90100 33.14600
H  19.75200 -0.38400 34.16600
H  19.82200 0.67300 32.70300
H  20.51800 -1.01300 32.69800
H  16.13500 -1.88000 33.36800
H  15.14100 -0.66000 32.59800
H  15.06100 -1.13700 35.34900
H  14.81300 0.45100 34.71200
H  21.98700 -4.67900 28.88200
H  20.42500 -5.58400 29.10700
H  21.05900 -4.44400 30.26200
H  21.01900 -6.47600 26.95300
H  22.33500 -5.25600 26.73300
H  21.72900 -6.30500 25.39100
H  16.64200 -1.71400 23.21700
H  16.09500 1.02600 23.46700
H  19.25900 -0.43000 23.46400
H  18.23200 0.62300 22.60500
H  18.40800 -1.14700 22.10800
H  13.72300 0.00300 24.26600
H  14.41800 -1.43200 23.66500
H  13.08800 -0.10500 21.94000
H  14.66700 -0.81900 21.57900
H  14.49000 0.91500 21.78300
H  13.23200 4.36700 28.02000
H  13.14400 3.41800 26.58500
H  14.58000 4.37800 26.65200
H  14.21600 1.42800 32.14100
H  15.57300 5.04800 34.27100
H  16.73000 3.84300 34.84600
H  15.21000 4.06400 35.59100
Mg 26.36100 50.28400 26.02800
C  24.81300 51.34500 28.97200
C  29.03600 49.23000 27.92700
C  27.93800 49.48200 23.21100
C  23.74400 51.62500 24.24400
N  26.86600 50.29600 28.28900
C  26.02700 50.70200 29.27100
C  26.62100 50.30200 30.64600
C  28.09100 49.88400 30.31600
C  28.03600 49.73300 28.77800
C  29.12800 51.02300 30.69600
C  25.78400 49.22200 31.43200
C  25.05400 49.63200 32.72900
H  25.88400 50.14900 33.92500
N  28.22500 49.50400 25.62100
C  29.17200 49.09900 26.56800
C  30.21200 48.25200 25.95300
C  29.87200 48.26200 24.54600
C  28.69600 49.18500 24.39600
C  31.31400 47.44700 26.65400
C  30.46000 47.45700 23.39600
O  29.96400 47.46400 22.29500
C  31.64800 46.55600 23.67500
N  25.87600 50.63700 24.04000
C  26.69400 50.09100 23.03800
C  26.07700 50.32300 21.69600
C  24.67600 50.92700 22.06700
C  24.76000 51.16100 23.53000
C  26.95200 51.10000 20.70900
C  23.45600 49.96600 21.65800
C  22.33300 50.65100 20.86800
N  24.59100 51.25100 26.39200
C  23.60600 51.67000 25.62900
C  22.58000 52.25800 26.41300
C  23.00500 52.13500 27.75800
C  24.21800 51.47400 27.66800
C  21.25600 52.91200 26.02100
C  22.66000 52.40700 29.12500
O  21.66400 52.94800 29.62200
C  23.77900 51.79200 30.00600
C  24.28400 52.87200 30.94500
O  25.38100 53.37300 30.82600
O  23.38400 53.02800 31.92500
C  24.01300 53.54500 33.15800
H  29.95600 48.94300 28.44200
H  28.51200 49.14600 22.34400
H  22.94500 52.03200 23.62100
H  26.65900 51.20200 31.25900
H  28.31000 48.89900 30.72700
H  28.68600 51.77700 31.34700
H  29.52800 51.53800 29.82200
H  29.97900 50.47300 31.09600
H  26.38300 48.34000 31.65600
H  25.01200 48.85900 30.75400
H  24.50700 48.74700 33.05400
H  24.44900 50.52600 32.58100
H  31.12300 46.38200 26.52600
H  31.34200 47.71000 27.71200
H  32.26200 47.78000 26.23100
H  31.48600 45.77600 24.41900
H  32.45500 47.21700 23.99300
H  32.02900 46.18700 22.72300
H  26.05400 49.30100 21.32000
H  24.40800 51.92300 21.71300
H  27.69300 51.63700 21.30000
H  26.48500 51.88800 20.11800
H  27.39500 50.36900 20.03200
H  22.95300 49.49200 22.50100
H  23.80900 49.11900 21.07100
H  21.44200 50.67000 21.49700
H  22.02500 50.16100 19.94400
H  22.47200 51.69700 20.59600
H  20.91500 52.63500 25.02400
H  21.35600 53.98800 26.16600
H  20.55300 52.51000 26.75000
H  23.19000 51.02000 30.50100
H  24.00200 54.63100 33.07500
H  24.99000 53.10800 33.37000
H  23.39300 53.23100 33.99800

