158

Mg 16.77100 -2.14500 27.77400
C  16.07000 0.07000 30.64900
C  18.45300 -4.16200 29.98700
C  17.84400 -3.53500 25.13000
C  15.23300 0.47900 25.80100
N  17.19700 -1.98800 30.10300
C  16.77900 -1.07500 30.99700
C  17.29800 -1.47700 32.39400
C  18.18400 -2.78900 32.11700
C  17.92300 -3.03800 30.64700
C  19.68900 -2.66700 32.51800
C  16.11000 -1.81200 33.40700
C  16.42400 -1.58500 34.87300
H  17.73700 -0.95800 35.31100
N  17.89100 -3.74800 27.59000
C  18.47900 -4.48300 28.58700
C  19.12100 -5.59600 27.95400
C  18.94100 -5.41500 26.57700
C  18.21200 -4.17900 26.38500
C  19.84200 -6.68300 28.66500
C  19.33300 -6.35000 25.50100
O  19.20900 -6.00500 24.33200
C  19.91000 -7.73700 25.76000
N  16.50800 -1.58800 25.74200
C  17.20100 -2.31300 24.84700
C  17.00300 -1.72600 23.34400
C  16.02500 -0.55600 23.64200
C  15.89700 -0.56300 25.14000
C  18.39400 -1.53700 22.78100
C  14.64200 -0.59600 22.80100
C  13.32400 -0.60300 23.61000
N  15.80300 -0.20200 28.09400
C  15.16700 0.66500 27.19400
C  14.55400 1.82600 27.87000
C  14.95500 1.59400 29.22100
C  15.68700 0.35700 29.29100
C  13.94300 3.13700 27.19500
C  14.98200 2.24000 30.45100
O  14.60800 3.38400 30.76600
C  15.69100 1.26400 31.51400
C  16.90000 1.91900 32.00700
O  18.00600 1.95200 31.61500
O  16.40500 2.65900 33.09500
C  17.47200 3.25800 33.95100
H  19.05900 -4.87500 30.55000
H  18.22100 -3.98100 24.20800
H  14.72500 1.28100 25.26200
H  17.84900 -0.60000 32.73500
H  17.79000 -3.57000 32.76700
H  19.94700 -3.41300 33.27100
H  19.84900 -1.74900 33.08400
H  20.36100 -2.72800 31.66200
H  15.83300 -2.86500 33.36600
H  15.11200 -1.41000 33.23200
H  16.32400 -2.49500 35.46400
H  15.54200 -0.99900 35.13400
H  20.93000 -6.63100 28.64600
H  19.51200 -7.68800 28.40000
H  19.76200 -6.63800 29.75100
H  20.79800 -7.77200 26.39100
H  20.17300 -8.07800 24.75800
H  19.13300 -8.42900 26.08400
H  16.40200 -2.41400 22.74900
H  16.48400 0.38500 23.33900
H  19.22800 -1.88300 23.39200
H  18.59700 -0.47200 22.67300
H  18.43300 -2.16000 21.88800
H  14.68800 -1.40400 22.07100
H  14.69800 0.28100 22.15600
H  12.54300 -0.90900 22.91500
H  12.96000 0.37000 23.94100
H  13.36400 -1.38300 24.37100
H  14.31500 3.06000 26.17300
H  14.29600 4.09600 27.57300
H  12.86100 3.00900 27.17700
H  14.93900 1.03800 32.27000
H  18.48400 3.03700 33.61000
H  17.35200 2.97800 34.99800
H  17.25400 4.32100 33.85700
Mg 25.93800 49.63100 26.26100
C  23.76300 50.47700 28.82100
C  28.21100 48.57100 28.50900
C  28.15000 49.10900 23.68500
C  23.68000 50.92500 23.91200
N  26.02500 49.75800 28.52100
C  24.93000 49.92900 29.31200
C  25.28100 49.55000 30.75400
C  26.76200 49.02600 30.66400
C  27.05100 49.12500 29.10700
C  27.88500 49.72200 31.55200
C  24.21800 48.56600 31.43700
C  23.75200 49.02300 32.85600
H  24.70400 49.66500 33.96300
N  27.87900 48.95700 26.13900
C  28.58600 48.41400 27.16700
C  29.81000 47.79900 26.72000
C  29.84100 48.00700 25.23900
C  28.59200 48.70500 24.97200
C  30.81000 46.99900 27.61700
C  30.94000 47.54700 24.28600
O  30.83700 47.74300 23.10000
C  32.01500 46.66800 24.78900
N  25.95000 49.97500 24.06100
C  26.97500 49.72700 23.26700
C  26.68900 50.03000 21.82900
C  25.15800 50.30500 21.84800
C  24.82600 50.36700 23.31700
C  27.57200 51.18400 21.28300
C  24.36200 49.20600 21.05800
C  24.06300 47.86500 21.76100
N  24.14200 50.53500 26.32300
C  23.34800 51.01800 25.27200
C  22.08400 51.54700 25.84000
C  22.18500 51.33100 27.21500
C  23.50800 50.79300 27.45600
C  20.91600 52.06700 25.08400
C  21.49800 51.58000 28.46400
O  20.43100 52.13500 28.66100
C  22.50200 51.00200 29.57300
C  22.83800 52.08700 30.63200
O  23.62100 53.05600 30.51300
O  22.04200 51.90200 31.79200
C  22.26800 52.88300 32.83800
H  28.81300 47.92500 29.15200
H  28.82700 48.81300 22.88100
H  22.89700 51.28400 23.24100
H  25.29500 50.52600 31.23800
H  26.87200 47.97700 30.93600
H  28.56500 48.98200 31.97200
H  27.47700 50.32900 32.36000
H  28.60300 50.20600 30.89000
H  24.69500 47.58700 31.47100
H  23.27200 48.37800 30.93000
H  23.39800 48.03800 33.15900
H  22.78600 49.52600 32.81500
H  31.79300 47.44400 27.46100
H  30.74900 45.93900 27.37300
H  30.69700 47.00400 28.70100
H  32.69500 47.21200 25.44500
H  32.69300 46.36400 23.99100
H  31.56200 45.77700 25.22300
H  26.95000 49.25200 21.11100
H  24.90100 51.29000 21.45800
H  28.48700 51.17200 21.87500
H  27.06700 52.13300 21.46300
H  27.79700 50.98400 20.23600
H  24.87900 48.89300 20.15100
H  23.39300 49.63000 20.79700
H  24.01800 46.95000 21.17100
H  23.07600 47.99200 22.20700
H  24.73300 47.67600 22.60000
H  21.00100 53.15100 25.15800
H  20.06400 51.77000 25.69500
H  20.71400 51.71000 24.07400
H  21.96400 50.25700 30.15900
H  23.00400 52.48500 33.53700
H  21.39100 52.97600 33.47900
H  22.62900 53.86300 32.52700

