158

Mg 43.83800 4.12200 46.71500
C  42.04700 7.07300 46.94800
C  40.82000 2.41500 46.67400
C  45.52900 1.42100 45.75300
C  46.80800 6.00000 46.34400
N  41.65800 4.75800 46.69800
C  41.21400 5.97500 47.00300
C  39.69500 5.89700 47.37100
C  39.38500 4.42600 47.33900
C  40.71700 3.79200 46.86800
C  38.91400 3.87700 48.75800
C  38.87100 6.81300 46.38300
C  39.43000 7.09800 44.96000
H  38.41300 7.10600 43.75500
N  43.27700 2.08300 46.26700
C  41.99800 1.61100 46.26100
C  41.98000 0.25600 45.90600
C  43.33300 -0.12100 45.56200
C  44.13400 1.15100 45.80000
C  40.88300 -0.73700 46.16000
C  43.87500 -1.37900 45.06400
O  43.08000 -2.32400 44.74500
C  45.35000 -1.56300 44.73600
N  45.89200 3.80900 45.88700
C  46.38600 2.57300 45.85800
C  47.91500 2.44400 45.50800
C  48.33200 3.95100 45.84300
C  46.96700 4.67500 46.07400
C  48.60700 1.35600 46.41700
C  49.24400 4.60900 44.79500
C  50.43800 5.42100 45.35100
N  44.35400 6.10400 46.67000
C  45.61100 6.72900 46.49300
C  45.46900 8.18400 46.70800
C  44.05500 8.34000 46.83700
C  43.43300 7.05800 46.80000
C  46.61300 9.15200 46.63300
C  42.99300 9.33100 47.13400
O  43.05000 10.56400 47.22800
C  41.66800 8.50800 47.12200
C  40.99300 8.80100 48.40100
O  41.33000 8.29400 49.44800
O  39.93200 9.70200 48.28600
C  39.14100 10.17700 49.42000
H  39.87400 1.87200 46.62400
H  46.05300 0.46600 45.68300
H  47.75500 6.54400 46.37000
H  39.66100 6.25800 48.39900
H  38.77100 4.19900 46.46800
H  39.73300 3.35900 49.25800
H  38.24600 3.02500 48.63400
H  38.34200 4.55900 49.38700
H  38.56000 7.68300 46.96200
H  37.90000 6.34600 46.22000
H  40.21100 6.37000 44.73800
H  39.70800 8.15000 44.89900
H  40.15300 -0.70600 45.35200
H  40.24100 -0.32400 46.93900
H  41.09100 -1.76700 46.45100
H  45.99700 -1.49300 45.61000
H  45.67400 -0.80200 44.02600
H  45.51400 -2.53900 44.28000
H  48.11700 2.20500 44.46400
H  48.84100 4.13800 46.78800
H  48.76700 0.34500 46.04000
H  47.98900 1.27300 47.31100
H  49.64400 1.61000 46.63500
H  48.58000 5.19600 44.16000
H  49.65400 3.88800 44.08700
H  51.36700 5.07500 44.89700
H  50.51700 5.41000 46.43800
H  50.34800 6.48400 45.12700
H  47.46700 8.53900 46.91900
H  46.39100 9.94800 47.34400
H  46.79300 9.59200 45.65200
H  41.02400 8.74300 46.27500
H  39.10900 11.24300 49.64300
H  39.36300 9.63900 50.34200
H  38.10700 9.89000 49.23100
Mg 46.93100 16.98800 28.21700
C  45.02200 16.31500 31.16100
C  49.10600 18.76900 30.09800
C  48.42000 17.95200 25.36100
C  44.30900 15.44300 26.36600
N  47.00900 17.44200 30.40800
C  46.19300 17.02500 31.42600
C  46.77500 17.45300 32.81000
C  48.01400 18.42700 32.42700
C  48.03800 18.25500 30.88800
C  47.77800 19.89100 32.90100
C  47.27600 16.21900 33.64400
C  46.61900 16.00300 35.01800
H  46.33200 17.17900 35.89500
N  48.56800 18.09000 27.80000
C  49.38900 18.66900 28.70600
C  50.57600 19.19300 28.04800
C  50.36000 19.03800 26.63700
C  49.05900 18.33800 26.51600
C  51.82200 19.75900 28.77000
C  51.24600 19.47600 25.50800
O  50.94200 19.24300 24.32300
C  52.42000 20.41200 25.74400
N  46.38500 16.79100 26.14900
C  47.19400 17.33200 25.16300
C  46.59100 17.05600 23.77900
C  45.31100 16.19000 24.11900
C  45.36600 16.04000 25.64300
C  46.36400 18.20700 22.87000
C  45.08600 14.94200 23.29600
C  45.99600 13.64900 23.54700
N  45.02600 15.84800 28.64900
C  44.08500 15.40000 27.75200
C  42.91700 14.95400 28.54400
C  43.30300 15.26300 29.87200
C  44.56200 15.82600 29.85900
C  41.57100 14.44600 28.16400
C  42.80200 15.31000 31.26500
O  41.66100 15.02200 31.73300
C  43.91900 16.00400 32.12800
C  43.36600 17.13600 32.98600
O  43.53600 18.29600 32.71300
O  42.52300 16.67000 33.97000
C  41.70000 17.73400 34.62600
H  49.83200 19.32500 30.69500
H  48.91400 18.21500 24.42300
H  43.43800 15.21900 25.74600
H  45.99100 18.03500 33.29500
H  48.97200 18.00200 32.72600
H  47.01200 20.06000 33.65800
H  47.30700 20.39200 32.05600
H  48.72100 20.41400 33.06100
H  48.35600 16.14600 33.77300
H  47.09200 15.30800 33.07400
H  47.06900 15.19800 35.59900
H  45.59600 15.64800 34.90000
H  52.74500 19.41500 28.30300
H  51.89400 19.50700 29.82800
H  51.73300 20.84300 28.69300
H  52.19300 21.22800 26.43000
H  52.74400 20.77800 24.77000
H  53.23900 19.79600 26.11500
H  47.21500 16.27100 23.35200
H  44.56800 16.92100 23.80000
H  46.01200 18.93000 23.60600
H  45.52400 18.22000 22.17600
H  47.16300 18.56500 22.22100
H  44.94400 15.28800 22.27300
H  44.08800 14.53900 23.46900
H  46.40000 13.24700 22.61800
H  45.41100 12.91500 24.10100
H  46.77700 13.95700 24.24100
H  41.23800 14.89700 27.22900
H  40.90600 14.79900 28.95200
H  41.53100 13.35700 28.13000
H  44.23900 15.19700 32.78700
H  42.33100 18.53500 35.01100
H  41.31100 17.22300 35.50600
H  40.92400 18.11900 33.96400

