158

Mg 25.86300 0.67500 29.30200
C  27.91500 0.49900 32.26200
C  23.31500 1.53200 31.56700
C  23.71900 0.52800 26.75500
C  28.42900 -0.38300 27.27100
N  25.72500 1.17700 31.69200
C  26.70000 1.00100 32.65100
C  26.15500 1.33100 34.05300
C  24.62100 1.67300 33.76000
C  24.48200 1.36500 32.26800
C  23.52100 0.93000 34.59500
C  26.97300 2.51700 34.73400
C  27.57500 2.21600 36.11900
H  27.26900 3.25200 37.23900
N  23.80500 1.01700 29.19700
C  22.95100 1.38400 30.20900
C  21.59900 1.47700 29.65800
C  21.76200 1.33900 28.22200
C  23.13800 0.94500 27.99800
C  20.39100 1.74600 30.59400
C  20.64200 1.34500 27.17900
O  20.84000 1.24500 25.97700
C  19.16400 1.69500 27.59700
N  26.04500 0.40900 27.30700
C  25.03800 0.30700 26.41900
C  25.52900 -0.07200 24.98900
C  26.99800 -0.27600 25.17900
C  27.22600 -0.02600 26.65500
C  24.90700 -1.35300 24.38600
C  27.91100 0.58800 24.26100
C  28.13300 2.12600 24.65300
N  27.79300 0.19200 29.63600
C  28.74400 -0.27700 28.71700
C  29.97100 -0.53600 29.38500
C  29.62900 -0.31300 30.74500
C  28.32100 0.16000 30.90800
C  31.27600 -0.84300 28.86500
C  30.29400 -0.29600 32.06400
O  31.41600 -0.63400 32.39500
C  29.20300 0.31600 33.07700
C  29.15900 -0.57500 34.22700
O  28.53600 -1.65200 34.36500
O  29.73400 0.14900 35.21500
C  29.91400 -0.52400 36.51500
H  22.55600 1.88600 32.26700
H  23.09400 0.37800 25.87200
H  29.23100 -0.49600 26.53800
H  26.05900 0.48500 34.73400
H  24.43300 2.73300 33.93400
H  22.73200 1.54300 35.03000
H  23.92600 0.37400 35.44100
H  23.16500 0.08800 34.00200
H  26.25300 3.27600 35.04000
H  27.71200 2.89000 34.02500
H  28.64700 2.26200 35.93100
H  27.27100 1.22600 36.45700
H  20.67700 1.95800 31.62400
H  19.69800 0.90500 30.61300
H  19.80700 2.57900 30.20300
H  19.09000 2.73200 27.92500
H  18.94200 0.88500 28.29100
H  18.56300 1.45800 26.71900
H  25.36300 0.76300 24.30900
H  27.17000 -1.35100 25.12800
H  25.58500 -1.99400 23.82200
H  24.11200 -1.00200 23.72700
H  24.47600 -1.92400 25.20800
H  27.44700 0.49000 23.28000
H  28.88400 0.10200 24.18400
H  27.67400 2.32600 25.62100
H  27.65000 2.76200 23.91200
H  29.20700 2.30900 24.61300
H  32.04700 -0.82200 29.63600
H  31.59100 -0.15900 28.07700
H  31.36500 -1.82600 28.40400
H  29.58700 1.29100 33.37700
H  29.19700 -0.02300 37.16600
H  30.89800 -0.40100 36.96700
H  29.81300 -1.60800 36.56700
Mg 48.25700 34.13600 27.01800
C  46.32000 32.53900 29.44300
C  48.54700 36.76700 29.05400
C  49.79000 35.59400 24.50600
C  47.33500 31.37700 24.78400
N  47.54400 34.51700 29.10100
C  46.89900 33.70300 29.92800
C  46.93500 34.18500 31.37300
C  47.17200 35.66000 31.09400
C  47.90700 35.64200 29.65300
C  45.94000 36.50800 31.18200
C  48.10300 33.56300 32.22000
C  48.35700 34.08800 33.64000
H  47.24800 34.85100 34.43300
N  49.16200 35.86500 26.86500
C  49.18700 36.87000 27.81400
C  50.00600 38.01600 27.24200
C  50.32200 37.70100 25.90900
C  49.73400 36.36000 25.74400
C  50.29100 39.32100 28.09100
C  51.17800 38.49500 24.85400
O  51.51300 38.05800 23.74900
C  51.52500 39.91500 25.20800
N  48.44500 33.63100 24.89800
C  49.15500 34.39600 24.15800
C  49.28200 33.84700 22.78100
C  48.68500 32.39500 22.93900
C  48.07600 32.46400 24.28200
C  48.79100 34.64200 21.58300
C  49.64400 31.19200 22.69400
C  50.49400 31.25300 21.43300
N  46.88900 32.44200 26.94500
C  46.68600 31.36800 26.01500
C  45.88100 30.39100 26.70200
C  45.68000 30.83100 27.99500
C  46.35500 32.07800 28.09700
C  45.53800 29.00800 26.12800
C  45.10300 30.42800 29.31900
O  44.52500 29.40300 29.67200
C  45.41300 31.64600 30.20300
C  45.72200 31.09400 31.55300
O  46.69400 30.39500 31.76600
O  44.77100 31.44600 32.45300
C  45.12800 31.09700 33.82300
H  48.43900 37.76300 29.48800
H  50.28800 36.02500 23.63600
H  47.08400 30.53600 24.13500
H  46.01700 34.00500 31.93300
H  47.77600 36.16900 31.84500
H  45.98200 37.28800 30.42200
H  45.86600 37.10900 32.08800
H  44.98100 36.00100 31.07700
H  49.07900 33.66400 31.74400
H  47.98900 32.48000 32.27100
H  49.24400 34.72100 33.59600
H  48.50700 33.16800 34.20400
H  51.35200 39.53800 28.21200
H  49.98100 39.17700 29.12600
H  49.69300 40.09900 27.61500
H  52.04000 40.08800 26.15300
H  50.54100 40.37300 25.10800
H  52.03100 40.40100 24.37400
H  50.36800 33.77100 22.72800
H  47.82800 32.15800 22.30800
H  48.04600 34.09200 21.00800
H  49.67200 34.85500 20.97700
H  48.27400 35.52100 21.96900
H  49.09600 30.25200 22.76000
H  50.30300 31.22600 23.56200
H  50.21200 30.39300 20.82600
H  51.53600 30.99500 21.61900
H  50.36000 32.12500 20.79200
H  45.69700 29.10100 25.05400
H  44.49300 28.79400 26.35400
H  46.30100 28.26700 26.36900
H  44.53700 32.28800 30.29600
H  45.98300 31.61800 34.25600
H  45.38400 30.03800 33.83500
H  44.29000 31.30000 34.49000

