158

Mg 1.38600 43.12700 25.87400
C  2.92300 43.32900 29.06600
C  -1.41800 41.83400 27.59600
C  0.21100 42.48300 22.90800
C  4.54300 43.95500 24.52100
N  0.79100 42.84300 28.06200
C  1.54600 43.08300 29.18200
C  0.75800 42.78300 30.50700
C  -0.65600 42.28500 29.92900
C  -0.43200 42.35600 28.43200
C  -1.09900 40.88800 30.55100
C  0.71800 43.97600 31.45000
C  0.91300 43.72900 32.94100
H  0.69800 42.34400 33.53300
N  -0.41600 42.42200 25.33900
C  -1.45200 41.86800 26.16800
C  -2.46900 41.41800 25.25600
C  -2.05500 41.61300 23.87500
C  -0.67800 42.14100 24.00300
C  -3.79800 40.71600 25.67700
C  -2.70500 41.42200 22.55500
O  -2.28900 41.74100 21.46300
C  -4.01600 40.73600 22.61000
N  2.26300 43.23600 23.89600
C  1.49900 43.01100 22.84200
C  2.29500 43.35600 21.54800
C  3.47000 44.18900 22.11500
C  3.48800 43.77000 23.57500
C  2.75800 42.07900 20.67100
C  3.36400 45.70900 21.87300
C  4.17500 46.19200 20.64500
N  3.28200 43.49900 26.56400
C  4.48800 43.75000 25.86000
C  5.59200 43.89700 26.76800
C  5.07100 43.71600 28.02800
C  3.65200 43.54200 27.86100
C  6.94600 44.31000 26.43700
C  5.26700 43.60800 29.42600
O  6.32200 43.59700 30.11900
C  3.93400 43.50100 30.13900
C  4.04700 42.25100 31.04400
O  3.78400 41.02400 30.75000
O  4.38600 42.62400 32.36200
C  4.54400 41.58200 33.39100
H  -2.27400 41.46400 28.16400
H  -0.17500 42.26600 21.91000
H  5.53500 44.29400 24.21600
H  1.28300 41.93900 30.95400
H  -1.57100 42.86000 30.07200
H  -0.45500 40.46700 31.32400
H  -0.98800 40.28300 29.65200
H  -2.14800 40.88300 30.84800
H  -0.24400 44.44000 31.23600
H  1.44000 44.78600 31.34100
H  0.24900 44.42500 33.45500
H  1.88700 44.10200 33.25600
H  -3.74300 40.53800 26.75000
H  -3.93200 39.74700 25.19700
H  -4.64800 41.34100 25.40400
H  -4.84800 41.28400 23.05100
H  -3.95100 39.70700 22.96500
H  -4.33400 40.60900 21.57600
H  1.59700 43.91500 20.92500
H  4.39600 43.84000 21.65800
H  2.30100 41.20400 21.13500
H  3.82300 41.84500 20.68000
H  2.47300 42.19100 19.62600
H  3.57900 46.27000 22.78300
H  2.32700 45.93200 21.62200
H  4.84400 46.95900 21.03500
H  3.51600 46.63800 19.90000
H  4.70000 45.34200 20.20900
H  6.97800 45.32700 26.04600
H  7.49900 43.71800 25.70700
H  7.38800 44.51200 27.41200
H  3.79500 44.37600 30.77400
H  5.62900 41.58200 33.49700
H  4.10300 40.58600 33.34800
H  4.07400 41.94500 34.30500
Mg -1.80200 34.84600 27.23600
C  -3.65500 32.68900 29.48000
C  -0.70500 36.47900 29.92000
C  -0.31400 36.91400 25.16900
C  -3.31900 33.24100 24.58800
N  -2.38900 34.77600 29.43400
C  -2.95000 33.70000 30.08800
C  -2.73400 33.85700 31.62300
C  -1.88900 35.16500 31.74300
C  -1.66800 35.56000 30.27100
C  -2.49300 36.20800 32.66700
C  -1.95600 32.58100 32.16800
C  -2.66000 31.76300 33.34700
H  -1.96200 31.75800 34.65300
N  -0.48000 36.36600 27.53200
C  -0.13900 36.90200 28.70900
C  0.94700 37.83500 28.49700
C  1.02800 38.06400 27.09600
C  0.08200 37.10100 26.51500
C  1.69400 38.44900 29.63000
C  1.84100 39.02800 26.31700
O  1.80700 39.03900 25.12500
C  2.75700 40.04100 27.07900
N  -2.00200 35.17000 25.22000
C  -1.23500 36.08100 24.56100
C  -1.44900 36.02800 23.01500
C  -2.25600 34.68700 22.85300
C  -2.55700 34.31400 24.33800
C  -1.90300 37.35600 22.29700
C  -1.51500 33.56100 22.01900
C  -0.48200 32.75100 22.77400
N  -3.32000 33.36200 27.02700
C  -3.73300 32.73900 25.84600
C  -4.37300 31.54800 26.17400
C  -4.48200 31.50100 27.58500
C  -3.77600 32.61200 28.07500
C  -5.00000 30.60000 25.16100
C  -4.97200 30.79300 28.73000
O  -5.68000 29.76800 28.79500
C  -4.46300 31.53200 29.98600
C  -5.55900 31.99800 30.78600
O  -6.20000 33.06300 30.62800
O  -5.79500 31.11100 31.73800
C  -6.74800 31.56600 32.73800
H  -0.16700 36.90400 30.77000
H  0.16500 37.55800 24.42900
H  -3.48400 32.57900 23.73500
H  -3.74100 34.03800 31.99900
H  -0.84300 34.99200 31.99900
H  -3.46300 35.95100 33.09400
H  -2.74200 36.99400 31.95400
H  -1.76900 36.59900 33.38100
H  -1.06100 32.95700 32.66400
H  -1.64900 31.91900 31.35800
H  -2.86800 30.77000 32.94900
H  -3.63800 32.20400 33.54100
H  1.67600 37.79900 30.50400
H  1.20700 39.38500 29.90600
H  2.70300 38.75000 29.34800
H  3.56600 39.54800 27.61900
H  2.18000 40.49900 27.88200
H  3.21900 40.73900 26.38200
H  -0.48600 35.81300 22.55100
H  -3.22200 34.86600 22.38200
H  -1.15900 37.61300 21.54300
H  -1.88700 38.27100 22.88900
H  -2.93400 37.28000 21.95200
H  -0.95700 34.16600 21.30500
H  -2.24000 32.89500 21.55100
H  0.32300 32.76800 22.03900
H  -0.75300 31.70900 22.94500
H  -0.12900 33.20500 23.70000
H  -4.27000 30.04000 24.57600
H  -5.73300 31.22400 24.65000
H  -5.60600 29.95400 25.79700
H  -3.85400 30.80000 30.51500
H  -6.45100 32.44700 33.30700
H  -6.95900 30.73900 33.41600
H  -7.71400 31.92000 32.37900

