158

Mg 30.21400 58.95200 39.60500
C  27.76200 56.53000 39.16700
C  32.54200 56.61800 38.64500
C  32.53900 61.39300 39.59000
C  27.71800 61.27400 40.24300
N  30.09200 56.80100 39.01000
C  28.98500 56.00600 38.86500
C  29.29600 54.71700 38.34200
C  30.90400 54.66300 38.39300
C  31.19300 56.11700 38.74000
C  31.51000 53.71100 39.37300
C  28.75500 54.78500 36.86500
C  27.93500 53.54800 36.55100
H  27.41500 53.48100 35.09800
N  32.30400 58.95200 39.27100
C  33.07300 57.91400 38.89500
C  34.45000 58.27100 38.64800
C  34.46300 59.70700 38.76300
C  33.11700 60.06800 39.29500
C  35.51500 57.20900 38.29400
C  35.63700 60.50300 38.41800
O  36.68000 59.98800 37.91900
C  35.63300 61.97300 38.69400
N  30.14800 60.94700 39.88300
C  31.25600 61.73800 39.90200
C  30.88900 63.22900 40.10900
C  29.39300 63.17600 40.38800
C  29.05800 61.68500 40.07600
C  31.58200 63.96700 41.26400
C  28.58300 64.26000 39.51700
C  27.94900 65.37000 40.34100
N  28.11400 58.98600 39.79500
C  27.26600 59.96900 40.08800
C  25.94100 59.44300 40.29700
C  26.08300 58.09300 39.85400
C  27.41800 57.87500 39.55300
C  24.74000 60.26200 40.61900
C  25.34200 56.88200 39.49700
O  24.19300 56.60400 39.51300
C  26.43700 55.82300 39.14100
C  26.51000 54.84500 40.25700
O  26.81100 55.13500 41.38800
O  25.99500 53.66600 39.82400
C  26.07100 52.63700 40.87200
H  33.15300 55.89200 38.10400
H  33.36500 62.10400 39.65200
H  26.97000 62.04400 40.44100
H  28.88400 53.90100 38.93600
H  31.37600 54.48900 37.42600
H  30.79900 52.88400 39.36500
H  31.69600 54.15100 40.35200
H  32.45900 53.45600 38.90200
H  29.59500 54.67000 36.17900
H  28.15200 55.65200 36.59600
H  27.00300 53.41300 37.09900
H  28.52900 52.64600 36.70000
H  35.27600 56.23200 38.71300
H  36.54700 57.38500 38.59900
H  35.39400 57.04100 37.22400
H  34.83000 62.43600 38.12100
H  36.56600 62.47500 38.43600
H  35.50400 62.22500 39.74700
H  31.12700 63.67500 39.14300
H  29.16200 63.25500 41.45000
H  31.78700 63.29300 42.09600
H  31.09900 64.88100 41.60900
H  32.58800 64.31000 41.02100
H  27.84700 63.72300 38.91800
H  29.20600 64.80100 38.80400
H  28.12300 65.19300 41.40200
H  26.87900 65.39900 40.13400
H  28.29900 66.31100 39.91400
H  24.68200 61.09600 39.91900
H  24.70400 60.71700 41.60900
H  23.91400 59.57300 40.44800
H  26.17600 55.41100 38.16600
H  25.16200 52.80200 41.45000
H  26.97400 52.71500 41.47800
H  26.05700 51.61900 40.48300
Mg 0.79100 42.79400 26.79000
C  2.90600 42.69400 29.61600
C  -1.83200 42.12900 29.09700
C  -1.24700 42.45100 24.21100
C  3.47900 43.37400 24.84000
N  0.62200 42.50700 29.07100
C  1.60800 42.66500 30.05300
C  1.09500 42.60900 31.48100
C  -0.39200 42.22600 31.22300
C  -0.55400 42.27200 29.64600
C  -0.95500 40.90300 31.82300
C  1.41200 43.88900 32.20300
C  1.36400 43.77200 33.74400
H  1.03800 42.49600 34.53000
N  -1.23400 42.19000 26.62000
C  -2.14800 42.13700 27.66800
C  -3.45100 41.86400 27.13700
C  -3.33400 41.90900 25.66100
C  -1.91800 42.18600 25.43500
C  -4.75300 41.72400 27.96000
C  -4.37800 41.64600 24.56100
O  -4.10000 41.44400 23.34400
C  -5.89600 41.39800 24.94600
N  1.07500 42.82900 24.76600
C  0.03700 42.79800 23.85800
C  0.58200 42.88200 22.38200
C  2.14100 43.21300 22.61800
C  2.25300 43.12500 24.14000
C  0.26100 41.61300 21.53900
C  2.70600 44.51200 21.94700
C  2.37800 45.91200 22.64900
N  2.74800 43.05000 27.10400
C  3.74500 43.25900 26.21900
C  5.05000 43.30200 26.87400
C  4.77100 42.97900 28.19000
C  3.36700 42.83600 28.27100
C  6.32500 43.67600 26.23200
C  5.39800 42.82300 29.49100
O  6.58200 42.87200 29.80100
C  4.15900 42.67600 30.52800
C  4.24300 41.46600 31.40600
O  4.12600 40.32000 31.01200
O  4.57400 41.83900 32.68400
C  4.79700 40.68500 33.52700
H  -2.65300 42.05500 29.81400
H  -1.96400 42.62900 23.40600
H  4.33800 43.67200 24.23600
H  1.44300 41.70600 31.98300
H  -0.96000 43.09100 31.56700
H  -1.30100 40.29700 30.98600
H  -1.82700 41.20700 32.40300
H  -0.22600 40.33500 32.40100
H  0.58700 44.56200 31.97200
H  2.36400 44.29000 31.85600
H  0.91600 44.67000 34.17000
H  2.39600 44.07100 33.93200
H  -5.43400 40.97100 27.56300
H  -5.14400 42.73900 28.04000
H  -4.46700 41.40700 28.96300
H  -5.96900 40.39400 25.36500
H  -6.42300 41.41700 23.99300
H  -6.42500 42.17000 25.50500
H  0.11500 43.70800 21.84600
H  2.60000 42.34600 22.14200
H  -0.14400 40.79700 22.13700
H  1.22700 41.37300 21.09300
H  -0.61300 41.79500 20.91500
H  2.32200 44.56800 20.92800
H  3.75500 44.21600 21.97200
H  3.37300 46.24700 22.94100
H  1.81300 45.73600 23.56400
H  1.81800 46.58200 21.99600
H  6.24400 44.55900 25.59900
H  6.73800 42.84300 25.66400
H  6.89900 43.95300 27.11700
H  4.08800 43.50700 31.23000
H  5.81200 40.32300 33.36300
H  4.07500 39.87200 33.44700
H  4.89200 41.02800 34.55800

