158

Mg 24.41000 -4.92500 45.08900
C  26.25200 -2.61800 43.38100
C  21.76800 -4.38900 42.91800
C  22.98900 -7.86000 46.08300
C  27.32600 -5.94000 46.86700
N  24.11400 -3.56900 43.40100
C  24.96100 -2.73300 42.89500
C  24.37200 -1.95400 41.68300
C  22.87800 -2.32200 41.80500
C  22.91800 -3.50100 42.80900
C  21.94800 -1.17600 42.33600
C  25.05200 -2.37500 40.38200
C  25.52300 -1.31900 39.30900
H  25.28300 -1.56900 37.85600
N  22.49500 -5.83700 44.71200
C  21.59000 -5.49800 43.74100
C  20.48400 -6.42900 43.76800
C  20.79000 -7.46000 44.66300
C  22.14800 -7.07200 45.22400
C  19.20500 -6.35900 42.82800
C  19.98400 -8.77700 44.84400
O  18.94800 -8.92000 44.23600
C  20.42100 -9.95900 45.59600
N  25.02200 -6.61900 46.46200
C  24.25600 -7.72000 46.63000
C  24.90000 -8.75800 47.54100
C  26.14600 -7.97500 48.06000
C  26.20100 -6.78200 47.08100
C  23.93100 -9.18100 48.66700
C  27.43600 -8.81700 48.17300
C  28.41100 -8.47900 49.25800
N  26.37600 -4.27900 45.31700
C  27.45000 -4.76100 46.06000
C  28.62300 -3.93100 45.76700
C  28.22300 -3.09400 44.73200
C  26.86200 -3.37800 44.48700
C  30.01400 -4.04500 46.43100
C  28.65400 -2.08000 43.69900
O  29.77000 -1.56700 43.57500
C  27.35700 -1.73900 42.81300
C  27.04600 -0.23900 42.82400
O  26.62300 0.43300 43.74300
O  27.52100 0.27300 41.62300
C  27.23900 1.72700 41.34600
H  20.98500 -4.16300 42.19100
H  22.70900 -8.88400 46.33800
H  28.20600 -6.35900 47.35900
H  24.54900 -0.90700 41.92700
H  22.52600 -2.75800 40.87100
H  22.38100 -0.17800 42.26900
H  21.40900 -1.37800 43.26100
H  21.16700 -0.97800 41.60200
H  24.22700 -2.83900 39.84200
H  25.82800 -3.13500 40.48000
H  26.59000 -1.11600 39.40200
H  25.08900 -0.36000 39.59000
H  19.04000 -5.32600 42.52300
H  18.30000 -6.78600 43.25900
H  19.64400 -6.93900 42.01600
H  21.26400 -10.46100 45.12100
H  19.58800 -10.62000 45.83800
H  20.61500 -9.66600 46.62700
H  25.27700 -9.65100 47.04200
H  25.98300 -7.65600 49.08900
H  23.20900 -8.39100 48.87300
H  24.50500 -9.22300 49.59300
H  23.48700 -10.13800 48.39300
H  27.87500 -8.86200 47.17700
H  27.05400 -9.78600 48.49400
H  28.63000 -9.39700 49.80200
H  28.13000 -7.79500 50.05800
H  29.28500 -8.22100 48.65900
H  30.03400 -3.74300 47.47800
H  30.86900 -3.58300 45.93700
H  30.25700 -5.10600 46.38800
H  27.70200 -2.14100 41.86000
H  28.13000 2.19100 41.76800
H  26.30700 1.99500 41.84400
H  27.11300 1.98600 40.29400
Mg 49.11700 47.36000 42.12700
C  45.78200 47.49000 41.25100
C  49.31900 44.18600 40.75100
C  52.42200 47.70900 41.87100
C  48.85400 50.73800 43.11900
N  47.67900 45.96900 41.05000
C  46.34400 46.24400 40.90300
C  45.69900 45.05000 40.11200
C  46.79800 43.88900 40.16200
C  48.02400 44.68300 40.65300
C  46.48800 42.71900 41.20800
C  45.31200 45.54300 38.69200
C  43.90600 45.07500 38.16400
H  43.80800 44.57100 36.78900
N  50.66000 46.04000 41.57500
C  50.50000 44.75200 41.15200
C  51.87400 44.18600 41.00000
C  52.82800 45.22500 41.22000
C  51.97500 46.40700 41.59900
C  52.19900 42.78100 40.44600
C  54.37800 45.11400 41.12000
O  54.89700 44.05700 40.87000
C  55.20800 46.28700 41.30300
N  50.38100 48.97900 42.33400
C  51.77100 48.81000 42.26300
C  52.54500 50.11500 42.62800
C  51.37800 51.07000 43.07900
C  50.08400 50.18800 42.85400
C  53.65700 49.94200 43.68400
C  51.19700 52.32800 42.25100
C  51.02900 53.59600 43.11100
N  47.67700 48.89000 42.19600
C  47.68800 50.21000 42.72600
C  46.39700 50.82300 42.60700
C  45.58200 49.75100 42.03200
C  46.42300 48.62900 41.82200
C  45.80900 52.14300 42.91400
C  44.32600 49.37200 41.67800
O  43.26900 49.93700 41.74900
C  44.32500 47.96400 41.18200
C  43.42600 47.09100 41.96600
O  43.54100 46.81000 43.10900
O  42.54900 46.56700 41.10200
C  41.51200 45.62200 41.50200
H  49.31200 43.14100 40.43600
H  53.44600 48.00300 41.63000
H  48.85300 51.66800 43.69000
H  44.77300 44.77100 40.61500
H  47.03300 43.47500 39.18200
H  45.68000 42.86900 41.92500
H  47.38700 42.63600 41.81800
H  46.20700 41.77200 40.74700
H  46.06400 45.25600 37.95700
H  45.22500 46.62900 38.68400
H  43.15800 45.86300 38.24100
H  43.57200 44.30800 38.86300
H  51.30300 42.16100 40.46200
H  52.76200 42.10300 41.08700
H  52.61300 42.82100 39.43900
H  54.84400 47.05500 40.62100
H  56.26000 46.07200 41.11900
H  55.10400 46.53200 42.36000
H  53.02500 50.45100 41.70800
H  51.39700 51.28700 44.14700
H  53.31800 49.04100 44.19500
H  53.63400 50.86600 44.26100
H  54.57500 49.74400 43.12900
H  50.38400 52.29900 41.52600
H  52.11200 52.40700 41.66300
H  52.01400 53.98300 43.37200
H  50.26500 53.35000 43.84900
H  50.51300 54.38400 42.56300
H  45.77000 52.27100 43.99600
H  44.74800 52.13800 42.66600
H  46.34300 53.02600 42.56300
H  43.96100 48.02200 40.15600
H  42.04500 44.70200 41.74400
H  40.78200 45.42500 40.71800
H  40.99800 46.03300 42.37000

