158

Mg 44.44700 4.52900 48.09500
C  42.41000 7.23800 47.38000
C  41.94500 2.33800 47.18900
C  46.70800 1.82400 47.82500
C  47.16600 6.74000 47.60500
N  42.42600 4.83400 47.30400
C  41.72200 5.97200 47.19800
C  40.32900 5.74800 46.75500
C  40.11700 4.18200 47.06500
C  41.62100 3.74400 47.13700
C  39.34100 3.88300 48.31800
C  40.10200 6.09200 45.24900
C  39.06400 7.12100 44.91200
H  39.50600 8.18900 43.94200
N  44.30700 2.32900 47.87200
C  43.13200 1.65600 47.46500
C  43.41300 0.33000 47.31600
C  44.81900 0.10500 47.36300
C  45.34600 1.42600 47.78700
C  42.29100 -0.58300 46.74600
C  45.54300 -1.16600 47.03200
O  44.91800 -2.24600 46.79500
C  46.96400 -1.25300 46.87400
N  46.66700 4.30300 47.75700
C  47.33600 3.08800 47.78400
C  48.83300 3.31500 47.58600
C  49.06500 4.89200 47.61700
C  47.56500 5.39600 47.60700
C  49.72300 2.55100 48.60400
C  49.96800 5.39300 46.49300
C  51.41400 5.69200 46.85100
N  44.80600 6.57200 47.75800
C  45.95700 7.29400 47.73700
C  45.61400 8.72900 47.62800
C  44.23800 8.81600 47.54300
C  43.76800 7.44900 47.62500
C  46.67700 9.85400 47.57300
C  43.03900 9.62300 47.36600
O  42.84600 10.80400 47.19700
C  41.82900 8.61300 47.37200
C  40.81100 8.86500 48.43400
O  40.90700 8.40800 49.56400
O  39.74600 9.71600 47.97000
C  38.58500 9.86300 48.92800
H  41.07200 1.70300 47.02500
H  47.47800 1.05200 47.77000
H  47.96300 7.46000 47.41100
H  39.57100 6.28100 47.32800
H  39.66000 3.71300 46.19400
H  40.05200 3.43300 49.01100
H  38.49900 3.24300 48.05500
H  39.08800 4.75500 48.92300
H  39.96800 5.20800 44.62500
H  40.98800 6.63100 44.91500
H  38.58500 7.53900 45.79700
H  38.27200 6.65900 44.32100
H  42.40700 -0.34000 45.69000
H  41.41600 -0.16700 47.24500
H  42.43100 -1.61800 47.05900
H  47.26400 -2.23200 46.50000
H  47.44200 -1.17800 47.85100
H  47.35200 -0.48600 46.20400
H  49.06200 2.96600 46.58000
H  49.50700 5.20300 48.56400
H  49.26500 1.65100 49.01500
H  50.14600 3.19600 49.37400
H  50.47700 2.09600 47.96200
H  49.56100 6.31800 46.08400
H  50.06700 4.59300 45.75900
H  52.00200 5.21600 46.06600
H  51.67600 5.39900 47.86800
H  51.56300 6.77200 46.88400
H  46.86200 10.04900 46.51700
H  47.58900 9.69000 48.14700
H  46.29500 10.69200 48.15600
H  41.20000 8.83100 46.50900
H  38.01300 8.93600 48.89300
H  38.01100 10.71400 48.56100
H  38.91700 10.02000 49.95500
Mg 47.60000 16.48200 28.75500
C  45.73700 16.25600 31.67500
C  49.91700 18.50600 30.58300
C  49.11600 17.16100 25.87200
C  45.01300 14.96300 27.04200
N  47.71800 17.28900 30.82500
C  46.90200 16.97500 31.87300
C  47.31600 17.53800 33.25000
C  48.58900 18.42300 32.79800
C  48.76200 18.06900 31.31100
C  48.39100 19.95000 33.04900
C  47.78000 16.32700 34.20000
C  47.19900 16.36900 35.57500
H  46.94300 17.77800 36.22300
N  49.28200 17.67400 28.31100
C  50.12100 18.41500 29.19500
C  51.23000 18.93400 28.45000
C  51.00400 18.46600 27.07500
C  49.80200 17.66500 26.99600
C  52.41000 19.65600 29.06300
C  51.95000 18.62300 25.80700
O  51.75500 18.14700 24.73600
C  53.18900 19.61500 25.90900
N  47.06100 16.14800 26.82400
C  47.88500 16.49800 25.79600
C  47.36000 16.16100 24.40000
C  46.22400 15.18700 24.78000
C  46.06300 15.45900 26.27300
C  46.81100 17.30600 23.54900
C  46.55800 13.70600 24.50600
C  45.72000 13.04900 23.41600
N  45.72200 15.72800 29.23800
C  44.80700 15.07000 28.44600
C  43.64600 14.64000 29.24400
C  43.97300 15.10200 30.51800
C  45.25400 15.69600 30.46200
C  42.50900 13.90500 28.83500
C  43.47100 15.14300 31.92600
O  42.50400 14.55300 32.43900
C  44.67400 15.95000 32.67600
C  44.04900 17.09500 33.28200
O  43.96000 18.24200 32.84600
O  43.51000 16.72600 34.49300
C  42.74600 17.77400 35.10100
H  50.67700 19.07800 31.12000
H  49.53400 17.32600 24.87600
H  44.24200 14.40400 26.50800
H  46.55800 18.23700 33.60300
H  49.52900 18.07200 33.22500
H  48.62200 20.40500 32.08500
H  49.13900 20.35100 33.73300
H  47.36700 20.23500 33.29100
H  48.82700 16.31800 34.50300
H  47.65000 15.39900 33.64300
H  47.85500 15.75600 36.19300
H  46.25000 15.85300 35.43200
H  53.32100 19.09200 28.86100
H  52.34900 19.74900 30.14700
H  52.54400 20.64300 28.61900
H  52.85500 20.63200 26.11400
H  53.54900 19.52800 24.88400
H  54.01800 19.19500 26.47800
H  48.15400 15.70300 23.81000
H  45.29400 15.40500 24.25600
H  45.75000 17.13700 23.36500
H  47.35100 17.37400 22.60500
H  46.82500 18.19400 24.18100
H  46.41300 13.11400 25.40900
H  47.56800 13.40300 24.23000
H  46.41100 12.35900 22.93100
H  45.29000 13.72500 22.67800
H  44.90500 12.40200 23.74000
H  41.64500 14.56500 28.91800
H  42.21000 13.09400 29.49800
H  42.67800 13.63700 27.79200
H  44.94300 15.16200 33.37900
H  43.38900 18.61800 35.35000
H  42.26200 17.52300 36.04500
H  41.94100 18.16200 34.47700

