158

Mg 7.90600 3.85500 27.14500
C  9.48500 2.30600 29.88600
C  5.89300 5.52300 29.34800
C  6.62700 5.45800 24.63000
C  9.83700 1.86800 25.06200
N  7.76700 3.88200 29.39500
C  8.46400 3.19600 30.26400
C  8.06000 3.51700 31.73800
C  6.79800 4.40100 31.48100
C  6.79200 4.62300 29.95500
C  5.44200 3.70500 31.85800
C  9.07500 4.16400 32.61200
C  8.62500 4.93000 33.87100
H  9.63000 5.16700 34.99100
N  6.47700 5.35500 27.01400
C  5.79600 5.98400 28.02800
C  4.86800 6.94800 27.49800
C  5.18200 7.03400 26.12600
C  6.07400 5.93100 25.80700
C  3.93100 7.72700 28.40500
C  4.64800 7.91600 25.08100
O  4.86500 7.82700 23.88100
C  3.79200 8.96000 25.52400
N  8.05200 3.57400 25.16500
C  7.45400 4.36700 24.29000
C  7.68000 3.91800 22.85700
C  8.94200 2.94900 23.05100
C  8.99900 2.76900 24.51100
C  6.53500 3.43900 21.88800
C  10.27900 3.46700 22.40600
C  11.28500 4.19800 23.36600
N  9.33800 2.30900 27.32500
C  9.99700 1.58500 26.42300
C  10.74800 0.56000 27.03200
C  10.65200 0.85500 28.43900
C  9.78700 1.95300 28.55100
C  11.62900 -0.51100 26.48900
C  11.10600 0.48800 29.78900
O  11.87100 -0.30700 30.23300
C  10.38900 1.45100 30.71900
C  9.73400 0.52400 31.67100
O  8.72300 -0.12900 31.49800
O  10.42500 0.48500 32.82000
C  9.74600 -0.06500 34.01000
H  5.27800 6.10100 30.04200
H  6.34700 6.01100 23.73100
H  10.47300 1.28500 24.39300
H  7.76300 2.54100 32.12000
H  6.88900 5.35700 31.99700
H  5.56200 2.68400 32.22100
H  4.64200 3.75300 31.11900
H  5.06800 4.31300 32.68200
H  9.64600 4.83200 31.96800
H  9.85500 3.49800 32.98100
H  7.89400 4.25000 34.30800
H  8.19900 5.91700 33.68800
H  4.31800 8.74300 28.47200
H  3.65600 7.33600 29.38500
H  2.96000 7.78100 27.91200
H  2.76600 8.60400 25.61900
H  3.75700 9.65700 24.68600
H  4.37000 9.39300 26.34000
H  8.08200 4.83100 22.41700
H  8.82500 1.94600 22.64100
H  5.60800 3.33900 22.45200
H  6.78500 2.46200 21.47200
H  6.42800 4.20700 21.12200
H  10.13000 4.14800 21.56900
H  10.75500 2.54900 22.06200
H  12.34100 3.92600 23.39400
H  11.08300 4.23200 24.43700
H  11.32400 5.26200 23.13100
H  11.38300 -0.67600 25.44000
H  11.51300 -1.44800 27.03500
H  12.70800 -0.37300 26.42000
H  11.21000 1.97100 31.21100
H  9.40500 0.79400 34.58900
H  10.53800 -0.52000 34.60400
H  8.90600 -0.74800 33.88400
Mg 50.44200 46.62700 41.15300
C  47.08700 47.36300 40.02600
C  49.82700 43.34400 40.16500
C  53.77400 46.18900 41.04900
C  50.85500 50.14000 41.59100
N  48.57800 45.52100 40.32100
C  47.43700 46.00100 39.83400
C  46.56300 44.93700 39.17900
C  47.34900 43.62100 39.66900
C  48.68300 44.19100 40.05200
C  46.81000 42.81200 40.79900
C  46.40000 45.15800 37.63800
C  44.94600 45.16700 37.15500
H  44.66300 43.99800 36.13000
N  51.69300 44.93600 40.71100
C  51.16900 43.65600 40.38000
C  52.34700 42.83600 40.30600
C  53.53600 43.62800 40.51300
C  53.05900 44.94900 40.80300
C  52.32200 41.35900 40.04200
C  54.94600 43.00600 40.46700
O  55.16800 41.84000 40.12500
C  56.04100 43.95200 40.76400
N  52.11700 48.05200 41.16400
C  53.33300 47.52800 41.24800
C  54.33400 48.65000 41.72700
C  53.42200 49.90600 41.98100
C  52.01800 49.38400 41.52000
C  55.20100 48.27400 42.98900
C  53.91900 51.25800 41.28300
C  54.08400 52.49700 42.21500
N  49.19200 48.42600 41.10800
C  49.51300 49.74900 41.23300
C  48.31900 50.53300 41.06700
C  47.34200 49.66200 40.51700
C  47.96400 48.37400 40.50300
C  48.34100 52.02300 41.24800
C  46.07200 49.59900 39.90800
O  45.32600 50.53500 39.62900
C  45.80400 48.06100 39.69500
C  44.71100 47.70600 40.66600
O  44.86300 47.41200 41.80000
O  43.50600 47.98200 40.11500
C  42.41700 48.13300 41.07900
H  49.55400 42.31800 39.91100
H  54.86200 46.23300 41.13000
H  50.98400 51.20400 41.79900
H  45.53700 44.94400 39.54700
H  47.61700 42.91400 38.88400
H  46.59900 41.81800 40.40700
H  45.89300 43.18200 41.25700
H  47.54300 42.69400 41.59700
H  46.91700 44.32500 37.16300
H  46.81900 46.04300 37.15800
H  44.69600 46.13400 36.71700
H  44.14300 45.04100 37.88100
H  51.34500 41.00800 39.71200
H  52.57200 40.93800 41.01600
H  53.00000 41.08200 39.23500
H  55.82800 44.41900 41.72600
H  55.98600 44.67300 39.94900
H  56.94300 43.34400 40.69600
H  55.05500 48.81900 40.92700
H  53.49600 50.09300 43.05200
H  56.21400 48.28600 42.58700
H  54.93300 47.31200 43.42600
H  55.18700 48.91800 43.86900
H  53.23300 51.36200 40.44300
H  54.93600 51.06300 40.94100
H  53.70000 53.28200 41.56500
H  55.13200 52.65900 42.46700
H  53.56500 52.50200 43.17300
H  49.22700 52.39600 40.73600
H  48.23000 52.34400 42.28400
H  47.51300 52.54300 40.76700
H  45.47900 47.95800 38.66000
H  41.50300 47.57600 40.87200
H  42.16600 49.18900 40.97800
H  42.64400 47.78500 42.08600

