158

Mg 47.13100 25.35700 28.42100
C  48.01400 27.53000 31.07000
C  46.26900 23.02100 30.73100
C  46.57500 23.15500 25.88500
C  48.67900 27.55300 26.21900
N  46.95600 25.42900 30.64600
C  47.41200 26.41000 31.50700
C  47.21100 25.99100 32.96900
C  46.51400 24.53900 32.82600
C  46.53100 24.31700 31.33200
C  47.15900 23.33200 33.66900
C  46.16200 26.96700 33.60900
C  46.70000 27.65300 34.85000
H  45.74200 28.14900 35.92600
N  46.43400 23.36400 28.32000
C  46.09700 22.59300 29.39400
C  45.57900 21.36600 28.89400
C  45.71000 21.34000 27.52900
C  46.25700 22.64400 27.14100
C  45.06900 20.24400 29.78000
C  45.39600 20.19400 26.48700
O  45.48100 20.31300 25.26500
C  44.77700 18.92600 26.93100
N  47.59100 25.37400 26.42200
C  47.21900 24.41400 25.54600
C  47.50500 24.77800 24.10200
C  48.07700 26.13100 24.20300
C  48.14300 26.35600 25.74600
C  48.34200 23.78400 23.33500
C  47.18400 27.22900 23.45700
C  47.65800 27.72100 22.14300
N  48.10600 27.18800 28.56200
C  48.74400 27.91800 27.55500
C  49.25500 29.14100 28.15600
C  49.12500 28.91300 29.49800
C  48.31400 27.82900 29.71000
C  49.97700 30.27100 27.49700
C  49.38600 29.45300 30.81700
O  50.10400 30.41500 31.16100
C  48.68000 28.59000 31.90000
C  49.77000 28.02300 32.80100
O  50.47900 27.15600 32.38600
O  49.83400 28.63800 34.00700
C  51.07600 28.37400 34.79600
H  46.03500 22.39800 31.59600
H  46.43100 22.60700 24.95100
H  49.05400 28.29800 25.51400
H  48.13600 25.92800 33.54200
H  45.50100 24.49900 33.22700
H  46.43600 22.69100 34.17300
H  47.84900 23.70600 34.42500
H  47.74200 22.72700 32.97400
H  45.25200 26.51000 33.99700
H  45.98000 27.82800 32.96700
H  47.21100 28.55200 34.50400
H  47.38800 26.97400 35.35500
H  44.09000 19.89700 29.45100
H  45.08100 20.51100 30.83600
H  45.80500 19.44300 29.70800
H  45.59900 18.33800 27.34100
H  44.38100 18.46900 26.02500
H  43.89700 19.17100 27.52600
H  46.51200 24.84200 23.65700
H  49.09900 26.20400 23.83200
H  48.72700 23.11400 24.10400
H  49.16300 24.28900 22.82700
H  47.71700 23.17400 22.68200
H  47.02100 28.06200 24.14000
H  46.18300 26.86500 23.22700
H  48.57300 27.16800 21.93200
H  47.90300 28.77700 22.26000
H  46.92800 27.55600 21.35100
H  51.05800 30.17700 27.40000
H  49.69200 31.13900 28.09200
H  49.67000 30.36200 26.45500
H  48.01500 29.22100 32.49000
H  52.00700 28.71000 34.33900
H  51.09100 27.30000 34.97900
H  51.00700 28.87700 35.76100
Mg 16.91500 52.20300 25.67800
C  18.36700 50.59100 28.38700
C  14.44700 53.29600 27.91800
C  15.46100 53.79500 23.20500
C  19.27600 50.85200 23.59900
N  16.43800 51.74400 27.96500
C  17.29000 51.25100 28.82500
C  16.87300 51.42700 30.24800
C  15.45100 52.04400 30.03000
C  15.41200 52.34900 28.51800
C  14.23400 51.11400 30.49100
C  17.82800 52.44400 31.03900
C  18.19700 52.11400 32.52400
H  17.27600 52.64200 33.63200
N  15.23000 53.43200 25.60300
C  14.39700 53.80100 26.64100
C  13.46400 54.70900 26.15500
C  13.72200 54.87000 24.73000
C  14.89800 54.09600 24.49200
C  12.45700 55.42600 27.11000
C  13.05900 55.76400 23.71600
O  13.27200 55.75700 22.49600
C  11.93100 56.67500 24.25200
N  17.38900 52.51800 23.72800
C  16.58000 53.07900 22.84700
C  17.18300 53.13600 21.43800
C  18.57200 52.30200 21.62700
C  18.43400 51.87200 23.08200
C  16.20900 52.59500 20.31300
C  19.87800 53.01700 21.30200
C  19.95400 54.46300 21.86800
N  18.46800 50.86800 25.86000
C  19.37700 50.36100 24.96000
C  20.36600 49.53300 25.59800
C  19.97700 49.58700 26.96400
C  18.85000 50.40400 27.03300
C  21.59300 48.93500 24.90500
C  20.43800 49.22600 28.30300
O  21.37100 48.53100 28.70900
C  19.49400 50.00700 29.26500
C  18.80200 48.97700 30.15600
O  17.96600 48.12800 29.81500
O  19.29500 49.12600 31.40000
C  19.08900 48.02900 32.38900
H  13.80600 53.73200 28.68800
H  14.98200 54.21200 22.31600
H  19.92100 50.47000 22.80600
H  16.81500 50.45300 30.73400
H  15.39700 53.03400 30.48200
H  13.60800 51.66200 31.19500
H  14.55200 50.25500 31.08200
H  13.59400 50.82000 29.65900
H  17.32300 53.41000 31.03100
H  18.76100 52.53000 30.48200
H  19.16800 52.54600 32.76700
H  18.36700 51.03800 32.52100
H  12.65300 56.49700 27.06300
H  12.50600 55.27300 28.18800
H  11.41100 55.31500 26.82400
H  12.46100 57.26900 24.99600
H  11.18600 56.01700 24.69800
H  11.42000 57.21700 23.45700
H  17.53900 54.09600 21.06400
H  18.42800 51.46200 20.94700
H  15.24800 53.02800 20.59100
H  16.12000 51.52200 20.48200
H  16.54300 52.85900 19.30900
H  20.02800 53.02800 20.22200
H  20.73900 52.45800 21.66700
H  19.11300 54.87300 22.42700
H  20.10300 55.17900 21.06000
H  20.87700 54.51300 22.44700
H  21.71500 47.95000 25.35500
H  22.47600 49.53700 25.12100
H  21.46700 48.86600 23.82500
H  20.02200 50.78700 29.81400
H  18.13000 47.51600 32.31700
H  19.07900 48.57600 33.33200
H  19.91600 47.32600 32.29400

