158

Mg 26.60700 49.78800 26.32400
C  24.57000 51.00700 28.88200
C  28.57000 48.44500 28.59800
C  28.55600 48.94100 23.83400
C  24.48800 51.51300 24.14000
N  26.57000 49.80000 28.54400
C  25.58800 50.24300 29.37700
C  25.84800 49.84700 30.85300
C  27.27200 49.14700 30.81400
C  27.49400 49.08900 29.22900
C  28.31700 50.01200 31.58600
C  24.67200 49.08800 31.51100
C  24.33100 49.52500 32.95800
H  25.27900 50.00300 34.02400
N  28.36200 48.79000 26.21800
C  29.06200 48.33200 27.27800
C  30.28500 47.72700 26.84400
C  30.29300 47.87400 25.43800
C  29.07100 48.63600 25.07600
C  31.27500 47.03200 27.67400
C  31.30900 47.49600 24.38000
O  31.18500 47.79800 23.20500
C  32.69500 46.90300 24.89200
N  26.57600 50.28000 24.29000
C  27.48500 49.75500 23.45600
C  27.00500 49.88600 22.00800
C  25.83400 50.96800 22.10700
C  25.55000 50.82200 23.58100
C  28.07600 50.24900 21.01400
C  24.55500 50.56200 21.27400
C  23.77700 49.20500 21.74000
N  24.90300 50.99100 26.44700
C  24.16600 51.64200 25.43800
C  23.07700 52.38200 26.02200
C  23.19500 52.12600 27.40100
C  24.37400 51.33700 27.59600
C  22.07400 53.11700 25.31400
C  22.65600 52.32900 28.66100
O  21.71900 53.00400 29.01400
C  23.51700 51.66100 29.75800
C  24.05400 52.71100 30.67600
O  25.12500 53.28100 30.68100
O  23.07600 52.93800 31.56000
C  23.66800 53.58500 32.76800
H  29.28300 47.94000 29.25300
H  28.94200 48.46800 22.92800
H  23.85400 52.04000 23.42400
H  25.98400 50.79600 31.37100
H  27.23400 48.12800 31.19800
H  29.04800 49.28000 31.93100
H  27.93200 50.53600 32.46100
H  28.70100 50.81600 30.95700
H  24.82900 48.01300 31.60100
H  23.75200 49.03800 30.92900
H  23.99300 48.62600 33.47300
H  23.48200 50.20800 32.92800
H  31.29200 45.95300 27.52200
H  31.07200 47.21400 28.72900
H  32.26900 47.47900 27.65600
H  32.61200 45.96000 25.43200
H  33.12300 47.70100 25.50000
H  33.43200 46.67000 24.12400
H  26.73500 48.88100 21.68400
H  26.15100 52.01000 22.15600
H  28.96900 50.60200 21.53000
H  27.75900 51.04400 20.33900
H  28.33000 49.42400 20.34800
H  24.76500 50.57100 20.20400
H  23.86100 51.39700 21.37100
H  22.92500 49.43400 22.38100
H  24.29800 48.57500 22.46100
H  23.56900 48.43600 20.99700
H  21.44600 53.54000 26.09800
H  21.44800 52.35200 24.85400
H  22.34100 53.83500 24.53800
H  22.77300 51.07700 30.30000
H  24.51300 53.03100 33.17600
H  22.92000 53.65500 33.55700
H  23.98700 54.59500 32.50600
Mg -6.03800 25.69800 25.95400
C  -4.67600 26.84700 28.90600
C  -7.65100 23.14900 27.86700
C  -7.07300 24.20100 23.11900
C  -3.57000 27.49300 24.16800
N  -5.92700 24.96600 28.05200
C  -5.53400 25.78000 29.08900
C  -6.10000 25.24100 30.39600
C  -6.82800 23.89500 30.06700
C  -6.78000 23.98400 28.56300
C  -6.07100 22.60200 30.55000
C  -6.99400 26.22700 31.09100
C  -6.79400 26.41300 32.62500
H  -6.18000 25.18800 33.40700
N  -7.35300 24.01100 25.57600
C  -8.00200 23.21000 26.45600
C  -8.94600 22.40500 25.74600
C  -8.81700 22.63300 24.36200
C  -7.69500 23.64000 24.28300
C  -10.13200 21.64500 26.46200
C  -9.57300 22.05300 23.24700
O  -9.20700 22.23300 22.07000
C  -10.71700 21.09200 23.37800
N  -5.54700 26.05500 23.92300
C  -6.10700 25.22800 22.95600
C  -5.37900 25.49800 21.59500
C  -4.34800 26.64300 21.90300
C  -4.46600 26.76600 23.42700
C  -4.67700 24.27100 20.95700
C  -4.74200 28.02800 21.22000
C  -3.69200 28.62000 20.33600
N  -4.55400 27.06700 26.36800
C  -3.63400 27.73600 25.56900
C  -2.95600 28.65100 26.35500
C  -3.28400 28.38600 27.69400
C  -4.27600 27.40700 27.66300
C  -1.90200 29.65200 25.86500
C  -2.96100 28.67800 29.09500
O  -2.17800 29.45100 29.60200
C  -3.97100 27.69600 29.92000
C  -3.20700 26.92500 30.94700
O  -2.74600 25.84800 30.85600
O  -3.14300 27.63900 32.08600
C  -2.36900 26.98200 33.18700
H  -8.16800 22.41400 28.48800
H  -7.24500 23.80400 22.11600
H  -2.76500 27.88100 23.54000
H  -5.32200 24.94000 31.09800
H  -7.84300 23.75800 30.43900
H  -5.73100 22.09800 29.64500
H  -6.87300 22.03500 31.02400
H  -5.15100 22.64900 31.13300
H  -8.01100 25.84600 31.00300
H  -6.96600 27.18500 30.57100
H  -7.73900 26.54800 33.15100
H  -6.16300 27.25200 32.91700
H  -11.03700 22.24000 26.33800
H  -10.00800 21.45200 27.52700
H  -10.24700 20.63500 26.07000
H  -11.34300 20.90300 22.50600
H  -11.39200 21.23300 24.22200
H  -10.16500 20.17900 23.60000
H  -6.09800 25.95100 20.91300
H  -3.33900 26.31200 21.65800
H  -5.34300 23.93800 20.16100
H  -4.52900 23.37300 21.55600
H  -3.70800 24.55200 20.54500
H  -4.90000 28.77900 21.99400
H  -5.67400 27.99300 20.65500
H  -3.24700 29.54300 20.70700
H  -4.23600 28.94100 19.44800
H  -2.98000 27.83200 20.08800
H  -1.09400 29.94900 26.53400
H  -2.53300 30.50100 25.59900
H  -1.46400 29.19300 24.97900
H  -4.67100 28.36100 30.42600
H  -1.35000 26.77700 32.86100
H  -2.67800 25.95100 33.36200
H  -2.42000 27.49900 34.14600

