158

Mg 54.10700 25.80100 44.54700
C  51.51400 28.10000 43.77900
C  52.28700 23.30000 43.13500
C  56.90500 23.98900 44.67100
C  55.97700 28.66500 45.58900
N  52.23500 25.76900 43.55800
C  51.34200 26.82800 43.25400
C  50.21000 26.27100 42.35400
C  50.23900 24.76300 42.77500
C  51.68100 24.56400 43.18000
C  49.35300 24.32100 44.04300
C  50.50800 26.58100 40.81800
C  49.36700 27.07000 39.94100
H  49.06400 26.19200 38.80000
N  54.51900 23.82000 44.11200
C  53.55100 22.93500 43.55100
C  54.19800 21.62100 43.47100
C  55.61600 21.79500 43.84800
C  55.76500 23.24600 44.19200
C  53.43100 20.29800 43.15000
C  56.62000 20.61200 44.08200
O  56.32700 19.46800 43.69500
C  57.95400 20.91000 44.66200
N  56.18500 26.27800 44.84100
C  57.08800 25.31600 44.98700
C  58.33900 25.79200 45.59000
C  58.14500 27.34000 45.63500
C  56.68200 27.47600 45.42100
C  58.66200 25.04100 46.90800
C  58.97300 28.18600 44.59200
C  59.42400 29.55100 45.25600
N  53.79700 27.91400 44.80500
C  54.61300 28.94800 45.29900
C  53.87900 30.18600 45.40700
C  52.68200 29.95200 44.74400
C  52.66400 28.53100 44.43000
C  54.40100 31.48700 45.89500
C  51.47400 30.52800 44.30700
O  51.05000 31.68100 44.33700
C  50.67100 29.34500 43.73100
C  50.18700 29.77300 42.37900
O  50.92100 29.92200 41.41100
O  48.86400 29.75000 42.43400
C  48.23700 30.34000 41.22800
H  51.66300 22.53300 42.67100
H  57.81100 23.40800 44.85500
H  56.58400 29.47700 45.99500
H  49.19100 26.60200 42.55500
H  49.88500 24.10800 41.97800
H  48.45400 24.91000 44.22500
H  49.89100 23.99400 44.93300
H  48.89600 23.36400 43.79300
H  50.96400 25.65900 40.45900
H  51.23300 27.39500 40.81500
H  49.61700 28.08900 39.64400
H  48.46800 27.13100 40.55300
H  53.78600 20.06300 42.14600
H  52.34400 20.33500 43.08000
H  53.84800 19.62900 43.90300
H  58.51800 19.99300 44.83100
H  57.90500 21.37900 45.64600
H  58.51100 21.53000 43.96000
H  59.08800 25.54200 44.83800
H  58.36700 27.65700 46.65400
H  57.79600 24.85100 47.54200
H  59.43600 25.53300 47.49700
H  58.94000 24.01300 46.67800
H  58.40800 28.55700 43.73700
H  59.80800 27.52400 44.36000
H  60.51200 29.52200 45.20000
H  59.05600 29.58700 46.28100
H  59.13500 30.44200 44.69800
H  54.83000 32.11300 45.11300
H  55.17000 31.37400 46.66000
H  53.56300 32.01400 46.35000
H  49.82700 29.22800 44.41100
H  47.91800 29.53800 40.56300
H  48.95800 30.89300 40.62400
H  47.40800 31.02500 41.40500
Mg 36.44800 48.90600 25.58800
C  36.56000 46.98600 28.65900
C  35.50800 51.50300 27.47500
C  35.99400 50.51500 22.76600
C  37.41600 46.01000 23.87100
N  36.11600 49.16100 27.79800
C  36.23500 48.28200 28.88400
C  36.03400 48.93100 30.25400
C  35.51000 50.32500 29.74400
C  35.72300 50.33300 28.21600
C  33.99900 50.74300 30.17200
C  37.36300 48.86400 31.06700
C  37.27400 48.62500 32.54100
H  35.98100 48.75400 33.26700
N  35.80200 50.79000 25.19700
C  35.58200 51.79700 26.11300
C  35.32100 53.07500 25.44100
C  35.30400 52.70900 24.02400
C  35.62800 51.28500 23.90300
C  35.14100 54.35900 26.11200
C  35.05800 53.60000 22.84800
O  35.02100 53.23000 21.62600
C  34.87200 55.09700 23.09600
N  36.62400 48.34300 23.67300
C  36.45000 49.24900 22.63000
C  36.69900 48.62100 21.27000
C  37.25200 47.19500 21.58200
C  37.06300 47.14200 23.16300
C  35.43600 48.63800 20.34000
C  38.66300 46.89700 21.02200
C  39.80500 47.59800 21.73600
N  37.00200 46.94600 26.07700
C  37.42800 45.90700 25.28000
C  37.71100 44.72400 26.11000
C  37.27400 45.05000 27.43600
C  36.88600 46.44200 27.37200
C  38.31100 43.48300 25.61800
C  37.17700 44.55400 28.74600
O  37.46900 43.43800 29.13600
C  36.77900 45.80700 29.70700
C  35.56400 45.42700 30.45100
O  34.44200 45.85700 30.34400
O  35.95400 44.69900 31.59900
C  34.98800 44.32600 32.67800
H  35.20700 52.36700 28.07200
H  35.98000 51.06000 21.82000
H  37.68300 45.14700 23.25800
H  35.24700 48.43200 30.81800
H  36.19300 51.10300 30.08400
H  33.27200 50.73700 29.36000
H  34.20000 51.72700 30.59700
H  33.58200 50.03500 30.88800
H  37.89500 49.81500 31.04900
H  38.02900 48.06900 30.72800
H  38.10700 49.16900 32.98700
H  37.56200 47.57400 32.57100
H  34.32900 54.92900 25.66100
H  35.97200 55.02500 25.88300
H  35.14300 54.24000 27.19500
H  35.68100 55.55900 23.66200
H  33.94300 55.23700 23.64900
H  34.94600 55.57700 22.12000
H  37.45600 49.20800 20.75100
H  36.58600 46.40700 21.23100
H  34.62400 49.32200 20.58700
H  35.06300 47.65000 20.07100
H  35.81300 49.05700 19.40700
H  38.52900 47.30400 20.02000
H  38.80500 45.81700 20.97800
H  39.59800 48.01000 22.72400
H  40.15100 48.45800 21.16300
H  40.60500 46.87900 21.91100
H  38.80800 43.64300 24.66200
H  37.47600 42.78500 25.68600
H  39.03100 43.24000 26.40000
H  37.56300 45.99600 30.44100
H  34.89400 43.24600 32.79200
H  33.99600 44.77600 32.64500
H  35.42800 44.81600 33.54600

