158

Mg 9.94500 47.66000 25.70900
C  7.96600 47.95400 28.62000
C  12.52700 48.87700 27.59200
C  11.91100 47.38900 22.97800
C  7.17400 46.84000 23.90300
N  10.10000 48.47900 27.88100
C  9.27200 48.15600 28.86100
C  9.83300 48.47300 30.22200
C  11.24700 49.15600 29.88500
C  11.36500 48.82400 28.34200
C  11.28300 50.66000 30.22800
C  10.04000 47.26100 31.13000
C  9.72100 47.60700 32.57500
H  9.69500 46.48200 33.55700
N  11.93600 48.13800 25.35300
C  12.78500 48.63100 26.22200
C  14.02600 48.75400 25.57300
C  13.98100 48.19300 24.26200
C  12.54900 47.91100 24.13200
C  15.11200 49.42900 26.39300
C  15.10600 47.92900 23.21000
O  14.86600 47.58500 22.06400
C  16.42900 48.16700 23.69400
N  9.62900 47.38900 23.65500
C  10.56100 47.19900 22.75500
C  10.06400 46.64700 21.41900
C  8.55400 46.48400 21.78100
C  8.37500 47.00500 23.22700
C  10.22900 47.52200 20.16100
C  8.02800 45.00400 21.64300
C  8.36800 44.05600 22.80900
N  7.99000 47.30100 26.16700
C  6.97800 47.05700 25.23800
C  5.72200 47.01400 26.01200
C  5.98800 47.39200 27.34600
C  7.45900 47.59400 27.32300
C  4.31400 46.76900 25.41500
C  5.51600 47.53700 28.66100
O  4.38700 47.40300 29.10000
C  6.80500 47.83500 29.55400
C  6.84500 46.59800 30.43700
O  7.07800 45.46800 30.12300
O  6.46200 46.99000 31.62300
C  5.93200 45.91500 32.48800
H  13.36700 49.14300 28.23800
H  12.57800 47.27700 22.12000
H  6.32300 46.61900 23.25600
H  9.25600 49.24400 30.73200
H  12.13100 48.62700 30.24100
H  10.38900 51.01200 30.74300
H  11.39400 51.28700 29.34300
H  12.14600 50.93300 30.83400
H  11.10600 47.04100 31.19100
H  9.47600 46.36700 30.86700
H  8.80700 48.19800 32.62900
H  10.50700 48.26100 32.95100
H  14.62300 50.25100 26.91600
H  15.77300 49.85900 25.64100
H  15.48700 48.68200 27.09200
H  16.68500 49.22500 23.63000
H  17.20700 47.70900 23.08400
H  16.41200 47.89200 24.74900
H  10.44500 45.62800 21.34300
H  7.86800 47.07100 21.17100
H  11.02300 48.25500 20.30800
H  9.40400 48.15600 19.83400
H  10.43800 46.73100 19.44100
H  8.54000 44.53000 20.80600
H  6.98500 44.89900 21.34300
H  8.78800 44.51400 23.70500
H  9.09100 43.29800 22.50700
H  7.45000 43.69200 23.27100
H  4.32700 46.96700 24.34300
H  3.54600 47.27500 26.00000
H  4.01600 45.73700 25.60100
H  6.54600 48.67900 30.19400
H  4.84300 45.91300 32.45500
H  6.22800 46.13100 33.51400
H  6.26000 44.88800 32.33100
Mg -12.04200 37.94000 42.79800
C  -10.55300 35.05200 41.90500
C  -9.72700 39.74400 41.22700
C  -14.12300 40.56100 43.03100
C  -14.72400 35.95600 44.21100
N  -10.28000 37.43900 41.84800
C  -9.89500 36.19000 41.38400
C  -8.75100 36.19500 40.29300
C  -8.32000 37.68400 40.45700
C  -9.47400 38.37500 41.24400
C  -6.89600 37.86900 41.15500
C  -9.36300 36.00600 38.90300
C  -8.33100 35.55500 37.83700
H  -7.73500 36.61200 36.91300
N  -11.97300 39.88700 42.08700
C  -10.86000 40.50700 41.57100
C  -11.12900 41.84000 41.37200
C  -12.46900 42.15700 41.80800
C  -12.91300 40.82500 42.37900
C  -10.20400 42.66000 40.64300
C  -13.30700 43.45300 41.63700
O  -12.75100 44.34900 41.08500
C  -14.69800 43.60300 42.03500
N  -14.19200 38.26700 43.56900
C  -14.78400 39.43000 43.58800
C  -16.03100 39.44500 44.48900
C  -16.39800 37.88100 44.55000
C  -15.00400 37.35100 44.14400
C  -15.84700 40.02100 45.86900
C  -17.65600 37.58900 43.59800
C  -18.30000 36.30800 43.84100
N  -12.49100 35.90900 43.13800
C  -13.55000 35.26700 43.78300
C  -13.20300 33.83500 43.89800
C  -11.99000 33.66900 43.19600
C  -11.76000 35.01200 42.66300
C  -13.96200 32.71200 44.62900
C  -10.96600 32.79400 42.78700
O  -10.80800 31.62100 42.93400
C  -10.09200 33.61900 41.72700
C  -8.61300 33.39400 42.03400
O  -7.85400 32.76000 41.32000
O  -8.15500 34.29800 42.97500
C  -6.76200 34.25100 43.37600
H  -8.91200 40.30700 40.76800
H  -14.67900 41.46400 43.29000
H  -15.50300 35.39900 44.73600
H  -8.00400 35.46700 40.61000
H  -8.25900 38.12200 39.46000
H  -6.96600 37.76000 42.23700
H  -6.49800 38.85600 40.91700
H  -6.16700 37.17900 40.73100
H  -9.82200 36.93200 38.55900
H  -10.20500 35.31800 38.97200
H  -8.74500 34.64200 37.41100
H  -7.43500 35.25000 38.37900
H  -9.19100 42.25900 40.63600
H  -10.19500 43.55000 41.27300
H  -10.57700 43.09200 39.71500
H  -15.25300 42.75900 41.62600
H  -15.12700 44.56700 41.76300
H  -14.57000 43.59600 43.11800
H  -16.85000 40.03700 44.08100
H  -16.65600 37.58700 45.56700
H  -16.57700 39.81000 46.65000
H  -15.95500 41.10500 45.83500
H  -14.87800 39.72300 46.27000
H  -17.31400 37.61000 42.56300
H  -18.34200 38.43300 43.53100
H  -19.33300 36.32500 43.49400
H  -18.24100 35.98300 44.88000
H  -17.85700 35.48600 43.27900
H  -14.62000 32.17100 43.94800
H  -14.61700 33.13400 45.39200
H  -13.43800 31.91400 45.15400
H  -10.42300 33.27000 40.75000
H  -6.17800 34.88900 42.71300
H  -6.39500 33.22500 43.39400
H  -6.58500 34.72500 44.34100

