158

Mg -2.17500 17.40500 26.33500
C  -2.14100 15.04900 28.83500
C  -3.40900 19.73300 28.64700
C  -2.19000 19.59700 23.85500
C  -1.55300 14.76300 24.00900
N  -2.67900 17.45600 28.47100
C  -2.36500 16.39200 29.29900
C  -2.52300 16.77000 30.79300
C  -3.18900 18.18900 30.70000
C  -3.07800 18.50100 29.20700
C  -4.66800 18.14000 31.08800
C  -1.13800 16.73600 31.43200
C  -0.77800 17.44400 32.70800
H  -0.89700 16.61400 34.05700
N  -2.74500 19.38000 26.26200
C  -3.26500 20.18500 27.26200
C  -3.59900 21.42700 26.75600
C  -3.27200 21.44300 25.35800
C  -2.69300 20.07700 25.11600
C  -4.35300 22.49000 27.49600
C  -3.40700 22.55300 24.29700
O  -3.00200 22.50200 23.11300
C  -3.81700 23.89900 24.82400
N  -1.87700 17.14300 24.19000
C  -1.78400 18.30200 23.43500
C  -1.31700 18.01000 21.97900
C  -0.87500 16.50000 22.14800
C  -1.49700 16.09800 23.48100
C  -2.38700 18.23800 20.77800
C  0.67700 16.20100 22.01100
C  0.89200 14.92100 21.09800
N  -1.90800 15.34600 26.38500
C  -1.75300 14.43100 25.37200
C  -1.79300 13.07400 25.89500
C  -1.93600 13.26500 27.26100
C  -2.01400 14.64400 27.52700
C  -1.84900 11.84700 25.05100
C  -2.26100 12.60700 28.48600
O  -2.51000 11.43200 28.65400
C  -2.43800 13.72200 29.56000
C  -1.56700 13.45100 30.67300
O  -0.32200 13.51000 30.67200
O  -2.32000 13.14800 31.76900
C  -1.59500 12.64800 32.90800
H  -3.85000 20.44200 29.35100
H  -2.23800 20.27400 23.00000
H  -1.34600 13.92400 23.34200
H  -3.02400 15.89600 31.21100
H  -2.66700 18.93400 31.30200
H  -5.21300 17.86300 30.18500
H  -4.94900 19.12700 31.45500
H  -4.86800 17.41100 31.87200
H  -0.28100 16.78700 30.76000
H  -1.21200 15.77200 31.93500
H  -1.43500 18.29000 32.90800
H  0.19700 17.93000 32.67200
H  -4.46900 22.21300 28.54400
H  -5.36100 22.64200 27.11100
H  -3.77700 23.41500 27.51700
H  -4.85800 23.96100 25.14200
H  -3.58000 24.60200 24.02500
H  -3.21400 24.11900 25.70500
H  -0.41900 18.59500 21.78300
H  -1.41500 15.88400 21.42800
H  -3.22500 18.63400 21.35300
H  -2.65600 17.37600 20.16800
H  -1.84100 18.94700 20.15700
H  1.18800 16.00000 22.95300
H  1.21900 16.95200 21.43700
H  1.62100 14.23200 21.52400
H  1.18100 14.99300 20.05000
H  -0.03500 14.35000 21.16200
H  -1.94100 10.97500 25.69900
H  -0.84200 11.82700 24.63300
H  -2.58100 11.94100 24.24900
H  -3.48100 13.65400 29.87000
H  -1.61800 13.42500 33.67200
H  -0.57000 12.34700 32.69400
H  -2.04200 11.75100 33.33700
Mg 48.96800 44.80100 43.01200
C  45.75700 45.69000 41.96300
C  48.58900 41.82700 41.53700
C  52.33900 44.55600 43.19800
C  49.39600 48.19700 44.02700
N  47.31100 43.91500 41.98200
C  46.12800 44.38500 41.59500
C  45.24300 43.35500 40.80000
C  46.12500 42.09400 40.93500
C  47.41000 42.60900 41.55800
C  45.42500 40.91900 41.66500
C  44.91300 43.75200 39.34700
C  43.51900 43.33800 38.81700
H  43.43100 42.09500 37.88900
N  50.23700 43.30500 42.65900
C  49.87300 42.07300 42.06200
C  51.04900 41.30000 41.81800
C  52.18100 42.13600 42.13600
C  51.61900 43.36900 42.76800
C  50.97200 39.84600 41.28400
C  53.63400 41.79500 41.77200
O  54.00400 40.68700 41.35700
C  54.73300 42.83400 42.03000
N  50.71700 46.30700 43.46800
C  51.99800 45.86600 43.51900
C  52.90500 46.91600 44.03600
C  51.91400 48.05700 44.39600
C  50.58000 47.51200 43.96900
C  54.01000 46.54200 45.11000
C  52.21400 49.49700 43.99300
C  52.78000 50.44200 45.08300
N  47.78100 46.60100 43.21100
C  48.06600 47.80000 43.72000
C  46.85100 48.58000 43.79200
C  45.89800 47.77900 43.11500
C  46.58200 46.58400 42.75000
C  46.78600 50.00200 44.14600
C  44.49400 47.74700 42.55800
O  43.55300 48.54400 42.59500
C  44.53100 46.45300 41.65900
C  43.29500 45.65300 41.93100
O  42.48200 45.28300 41.13500
O  43.14000 45.46300 43.26500
C  41.85500 44.89000 43.76900
H  48.36900 40.81700 41.18300
H  53.41800 44.42700 43.30200
H  49.48700 49.19200 44.46700
H  44.31500 43.12500 41.32400
H  46.38700 41.68300 39.96000
H  44.37900 40.96400 41.96800
H  45.90000 40.74200 42.63000
H  45.59100 40.03300 41.05200
H  45.59300 43.25800 38.65300
H  44.96000 44.83900 39.28000
H  42.97800 44.10500 38.26400
H  42.93600 43.03800 39.68800
H  51.12000 39.78300 40.20600
H  50.02800 39.34700 41.50500
H  51.64200 39.12400 41.74900
H  54.47400 43.78100 41.55500
H  55.60800 42.48400 41.48200
H  54.82400 42.82600 43.11600
H  53.49400 47.16800 43.15400
H  51.84200 48.06400 45.48400
H  53.81200 45.56300 45.54500
H  53.92100 47.10400 46.04000
H  55.06000 46.50300 44.82100
H  51.33900 49.95400 43.52900
H  52.86400 49.39200 43.12400
H  52.10300 51.28400 45.23200
H  53.75900 50.75200 44.71700
H  53.02100 50.03300 46.06400
H  45.73300 50.28300 44.13700
H  47.15200 50.61300 43.32100
H  47.25500 50.20100 45.11000
H  44.42000 46.79000 40.62800
H  41.74600 45.24100 44.79500
H  41.76200 43.81400 43.62700
H  41.05100 45.30900 43.16300

