158

Mg 17.54600 -1.07300 27.53500
C  16.14300 0.85200 30.15100
C  19.33000 -2.75000 29.75100
C  18.77200 -2.72200 24.92700
C  15.81700 1.15900 25.22100
N  17.65800 -0.81000 29.73900
C  17.06100 -0.05300 30.68600
C  17.59700 -0.23500 32.11400
C  18.68300 -1.26800 31.77100
C  18.57700 -1.65700 30.28000
C  20.08100 -0.65000 32.17100
C  16.66400 -0.75100 33.19500
C  16.94200 -0.14000 34.61100
H  18.37700 0.07700 35.14900
N  18.73200 -2.65600 27.36500
C  19.36600 -3.22800 28.38700
C  20.00200 -4.47500 27.98300
C  19.94900 -4.45300 26.56200
C  19.11500 -3.28100 26.24000
C  20.73100 -5.40100 28.87200
C  20.48200 -5.41800 25.47100
O  20.20400 -5.30900 24.27600
C  21.31800 -6.66000 25.94700
N  17.32200 -0.82000 25.34400
C  17.98700 -1.63800 24.53500
C  17.87200 -1.19800 23.11500
C  16.83000 -0.04300 23.16000
C  16.61700 0.17600 24.62800
C  19.14300 -0.96400 22.27500
C  15.49000 -0.28800 22.38400
C  15.46000 0.03800 20.91400
N  16.19300 0.52200 27.61500
C  15.57500 1.30200 26.58200
C  14.57800 2.20600 27.31100
C  14.75700 1.98100 28.67000
C  15.80400 1.02700 28.83000
C  13.75000 3.25600 26.63700
C  14.42200 2.60000 29.92600
O  13.66900 3.48500 30.24000
C  15.25900 1.77600 30.93800
C  16.04200 2.84400 31.68900
O  17.08000 3.36800 31.32200
O  15.42500 2.97000 32.86400
C  16.09200 3.94100 33.75700
H  19.94800 -3.16400 30.55000
H  19.19800 -3.26100 24.07800
H  15.18900 1.76900 24.56800
H  17.92300 0.78900 32.29800
H  18.66300 -2.20700 32.32300
H  20.65600 -0.49300 31.25800
H  20.57900 -1.42400 32.75500
H  19.95300 0.29300 32.70300
H  16.79100 -1.83000 33.29100
H  15.66300 -0.51300 32.83500
H  16.52700 -0.90700 35.26500
H  16.38000 0.74500 34.91200
H  21.74000 -5.33800 28.46500
H  20.31600 -6.40700 28.81400
H  20.68600 -5.08000 29.91300
H  22.35400 -6.44500 26.20700
H  21.38200 -7.32900 25.08900
H  20.87200 -7.10900 26.83500
H  17.36200 -2.02700 22.62500
H  17.33400 0.85200 22.79400
H  20.00000 -1.06800 22.94100
H  19.21900 -0.00400 21.76500
H  19.19000 -1.81500 21.59500
H  14.73300 0.24800 22.95700
H  15.25100 -1.35100 22.41600
H  14.71200 0.79400 20.67500
H  15.22700 -0.90100 20.41100
H  16.46100 0.25400 20.54100
H  13.63200 3.05600 25.57200
H  14.25900 4.21500 26.73000
H  12.72100 3.33100 26.98900
H  14.58900 1.40900 31.71400
H  15.75300 3.83600 34.78700
H  16.02900 4.99400 33.48200
H  17.16400 3.76600 33.66000
Mg -5.70800 25.63400 25.19300
C  -3.87400 26.96400 27.87500
C  -7.22600 23.46700 27.39000
C  -7.06000 24.08000 22.52700
C  -3.81200 27.63600 23.02600
N  -5.51000 25.31300 27.42000
C  -4.79900 25.99600 28.32800
C  -5.25200 25.62600 29.74000
C  -6.01400 24.33000 29.49700
C  -6.31500 24.39200 27.96700
C  -5.18800 23.03900 29.80400
C  -6.13900 26.75900 30.30900
C  -5.93000 26.83200 31.82300
H  -5.51300 25.67500 32.61400
N  -7.04400 23.96700 25.03000
C  -7.58100 23.25800 26.05500
C  -8.47100 22.21900 25.52800
C  -8.50200 22.43300 24.12600
C  -7.48800 23.50000 23.79900
C  -9.17000 21.21200 26.39000
C  -9.41900 21.69200 23.06000
O  -9.35000 21.97600 21.87300
C  -10.61200 20.85900 23.43200
N  -5.35800 25.71600 23.03200
C  -6.18100 25.14900 22.20300
C  -5.82900 25.45700 20.73400
C  -5.06200 26.76400 20.94400
C  -4.72700 26.74300 22.45300
C  -5.04500 24.27600 20.01400
C  -5.68800 28.01600 20.23000
C  -6.94000 28.63700 20.90900
N  -4.11700 27.00200 25.32500
C  -3.49100 27.85000 24.37800
C  -2.50400 28.74500 24.96700
C  -2.61800 28.35800 26.32000
C  -3.56800 27.32900 26.50200
C  -1.64200 29.77600 24.34300
C  -2.11300 28.63000 27.64400
O  -1.23100 29.42100 27.87700
C  -2.86600 27.72700 28.66800
C  -1.96100 26.77800 29.30600
O  -1.48600 25.79200 28.75800
O  -2.00500 26.81500 30.63200
C  -1.39800 25.65500 31.31600
H  -7.68400 22.82500 28.14600
H  -7.49100 23.68600 21.60400
H  -3.39300 28.35300 22.31700
H  -4.32900 25.58300 30.31900
H  -6.90400 24.35000 30.12600
H  -5.01900 22.42400 28.92000
H  -5.76300 22.45300 30.52200
H  -4.23700 23.33200 30.24900
H  -7.16600 26.72300 29.94700
H  -5.73900 27.66900 29.86000
H  -6.93000 27.07200 32.18300
H  -5.26300 27.67100 32.02400
H  -9.23400 20.22700 25.92700
H  -10.20100 21.52100 26.56100
H  -8.70200 21.00800 27.35300
H  -10.32000 19.85900 23.75300
H  -11.35200 20.84500 22.63200
H  -11.09800 21.27600 24.31400
H  -6.73300 25.70000 20.17600
H  -4.06000 26.68400 20.52400
H  -4.93300 23.38000 20.62600
H  -4.04400 24.53600 19.67100
H  -5.55200 23.98400 19.09400
H  -6.06400 27.63000 19.28200
H  -5.01200 28.84900 20.04300
H  -7.58000 29.11500 20.16700
H  -6.69300 29.38500 21.66200
H  -7.49900 27.86600 21.43800
H  -1.30100 29.50200 23.34500
H  -0.77800 29.94100 24.98800
H  -2.28100 30.65200 24.22500
H  -3.31400 28.29000 29.48600
H  -0.39300 25.47500 30.93300
H  -1.88700 24.70100 31.11700
H  -1.33600 25.92900 32.36900

