158

Mg 40.04200 9.01400 29.77800
C  41.90300 10.45900 32.42400
C  37.87600 7.91000 32.25600
C  38.42700 7.45500 27.38800
C  42.77000 9.53200 27.72100
N  39.92600 9.10000 32.21100
C  40.71600 9.89900 32.98600
C  40.19900 9.84300 34.41600
C  39.04800 8.69400 34.36500
C  38.91600 8.59000 32.84800
C  39.30600 7.30300 35.04500
C  39.69400 11.26200 34.85300
C  38.92300 11.32900 36.21100
H  39.20300 12.43100 37.25000
N  38.30600 8.01900 29.79100
C  37.54800 7.57900 30.84900
C  36.29000 6.92200 30.36300
C  36.54200 6.67900 28.96400
C  37.81600 7.42400 28.65000
C  35.19700 6.52700 31.28800
C  35.67400 5.90700 27.92400
O  35.97400 5.80600 26.72000
C  34.30500 5.28500 28.33400
N  40.59700 8.31800 27.84300
C  39.70600 7.81900 26.95700
C  40.41000 7.60400 25.56000
C  41.73400 8.34800 25.71000
C  41.73900 8.74400 27.19000
C  40.53200 6.17000 25.15900
C  41.85000 9.60300 24.77100
C  41.21300 10.89900 25.15900
N  41.84800 9.82100 29.93900
C  42.81000 10.10900 29.02200
C  43.77600 11.03900 29.49400
C  43.48900 11.09800 30.86800
C  42.35900 10.35700 31.09700
C  44.95600 11.52900 28.76800
C  43.96800 11.70800 32.03300
O  44.93400 12.40700 32.28100
C  42.97000 11.33700 33.14700
C  43.63200 10.71000 34.40800
O  44.44800 9.81200 34.46600
O  43.12200 11.34100 35.43700
C  43.73600 11.00100 36.76100
H  37.26600 7.54200 33.08300
H  37.97200 6.88900 26.57300
H  43.49200 9.70000 26.91900
H  40.86400 9.44800 35.18400
H  38.11300 9.10600 34.74500
H  39.25400 6.44300 34.37800
H  38.50900 7.19900 35.78000
H  40.26300 7.50700 35.52600
H  39.14000 11.64400 33.99500
H  40.49100 11.99300 34.98600
H  38.99000 10.39400 36.76600
H  37.86900 11.48500 35.98500
H  34.29500 6.96300 30.85900
H  35.20900 6.79500 32.34500
H  35.01300 5.45600 31.20200
H  34.05200 5.31100 29.39400
H  34.58400 4.27400 28.03500
H  33.51000 5.64800 27.68300
H  39.77300 8.18000 24.88900
H  42.62000 7.72600 25.57900
H  41.54300 5.77000 25.23800
H  40.21500 6.07500 24.12100
H  40.04600 5.51800 25.88500
H  41.39700 9.24300 23.84700
H  42.91600 9.70100 24.56400
H  41.91000 11.56300 25.67000
H  40.42900 10.68200 25.88600
H  40.86300 11.42600 24.27200
H  45.34400 10.66200 28.23500
H  45.80800 11.90100 29.33800
H  44.69200 12.20700 27.95600
H  42.63600 12.33100 33.44400
H  44.63500 11.58300 36.96500
H  43.89100 9.92400 36.83300
H  43.01400 11.19900 37.55300
Mg 46.72700 25.01600 28.71300
C  47.31200 27.45900 31.21200
C  45.67000 22.85200 31.12500
C  46.36500 22.77500 26.37500
C  48.40300 27.16800 26.43700
N  46.30300 25.22000 30.89100
C  46.54600 26.34700 31.68300
C  46.19100 26.09600 33.09600
C  45.96000 24.50700 33.10900
C  45.94000 24.13100 31.59400
C  46.96700 23.69900 33.85800
C  44.84400 26.83000 33.48500
C  44.52900 27.29000 34.96100
H  45.26100 26.52200 36.15800
N  45.99700 23.18000 28.72500
C  45.58400 22.43400 29.77200
C  45.05000 21.15300 29.34800
C  45.14300 21.11200 27.95700
C  45.84700 22.42900 27.63200
C  44.53200 20.17800 30.30200
C  44.68900 20.08400 26.88100
O  44.72000 20.27200 25.69100
C  44.13100 18.80900 27.34100
N  47.23000 25.01400 26.55900
C  47.06400 23.88200 25.89500
C  47.39300 24.09200 24.42300
C  47.99800 25.58100 24.45000
C  47.94800 25.98700 25.89700
C  48.30600 23.07300 23.76600
C  47.28600 26.52500 23.46900
C  45.84100 26.93200 23.88300
N  47.79000 26.81200 28.75500
C  48.32600 27.54000 27.78000
C  48.71700 28.78600 28.23600
C  48.43200 28.76400 29.58100
C  47.80100 27.55600 29.86000
C  49.08100 30.02400 27.46100
C  48.28000 29.64500 30.78400
O  48.64700 30.80400 30.90400
C  47.71700 28.72200 31.90000
C  48.70700 28.50700 32.89400
O  49.63900 27.70900 32.84300
O  48.46800 29.36800 34.02200
C  49.37900 29.21700 35.19000
H  45.40500 22.14000 31.90900
H  46.34500 22.11900 25.50300
H  48.84200 27.83000 25.68700
H  47.00400 26.37500 33.76700
H  44.95600 24.32200 33.49100
H  47.76800 24.42200 34.01100
H  47.20800 22.67700 33.56400
H  46.58600 23.46600 34.85200
H  43.99400 26.25900 33.11000
H  44.79500 27.80600 33.00300
H  43.50600 26.95800 35.13900
H  44.56300 28.37900 34.95900
H  44.27300 19.21100 29.87200
H  43.68200 20.60800 30.83200
H  45.32400 20.02800 31.03500
H  44.83300 18.16800 27.87300
H  43.81500 18.17800 26.51000
H  43.31300 19.02800 28.02800
H  46.45900 24.07400 23.86200
H  49.07100 25.62000 24.26300
H  48.72700 22.36700 24.48200
H  49.14300 23.51100 23.22200
H  47.73900 22.46800 23.05900
H  47.18100 25.92100 22.56800
H  47.96600 27.34200 23.22900
H  45.13800 26.73900 23.07200
H  45.75400 28.01300 23.99300
H  45.49100 26.43800 24.78900
H  48.47400 29.85200 26.57200
H  50.12400 29.95600 27.15000
H  48.91600 30.95500 28.00200
H  46.84100 29.14800 32.38900
H  48.76800 28.77100 35.97600
H  49.73500 30.20200 35.49300
H  50.22400 28.54200 35.05400

