158

Mg 47.83700 15.99200 27.97100
C  45.54800 16.00800 30.76200
C  49.87800 18.17400 29.93300
C  49.92100 16.34200 25.37700
C  45.43600 14.60400 26.04900
N  47.67000 17.01300 30.12500
C  46.76600 16.65800 31.11900
C  47.19100 17.20500 32.49300
C  48.38900 18.15100 32.05000
C  48.76800 17.69300 30.66100
C  48.06900 19.74500 32.11300
C  47.59000 16.05500 33.35300
C  47.54200 16.53500 34.84300
H  48.85100 16.21600 35.70600
N  49.70800 16.97900 27.69800
C  50.36200 17.81700 28.60300
C  51.56400 18.31900 28.01800
C  51.63700 17.70700 26.72400
C  50.45700 16.92000 26.53500
C  52.47200 19.25600 28.69300
C  52.76100 17.86700 25.70200
O  52.83400 17.28200 24.65900
C  53.83700 18.97900 25.92000
N  47.69100 15.56000 25.99900
C  48.70600 15.75900 25.12400
C  48.36000 15.20400 23.69300
C  46.99200 14.59200 23.97700
C  46.63300 14.91200 25.42500
C  48.34500 16.20100 22.52300
C  46.91300 13.07600 23.70500
C  47.16600 12.65100 22.29000
N  45.89300 15.36200 28.26700
C  45.10100 14.74900 27.38100
C  43.91900 14.40500 28.06800
C  44.01900 14.88600 29.39900
C  45.26000 15.52500 29.41800
C  42.77600 13.60000 27.48300
C  43.32100 14.93500 30.72100
O  42.24600 14.58100 31.14400
C  44.38400 15.63200 31.66400
C  43.63400 16.80600 32.28700
O  43.48800 17.84600 31.76300
O  43.08700 16.44100 33.50400
C  42.08200 17.42700 34.05000
H  50.60700 18.69000 30.56100
H  50.50200 16.34000 24.45200
H  44.72400 14.12600 25.37200
H  46.45900 17.89300 32.91600
H  49.27000 17.94300 32.65700
H  48.78600 20.27800 32.73700
H  47.14400 20.00500 32.62800
H  48.10300 20.28700 31.16800
H  48.61300 15.84200 33.04200
H  46.98300 15.16000 33.21600
H  46.77200 15.95200 35.34900
H  47.19400 17.56500 34.92500
H  52.60900 20.21700 28.19700
H  53.46600 18.80800 28.70900
H  52.37000 19.37200 29.77200
H  54.56700 18.72500 26.68900
H  53.33900 19.87100 26.30200
H  54.25900 19.05000 24.91800
H  49.05100 14.39800 23.44400
H  46.19300 15.06200 23.40400
H  48.30600 17.14200 23.07100
H  47.45000 16.00500 21.93400
H  49.20800 16.07000 21.87000
H  45.89700 12.74800 23.92300
H  47.53000 12.52100 24.41200
H  47.25100 13.52800 21.64900
H  46.40700 12.00400 21.85100
H  48.08000 12.07000 22.16700
H  43.17600 13.01800 26.65300
H  41.98500 14.29800 27.21000
H  42.33300 12.85000 28.13900
H  44.62700 14.89400 32.42800
H  41.51800 17.96900 33.29100
H  42.60400 18.12100 34.70900
H  41.43500 16.80100 34.66400
Mg 41.58200 41.82900 27.79400
C  40.68400 44.33700 30.18000
C  42.45400 39.79900 30.44400
C  42.80600 39.67700 25.61300
C  41.40200 44.23400 25.33600
N  41.62200 42.04200 30.07200
C  41.06700 43.12200 30.77500
C  40.92700 42.65800 32.25600
C  41.62900 41.25400 32.35500
C  41.97300 41.02000 30.85900
C  42.87100 41.08800 33.21200
C  39.36300 42.65000 32.79700
C  38.89400 43.78000 33.75000
H  38.45100 43.42100 35.19800
N  42.53500 39.91300 27.98700
C  42.76600 39.30800 29.16700
C  43.12300 37.92300 28.83100
C  43.10000 37.80200 27.40100
C  42.77000 39.13700 26.94900
C  43.52500 36.85100 29.87100
C  43.31000 36.65300 26.60600
O  43.33100 36.67800 25.37600
C  43.49000 35.33700 27.16700
N  42.04300 41.89400 25.87000
C  42.58600 40.93100 25.15300
C  42.67900 41.22200 23.65800
C  42.04300 42.59600 23.50500
C  41.83700 42.95100 25.01500
C  44.08500 41.08000 23.10000
C  40.67700 42.62200 22.71700
C  39.54000 41.83100 23.34100
N  41.04500 43.82100 27.72600
C  41.00700 44.65300 26.61300
C  40.51300 45.96800 27.02500
C  40.32400 45.83400 28.42600
C  40.67000 44.58100 28.82100
C  40.19700 47.14300 26.13800
C  39.86800 46.54300 29.63700
O  39.49700 47.66600 29.83000
C  40.16100 45.57000 30.78200
C  40.99700 46.25400 31.82300
O  42.12500 45.95800 32.28000
O  40.13600 47.16400 32.48400
C  40.52400 47.85700 33.71000
H  42.74400 39.06200 31.19500
H  43.27200 39.05300 24.84800
H  41.15200 44.92200 24.52600
H  41.51600 43.30700 32.90400
H  40.96500 40.41000 32.54100
H  42.55500 40.43700 34.02700
H  43.00600 42.05200 33.70100
H  43.75700 40.75100 32.67500
H  39.04600 41.66600 33.14100
H  38.87700 42.71200 31.82300
H  38.03800 44.28400 33.29900
H  39.69900 44.51100 33.82800
H  43.20200 37.03400 30.89500
H  44.59300 36.63400 29.85000
H  42.96100 35.99700 29.49800
H  42.48800 35.14700 27.55300
H  44.34100 35.34500 27.84900
H  43.69000 34.60900 26.38100
H  41.96500 40.53100 23.21100
H  42.74300 43.29000 23.04000
H  43.95500 40.13700 22.56900
H  44.79900 40.83500 23.88600
H  44.50000 41.80400 22.40000
H  40.82300 42.12700 21.75700
H  40.35000 43.63000 22.46400
H  38.67200 42.48400 23.43100
H  39.82100 41.47500 24.33200
H  39.36900 40.96600 22.69900
H  39.32500 47.67800 26.51200
H  39.99700 46.76900 25.13400
H  41.01400 47.86300 26.07500
H  39.24700 45.30400 31.31400
H  39.75800 48.54300 34.06900
H  41.27700 48.56500 33.36400
H  40.67200 47.24600 34.60000

