158

Mg -2.88100 16.54200 27.75000
C  -3.49700 14.35300 30.43100
C  -3.57700 19.12400 29.98100
C  -2.95700 18.66400 25.25600
C  -3.23600 13.82600 25.61700
N  -3.43800 16.68300 29.94800
C  -3.52800 15.66600 30.83400
C  -3.78900 16.15100 32.22800
C  -4.02000 17.69200 32.03300
C  -3.72200 17.82300 30.55300
C  -5.34600 18.30000 32.50200
C  -2.69700 15.97300 33.25200
C  -3.23500 15.78200 34.76000
H  -2.18700 16.04600 35.81600
N  -2.96100 18.64900 27.63500
C  -3.20300 19.52700 28.66300
C  -3.15200 20.83000 28.08900
C  -2.95600 20.74900 26.75200
C  -2.88900 19.30500 26.46700
C  -3.36600 22.12700 28.85400
C  -2.75900 21.89000 25.67000
O  -2.73100 21.72400 24.43100
C  -2.66000 23.33600 26.16600
N  -3.14600 16.32300 25.81100
C  -3.20300 17.33300 24.88000
C  -3.24700 16.96100 23.39600
C  -3.29500 15.37700 23.60500
C  -3.17600 15.10900 25.14000
C  -4.43800 17.44800 22.56300
C  -2.13600 14.75400 22.77600
C  -0.76000 14.59600 23.44800
N  -3.24400 14.49000 27.86900
C  -3.29000 13.48500 26.98600
C  -3.58200 12.22300 27.60400
C  -3.61800 12.45200 28.98100
C  -3.49400 13.86800 29.13400
C  -3.74100 10.93500 26.90600
C  -3.77100 11.84800 30.28300
O  -3.89800 10.69500 30.69900
C  -3.64100 13.12000 31.20800
C  -2.52500 12.75100 32.05200
O  -1.33000 12.89800 31.76200
O  -2.95800 12.24700 33.24800
C  -1.97200 11.87000 34.23100
H  -3.60000 20.00400 30.62700
H  -3.08600 19.32800 24.39800
H  -3.29000 12.98700 24.92100
H  -4.76500 15.75200 32.50400
H  -3.27400 18.32000 32.52000
H  -6.22400 17.65800 32.58600
H  -5.50600 19.16000 31.85200
H  -5.14200 18.74400 33.47700
H  -1.93300 16.74900 33.18700
H  -2.10800 15.07800 33.05300
H  -3.66700 14.78200 34.81700
H  -4.06900 16.45800 34.94800
H  -4.15300 22.75300 28.43500
H  -2.44600 22.71200 28.87000
H  -3.60900 21.83400 29.87600
H  -3.55400 23.66400 26.69500
H  -2.52800 23.93000 25.26100
H  -1.76800 23.38300 26.79000
H  -2.26100 17.21200 23.00500
H  -4.26100 15.00100 23.26900
H  -5.21900 16.70600 22.39800
H  -4.21800 17.86200 21.57900
H  -4.97200 18.18500 23.16300
H  -1.96200 15.39200 21.91000
H  -2.47700 13.77100 22.45000
H  -0.79000 14.55600 24.53700
H  -0.26900 15.51200 23.12300
H  -0.26800 13.77000 22.93400
H  -2.76400 10.50500 26.68400
H  -4.30000 11.04800 25.97700
H  -4.32600 10.25300 27.52300
H  -4.57900 13.23400 31.75100
H  -1.14600 11.28200 33.83100
H  -2.51100 11.28200 34.97400
H  -1.62700 12.79800 34.68800
Mg 27.16900 49.59900 26.08300
C  25.01800 50.67700 28.69700
C  29.51300 48.81200 28.42000
C  29.46300 49.12500 23.50700
C  24.91800 50.92200 23.79100
N  27.30400 49.90800 28.27700
C  26.28700 50.17900 29.19300
C  26.59300 49.79000 30.62100
C  28.15100 49.54000 30.46500
C  28.35000 49.34000 28.92400
C  29.20700 50.48000 31.17900
C  25.72000 48.53900 31.04900
C  25.45900 48.25700 32.61300
H  25.91700 49.27300 33.68900
N  29.11800 48.90600 26.02700
C  29.89800 48.65900 27.09000
C  31.16900 48.22600 26.68400
C  31.29300 48.47900 25.26000
C  29.94600 48.86800 24.87400
C  32.20000 47.69300 27.61000
C  32.53800 48.37400 24.42900
O  32.54800 48.58200 23.22200
C  33.79900 47.87800 24.97700
N  27.14100 49.79300 23.92900
C  28.14900 49.55000 23.08100
C  27.73900 49.75200 21.64800
C  26.29800 50.27000 21.72200
C  26.09700 50.37700 23.24800
C  28.72300 50.65100 20.77400
C  25.26900 49.34500 21.04300
C  24.21300 50.08800 20.26000
N  25.29200 50.64200 26.13200
C  24.53600 51.12100 25.11700
C  23.33700 51.60100 25.72000
C  23.44600 51.43100 27.13200
C  24.69900 50.90700 27.33700
C  22.18900 52.26900 24.99000
C  22.81600 51.74600 28.39700
O  21.69000 52.20500 28.64600
C  23.81200 51.15900 29.45900
C  24.16800 52.17400 30.51300
O  25.08700 52.96400 30.47700
O  23.18200 52.17200 31.51500
C  23.40400 53.06700 32.67600
H  30.11400 48.28900 29.16700
H  30.19500 49.00200 22.70600
H  24.18800 51.22700 23.03800
H  26.33100 50.63000 31.26400
H  28.37800 48.59300 30.95500
H  28.58300 51.20700 31.70000
H  29.72600 51.08200 30.43300
H  29.90600 50.01300 31.87200
H  26.30500 47.75000 30.57700
H  24.72600 48.69100 30.62900
H  25.86600 47.29500 32.92400
H  24.38000 48.10400 32.56500
H  32.76100 46.87300 27.16100
H  31.66400 47.28300 28.46600
H  32.86700 48.53100 27.81500
H  34.61400 47.92800 24.25500
H  33.86800 46.87500 25.39900
H  34.09000 48.55300 25.78200
H  27.70700 48.72500 21.28400
H  26.24800 51.24100 21.23000
H  29.11600 51.38200 21.48000
H  28.17300 51.16900 19.98900
H  29.60700 50.15800 20.37000
H  24.87800 48.61100 21.74800
H  25.73600 48.69400 20.30400
H  23.32900 49.45400 20.33200
H  24.51700 50.39100 19.25800
H  23.91300 50.94400 20.86500
H  22.46800 53.23500 24.57000
H  21.30500 52.35200 25.62300
H  22.04700 51.67000 24.09100
H  23.20200 50.30400 29.75100
H  24.31200 52.60900 33.06800
H  22.55800 52.94700 33.35300
H  23.52600 54.13800 32.51900

