158

Mg 47.04900 25.00700 28.92700
C  47.85500 27.44700 31.36100
C  46.02700 22.99900 31.46500
C  46.54200 22.73200 26.62700
C  48.84100 26.99600 26.55100
N  47.03900 25.20700 31.18900
C  47.19600 26.34100 31.90800
C  46.98200 26.14500 33.43000
C  46.49900 24.62500 33.50000
C  46.48300 24.24500 31.92000
C  47.30400 23.67600 34.42100
C  46.01900 27.18700 33.94700
C  46.10300 27.59700 35.44000
H  46.94700 26.79100 36.39900
N  46.24400 23.10600 29.00200
C  45.89600 22.45700 30.14400
C  45.36100 21.20600 29.72600
C  45.54800 21.15700 28.34700
C  46.08500 22.37700 27.91800
C  44.86900 20.15600 30.70800
C  45.27800 19.98700 27.39300
O  45.54000 20.03100 26.21300
C  44.83300 18.68800 28.04700
N  47.53300 25.00000 26.84800
C  47.20500 23.85900 26.13300
C  47.52400 24.13800 24.66300
C  48.27300 25.50700 24.58900
C  48.17200 25.88600 26.08800
C  48.28000 22.97200 23.85500
C  47.37500 26.40500 23.64400
C  46.20200 27.20800 24.26600
N  48.08000 26.83100 28.86500
C  48.69600 27.52500 27.85000
C  49.12300 28.78200 28.32900
C  48.83800 28.79600 29.70100
C  48.22900 27.60000 29.98800
C  49.57600 29.87600 27.36600
C  48.94400 29.64700 30.83600
O  49.41100 30.80500 30.85300
C  48.33400 28.78400 32.01600
C  49.33200 28.62300 33.08200
O  50.30800 27.85500 33.06800
O  49.01800 29.54400 34.00400
C  49.98600 29.46800 35.15200
H  45.43500 22.46300 32.21000
H  46.35200 22.01300 25.82800
H  49.34200 27.55200 25.75700
H  47.98400 26.14700 33.86000
H  45.43600 24.67300 33.73500
H  48.07900 24.29400 34.87400
H  47.64900 22.84500 33.80600
H  46.66700 23.42200 35.26700
H  45.06900 26.65200 33.94400
H  45.90900 28.07200 33.32000
H  45.04600 27.63500 35.70100
H  46.48300 28.61600 35.51800
H  45.50400 19.27300 30.79100
H  43.89600 19.77000 30.40500
H  44.82800 20.57700 31.71300
H  45.56800 18.04100 28.52700
H  44.65800 18.08500 27.15600
H  43.87600 19.01500 28.45200
H  46.53300 24.16400 24.20900
H  49.32800 25.52900 24.31600
H  49.21500 23.38400 23.47600
H  47.64600 22.71400 23.00700
H  48.39000 22.14600 24.55800
H  46.92000 25.74400 22.90600
H  48.03700 27.03300 23.04700
H  46.08000 27.17500 25.34800
H  45.26900 26.84500 23.83500
H  46.43900 28.21900 23.93500
H  49.42700 29.74000 26.29500
H  50.63400 30.06300 27.54900
H  48.95700 30.74100 27.60700
H  47.46700 29.37000 32.32400
H  50.97300 29.01100 35.08600
H  49.30300 29.04700 35.88900
H  50.21400 30.48800 35.46400
Mg 9.33100 47.88400 26.87200
C  7.32600 47.72400 29.65000
C  12.01100 48.78800 28.72800
C  11.14600 48.54500 24.00800
C  6.41300 47.70800 24.75000
N  9.50000 48.48000 28.89100
C  8.63900 48.16200 29.89600
C  9.33400 48.43400 31.25200
C  10.75000 48.76500 30.88800
C  10.75100 48.76000 29.34000
C  11.19500 50.16400 31.42200
C  9.03300 47.31100 32.28700
C  9.94100 47.07600 33.49900
H  9.26900 46.56900 34.82900
N  11.36100 48.37300 26.39100
C  12.28600 48.59000 27.33600
C  13.58400 48.68000 26.64800
C  13.36400 48.48400 25.22000
C  11.85600 48.45900 25.17600
C  14.83500 49.12700 27.37000
C  14.37300 48.47100 24.09300
O  13.94700 48.47400 22.92900
C  15.86500 48.33000 24.45200
N  8.86700 48.28200 24.65400
C  9.81200 48.36200 23.75100
C  9.22000 48.11400 22.33300
C  7.79300 47.75800 22.62700
C  7.67100 47.86800 24.11100
C  9.40400 49.25700 21.35100
C  7.32100 46.37800 22.09700
C  5.93900 46.29700 21.34900
N  7.28400 47.70400 27.13400
C  6.24900 47.62300 26.20300
C  5.00000 47.38300 26.98000
C  5.36900 47.27800 28.34600
C  6.79900 47.56500 28.36700
C  3.68700 47.05700 26.26400
C  4.94500 46.98900 29.70500
O  3.91500 46.55900 30.17400
C  6.17700 47.29200 30.62100
C  6.31800 45.94300 31.30000
O  7.14200 45.04800 31.09400
O  5.48400 45.92300 32.38700
C  5.72500 44.77900 33.35800
H  12.90200 48.95300 29.33600
H  11.69600 48.59200 23.06600
H  5.62200 47.51200 24.02300
H  8.82300 49.31900 31.63100
H  11.39600 48.03100 31.36900
H  12.17600 50.02500 31.87600
H  10.47800 50.50700 32.16800
H  11.26800 50.89100 30.61200
H  9.00500 46.38600 31.71100
H  8.05900 47.70300 32.58100
H  10.51400 47.98000 33.70700
H  10.63300 46.29000 33.19700
H  14.65700 49.54900 28.35900
H  15.28800 49.90500 26.75600
H  15.64300 48.39600 27.41700
H  16.02200 47.61500 25.26000
H  16.32300 49.31100 24.57600
H  16.26700 47.91800 23.52600
H  9.78400 47.30300 21.87200
H  7.18200 48.55700 22.20700
H  8.41900 49.30000 20.88500
H  10.34100 49.28500 20.79600
H  9.35200 50.12300 22.01200
H  7.07000 45.75200 22.95300
H  8.06600 45.90600 21.45600
H  5.40600 47.24200 21.45400
H  5.47100 45.45300 21.85600
H  5.96500 46.00900 20.29800
H  3.35100 48.02100 25.88300
H  2.98400 46.74300 27.03500
H  3.88200 46.30300 25.50200
H  6.00300 47.98500 31.44400
H  6.33600 45.01200 34.23000
H  6.02600 43.82900 32.91700
H  4.74000 44.44900 33.68700

