158

Mg -1.68700 17.53600 27.26800
C  -2.38800 15.12200 29.84300
C  -2.66100 19.96700 29.47500
C  -1.55900 19.76500 24.71900
C  -1.47800 14.97900 25.01200
N  -2.52800 17.45800 29.40100
C  -2.66300 16.44600 30.26400
C  -2.95600 17.01900 31.65400
C  -3.47600 18.44100 31.38500
C  -2.86700 18.65600 30.00500
C  -5.02500 18.61500 31.48400
C  -1.70400 16.79300 32.61900
C  -1.46900 17.74600 33.81900
H  -1.01500 17.17400 35.08600
N  -2.03400 19.63600 27.08700
C  -2.21400 20.41900 28.18100
C  -2.19900 21.76800 27.60000
C  -1.74200 21.77200 26.30400
C  -1.74900 20.37400 25.96300
C  -2.51800 22.94200 28.55400
C  -1.45000 22.93400 25.34100
O  -1.02000 22.78100 24.16500
C  -1.39900 24.44400 25.78900
N  -1.83200 17.48700 25.08800
C  -1.69400 18.52300 24.24100
C  -1.59700 17.93700 22.80400
C  -1.41900 16.43700 23.01800
C  -1.56100 16.27200 24.46700
C  -2.67400 18.57700 21.90500
C  -0.06300 15.90700 22.44500
C  -0.18400 14.64500 21.62800
N  -1.76700 15.51700 27.33800
C  -1.71100 14.63000 26.32200
C  -1.76300 13.26100 26.85200
C  -2.01700 13.43000 28.21900
C  -2.03600 14.83700 28.42600
C  -1.65000 12.01000 26.04100
C  -2.25700 12.73900 29.46200
O  -2.15700 11.52500 29.72200
C  -2.34300 13.80800 30.52500
C  -1.12800 13.78500 31.40500
O  -0.01300 14.23500 31.12200
O  -1.53400 13.33900 32.69800
C  -0.45100 13.34100 33.68200
H  -2.99600 20.68800 30.22400
H  -1.36100 20.46900 23.90800
H  -1.32100 14.19300 24.27000
H  -3.63700 16.24400 32.00600
H  -3.00300 19.21800 31.98500
H  -5.50500 18.53500 30.50900
H  -5.12400 19.65600 31.79100
H  -5.51700 17.97200 32.21300
H  -0.80800 16.74200 32.00100
H  -1.77300 15.79700 33.05600
H  -2.44700 18.22300 33.89400
H  -0.67200 18.43800 33.54900
H  -2.77800 22.72200 29.59000
H  -3.40900 23.46200 28.20200
H  -1.69400 23.65600 28.56200
H  -1.46700 24.50500 26.87500
H  -2.29000 24.92100 25.38000
H  -0.42800 24.82300 25.47200
H  -0.66200 18.40500 22.49700
H  -2.29800 15.89700 22.66600
H  -3.67600 18.31000 22.24200
H  -2.51300 18.09900 20.93900
H  -2.53100 19.65700 21.94200
H  0.67700 15.73700 23.22700
H  0.26800 16.68000 21.75100
H  -1.01600 13.97900 21.85800
H  0.64900 13.96900 21.82200
H  -0.11500 14.90900 20.57300
H  -0.76300 12.06000 25.41000
H  -2.50700 11.93100 25.37300
H  -1.55200 11.14100 26.69200
H  -3.27600 13.63300 31.06200
H  -0.10800 12.30600 33.71100
H  -0.86400 13.60900 34.65500
H  0.28300 14.12800 33.51100
Mg 42.29600 41.39900 26.05100
C  41.50100 43.69700 28.57000
C  44.02900 39.58700 28.33600
C  42.66600 38.96300 23.82300
C  41.32600 43.62200 23.74100
N  42.78100 41.69400 28.26800
C  42.15600 42.58900 29.10600
C  42.42100 42.30400 30.52800
C  43.30900 40.91800 30.39800
C  43.34400 40.68500 28.90800
C  44.56500 40.97200 31.25000
C  41.14100 41.96100 31.36100
C  40.59200 42.96800 32.43700
H  40.05300 42.38800 33.75200
N  43.41300 39.61300 26.02400
C  44.07800 39.05100 27.07500
C  44.62700 37.78600 26.61500
C  44.04900 37.49300 25.34700
C  43.32600 38.71500 25.01300
C  45.54600 36.94400 27.48900
C  44.09200 36.22800 24.51800
O  43.51000 36.15500 23.37700
C  44.86800 35.08900 24.99000
N  42.17800 41.36900 24.06800
C  42.23400 40.22400 23.35200
C  41.82900 40.42500 21.93100
C  41.49600 41.96800 21.85500
C  41.67300 42.37700 23.28700
C  43.05200 40.04300 20.98400
C  40.01700 42.18300 21.33000
C  39.80400 43.25900 20.30700
N  41.42400 43.23400 26.10900
C  41.07000 44.02800 25.07100
C  40.57300 45.27000 25.55100
C  40.66100 45.18000 26.92200
C  41.21600 43.91800 27.20700
C  40.11100 46.38900 24.60700
C  40.43100 45.83600 28.15000
O  39.95800 46.96200 28.45400
C  40.90300 44.87600 29.36500
C  41.80200 45.63100 30.18700
O  42.93100 45.85000 30.00900
O  41.19300 45.96400 31.30600
C  41.95200 46.69900 32.40300
H  44.51700 38.94000 29.06800
H  42.52200 38.15700 23.10100
H  41.17700 44.33600 22.92900
H  43.01100 43.12200 30.94100
H  42.72100 40.08600 30.78400
H  45.57600 40.93200 30.84200
H  44.48300 40.29000 32.09600
H  44.54300 41.94000 31.75000
H  41.15800 40.97500 31.82600
H  40.27000 41.96900 30.70600
H  39.76100 43.57800 32.08100
H  41.36200 43.72900 32.56500
H  46.35300 36.68600 26.80200
H  44.94600 36.14700 27.92800
H  45.97800 37.53300 28.29800
H  44.67000 34.81300 26.02600
H  45.91400 35.29400 24.76400
H  44.52900 34.17800 24.49600
H  40.97800 39.77800 21.71700
H  42.14000 42.66600 21.32100
H  42.96300 39.06100 20.51900
H  44.01100 40.18400 21.48400
H  42.96200 40.77400 20.18100
H  39.31100 42.30400 22.15100
H  39.65800 41.24300 20.91100
H  39.17700 44.07000 20.67800
H  39.53900 42.88100 19.31900
H  40.67500 43.91200 20.23300
H  39.24300 45.93200 24.13200
H  40.85700 46.68100 23.86800
H  39.66600 47.13600 25.26500
H  40.02900 44.66200 29.98100
H  42.04800 46.10600 33.31300
H  41.41500 47.63500 32.55800
H  42.94000 46.98700 32.04400

