158

Mg 1.24300 7.83900 26.14600
C  1.58200 9.52900 29.11100
C  1.22600 4.84400 28.00900
C  1.01600 6.09200 23.23900
C  1.78000 10.77200 24.42700
N  1.37800 7.22500 28.28000
C  1.29500 8.14200 29.27100
C  1.18200 7.51400 30.64800
C  1.28900 6.01400 30.35300
C  1.28200 6.00600 28.77200
C  2.47900 5.26400 31.00400
C  -0.11000 7.95200 31.37500
C  0.00900 8.30400 32.80400
H  1.19300 7.71000 33.60500
N  1.15100 5.67700 25.67900
C  1.11500 4.64500 26.58200
C  0.87700 3.38500 25.90100
C  0.88900 3.74200 24.48100
C  1.04700 5.21600 24.41000
C  0.83700 2.04200 26.54300
C  0.74000 2.94100 23.29500
O  0.69900 3.37500 22.18300
C  0.73400 1.39400 23.37500
N  1.60700 8.33900 24.07700
C  1.26100 7.47400 23.09500
C  1.16700 8.23700 21.79000
C  1.20200 9.68100 22.19400
C  1.56000 9.62100 23.67400
C  2.26000 7.89700 20.72000
C  -0.16500 10.45000 22.08700
C  -1.05700 10.16900 20.85900
N  1.75200 9.69200 26.63900
C  1.84700 10.84200 25.81700
C  1.88200 12.01100 26.58400
C  1.84100 11.53100 27.89200
C  1.74600 10.15200 27.86200
C  2.09400 13.45000 26.05600
C  1.75200 11.97700 29.21600
O  1.65700 13.09600 29.68100
C  1.71500 10.65800 30.11000
C  3.03200 10.62800 30.84800
O  4.01000 9.94400 30.61600
O  2.77400 11.21200 32.09400
C  3.76800 10.85600 33.19400
H  1.22900 3.96800 28.66100
H  0.78000 5.63500 22.27600
H  1.87400 11.74200 23.93500
H  2.01400 7.78200 31.30000
H  0.40900 5.51200 30.75500
H  3.11800 5.95000 31.56000
H  3.03500 4.70600 30.25100
H  2.00300 4.54800 31.67400
H  -0.88400 7.19300 31.26200
H  -0.61900 8.69600 30.76200
H  -0.85700 7.91900 33.34100
H  -0.00200 9.39400 32.80800
H  0.62800 2.11800 27.61000
H  1.79300 1.53200 26.42400
H  -0.03500 1.46100 26.24300
H  1.67800 1.11300 23.84200
H  0.75000 0.91700 22.39400
H  -0.04500 1.07300 24.06600
H  0.21800 8.00100 21.30800
H  1.92400 10.35900 21.73800
H  1.86100 7.57100 19.76000
H  2.85300 7.10100 21.17100
H  2.83100 8.79900 20.50300
H  0.19300 11.47600 22.01200
H  -0.65100 10.34200 23.05700
H  -0.54900 9.68900 20.02300
H  -1.39400 11.13300 20.47700
H  -1.88200 9.53000 21.17200
H  1.37200 13.76800 25.30400
H  3.11100 13.62600 25.70600
H  1.88500 14.03700 26.95000
H  0.86800 10.76800 30.78700
H  3.16700 10.67700 34.08600
H  4.41500 11.70900 33.39800
H  4.29900 9.92800 32.98200
Mg 0.08700 43.10000 25.90800
C  2.17100 42.57500 28.59200
C  -2.60200 42.05200 28.01900
C  -1.98900 43.33300 23.22800
C  2.79600 43.91400 23.94400
N  -0.16800 42.37400 28.10400
C  0.85600 42.48100 29.02200
C  0.28200 42.37400 30.50600
C  -1.19100 41.91900 30.17700
C  -1.33100 42.19100 28.68900
C  -1.55500 40.45000 30.56400
C  0.53900 43.75600 31.33800
C  0.65300 43.70200 32.85800
H  0.58300 42.35500 33.55500
N  -2.06900 42.79200 25.71900
C  -2.94400 42.41500 26.68600
C  -4.29500 42.50000 26.10100
C  -4.14600 42.79100 24.69100
C  -2.68600 42.98200 24.49600
C  -5.55800 42.22600 26.99700
C  -5.15900 42.89100 23.61500
O  -4.84700 43.09500 22.47900
C  -6.62800 42.86900 23.82300
N  0.39900 43.39700 23.82300
C  -0.63000 43.57000 22.90800
C  -0.08700 44.11500 21.56100
C  1.38700 44.52800 22.00100
C  1.56600 43.88300 23.33000
C  -0.15200 43.06000 20.44700
C  1.55000 46.05800 22.01400
C  0.60400 46.78100 22.90900
N  2.04100 43.16200 26.15100
C  3.06200 43.46200 25.24000
C  4.37600 43.28800 25.87000
C  4.05300 42.92600 27.18500
C  2.61500 42.92100 27.28700
C  5.70400 43.46300 25.27200
C  4.65800 42.52200 28.52800
O  5.81800 42.19900 28.83300
C  3.43000 42.37900 29.53200
C  3.59100 41.04500 30.19900
O  3.07300 40.00300 29.86800
O  4.43600 41.17800 31.25200
C  4.59700 39.98600 32.13200
H  -3.42100 41.81700 28.70200
H  -2.60600 43.63300 22.37800
H  3.63500 44.25600 23.33500
H  0.76200 41.53600 31.01200
H  -1.95200 42.51500 30.68000
H  -1.29800 40.38000 31.62100
H  -0.94800 39.80300 29.93000
H  -2.60900 40.23600 30.38800
H  -0.33900 44.39600 31.24400
H  1.45700 44.19100 30.94300
H  -0.12200 44.34300 33.27800
H  1.63300 44.15800 32.99900
H  -6.41800 41.97600 26.37600
H  -5.76700 43.12900 27.57000
H  -5.16600 41.39000 27.57700
H  -6.96800 43.78400 24.30800
H  -6.96400 42.06200 24.47400
H  -7.28300 42.73200 22.96300
H  -0.66700 45.01300 21.34800
H  2.15600 44.06800 21.38000
H  -0.52100 43.50200 19.52100
H  -0.73200 42.16000 20.64700
H  0.84700 42.85200 20.06300
H  1.57600 46.48400 21.01000
H  2.50000 46.22200 22.52300
H  1.03000 47.24200 23.80100
H  -0.22000 46.11900 23.17300
H  0.17000 47.58600 22.31800
H  6.44600 42.87900 25.81600
H  6.11300 44.46700 25.15800
H  5.41600 43.03000 24.31400
H  3.40500 43.05100 30.39000
H  3.79200 40.02600 32.86600
H  5.51600 40.10200 32.70800
H  4.54000 39.08000 31.52800

