158

Mg -0.21500 7.84700 25.77200
C  0.42400 9.36100 28.76500
C  -0.96300 4.89500 27.25200
C  -0.75000 6.45900 22.71400
C  0.81400 10.86100 24.28100
N  -0.14200 7.22500 27.71000
C  0.01900 8.01000 28.85200
C  -0.37500 7.21700 30.11500
C  -0.46100 5.73400 29.62000
C  -0.51100 5.92200 28.09800
C  0.69400 4.72400 30.02400
C  -1.64500 7.73100 30.92500
C  -1.51100 7.77500 32.48200
H  -0.63400 6.75000 33.17100
N  -0.72400 5.90100 25.10100
C  -1.02600 4.84000 25.87700
C  -1.47000 3.72300 25.04300
C  -1.37300 4.15900 23.69000
C  -0.90000 5.53900 23.79400
C  -1.97800 2.39500 25.58500
C  -1.51300 3.45700 22.36300
O  -1.20500 3.89100 21.24500
C  -2.14400 2.07800 22.40100
N  0.19300 8.54500 23.77800
C  -0.34900 7.81200 22.69200
C  0.07400 8.51000 21.37400
C  0.28300 9.97000 21.89100
C  0.54500 9.76600 23.38400
C  1.35400 7.85900 20.71500
C  -0.87100 11.00900 21.65100
C  -2.36000 10.59200 21.39700
N  0.53800 9.72800 26.32900
C  0.81300 10.88900 25.62900
C  1.00500 12.01400 26.49200
C  0.99900 11.45800 27.77300
C  0.63400 10.06300 27.61100
C  1.28800 13.40100 26.04100
C  1.15800 11.66700 29.19700
O  1.58700 12.69900 29.69600
C  0.55900 10.34200 29.92900
C  1.55800 9.92200 30.95500
O  2.55500 9.23300 30.74100
O  1.17200 10.42500 32.19000
C  2.13300 10.36400 33.32400
H  -1.29500 3.99200 27.76900
H  -1.04200 6.10100 21.72400
H  0.92700 11.78700 23.71300
H  0.50800 7.25300 30.75300
H  -1.36200 5.26700 30.01700
H  1.47300 5.30800 30.51300
H  1.09800 4.37000 29.07600
H  0.34100 3.83900 30.55300
H  -2.52500 7.16100 30.62800
H  -1.93900 8.73100 30.60400
H  -2.53400 7.60600 32.81900
H  -1.09600 8.77000 32.64400
H  -3.00200 2.29600 25.22500
H  -1.94000 2.43600 26.67300
H  -1.40100 1.50500 25.33500
H  -3.13200 2.16700 22.85300
H  -1.52900 1.46500 23.06100
H  -2.11700 1.50700 21.47400
H  -0.81300 8.39500 20.75100
H  1.23900 10.30100 21.48500
H  1.87100 7.29500 21.49100
H  2.00700 8.56300 20.19900
H  1.05900 7.18600 19.91000
H  -0.59300 11.70100 20.85700
H  -1.05100 11.53400 22.58900
H  -2.85100 10.73200 22.36000
H  -2.46300 9.54900 21.09700
H  -2.76100 11.24800 20.62400
H  1.72500 13.78100 26.96400
H  0.38500 13.92900 25.73300
H  2.03900 13.31200 25.25700
H  -0.30000 10.67800 30.51100
H  2.40500 11.38900 33.57400
H  3.05500 9.85600 33.04000
H  1.71600 9.87800 34.20600
Mg 24.36300 -4.90200 46.89700
C  26.32900 -2.75400 45.08200
C  21.70800 -4.15100 44.85400
C  22.93000 -7.90200 47.64400
C  27.31100 -5.97700 48.61500
N  24.06900 -3.61600 45.18600
C  24.97600 -2.74700 44.65300
C  24.41400 -1.90800 43.50000
C  22.83900 -2.18400 43.64800
C  22.82700 -3.35100 44.66900
C  22.08300 -0.99800 44.26100
C  25.02000 -2.16900 42.14900
C  25.48600 -1.07000 41.23100
H  25.04300 -1.07400 39.78400
N  22.46600 -5.78500 46.48700
C  21.50500 -5.29400 45.62900
C  20.34800 -6.17900 45.67200
C  20.65600 -7.27200 46.50300
C  22.05100 -7.06400 46.94400
C  19.17600 -6.03800 44.80400
C  19.68800 -8.40000 46.86000
O  18.52500 -8.45100 46.45200
C  20.18300 -9.45900 47.95500
N  25.13000 -6.74500 47.86200
C  24.30400 -7.73900 48.12700
C  24.96000 -8.74600 49.20800
C  26.40300 -8.10800 49.37100
C  26.27900 -6.86700 48.53100
C  24.13400 -9.00200 50.44000
C  27.55500 -9.08800 48.86700
C  28.64100 -9.51300 49.94900
N  26.42800 -4.45600 46.97600
C  27.43000 -4.86900 47.76300
C  28.61900 -3.97900 47.57900
C  28.22000 -3.18900 46.47900
C  26.89200 -3.52800 46.15400
C  29.92700 -4.02300 48.33700
C  28.69100 -2.24100 45.50300
O  29.78400 -1.74800 45.41700
C  27.47200 -1.95200 44.56600
C  27.31700 -0.50800 44.52000
O  26.96700 0.20000 45.44900
O  27.72900 0.00400 43.33800
C  27.65000 1.45500 43.17500
H  20.97300 -3.85900 44.10100
H  22.56700 -8.90700 47.86900
H  28.10400 -6.24500 49.31600
H  24.51300 -0.82800 43.61100
H  22.38200 -2.50600 42.71200
H  21.64500 -0.29200 43.55500
H  22.88100 -0.41400 44.71900
H  21.52000 -1.27200 45.15300
H  24.16900 -2.63000 41.64900
H  25.80400 -2.91800 42.04200
H  26.56900 -0.95000 41.25700
H  25.16300 -0.13300 41.68500
H  19.40800 -5.25700 44.07900
H  18.28100 -5.75000 45.35500
H  19.07100 -6.91500 44.16600
H  19.33300 -10.08000 48.23600
H  20.72000 -9.05000 48.81200
H  20.80600 -10.10900 47.34200
H  25.02000 -9.66100 48.61900
H  26.68700 -7.66700 50.32600
H  23.14800 -8.61200 50.18700
H  24.53400 -8.52900 51.33700
H  24.22300 -10.08100 50.56600
H  28.03900 -8.70700 47.96800
H  27.12300 -10.01100 48.48100
H  28.36700 -9.04400 50.89400
H  29.51800 -8.97200 49.59400
H  28.81600 -10.54400 50.25600
H  30.59800 -3.35300 47.79900
H  30.36900 -5.01600 48.40600
H  29.83400 -3.57400 49.32600
H  27.75700 -2.33500 43.58600
H  28.32900 1.59200 42.33300
H  28.12300 2.02300 43.97600
H  26.70200 1.95500 42.97400

