158

Mg 1.19700 8.58100 27.50100
C  2.16600 10.84700 30.01400
C  1.62200 6.12800 29.64400
C  0.76500 6.65300 24.92500
C  1.54400 11.32500 25.27100
N  1.81300 8.50300 29.63500
C  1.96500 9.51400 30.50100
C  1.88100 9.09100 31.93300
C  2.14400 7.55000 31.69800
C  1.80000 7.32300 30.23300
C  3.64000 7.09700 32.06500
C  0.50700 9.49200 32.48300
C  0.29200 9.58000 33.99800
H  1.49600 9.17500 34.87500
N  1.15500 6.55800 27.32400
C  1.42400 5.70100 28.31400
C  1.33000 4.30700 27.82700
C  1.02200 4.39000 26.43400
C  0.98600 5.91700 26.13500
C  1.61200 3.09800 28.68900
C  0.86100 3.34100 25.36400
O  0.33900 3.55700 24.23400
C  1.12800 1.89200 25.71700
N  1.33200 8.92600 25.43900
C  0.94500 7.94200 24.63400
C  0.99500 8.35400 23.13500
C  0.97000 9.92600 23.22800
C  1.32800 10.08100 24.71000
C  2.22200 7.77400 22.42400
C  -0.37300 10.58500 22.99400
C  -0.39300 11.85300 22.10500
N  1.71400 10.69100 27.57500
C  1.80700 11.65200 26.62200
C  2.18200 12.94900 27.15300
C  2.36200 12.64700 28.49400
C  2.03100 11.29400 28.73700
C  2.20500 14.19300 26.38400
C  2.78000 13.16300 29.78600
O  3.25000 14.22900 30.17300
C  2.56700 12.08600 30.84200
C  3.74700 11.87300 31.76200
O  4.77800 11.20500 31.58800
O  3.42900 12.46700 32.95000
C  4.62500 12.61800 33.84900
H  1.68300 5.22000 30.24700
H  0.61200 5.98000 24.07800
H  1.48800 12.22800 24.66000
H  2.63400 9.51800 32.59500
H  1.48900 6.93300 32.31300
H  3.65700 6.71700 33.08700
H  4.20000 8.03200 32.03200
H  4.08400 6.34400 31.41400
H  -0.24800 8.80800 32.09200
H  0.20200 10.48000 32.13900
H  -0.57200 9.01100 34.34300
H  0.14000 10.61700 34.29800
H  1.04700 2.24300 28.31700
H  1.21500 3.26000 29.69100
H  2.68300 2.90200 28.73300
H  2.06200 1.73600 26.25700
H  1.22300 1.36800 24.76600
H  0.24600 1.59300 26.28300
H  0.08100 7.98700 22.66700
H  1.66400 10.34400 22.49900
H  2.57000 8.38000 21.58700
H  1.74600 6.90800 21.96300
H  2.99000 7.54000 23.16100
H  -0.83700 10.82400 23.95100
H  -1.14300 9.95900 22.54400
H  -0.25400 11.40300 21.12200
H  0.51500 12.44800 22.21100
H  -1.30600 12.36400 22.40900
H  1.24600 14.70900 26.42300
H  2.46300 14.08400 25.33100
H  2.89600 14.91000 26.82800
H  1.76200 12.38400 31.51300
H  5.31500 13.33400 33.40200
H  5.15500 11.73600 34.20900
H  4.29400 13.08800 34.77500
Mg 0.71300 43.18100 26.29500
C  2.98100 43.75700 28.75400
C  -1.65700 42.66500 28.53100
C  -1.21200 42.32600 23.72000
C  3.49000 43.37700 23.93900
N  0.72000 42.91500 28.43100
C  1.76400 43.38400 29.27000
C  1.26500 43.36000 30.75100
C  -0.14700 42.74100 30.55500
C  -0.42700 42.82400 29.06800
C  -0.58200 41.38900 31.16200
C  1.22900 44.79600 31.39800
C  1.24200 44.80200 32.93200
H  0.98700 43.46400 33.65900
N  -1.23900 42.71400 26.17100
C  -2.06800 42.50800 27.20600
C  -3.41200 42.30700 26.62100
C  -3.28700 42.28600 25.18200
C  -1.89600 42.45200 24.93800
C  -4.65100 42.23800 27.43200
C  -4.41100 41.99700 24.08300
O  -4.17000 42.11300 22.90500
C  -5.90200 41.75400 24.35500
N  1.15800 42.84600 24.17600
C  0.14500 42.48600 23.37200
C  0.64300 42.26600 21.87700
C  2.03400 43.05700 21.93200
C  2.25800 43.10000 23.46500
C  0.78000 40.73400 21.43800
C  1.90300 44.48200 21.28300
C  2.91700 44.93600 20.21200
N  2.76000 43.54200 26.30100
C  3.79500 43.67200 25.31400
C  5.03000 44.08200 25.97400
C  4.76200 44.09000 27.35300
C  3.39800 43.74800 27.47400
C  6.27500 44.36600 25.32000
C  5.36900 44.30900 28.58100
O  6.57300 44.49900 28.89300
C  4.14300 44.14100 29.57000
C  4.64800 43.13600 30.57900
O  4.49700 41.96200 30.65400
O  4.97700 43.92500 31.71400
C  5.13000 43.28200 32.98200
H  -2.47400 42.57600 29.25000
H  -1.85800 42.12900 22.86200
H  4.34600 43.49300 23.27000
H  1.91100 42.75000 31.38200
H  -0.87700 43.40600 31.01800
H  0.21900 40.78900 31.59500
H  -1.08200 40.76400 30.42200
H  -1.31400 41.54400 31.95600
H  0.26000 45.23000 31.15200
H  2.00800 45.50000 31.10200
H  0.50700 45.53100 33.27200
H  2.18000 45.23400 33.28000
H  -5.07100 43.24400 27.42300
H  -4.41800 41.99300 28.46800
H  -5.34700 41.51700 27.00400
H  -6.44000 41.70500 23.40900
H  -6.33600 42.52100 24.99800
H  -5.84700 40.82900 24.92900
H  -0.07300 42.72400 21.19600
H  2.66200 42.41900 21.31200
H  0.39900 40.10500 22.24300
H  1.84100 40.48800 21.40200
H  0.17700 40.43000 20.58300
H  1.94300 45.19300 22.10800
H  0.91700 44.67600 20.86000
H  3.60000 44.15800 19.87200
H  3.61100 45.70900 20.54200
H  2.35900 45.29700 19.34800
H  6.79300 43.45800 25.01000
H  7.00000 44.88000 25.95100
H  6.08400 45.03700 24.48300
H  3.91600 45.15100 29.90900
H  6.02000 42.65500 32.93700
H  4.35700 42.58100 33.29900
H  5.32700 44.02000 33.76100

