158

Mg 41.87300 40.87800 26.66300
C  40.99400 43.34900 28.88900
C  42.84100 38.92600 29.27800
C  43.14700 38.68600 24.34700
C  41.62200 43.23800 24.02700
N  42.00600 41.16200 28.89200
C  41.47700 42.21900 29.57300
C  41.32600 41.86100 31.09000
C  42.20300 40.54400 31.18200
C  42.32800 40.14200 29.70500
C  43.52500 40.69300 31.87600
C  39.90100 41.72700 31.53300
C  39.68700 42.53800 32.84700
H  39.22600 41.80200 34.13100
N  42.88000 38.96900 26.76400
C  43.14300 38.34400 27.95300
C  43.74500 37.02600 27.64600
C  43.79600 36.95800 26.24600
C  43.31700 38.21100 25.68900
C  44.23000 36.12900 28.74600
C  44.20800 35.82400 25.42500
O  44.17900 35.79900 24.18500
C  44.66000 34.61300 26.12500
N  42.33900 41.01500 24.50500
C  42.78700 39.92100 23.76200
C  42.77500 40.18400 22.22900
C  42.35000 41.66700 22.18900
C  41.99800 41.96900 23.69400
C  44.16400 39.91900 21.48900
C  41.16600 41.95100 21.27800
C  41.47500 42.80300 20.03300
N  41.34400 42.82300 26.49700
C  41.22900 43.67000 25.34200
C  40.63600 44.94500 25.77800
C  40.52800 44.84300 27.19600
C  41.04700 43.60200 27.55400
C  40.39200 46.10600 24.84700
C  40.17400 45.58400 28.38900
O  39.68200 46.70700 28.44800
C  40.40900 44.60000 29.54500
C  41.41500 45.22200 30.49900
O  42.60900 45.49100 30.29500
O  40.88000 45.42600 31.67600
C  41.73000 45.90300 32.77500
H  42.99700 38.18800 30.06800
H  43.47200 37.89500 23.66700
H  41.40800 43.95000 23.22800
H  41.80900 42.67400 31.63100
H  41.73200 39.69800 31.68400
H  43.29700 41.15900 32.83400
H  44.26100 41.28100 31.32600
H  44.05000 39.74700 32.00700
H  39.52000 40.71500 31.66900
H  39.41500 42.16000 30.65900
H  38.74300 43.07000 32.72500
H  40.52400 43.14800 33.18600
H  43.83500 35.11500 28.68500
H  43.98600 36.44300 29.76100
H  45.30500 35.95300 28.71200
H  43.77800 34.24100 26.64700
H  45.52300 35.04500 26.63100
H  45.10800 33.91500 25.41800
H  42.04300 39.51300 21.77800
H  43.27700 42.17600 21.92600
H  43.98400 39.07700 20.82000
H  44.91400 39.52100 22.17100
H  44.48300 40.81800 20.96100
H  40.30700 42.42700 21.75200
H  40.75500 41.04500 20.83100
H  42.53000 43.06100 19.94200
H  40.87200 43.71000 19.99100
H  41.24200 42.19400 19.16000
H  39.33600 46.06600 24.58100
H  41.04200 46.02700 23.97500
H  40.66500 47.06500 25.28700
H  39.49500 44.36900 30.09200
H  41.26200 45.51900 33.68100
H  41.79600 46.98700 32.87400
H  42.73900 45.49800 32.69000
Mg -11.86000 15.64300 41.25100
C  -8.74700 13.99200 40.86900
C  -10.27400 18.33700 39.77200
C  -14.77200 17.04900 40.98200
C  -13.21600 12.57100 42.07500
N  -9.69800 16.10000 40.65600
C  -8.59600 15.27900 40.46400
C  -7.40800 15.95300 39.86400
C  -7.87900 17.44500 39.89300
C  -9.40300 17.34300 40.13900
C  -7.11100 18.23100 41.07900
C  -7.11900 15.44100 38.42100
C  -5.64700 15.28900 38.04100
H  -5.23500 15.89500 36.68100
N  -12.42900 17.53900 40.64100
C  -11.64500 18.43900 40.00300
C  -12.46800 19.57800 39.70000
C  -13.80400 19.28100 40.10700
C  -13.72300 17.92100 40.68100
C  -11.89100 20.84600 39.02100
C  -15.00100 20.17800 39.91600
O  -15.00000 21.25200 39.37500
C  -16.36000 19.71400 40.39200
N  -13.71400 14.93200 41.39100
C  -14.77300 15.70500 41.31100
C  -16.11400 14.87400 41.37900
C  -15.58700 13.43200 41.79200
C  -14.07000 13.64000 41.73600
C  -17.24000 15.38700 42.27600
C  -16.03600 12.31300 40.88400
C  -17.06200 11.33200 41.39300
N  -11.11200 13.68600 41.67900
C  -11.78900 12.50800 41.95100
C  -10.87400 11.40200 42.08700
C  -9.69200 11.98700 41.63500
C  -9.89900 13.35200 41.36000
C  -11.23600 10.02300 42.52500
C  -8.25200 11.72200 41.38300
O  -7.62100 10.69200 41.47100
C  -7.62000 12.97300 40.85700
C  -6.54500 13.37700 41.85500
O  -6.67700 13.81900 42.94800
O  -5.32700 12.99300 41.35600
C  -4.18900 13.23900 42.25600
H  -9.79800 19.23300 39.36800
H  -15.78500 17.45800 40.97600
H  -13.79900 11.73000 42.45700
H  -6.55100 15.92800 40.53700
H  -7.60700 17.99700 38.99400
H  -6.51500 17.51700 41.64800
H  -7.80600 18.67900 41.78900
H  -6.51400 19.08400 40.75800
H  -7.60900 16.19000 37.79900
H  -7.66400 14.52000 38.21200
H  -5.43900 14.22200 38.11900
H  -5.02100 15.79900 38.77300
H  -12.58600 21.33100 38.33500
H  -11.05200 20.49500 38.42000
H  -11.56600 21.56000 39.77700
H  -16.79300 18.99300 39.70000
H  -16.95400 20.62800 40.39700
H  -16.20300 19.31800 41.39500
H  -16.47200 14.87000 40.34900
H  -15.87000 13.21900 42.82300
H  -16.94600 16.29300 42.80600
H  -17.51900 14.55300 42.92000
H  -18.05400 15.65800 41.60300
H  -15.21300 11.83700 40.35100
H  -16.58600 12.68900 40.02100
H  -17.52400 11.79400 42.26600
H  -16.56300 10.39600 41.64500
H  -17.82000 11.00600 40.68200
H  -10.34100 9.43200 42.71800
H  -11.87900 9.60600 41.75000
H  -11.80600 10.18900 43.44000
H  -7.20900 12.71000 39.88200
H  -4.30100 12.72100 43.20900
H  -4.26700 14.30900 42.44900
H  -3.24200 12.92300 41.82000

