158

Mg 1.85000 -2.11900 44.30900
C  5.07000 -1.15600 43.39400
C  0.50900 0.46300 42.41400
C  -1.20100 -3.46400 44.75600
C  3.22600 -4.84200 46.03500
N  2.72400 -0.65500 42.85700
C  4.09600 -0.41200 42.72700
C  4.31000 0.82100 41.85300
C  2.83100 1.49700 41.68700
C  1.95500 0.39300 42.34900
C  2.67300 2.92900 42.39800
C  5.06700 0.63600 40.55700
C  4.66000 -0.58100 39.63400
H  4.34900 -0.39200 38.19900
N  -0.08500 -1.55400 43.78200
C  -0.37100 -0.50900 42.94200
C  -1.88500 -0.39900 42.89300
C  -2.41300 -1.47100 43.62200
C  -1.21300 -2.21100 44.07500
C  -2.51500 0.81600 42.29200
C  -3.89600 -1.58100 44.02800
O  -4.64100 -0.68300 43.68000
C  -4.46200 -2.72100 44.77100
N  1.13300 -4.00600 45.11200
C  -0.20100 -4.29700 45.16700
C  -0.43100 -5.66700 45.72000
C  0.96400 -5.99000 46.38700
C  1.88000 -4.91600 45.70300
C  -1.64700 -5.80100 46.71600
C  1.42700 -7.50400 46.25700
C  1.45200 -8.33800 47.50900
N  3.73300 -2.87800 44.67400
C  4.12200 -3.91600 45.44100
C  5.60800 -3.88500 45.66400
C  5.98100 -2.78000 44.80700
C  4.81000 -2.25600 44.22200
C  6.38500 -4.79100 46.47000
C  7.15600 -2.05700 44.30300
O  8.31500 -2.10300 44.49700
C  6.58700 -1.03000 43.29300
C  7.04300 0.34800 43.66200
O  7.92600 0.95700 43.03200
O  6.31200 0.83800 44.79600
C  6.85500 2.02800 45.46300
H  0.03600 1.29800 41.89400
H  -2.19000 -3.89600 44.92100
H  3.69000 -5.63100 46.63100
H  4.95800 1.54000 42.35400
H  2.58800 1.55500 40.62600
H  3.37200 3.10600 43.21500
H  1.68900 2.98100 42.86400
H  2.83500 3.72100 41.66800
H  6.12900 0.44400 40.71000
H  5.01500 1.55800 39.97800
H  3.90000 -1.13100 40.19000
H  5.40800 -1.36800 39.73000
H  -3.49500 0.50600 41.92800
H  -1.95300 1.09300 41.40000
H  -2.53000 1.57000 43.08000
H  -5.48300 -2.48100 45.06700
H  -3.88900 -2.72400 45.69900
H  -4.40500 -3.66200 44.22300
H  -0.49800 -6.33900 44.86500
H  0.85300 -5.69700 47.43100
H  -2.05500 -4.84900 47.05500
H  -1.22300 -6.37400 47.54100
H  -2.47900 -6.32100 46.24100
H  2.47100 -7.66800 45.99200
H  0.72900 -7.99500 45.57700
H  2.35000 -8.05600 48.05900
H  1.46700 -9.39500 47.24300
H  0.60500 -8.22000 48.18500
H  7.28300 -4.33000 46.88000
H  6.65900 -5.64200 45.84600
H  5.88900 -5.28300 47.30700
H  6.91000 -1.28400 42.28300
H  7.87000 2.22800 45.11900
H  6.83100 2.01800 46.55200
H  6.26500 2.92700 45.28700
Mg 36.22100 49.17500 26.05100
C  36.12700 47.17400 28.79600
C  35.12600 51.82200 27.92100
C  35.79400 51.13200 23.11100
C  36.90100 46.48400 23.95700
N  35.53700 49.46100 28.09100
C  35.70000 48.47400 29.00100
C  35.56400 49.08300 30.45500
C  35.03100 50.52600 30.17000
C  35.28200 50.63800 28.60500
C  33.61700 50.84800 30.62600
C  36.94500 48.96600 31.13500
C  36.94000 48.15200 32.50500
H  35.84800 48.56500 33.50800
N  35.58400 51.24800 25.59300
C  35.16100 52.13900 26.55800
C  34.83000 53.39100 25.91400
C  35.06100 53.20600 24.49100
C  35.51800 51.84700 24.35900
C  34.43600 54.66500 26.71100
C  34.93700 54.18300 23.33700
O  35.37900 53.95400 22.17500
C  34.29600 55.54300 23.52500
N  36.32300 48.85100 23.89700
C  36.12200 49.82300 22.91000
C  36.08000 49.20300 21.48800
C  36.45600 47.69900 21.80600
C  36.62700 47.65100 23.30800
C  34.79900 49.48400 20.67300
C  37.83500 47.30500 21.11300
C  39.20900 47.79000 21.82900
N  36.48300 47.19200 26.29200
C  36.81600 46.21300 25.37300
C  36.97600 44.95500 26.09200
C  36.78400 45.33800 27.46600
C  36.44000 46.62100 27.53300
C  37.28700 43.61700 25.48700
C  36.74700 44.81300 28.75200
O  36.95000 43.68700 29.18800
C  36.37000 46.00700 29.72900
C  35.16800 45.57900 30.47200
O  34.02400 45.67700 30.14200
O  35.54300 45.17600 31.73200
C  34.47900 44.85400 32.72400
H  34.79400 52.61500 28.59400
H  35.64100 51.64900 22.16200
H  37.17500 45.59000 23.39200
H  34.84000 48.47500 30.99600
H  35.74500 51.29200 30.47100
H  32.76800 50.83700 29.94300
H  33.68600 51.85900 31.02700
H  33.34700 50.22500 31.47900
H  37.31700 49.95500 31.40500
H  37.76900 48.52800 30.57200
H  37.84700 48.47300 33.01700
H  37.02400 47.07300 32.37700
H  33.40100 54.53800 27.02700
H  34.56200 55.62800 26.21600
H  35.19600 54.56000 27.48400
H  34.23600 55.89800 22.49700
H  34.95500 56.25300 24.02500
H  33.32700 55.57500 24.02200
H  37.02100 49.62300 21.13100
H  35.69900 47.01300 21.42800
H  33.86200 49.41400 21.22500
H  34.77300 48.61200 20.02000
H  34.90600 50.41300 20.11200
H  37.83300 47.67000 20.08600
H  37.86400 46.21700 21.04300
H  39.85600 48.27100 21.09500
H  39.73100 46.94200 22.27300
H  38.97800 48.51500 22.61000
H  38.37100 43.50800 25.47100
H  37.09300 43.71300 24.41900
H  36.74500 42.74900 25.86400
H  37.24400 46.22600 30.34200
H  34.42100 43.77000 32.82200
H  33.52400 45.27100 32.40600
H  34.64500 45.29500 33.70700

