158

Mg 45.10500 4.55200 47.97700
C  43.10900 7.23000 47.44500
C  42.36100 2.45800 47.75100
C  47.25900 1.69800 47.69900
C  47.93200 6.59900 47.67000
N  43.01400 4.80200 47.39800
C  42.40700 6.01800 47.31100
C  40.91500 5.87500 47.05400
C  40.57500 4.36600 47.37700
C  42.03800 3.81400 47.56300
C  39.67200 4.10400 48.59700
C  40.63700 6.29100 45.59100
C  39.27100 6.90400 45.30600
H  38.62500 6.24400 44.05200
N  44.86300 2.31200 47.81600
C  43.64000 1.68000 47.82100
C  43.85800 0.29000 47.80200
C  45.25300 0.03500 47.86300
C  45.85300 1.37400 47.81800
C  42.69800 -0.71700 47.75100
C  45.88600 -1.31200 47.99700
O  45.17200 -2.31100 48.03800
C  47.37100 -1.48200 48.00500
N  47.31600 4.23400 47.80300
C  47.88700 2.97900 47.74700
C  49.43400 3.11600 47.62500
C  49.63900 4.61100 47.90500
C  48.22000 5.23900 47.77900
C  50.40400 2.23000 48.43300
C  50.65000 5.32600 46.92000
C  51.84600 6.11800 47.59800
N  45.53600 6.55700 47.89400
C  46.70000 7.25500 47.67200
C  46.46200 8.68300 47.58300
C  45.06200 8.72600 47.55200
C  44.51300 7.36900 47.61800
C  47.39200 9.86000 47.44500
C  43.88100 9.60800 47.38900
O  43.84900 10.82000 47.07400
C  42.59200 8.67000 47.41800
C  41.79000 8.93700 48.64300
O  42.11700 8.65200 49.79900
O  40.64800 9.60900 48.31800
C  39.70700 9.87900 49.45000
H  41.48400 1.81400 47.65900
H  47.90300 0.84000 47.49300
H  48.73800 7.33100 47.75000
H  40.34400 6.58200 47.65600
H  40.26300 3.73400 46.54600
H  38.82400 3.47000 48.33600
H  39.41900 5.11800 48.90500
H  40.24000 3.56500 49.35600
H  40.57400 5.36500 45.01900
H  41.40200 7.00500 45.28800
H  39.40500 7.98200 45.22500
H  38.55500 6.68300 46.09800
H  42.41500 -1.15200 48.70900
H  43.07200 -1.46800 47.05500
H  41.79200 -0.40400 47.23000
H  47.93000 -1.15800 47.12700
H  47.41900 -2.54900 48.22400
H  47.83600 -1.02200 48.87700
H  49.59600 2.91600 46.56600
H  49.87400 4.76100 48.95900
H  49.81400 1.47300 48.95000
H  51.03500 2.82700 49.09200
H  50.98300 1.72600 47.65900
H  50.07400 5.91300 46.20400
H  51.11100 4.59900 46.25100
H  52.69400 5.50300 47.29800
H  51.71800 6.26700 48.67000
H  51.95100 7.09700 47.13000
H  46.79500 10.71700 47.75700
H  47.69600 9.84100 46.39900
H  48.26600 9.81600 48.09500
H  41.99900 8.90000 46.53300
H  39.81500 10.89100 49.84000
H  39.75200 9.12100 50.23200
H  38.68300 9.86000 49.07700
Mg 28.13400 56.26700 40.27100
C  25.63000 53.74200 39.82700
C  30.47400 54.06600 39.43500
C  30.13500 58.80000 40.55600
C  25.21100 58.48200 40.62900
N  27.96900 54.30400 39.44300
C  26.90600 53.42600 39.38700
C  27.38300 52.03900 38.82200
C  28.94900 52.04600 39.08100
C  29.18800 53.57000 39.45200
C  29.44300 51.11500 40.20800
C  27.01600 51.83700 37.33500
C  26.79300 53.03900 36.37600
H  27.40800 52.83300 34.98000
N  30.08600 56.39000 39.93700
C  30.91200 55.38200 39.66300
C  32.25600 55.90900 39.61900
C  32.13600 57.31100 39.86500
C  30.71700 57.51800 40.15900
C  33.40400 54.97300 39.25000
C  33.25800 58.29600 39.63500
O  34.38800 57.92700 39.64000
C  33.00200 59.72300 39.36800
N  27.73700 58.29500 40.47300
C  28.81100 59.10500 40.72900
C  28.31100 60.57400 40.93800
C  26.80400 60.46100 40.56800
C  26.54200 58.97300 40.60700
C  28.62200 61.15900 42.23900
C  26.28900 61.12300 39.18900
C  25.16300 62.17100 39.32800
N  25.87200 56.14400 40.41000
C  24.93200 57.13300 40.55500
C  23.61000 56.53900 40.56700
C  23.82400 55.15500 40.42800
C  25.20200 55.01000 40.20800
C  22.31400 57.06300 40.78900
C  23.28300 53.77900 40.41500
O  22.17800 53.35500 40.72600
C  24.42100 52.84200 39.96300
C  24.51800 51.74800 40.96200
O  24.34700 50.53300 40.67600
O  25.04500 52.22100 42.15500
C  25.53100 51.18900 43.06600
H  31.15900 53.21700 39.38200
H  30.74500 59.67400 40.79400
H  24.35300 59.14400 40.76600
H  26.86100 51.33100 39.46500
H  29.60000 51.82200 38.23600
H  29.87800 51.83400 40.90200
H  30.25300 50.46300 39.87900
H  28.66200 50.55900 40.72600
H  26.15100 51.17700 37.26900
H  27.79500 51.16600 36.97300
H  27.30000 53.90500 36.80200
H  25.73700 53.29700 36.29900
H  33.78700 55.18000 38.25100
H  33.00300 53.96300 39.33900
H  34.18000 55.10500 40.00300
H  32.73400 60.27900 40.26700
H  32.10400 59.79900 38.75500
H  33.84200 60.11300 38.79400
H  28.88700 61.04100 40.14000
H  26.24900 60.87500 41.41000
H  29.62400 61.58500 42.19300
H  28.62600 60.36400 42.98400
H  27.92800 61.96600 42.47600
H  26.09200 60.28800 38.51600
H  27.10000 61.65700 38.69400
H  24.41700 62.10600 38.53600
H  25.71700 63.10900 39.29300
H  24.69500 62.15500 40.31300
H  21.57200 56.51900 40.20400
H  22.28000 58.13000 40.56700
H  21.98800 56.89400 41.81500
H  24.11100 52.33900 39.04800
H  24.81100 50.98600 43.86000
H  26.39700 51.58700 43.59500
H  25.79100 50.23200 42.61500

