158

Mg 54.09600 24.76900 44.61200
C  51.45600 27.08100 43.81400
C  51.88000 22.41200 43.55200
C  56.71800 22.79400 44.44600
C  56.18000 27.51200 45.37300
N  51.90300 24.82400 43.53900
C  50.96900 25.85700 43.48000
C  49.60100 25.33700 42.89200
C  49.72100 23.81800 43.30500
C  51.27200 23.62100 43.48400
C  48.86900 23.42100 44.49600
C  49.41400 25.50700 41.31900
C  47.96200 25.39500 40.91300
H  47.65600 25.31200 39.48200
N  54.24400 22.80600 44.07900
C  53.20600 21.97000 43.78900
C  53.75200 20.68100 43.53400
C  55.16400 20.78200 43.78700
C  55.45100 22.20700 44.05600
C  52.89000 19.31700 43.35000
C  56.07300 19.60200 43.82200
O  55.76100 18.45500 43.58600
C  57.52700 19.76300 44.08500
N  56.23300 25.11700 44.90900
C  57.06100 24.09900 44.85700
C  58.44100 24.59400 45.32300
C  58.21800 26.09000 45.80000
C  56.79800 26.24500 45.27000
C  59.08100 23.71600 46.41100
C  59.35300 26.97900 45.38500
C  59.15700 27.83900 44.11300
N  53.93600 26.85900 44.59100
C  54.79600 27.79200 45.12100
C  54.06100 29.03200 45.32400
C  52.78200 28.76400 44.76900
C  52.74600 27.45700 44.34200
C  54.55500 30.34500 45.88200
C  51.46500 29.36800 44.62700
O  51.08800 30.52200 44.91500
C  50.62700 28.32500 43.83900
C  50.36200 28.92400 42.52300
O  51.22400 29.49600 41.85500
O  49.02600 28.96800 42.25700
C  48.68900 29.58300 40.96200
H  51.26300 21.52400 43.40200
H  57.57600 22.11900 44.46100
H  56.72600 28.40700 45.67800
H  48.89100 25.94600 43.45200
H  49.51500 23.07500 42.53500
H  48.25900 22.53000 44.34500
H  48.17700 24.18100 44.85900
H  49.49100 22.99700 45.28400
H  50.02900 24.75900 40.81800
H  49.85500 26.45700 41.01500
H  47.48400 26.26600 41.36100
H  47.59500 24.55800 41.50800
H  53.36600 18.48700 43.87100
H  52.82900 19.02900 42.30100
H  51.95700 19.53700 43.86800
H  57.81600 20.51100 43.34600
H  58.08300 18.85600 43.85000
H  57.72600 20.02400 45.12400
H  59.24300 24.56800 44.58500
H  58.23000 25.97200 46.88400
H  58.50000 22.79500 46.44000
H  59.12500 24.22200 47.37500
H  60.11700 23.48100 46.16600
H  60.26600 26.38700 45.32000
H  59.51300 27.69100 46.19500
H  58.38400 27.40600 43.47700
H  60.08700 28.11300 43.61600
H  58.94200 28.78700 44.60600
H  55.59200 30.38600 46.21200
H  53.93800 30.54500 46.75800
H  54.44000 31.15100 45.15700
H  49.67000 28.12100 44.31900
H  47.99200 28.89600 40.48200
H  49.57000 29.81600 40.36300
H  48.08200 30.48800 40.95200
Mg 36.79400 50.35800 25.32900
C  36.74700 48.54500 28.30500
C  35.23200 52.88700 26.95700
C  36.37300 51.92100 22.35700
C  37.61300 47.39800 23.64900
N  35.91300 50.49900 27.35300
C  36.22000 49.76300 28.49400
C  35.73200 50.40200 29.76300
C  34.95800 51.67600 29.24700
C  35.32900 51.71700 27.79300
C  33.44500 51.77600 29.53900
C  36.86400 50.58100 30.82600
C  36.64800 50.07500 32.23200
H  36.16400 51.16800 33.18900
N  36.07400 52.23400 24.72500
C  35.51900 53.11500 25.59900
C  35.28500 54.38500 24.92600
C  35.55800 54.13100 23.51100
C  35.99400 52.75000 23.45300
C  34.84000 55.65500 25.62100
C  35.40200 54.95700 22.28200
O  35.71300 54.53600 21.18800
C  34.94900 56.44100 22.31500
N  36.82100 49.69100 23.31200
C  36.82300 50.64600 22.28600
C  37.31100 49.98700 20.99300
C  38.05000 48.62800 21.45400
C  37.51200 48.56400 22.85100
C  36.28000 49.84000 19.88700
C  39.57100 48.74300 21.46900
C  40.31000 47.79400 20.47900
N  37.10800 48.33700 25.76200
C  37.35400 47.23200 24.99800
C  37.62600 46.01000 25.83000
C  37.39700 46.51000 27.12900
C  36.97400 47.87500 27.05400
C  38.11800 44.68600 25.35200
C  37.41100 46.19800 28.49200
O  37.90500 45.15100 29.00500
C  36.89600 47.42000 29.27700
C  35.57600 46.98000 29.74200
O  34.64300 46.61900 29.06500
O  35.65500 46.99800 31.15500
C  34.40900 46.67200 31.84900
H  34.83000 53.72700 27.52700
H  36.45200 52.39900 21.37900
H  38.09500 46.60500 23.07400
H  35.00200 49.67200 30.11100
H  35.42200 52.54700 29.71100
H  32.91400 51.95000 28.60300
H  33.34900 52.62700 30.21300
H  32.97400 50.94000 30.05600
H  37.09400 51.64000 30.94400
H  37.80800 50.16200 30.47700
H  37.68000 49.91000 32.54200
H  36.02900 49.18300 32.32900
H  35.20300 56.54200 25.10300
H  35.25000 55.77700 26.62400
H  33.75700 55.54000 25.59900
H  33.99200 56.42100 22.83700
H  34.65100 56.72000 21.30500
H  35.55400 57.21000 22.79600
H  38.10600 50.64200 20.63800
H  37.84600 47.72000 20.88600
H  36.40800 50.64900 19.16700
H  35.29100 49.98600 20.31900
H  36.34400 48.88700 19.36300
H  40.05500 48.53100 22.42300
H  39.90100 49.74900 21.21200
H  40.62300 46.90100 21.01900
H  41.22600 48.27600 20.13800
H  39.67800 47.48100 19.64700
H  38.47800 44.08800 26.19000
H  38.98000 44.71400 24.68600
H  37.34900 44.27000 24.70100
H  37.49100 47.82500 30.09600
H  33.74400 47.50300 31.61500
H  34.57000 46.49300 32.91200
H  33.97500 45.86100 31.26500

