158

Mg 23.34600 -6.39200 46.89800
C  25.73000 -3.95900 45.86100
C  21.07000 -4.84100 44.80200
C  21.51800 -9.20700 47.11800
C  25.94200 -7.97400 48.60700
N  23.45500 -4.55200 45.50400
C  24.49100 -3.67500 45.35000
C  24.07400 -2.60000 44.41500
C  22.48800 -2.73500 44.45600
C  22.32800 -4.14900 44.94100
C  21.72900 -1.73000 45.42200
C  24.69700 -2.73300 43.05900
C  25.01400 -1.45900 42.31400
H  24.23400 -1.28300 40.99700
N  21.48700 -6.88800 46.08300
C  20.68900 -6.11100 45.28100
C  19.48300 -6.86400 45.02800
C  19.53600 -8.09700 45.69300
C  20.91900 -8.09800 46.34900
C  18.35100 -6.30400 44.11300
C  18.47300 -9.13400 45.80900
O  17.43000 -8.91900 45.23700
C  18.66400 -10.38800 46.44200
N  23.72300 -8.25200 47.73800
C  22.73700 -9.28500 47.76400
C  23.15600 -10.50300 48.65000
C  24.57400 -10.07000 49.07900
C  24.81100 -8.67100 48.43300
C  22.21600 -10.64000 49.85700
C  25.60700 -11.19200 48.75200
C  26.14900 -11.25100 47.22900
N  25.44200 -5.97200 47.26200
C  26.29100 -6.73400 47.95600
C  27.56700 -6.02600 48.05600
C  27.40300 -4.89500 47.21300
C  26.09000 -5.01100 46.69500
C  28.77200 -6.55900 48.72000
C  28.07400 -3.74300 46.65900
O  29.19100 -3.29200 46.84400
C  26.96500 -3.09400 45.71500
C  26.66200 -1.66700 46.07700
O  26.43800 -1.20900 47.20700
O  26.71500 -0.86300 44.95100
C  26.44500 0.51600 45.26600
H  20.19500 -4.30000 44.43700
H  21.03300 -10.18300 47.05300
H  26.73500 -8.46100 49.17800
H  24.30700 -1.67000 44.93400
H  22.02800 -2.68700 43.46900
H  22.45200 -1.13400 45.97800
H  21.16700 -2.28700 46.17100
H  20.94200 -1.24000 44.84800
H  24.05000 -3.31800 42.40500
H  25.67600 -3.16900 43.25600
H  26.06600 -1.30000 42.07800
H  24.76400 -0.67500 43.02900
H  17.88700 -7.15400 43.61300
H  18.70700 -5.59700 43.36500
H  17.58700 -5.84300 44.73900
H  19.38000 -11.00100 45.89400
H  17.66600 -10.82700 46.45600
H  18.92300 -10.09500 47.45900
H  23.12600 -11.44600 48.10400
H  24.66100 -9.97600 50.16100
H  21.94100 -11.69200 49.93900
H  21.29100 -10.07900 49.72300
H  22.54900 -10.32100 50.84400
H  25.24300 -12.21300 48.86900
H  26.47800 -11.05400 49.39400
H  27.20900 -11.49600 47.16800
H  26.05500 -10.27800 46.74600
H  25.57900 -11.99100 46.66800
H  28.78100 -6.82700 49.77600
H  29.38800 -5.67400 48.55700
H  29.21400 -7.38300 48.16000
H  27.48400 -3.25000 44.76900
H  25.35900 0.60100 45.21200
H  26.97200 1.15200 44.55600
H  26.77000 1.07500 46.14300
Mg 47.55800 44.92700 42.59700
C  44.04500 44.29900 42.45300
C  47.99900 41.43000 42.17500
C  50.65100 45.66000 41.79300
C  46.67700 48.42100 42.49900
N  46.16000 43.08000 42.01100
C  44.78100 43.09100 42.13900
C  44.25300 41.69100 42.01300
C  45.52700 40.73200 42.22800
C  46.65400 41.84400 42.22700
C  45.40100 39.80900 43.42500
C  43.46900 41.46100 40.77800
C  43.94300 42.29300 39.53500
H  43.74100 41.59000 38.23600
N  49.09700 43.78400 42.14200
C  49.11800 42.37100 42.11300
C  50.49300 41.92400 41.89100
C  51.30300 43.11700 41.62700
C  50.33800 44.29100 41.80700
C  50.92900 40.47000 41.92600
C  52.78400 43.13200 41.43700
O  53.44200 42.09900 41.23200
C  53.64400 44.45100 41.32900
N  48.49300 46.80300 42.15600
C  49.88700 46.81500 42.00400
C  50.49100 48.25800 42.10100
C  49.17900 49.10600 42.17000
C  48.00300 48.04900 42.22800
C  51.42800 48.41500 43.37600
C  48.91700 50.18700 41.00700
C  48.45300 51.54900 41.29200
N  45.78700 46.12500 42.64700
C  45.57300 47.56000 42.66200
C  44.19800 47.88400 42.90100
C  43.54700 46.55600 42.86200
C  44.53500 45.59800 42.61700
C  43.48100 49.16600 43.10400
C  42.27000 45.88700 42.93100
O  41.10300 46.24600 43.02600
C  42.56800 44.41700 42.64000
C  42.06500 43.63200 43.78200
O  41.28300 42.67100 43.64500
O  42.36200 44.21500 44.97200
C  41.68500 43.62400 46.09600
H  48.20000 40.35700 42.16600
H  51.71200 45.90000 41.69700
H  46.57000 49.50500 42.57000
H  43.63700 41.51500 42.89500
H  45.65900 40.17200 41.30200
H  45.73800 40.27900 44.34800
H  45.91200 38.85600 43.28300
H  44.34200 39.58600 43.55200
H  42.38800 41.54100 40.89000
H  43.71500 40.42400 40.54900
H  44.99300 42.56400 39.65000
H  43.32600 43.18800 39.60400
H  50.73300 39.98500 40.96900
H  50.43800 39.85500 42.68000
H  51.96100 40.40300 42.27000
H  53.35500 45.09900 40.50200
H  54.71200 44.26800 41.20600
H  53.55900 44.90600 42.31600
H  51.04100 48.41500 41.17300
H  49.09700 49.67000 43.09900
H  52.27300 49.00700 43.02500
H  51.77500 47.40800 43.61000
H  50.86300 48.92400 44.15800
H  48.31100 49.70900 40.23800
H  49.85400 50.42700 40.50500
H  48.44700 51.74200 42.36500
H  47.46100 51.52900 40.84100
H  49.14100 52.25500 40.82600
H  43.80800 49.63500 44.03200
H  42.42800 49.05000 43.36000
H  43.61200 49.93100 42.33800
H  42.10200 44.20800 41.67700
H  41.85600 44.30300 46.93200
H  42.09300 42.66000 46.40200
H  40.60800 43.66500 45.93300

