158

Mg 24.66700 1.23600 29.86500
C  26.89600 1.33400 32.58900
C  22.10800 1.63100 32.03600
C  22.77500 1.01500 27.20500
C  27.46500 0.74600 27.82100
N  24.55600 1.50600 32.06300
C  25.53700 1.49000 32.98800
C  24.99600 1.66200 34.39900
C  23.45500 1.58000 34.22500
C  23.30100 1.65400 32.68300
C  22.71600 0.33500 34.85500
C  25.36000 2.96200 35.11000
C  26.01200 2.84400 36.53400
H  25.57300 3.79200 37.58900
N  22.73100 1.41400 29.64000
C  21.81500 1.61300 30.64900
C  20.50000 1.71900 30.05000
C  20.68200 1.38700 28.66900
C  22.13600 1.22600 28.48200
C  19.17900 2.02900 30.80800
C  19.60200 1.32200 27.58300
O  19.80800 0.95000 26.45300
C  18.18200 1.68800 27.86000
N  25.12000 0.87000 27.73100
C  24.09400 0.89500 26.90400
C  24.57700 0.84000 25.49900
C  26.14800 0.91700 25.58500
C  26.29700 0.91400 27.10300
C  23.94300 -0.35700 24.62600
C  26.77600 2.18200 24.98800
C  26.58300 3.50400 25.80000
N  26.74300 1.00000 30.07600
C  27.72900 0.80300 29.19300
C  29.04100 0.64200 29.83500
C  28.74500 0.97600 31.14400
C  27.37500 1.09700 31.29100
C  30.38700 0.39500 29.18800
C  29.29800 1.11600 32.50100
O  30.49200 0.98100 32.90300
C  28.06600 1.28500 33.49000
C  27.93900 0.18600 34.49100
O  27.48500 -0.95200 34.37200
O  28.62200 0.51500 35.66100
C  28.73800 -0.41200 36.80200
H  21.17100 1.77600 32.57900
H  22.24300 1.20300 26.27100
H  28.30900 0.69900 27.13000
H  25.29300 0.78200 34.97000
H  22.82700 2.38200 34.61200
H  21.82200 0.57300 35.43300
H  23.39500 -0.06300 35.60900
H  22.51100 -0.43800 34.11500
H  24.52900 3.66600 35.13700
H  26.11400 3.38500 34.44500
H  27.06400 2.96300 36.27400
H  25.78000 1.83000 36.85900
H  18.59400 1.11300 30.72600
H  18.63900 2.80300 30.26200
H  19.24500 2.32000 31.85600
H  17.64600 1.63600 26.91300
H  18.24300 2.71800 28.21000
H  17.71300 0.94700 28.50700
H  24.26300 1.79100 25.07000
H  26.54500 0.03100 25.08900
H  23.23300 -0.90500 25.24600
H  24.65000 -1.17600 24.49200
H  23.58400 -0.08500 23.63400
H  26.31300 2.22500 24.00200
H  27.85000 2.12800 24.80900
H  25.59200 3.80900 25.46300
H  27.30900 4.21700 25.40800
H  26.58400 3.46000 26.88900
H  31.10300 0.60000 29.98300
H  30.52500 1.10700 28.37400
H  30.42500 -0.68200 29.02400
H  28.23900 2.15000 34.13000
H  29.63600 -0.26600 37.40300
H  28.69000 -1.48300 36.60500
H  27.87600 -0.19300 37.43300
Mg 51.31400 46.29100 43.43200
C  48.33200 47.11300 41.95100
C  50.75300 43.01400 42.16100
C  54.37800 45.47200 44.43900
C  51.87500 49.59000 44.31500
N  49.57800 45.21400 42.32500
C  48.54200 45.79900 41.69400
C  47.68100 44.77200 40.89900
C  48.54000 43.53600 41.00800
C  49.69000 43.94400 41.96400
C  47.69900 42.24400 41.34400
C  47.43100 45.21500 39.38000
C  46.03700 44.89500 38.83900
H  45.88500 44.12100 37.59700
N  52.44800 44.55000 43.29800
C  52.05500 43.30800 42.72000
C  53.13400 42.35500 42.84300
C  54.20800 43.04200 43.53400
C  53.68200 44.38100 43.87200
C  53.05800 40.92100 42.38300
C  55.55800 42.45700 43.81700
O  55.86100 41.34300 43.46600
C  56.50700 43.29000 44.55100
N  53.04200 47.48300 44.05800
C  54.15200 46.89400 44.57800
C  55.06900 47.99700 45.32200
C  54.13100 49.15500 45.32300
C  52.98600 48.75600 44.46400
C  55.55300 47.45200 46.76100
C  54.70600 50.57300 44.99000
C  54.11000 51.69300 45.78400
N  50.33100 48.03900 43.37600
C  50.62500 49.27400 43.74900
C  49.59400 50.22000 43.35700
C  48.65200 49.40900 42.62700
C  49.12800 48.09800 42.68000
C  49.53700 51.67400 43.73900
C  47.39800 49.39200 42.04200
O  46.55100 50.29600 41.96800
C  47.17200 47.96100 41.40600
C  45.85800 47.41100 41.67000
O  45.41500 47.13400 42.75300
O  45.13700 47.37800 40.53200
C  43.70200 47.05300 40.58400
H  50.66600 42.02500 41.70500
H  55.30000 45.32500 45.00600
H  51.92900 50.61000 44.70100
H  46.85600 44.64700 41.60100
H  48.93800 43.34500 40.01100
H  47.90400 42.15900 42.41100
H  48.19100 41.41500 40.83600
H  46.62000 42.34900 41.23300
H  48.13500 44.68400 38.73900
H  47.54600 46.29700 39.31800
H  45.48400 45.81400 38.64600
H  45.43200 44.37100 39.57900
H  53.92900 40.74300 41.75300
H  52.21200 40.72800 41.72300
H  52.94900 40.23000 43.21900
H  57.43900 42.80100 44.83300
H  56.05100 43.49500 45.52000
H  56.79500 44.21100 44.04400
H  55.92700 48.32100 44.73400
H  53.70400 49.18600 46.32600
H  55.18800 48.16200 47.50300
H  56.61400 47.48900 47.00800
H  55.25500 46.40800 46.86000
H  54.49600 50.98900 44.00500
H  55.78700 50.60100 45.13200
H  53.63800 52.35200 45.05600
H  54.87700 52.20200 46.36800
H  53.35300 51.36600 46.49600
H  48.58300 52.11800 43.45800
H  50.41000 52.22300 43.38800
H  49.51900 51.67200 44.82900
H  47.45000 48.22500 40.38600
H  43.40800 46.32200 41.33600
H  43.43700 46.65400 39.60400
H  43.16500 47.98300 40.77100

