158

Mg -2.49400 16.28400 26.57500
C  -2.86300 14.14700 29.16600
C  -3.57700 18.82400 28.49700
C  -2.00600 18.30600 23.88700
C  -1.99600 13.53400 24.40900
N  -3.15700 16.41600 28.57700
C  -3.16300 15.42500 29.44700
C  -3.62100 15.91000 30.82800
C  -3.95500 17.41800 30.58100
C  -3.59800 17.58800 29.13200
C  -5.40000 17.86100 30.84300
C  -2.61100 15.50300 32.07900
C  -2.68600 16.41600 33.28500
H  -1.48000 16.26600 34.34300
N  -2.65400 18.33300 26.27900
C  -3.14900 19.18200 27.17400
C  -3.20900 20.48900 26.56000
C  -2.49700 20.34700 25.32200
C  -2.29700 18.93400 25.13800
C  -3.69800 21.78200 27.28800
C  -2.02300 21.44700 24.36600
O  -1.41700 21.20600 23.31700
C  -2.26800 22.87400 24.65800
N  -2.26400 15.96900 24.32100
C  -2.03400 16.98800 23.50300
C  -1.86900 16.39800 22.06700
C  -1.44200 14.94300 22.29500
C  -1.97900 14.73700 23.72900
C  -3.13200 16.64000 21.14600
C  -0.04900 14.56200 22.21300
C  0.60100 14.77700 20.81200
N  -2.55800 14.28300 26.63800
C  -2.29400 13.22900 25.72300
C  -2.35200 11.94800 26.36500
C  -2.42000 12.28400 27.71400
C  -2.59500 13.67800 27.84600
C  -2.25500 10.50200 25.65600
C  -2.39400 11.65700 28.97300
O  -2.18300 10.49600 29.35000
C  -2.74100 12.87100 30.05600
C  -1.64000 12.83900 31.02600
O  -0.56400 13.37800 30.88800
O  -1.94600 12.00500 32.07300
C  -1.04100 12.04800 33.21900
H  -3.90500 19.69100 29.07400
H  -1.83500 18.92500 23.00400
H  -1.69700 12.71100 23.75700
H  -4.51600 15.31700 31.01400
H  -3.42700 18.21400 31.10700
H  -5.42200 18.83700 31.32700
H  -5.97800 17.18700 31.47400
H  -5.94200 17.86900 29.89700
H  -1.56000 15.45700 31.79100
H  -3.12500 14.60100 32.40900
H  -3.46700 16.06600 33.95900
H  -2.76400 17.47000 33.01800
H  -4.47100 22.40400 26.83700
H  -2.87000 22.47900 27.42200
H  -4.05100 21.49800 28.27900
H  -3.33600 23.05900 24.77800
H  -1.76600 23.46100 23.88800
H  -1.70600 23.09700 25.56500
H  -0.94200 16.88200 21.75900
H  -1.84900 14.24600 21.56200
H  -3.44500 17.65800 21.37500
H  -3.87900 15.87100 21.34400
H  -2.80300 16.59100 20.10800
H  -0.00900 13.50400 22.47300
H  0.51500 15.17300 22.91800
H  1.30700 15.59700 20.94000
H  -0.07100 15.11700 20.02400
H  1.12900 13.86800 20.52800
H  -3.06700 9.88800 26.04400
H  -1.33600 10.07000 26.05300
H  -2.24000 10.70700 24.58500
H  -3.74000 12.54000 30.34100
H  -1.56500 12.10700 34.17200
H  -0.30200 12.84600 33.15100
H  -0.59700 11.05200 33.24400
Mg 25.57200 0.16000 28.59700
C  27.36600 -0.03100 31.59300
C  22.68100 0.04200 30.44900
C  23.65700 0.03700 25.71100
C  28.43500 -0.32100 26.81300
N  25.12800 -0.16400 30.85200
C  26.01100 0.03800 31.87000
C  25.35800 0.14900 33.23900
C  23.89400 0.03200 32.86600
C  23.88500 -0.04700 31.28700
C  23.19700 -1.14600 33.72700
C  25.69400 1.44300 34.11200
C  25.96200 1.03700 35.63500
H  26.40100 2.13800 36.58600
N  23.49600 0.13900 28.14000
C  22.48600 0.13400 29.07800
C  21.16500 0.26800 28.44700
C  21.50100 0.15200 27.01000
C  22.92600 0.05900 26.89000
C  19.90000 0.33900 29.22200
C  20.56400 0.14700 25.79400
O  20.96900 -0.18700 24.65500
C  19.12900 0.31900 26.02800
N  25.97500 -0.06200 26.55300
C  25.04500 -0.06500 25.51600
C  25.79300 -0.01700 24.16700
C  27.23700 0.16600 24.48800
C  27.29000 -0.05400 26.02300
C  25.45300 -1.28300 23.32000
C  27.99800 1.46900 24.07400
C  27.59200 2.80200 24.76100
N  27.55300 -0.15700 29.06300
C  28.62700 -0.37400 28.20400
C  29.84000 -0.57800 28.99800
C  29.41300 -0.41700 30.34100
C  28.01200 -0.13900 30.33800
C  31.16800 -0.85000 28.44100
C  29.87000 -0.36800 31.71000
O  30.96700 -0.60300 32.20800
C  28.50500 -0.05200 32.60400
C  28.30400 -1.04100 33.65500
O  27.68100 -2.10700 33.56200
O  29.02000 -0.66600 34.79200
C  29.18900 -1.70600 35.77200
H  21.75600 0.01700 31.02800
H  23.25200 0.10700 24.69900
H  29.22200 -0.30200 26.05500
H  25.62800 -0.74300 33.80500
H  23.37400 0.94300 33.16500
H  22.32900 -0.92100 34.34600
H  23.96100 -1.62000 34.34400
H  22.76400 -1.86200 33.02900
H  24.88300 2.17100 34.12400
H  26.59100 1.89700 33.69000
H  26.65500 0.19800 35.69600
H  25.01900 0.66900 36.03900
H  20.04400 0.89200 30.15000
H  19.56400 -0.66700 29.47300
H  19.12800 0.81400 28.61700
H  18.75200 -0.32000 26.82600
H  18.54800 0.17400 25.11700
H  18.89200 1.35500 26.27300
H  25.47400 0.86000 23.60400
H  27.68000 -0.67400 23.95300
H  24.73400 -1.11700 22.51700
H  25.00200 -2.14800 23.80600
H  26.31500 -1.65000 22.76200
H  27.84700 1.66500 23.01200
H  29.04900 1.23100 24.23900
H  28.36100 2.95100 25.52000
H  26.58800 2.69800 25.17200
H  27.58900 3.65300 24.08000
H  32.03000 -0.47600 28.99300
H  31.18100 -0.40000 27.44800
H  31.13100 -1.93900 28.41800
H  28.67600 0.94200 33.01800
H  28.43900 -1.53600 36.54500
H  30.09500 -1.65000 36.37400
H  29.07000 -2.73100 35.42000

