158

Mg 1.54800 -0.88400 44.44100
C  4.72200 0.46400 43.75400
C  0.11900 1.85200 43.09200
C  -1.36600 -2.67900 44.24600
C  3.16700 -3.90000 45.31800
N  2.37000 0.89800 43.37600
C  3.69500 1.27300 43.27500
C  3.89700 2.58500 42.50800
C  2.39900 3.18200 42.71200
C  1.54700 1.91900 43.10000
C  2.25800 4.26300 43.76600
C  4.28300 2.38600 40.96500
C  5.22200 3.52600 40.48600
H  4.81100 4.33800 39.19800
N  -0.31800 -0.46100 43.81900
C  -0.71400 0.75400 43.28200
C  -2.10900 0.77600 43.01700
C  -2.58700 -0.50300 43.36500
C  -1.40700 -1.30200 43.87000
C  -2.84000 1.97900 42.42700
C  -4.07700 -0.84600 43.41400
O  -4.93700 0.01000 43.23100
C  -4.53000 -2.20700 43.72300
N  0.96600 -3.09000 44.84900
C  -0.27100 -3.43800 44.78700
C  -0.46300 -4.83200 45.28500
C  0.96200 -5.23300 45.70100
C  1.79000 -4.04500 45.24600
C  -1.52300 -4.92200 46.46400
C  1.46700 -6.61800 45.00000
C  2.38800 -7.46800 45.85600
N  3.51000 -1.55900 44.70200
C  3.99200 -2.82700 44.96200
C  5.48000 -2.82000 44.94500
C  5.78800 -1.49200 44.55900
C  4.54800 -0.79100 44.35300
C  6.38100 -4.01800 45.43800
C  6.86100 -0.59900 44.24600
O  8.05300 -0.79600 44.34100
C  6.20800 0.74100 43.60300
C  6.70400 1.93600 44.29200
O  6.26500 2.44500 45.32000
O  7.72000 2.50500 43.62000
C  8.16700 3.83200 44.08500
H  -0.51300 2.63200 42.66100
H  -2.31400 -3.22100 44.25800
H  3.67000 -4.77900 45.72700
H  4.56600 3.28700 43.00600
H  1.97400 3.54700 41.77700
H  3.05300 5.00300 43.67200
H  2.08400 3.80000 44.73800
H  1.29300 4.73300 43.57700
H  3.42300 2.57200 40.32200
H  4.74300 1.40800 40.82500
H  6.23000 3.11700 40.41800
H  5.45000 4.16700 41.33800
H  -2.76800 1.99500 41.34000
H  -2.50300 2.92600 42.84700
H  -3.86900 2.08600 42.77200
H  -5.59200 -2.21100 43.47800
H  -4.29300 -2.52800 44.73700
H  -3.95100 -2.74800 42.97400
H  -0.72100 -5.31300 44.34200
H  1.00900 -5.44400 46.76900
H  -2.25500 -5.61500 46.05200
H  -1.92200 -3.92600 46.65600
H  -1.02700 -5.24300 47.38000
H  2.01000 -6.27500 44.11900
H  0.60500 -7.22000 44.71500
H  3.44100 -7.47100 45.57700
H  2.15000 -8.53200 45.84600
H  2.35700 -7.27300 46.92800
H  6.89200 -4.50800 44.61000
H  5.78100 -4.70500 46.03600
H  7.14100 -3.65100 46.12800
H  6.57000 0.90800 42.58900
H  9.15700 4.07500 43.69900
H  8.39100 3.65500 45.13700
H  7.42700 4.58200 43.80600
Mg 41.40900 9.03200 30.13700
C  43.43900 10.00500 32.86300
C  38.92500 8.06100 32.45900
C  39.61300 8.14100 27.66800
C  44.11500 9.62400 27.99700
N  41.23700 9.02800 32.40000
C  42.14400 9.59600 33.27700
C  41.54800 9.64800 34.70400
C  40.18100 8.82000 34.57700
C  40.12800 8.60300 33.06200
C  40.14200 7.52500 35.41900
C  41.49400 11.11900 35.33700
C  40.65400 11.36500 36.59000
H  41.29300 12.34200 37.56600
N  39.51200 8.16200 30.08500
C  38.62300 7.84800 31.10100
C  37.44100 7.23500 30.51000
C  37.63900 7.24700 29.12000
C  38.95100 7.82300 28.85500
C  36.36100 6.60900 31.25700
C  36.72600 6.72100 28.02700
O  37.14400 6.38100 26.97800
C  35.19700 6.63600 28.31700
N  41.78600 8.87200 28.04000
C  40.85900 8.51300 27.25300
C  41.24400 8.67300 25.81100
C  42.64700 9.29300 25.89400
C  42.92400 9.18200 27.40100
C  41.03200 7.48100 24.83300
C  42.79800 10.70400 25.38300
C  44.12300 11.09300 24.78500
N  43.41400 9.63100 30.34400
C  44.42400 9.75700 29.37800
C  45.60800 10.20300 30.02500
C  45.29100 10.34000 31.37800
C  43.93000 9.96300 31.56000
C  46.88700 10.53300 29.40700
C  45.79900 10.82200 32.64700
O  46.85000 11.28600 32.97200
C  44.55200 10.74700 33.61000
C  45.09300 10.17300 34.83100
O  45.49000 9.03400 34.91300
O  45.18700 11.11300 35.83200
C  46.00900 10.91000 37.05400
H  38.13500 7.88300 33.19100
H  39.12800 7.82100 26.74400
H  44.97600 9.95300 27.41100
H  42.30900 9.15700 35.31100
H  39.28200 9.32200 34.93400
H  40.08800 6.63600 34.79200
H  39.29100 7.55000 36.09900
H  40.98400 7.47400 36.11000
H  40.95500 11.59100 34.51600
H  42.51400 11.50300 35.37000
H  40.64300 10.39100 37.08000
H  39.66200 11.68800 36.27400
H  35.42500 7.16000 31.35300
H  36.74500 6.49900 32.27100
H  36.09400 5.65900 30.79400
H  34.64700 7.55900 28.50200
H  34.87100 6.03900 29.16900
H  34.68300 6.19600 27.46300
H  40.61900 9.47000 25.40800
H  43.32000 8.56100 25.44700
H  40.58400 6.65400 25.38300
H  41.97800 7.20900 24.36600
H  40.30800 7.85300 24.10800
H  42.63100 11.39000 26.21400
H  41.99800 10.85300 24.65800
H  44.47900 12.00300 25.26700
H  44.19700 11.33600 23.72500
H  44.87500 10.34700 25.04100
H  47.12700 11.58300 29.24000
H  46.90000 10.13300 28.39300
H  47.72300 10.11500 29.96800
H  44.27800 11.78400 33.80300
H  45.38100 10.95000 37.94300
H  46.84800 11.59000 37.20300
H  46.38900 9.88900 37.07500

