158

Mg 8.29500 2.52000 27.81300
C  9.68100 1.00300 30.49700
C  6.52700 4.50900 29.93100
C  6.64400 3.78500 25.10800
C  9.64900 0.11000 25.66400
N  8.27800 2.85200 29.94000
C  9.00500 2.14400 30.88900
C  8.79300 2.75300 32.29700
C  7.56700 3.72600 32.06000
C  7.51200 3.73000 30.53400
C  6.24200 3.15900 32.67000
C  10.07900 3.39500 32.95400
C  10.39700 2.95200 34.37900
H  10.32000 4.03800 35.42600
N  6.70300 3.97500 27.55200
C  6.14300 4.71200 28.53400
C  5.17400 5.65000 27.93300
C  5.19700 5.42800 26.54600
C  6.30400 4.39400 26.33000
C  4.30300 6.61900 28.76000
C  4.36800 6.08200 25.45800
O  4.38500 5.84400 24.23000
C  3.37800 7.04600 25.85700
N  8.11500 2.01900 25.66400
C  7.49000 2.76800 24.77300
C  7.74200 2.32700 23.32000
C  8.79400 1.15800 23.44700
C  8.85900 1.07400 24.99700
C  6.42300 2.02200 22.50800
C  10.13700 1.38000 22.80400
C  10.75000 0.09400 22.21500
N  9.28800 0.77900 27.93400
C  9.80900 -0.10600 27.00200
C  10.63100 -1.10800 27.60900
C  10.52600 -0.74400 28.99500
C  9.70600 0.43300 29.15300
C  11.39500 -2.29000 27.01600
C  10.92800 -1.15900 30.31700
O  11.55800 -2.11000 30.67500
C  10.48800 -0.05100 31.34300
C  9.76100 -0.65300 32.44400
O  8.86500 -1.44700 32.29700
O  10.27000 -0.25800 33.64400
C  9.73100 -0.89600 34.86300
H  5.93200 5.20300 30.52800
H  6.18200 4.32900 24.28200
H  10.17500 -0.56700 24.98800
H  8.48200 1.95700 32.97300
H  7.68400 4.72800 32.47200
H  5.71700 2.49600 31.98100
H  5.48100 3.90600 32.89800
H  6.41800 2.56800 33.56800
H  10.04400 4.46300 32.74000
H  10.91900 3.02100 32.36800
H  11.45000 2.68000 34.31200
H  9.75200 2.10200 34.60100
H  4.72300 6.62600 29.76600
H  3.26000 6.30500 28.75200
H  4.44400 7.63000 28.37800
H  3.77100 8.03600 26.09000
H  2.72700 6.69000 26.65600
H  2.71500 7.21400 25.00800
H  8.24000 3.12300 22.76500
H  8.43500 0.15600 23.21100
H  5.61600 2.12000 23.23300
H  6.55200 1.03400 22.06700
H  6.20000 2.82200 21.80200
H  10.81600 1.67900 23.60200
H  10.11600 2.17400 22.05600
H  10.87000 0.36200 21.16500
H  10.05300 -0.74400 22.20400
H  11.64600 -0.25300 22.73000
H  12.26700 -2.36000 27.66700
H  11.60800 -1.90800 26.01800
H  10.85200 -3.23000 26.91500
H  11.33500 0.32900 31.91300
H  9.16200 -0.10600 35.35300
H  10.56700 -1.17000 35.50600
H  9.05600 -1.73800 34.70800
Mg 50.31900 46.46900 42.46800
C  47.40800 48.00300 41.17100
C  49.47500 43.63000 40.64700
C  53.50200 45.27900 42.80400
C  51.45300 49.63900 43.39000
N  48.77200 45.92200 40.84100
C  47.60900 46.66500 40.68700
C  46.57800 45.83500 39.86700
C  47.22700 44.43100 39.75800
C  48.59900 44.63900 40.43400
C  46.25100 43.30000 40.26700
C  46.38100 46.50400 38.46500
C  44.91100 46.60400 37.92900
H  44.49200 45.58700 36.92800
N  51.23800 44.58900 42.13500
C  50.70000 43.55300 41.38400
C  51.54900 42.43100 41.44700
C  52.72400 42.84400 42.10500
C  52.53600 44.28700 42.41700
C  51.12400 40.93800 41.01300
C  53.88300 41.84900 42.40800
O  53.84100 40.68000 42.00700
C  55.21300 42.25500 43.23800
N  52.27000 47.40200 42.72000
C  53.39600 46.67500 42.98400
C  54.60000 47.57900 43.45200
C  53.86300 48.93200 43.65800
C  52.43200 48.69100 43.19600
C  55.57300 47.15400 44.54200
C  54.57300 50.14500 42.94900
C  54.11600 50.64300 41.51600
N  49.56200 48.38600 42.46500
C  50.10100 49.50700 43.01500
C  49.13100 50.57300 42.93500
C  48.06400 50.01100 42.31200
C  48.41700 48.68700 41.89600
C  49.21200 52.03500 43.33000
C  46.70400 50.29000 41.83900
O  46.02800 51.27200 41.98100
C  46.25900 48.99200 41.02500
C  44.97200 48.52200 41.57200
O  44.69900 48.22600 42.74900
O  44.09300 48.34300 40.47400
C  42.86600 47.57400 40.82700
H  49.19700 42.69700 40.15300
H  54.47700 44.79400 42.88100
H  51.85500 50.51700 43.89900
H  45.69200 45.96000 40.48900
H  47.37800 44.06100 38.74500
H  45.30000 43.66900 40.65100
H  46.70800 42.65300 41.01600
H  45.99900 42.60000 39.47000
H  46.92400 45.97000 37.68500
H  46.85600 47.48400 38.44100
H  44.64100 47.65500 37.82500
H  44.30300 46.37000 38.80300
H  51.81100 40.69600 40.20200
H  50.09700 40.90300 40.65000
H  51.18200 40.30700 41.90000
H  54.97200 42.73600 44.18600
H  55.85900 42.89800 42.64000
H  55.88200 41.42800 43.47700
H  55.18000 47.68700 42.53500
H  53.89800 49.14500 44.72600
H  56.56400 47.06600 44.09700
H  55.33600 46.15400 44.90600
H  55.61100 47.96200 45.27300
H  55.64900 49.98300 43.01500
H  54.39100 50.97900 43.62700
H  54.89000 51.23400 41.02600
H  53.25700 51.31000 41.58900
H  53.86000 49.85000 40.81400
H  49.34700 52.56400 42.38700
H  50.11100 52.23000 43.91400
H  48.30400 52.17300 43.91800
H  46.01700 49.21300 39.98600
H  42.05700 47.60000 40.09700
H  42.34000 47.97600 41.69300
H  43.10600 46.53600 41.05900

