158

Mg 7.79800 2.59300 28.69300
C  9.35000 1.41900 31.60700
C  5.59300 4.46600 30.54500
C  6.46400 3.54000 25.81800
C  9.86600 0.29400 26.77300
N  7.47200 2.85400 30.89000
C  8.36700 2.43000 31.86200
C  8.08600 3.18600 33.19600
C  6.83600 4.14200 32.84200
C  6.57900 3.80700 31.35500
C  5.53700 3.86600 33.69400
C  9.38400 3.88500 33.80700
C  9.74700 3.63600 35.29000
H  8.77000 3.20800 36.38200
N  6.14500 3.69600 28.24200
C  5.44000 4.49600 29.13400
C  4.54500 5.33000 28.42300
C  4.73000 5.09400 26.98700
C  5.80100 4.07900 26.96600
C  3.57800 6.17800 29.15000
C  4.05400 5.65000 25.81200
O  4.24900 5.33400 24.64700
C  2.97700 6.72300 26.00500
N  8.04700 1.86600 26.51500
C  7.49800 2.56400 25.54200
C  7.93700 2.09200 24.15300
C  9.20200 1.25000 24.53400
C  9.02700 1.14000 26.04100
C  6.90300 1.40600 23.23300
C  10.58200 1.72900 24.12000
C  11.15500 2.98400 24.85400
N  9.12900 1.01200 29.09100
C  9.88500 0.17700 28.25200
C  10.85600 -0.55900 29.05200
C  10.63200 -0.08300 30.36200
C  9.59500 0.84700 30.31700
C  11.86600 -1.51600 28.60100
C  11.20600 -0.18500 31.63600
O  12.17600 -0.79000 32.10600
C  10.37300 0.76400 32.58100
C  9.80800 -0.18300 33.61700
O  8.83800 -0.93800 33.42500
O  10.30800 0.11000 34.79700
C  9.55900 -0.50800 35.95800
H  5.05500 5.18100 31.17100
H  6.06900 4.02200 24.92000
H  10.54500 -0.37600 26.24200
H  7.68100 2.41000 33.84500
H  7.04500 5.21100 32.89500
H  4.70300 3.52500 33.08100
H  5.22700 4.74400 34.26000
H  5.81000 3.16600 34.48400
H  9.32900 4.96900 33.71100
H  10.23000 3.51800 33.22600
H  10.10000 4.59300 35.67400
H  10.57700 2.93500 35.20800
H  2.58300 6.23500 28.71000
H  4.06600 7.15100 29.09200
H  3.33300 5.77800 30.13400
H  2.59600 6.95600 25.01000
H  3.35100 7.57600 26.57100
H  2.13600 6.33800 26.58200
H  8.24900 2.92000 23.51700
H  9.19200 0.25500 24.09000
H  7.08700 0.33400 23.17000
H  6.95900 1.68700 22.18100
H  5.93100 1.72200 23.61300
H  10.57200 2.02400 23.07000
H  11.34500 0.95200 24.16600
H  11.21900 2.64700 25.88800
H  10.46900 3.82700 24.77600
H  12.10600 3.30100 24.42700
H  12.78300 -1.09400 28.19000
H  11.42900 -2.23400 27.90700
H  12.28800 -2.05100 29.45200
H  11.09500 1.47000 32.99000
H  9.62500 -1.59100 35.85300
H  8.54900 -0.22400 36.25200
H  10.21300 -0.25700 36.79300
Mg 46.84900 16.81800 28.09700
C  45.08900 16.59800 31.24600
C  49.24100 18.68600 29.74000
C  48.30600 17.02700 25.11700
C  44.10400 15.26700 26.67200
N  47.16300 17.52600 30.26800
C  46.29100 17.27700 31.36200
C  47.00000 17.74200 32.77700
C  48.12800 18.66700 32.13500
C  48.27500 18.23000 30.63900
C  47.75500 20.14500 32.24400
C  47.54100 16.47000 33.59900
C  47.66200 16.49800 35.08900
H  47.45100 17.80700 35.90800
N  48.55100 17.78200 27.52900
C  49.38100 18.55800 28.34600
C  50.46300 19.02800 27.53800
C  50.23000 18.51000 26.18100
C  48.96800 17.73600 26.21800
C  51.68100 19.83700 28.08900
C  51.07600 18.63800 24.90600
O  50.79500 18.05100 23.89700
C  52.17200 19.61300 24.89600
N  46.31500 16.19900 26.06300
C  47.11200 16.28300 25.02100
C  46.41300 15.73600 23.71500
C  45.14200 15.12800 24.27600
C  45.15500 15.56300 25.77500
C  46.10800 16.83700 22.68100
C  45.19400 13.58100 24.08800
C  44.71600 13.17600 22.66900
N  44.98300 16.08200 28.72000
C  44.03400 15.39600 27.99000
C  42.95200 15.01500 28.82200
C  43.33300 15.41200 30.14300
C  44.59300 16.08500 30.02000
C  41.70200 14.43000 28.36600
C  42.91800 15.46700 31.57600
O  41.92700 14.93600 32.08000
C  44.15100 16.13600 32.31700
C  43.74300 17.28500 33.23400
O  43.82600 18.48000 32.92800
O  43.13300 16.83500 34.35700
C  42.47800 17.72500 35.34800
H  50.06300 19.29500 30.12200
H  48.79700 16.98900 24.14200
H  43.29100 14.64300 26.29600
H  46.37700 18.34500 33.43700
H  49.07900 18.58100 32.66100
H  48.50500 20.81200 32.67000
H  46.91200 20.33900 32.90700
H  47.56600 20.63900 31.29200
H  48.50900 16.15300 33.21100
H  46.89900 15.59300 33.51700
H  48.65300 16.12800 35.35200
H  46.88500 15.89600 35.56200
H  52.62300 19.31900 27.90900
H  51.51200 20.05000 29.14500
H  51.54000 20.79100 27.58100
H  51.71100 20.58800 25.05100
H  52.47800 19.61500 23.85000
H  52.95100 19.41800 25.63300
H  47.11600 15.01100 23.30500
H  44.19500 15.49000 23.87500
H  46.84500 17.62700 22.82100
H  45.09800 17.24500 22.70800
H  46.36600 16.43500 21.70100
H  44.63800 13.09100 24.88700
H  46.22000 13.22100 24.16200
H  45.52400 12.75900 22.06700
H  44.27000 14.00100 22.11400
H  44.01400 12.35600 22.82300
H  41.65500 13.34100 28.37300
H  41.34400 14.70700 27.37500
H  40.87600 14.69100 29.02800
H  44.65600 15.43200 32.97800
H  41.70300 18.21200 34.75500
H  43.19400 18.39800 35.81800
H  41.99000 17.02300 36.02300

