158

Mg 47.19400 25.92000 27.62200
C  48.50500 27.84200 30.09300
C  46.50400 23.50000 29.87000
C  46.12100 23.97700 25.09500
C  48.31000 28.24700 25.17600
N  47.46400 25.70800 29.71800
C  47.96500 26.64100 30.56400
C  47.75200 26.24600 32.05000
C  47.11300 24.90900 31.98100
C  46.98800 24.65700 30.42500
C  47.85200 23.80200 32.66600
C  46.91300 27.30500 32.85600
C  47.32800 27.41200 34.41400
H  46.16000 27.62700 35.39200
N  46.26900 24.05100 27.53700
C  46.18700 23.17700 28.53900
C  45.59700 21.92700 28.09400
C  45.34900 22.11600 26.70700
C  45.93900 23.44600 26.35900
C  45.33200 20.72600 28.98400
C  44.63100 21.19000 25.71000
O  44.70700 21.25800 24.49800
C  43.91600 20.01800 26.17300
N  47.33400 26.07500 25.41800
C  46.70300 25.11100 24.56500
C  46.70400 25.54700 23.16200
C  47.24800 27.04900 23.25500
C  47.66000 27.17200 24.67100
C  47.52800 24.59800 22.30700
C  46.31600 28.20500 22.81700
C  46.90200 29.11800 21.69400
N  48.32100 27.59600 27.59100
C  48.60000 28.43700 26.50600
C  49.34700 29.54000 27.06700
C  49.27200 29.43500 28.47700
C  48.66600 28.22100 28.72500
C  49.91700 30.58700 26.22200
C  49.69300 30.02200 29.76800
O  50.19700 31.11700 30.04600
C  49.16400 28.91400 30.86300
C  50.23800 28.52300 31.78700
O  51.07800 27.64500 31.59000
O  49.99400 29.10300 33.05900
C  50.82700 28.54700 34.16400
H  46.26800 22.77100 30.64900
H  45.55700 23.35700 24.39500
H  48.59700 29.02700 24.46700
H  48.72600 26.25400 32.54000
H  46.12100 24.87100 32.43100
H  48.64000 24.31700 33.21400
H  48.18600 23.04000 31.96100
H  47.20600 23.23500 33.33700
H  45.83200 27.17400 32.81800
H  46.92100 28.32500 32.47200
H  47.74600 28.41400 34.32000
H  48.04800 26.70200 34.82100
H  44.28300 20.43000 28.98800
H  45.67900 20.84100 30.01000
H  45.89700 19.87900 28.59200
H  44.64700 19.23600 26.37800
H  43.27000 19.50400 25.46100
H  43.21700 20.32900 26.94900
H  45.66200 25.46900 22.85100
H  48.16500 27.02300 22.66600
H  47.79600 23.69300 22.85100
H  48.40000 25.00100 21.79100
H  46.81500 24.26900 21.55100
H  46.13700 28.80000 23.71300
H  45.34800 27.87200 22.44400
H  46.07700 29.18800 20.98500
H  47.67000 28.57100 21.14700
H  47.04800 30.17400 21.92100
H  49.28300 30.79800 25.36000
H  50.86600 30.17300 25.88200
H  50.17400 31.33700 26.97000
H  48.39400 29.36200 31.49100
H  50.24300 28.16000 34.99900
H  51.33300 29.42300 34.57000
H  51.58800 27.81300 33.89900
Mg 0.95700 42.20800 25.71600
C  1.82900 42.33400 29.15300
C  -2.13000 41.13500 26.56900
C  0.45500 41.65200 22.51100
C  4.32900 43.07900 24.96800
N  -0.02900 41.83200 27.64500
C  0.48300 41.95300 28.91500
C  -0.74600 41.88300 29.93500
C  -1.83000 41.07900 29.06100
C  -1.31100 41.39700 27.69900
C  -1.81800 39.52200 29.30700
C  -1.24200 43.25800 30.37100
C  -1.28000 43.35600 31.95100
H  -2.24000 42.35100 32.65900
N  -0.69800 41.62900 24.67300
C  -1.89400 41.18400 25.19200
C  -2.79200 40.82100 24.17300
C  -2.12600 40.83800 22.95500
C  -0.65900 41.38200 23.35800
C  -4.25000 40.36400 24.47500
C  -2.49500 40.43600 21.57600
O  -1.85500 40.68200 20.61500
C  -3.89700 39.87300 21.30100
N  2.22600 42.48100 23.94900
C  1.78800 42.07100 22.76100
C  2.93700 42.20100 21.71100
C  3.98400 43.03000 22.44800
C  3.48200 42.91700 23.86200
C  3.45600 40.85300 21.21200
C  4.15300 44.54800 22.02900
C  2.88900 45.38300 21.95700
N  2.72600 42.59700 26.77400
C  3.98400 42.90600 26.29100
C  4.90600 43.09000 27.45900
C  4.02200 42.80800 28.51900
C  2.77200 42.54100 28.11000
C  6.33700 43.52400 27.39900
C  4.03700 42.85400 29.99200
O  4.96500 43.25500 30.75600
C  2.55400 42.48300 30.43100
C  2.59200 41.25300 31.23900
O  3.34000 40.31500 31.08500
O  1.54900 41.25700 32.10000
C  1.36600 40.03900 32.86200
H  -3.10800 40.76200 26.88100
H  0.23800 41.25100 21.51900
H  5.33800 43.47400 24.82700
H  -0.58300 41.27500 30.82500
H  -2.83900 41.48300 29.14600
H  -1.02100 39.03600 28.74500
H  -2.76100 39.38200 28.78000
H  -1.92500 39.26200 30.36000
H  -2.27200 43.36300 30.02900
H  -0.63600 44.00800 29.86300
H  -1.63700 44.34500 32.23800
H  -0.37500 43.27400 32.55200
H  -4.32800 39.29900 24.25800
H  -4.91600 40.92700 23.82200
H  -4.61300 40.49400 25.49400
H  -4.17100 39.09800 22.01600
H  -3.83000 39.53400 20.26700
H  -4.57300 40.71300 21.46000
H  2.55000 42.84900 20.92400
H  4.93900 42.50600 22.44000
H  3.13900 40.06100 21.89000
H  4.54400 40.87300 21.15600
H  3.06400 40.56200 20.23700
H  4.71200 44.51000 21.09300
H  4.75800 45.08100 22.76200
H  2.94900 46.20800 22.66600
H  1.91100 44.93800 22.14200
H  2.88300 45.84000 20.96700
H  6.85900 42.81600 28.04300
H  6.31300 44.50600 27.87200
H  6.76500 43.51600 26.39600
H  2.10400 43.29900 30.99700
H  0.43100 40.00700 33.42100
H  2.15900 39.91400 33.60000
H  1.30500 39.12800 32.26700

