158

Mg 1.74700 -1.78400 43.42700
C  5.21300 -0.90000 42.99000
C  1.07400 1.12300 41.39500
C  -1.29400 -2.99300 42.72300
C  2.81900 -4.92800 44.61700
N  2.99000 -0.06900 42.39300
C  4.40000 0.04200 42.40800
C  4.81700 1.32500 41.64400
C  3.48800 1.91900 41.12300
C  2.42600 0.96600 41.71700
C  3.27600 3.37200 41.67900
C  5.89300 1.33700 40.58500
C  6.00300 0.14700 39.56000
H  5.46800 0.48400 38.12300
N  0.03600 -0.85600 42.53100
C  -0.04400 0.32700 41.79000
C  -1.40700 0.53800 41.41200
C  -2.16300 -0.66400 41.85800
C  -1.14400 -1.58900 42.41800
C  -1.87800 1.77700 40.62800
C  -3.75200 -0.82700 41.64600
O  -4.37200 0.09600 41.05600
C  -4.49400 -1.97000 42.17200
N  0.93000 -3.73400 43.50200
C  -0.40900 -3.90800 43.28700
C  -0.92600 -5.32600 43.81900
C  0.38400 -5.86100 44.48700
C  1.46800 -4.79500 44.15300
C  -2.18600 -5.21200 44.78800
C  0.67700 -7.25500 43.77700
C  0.07300 -8.45700 44.54900
N  3.67100 -2.83600 43.83000
C  3.87300 -4.02000 44.41400
C  5.32400 -4.17900 44.69800
C  5.89300 -2.93300 44.14400
C  4.81700 -2.17400 43.59700
C  5.87100 -5.43000 45.25500
C  7.07900 -2.18900 43.85200
O  8.29800 -2.47400 43.97100
C  6.68200 -0.84500 43.19900
C  7.10300 0.26900 44.08200
O  8.21500 0.82100 43.98300
O  6.16200 0.64000 45.05400
C  6.49200 1.79900 45.81300
H  0.82800 1.91400 40.68400
H  -2.25500 -3.46800 42.51700
H  3.11200 -5.93900 44.90700
H  5.30200 1.85400 42.46400
H  3.25300 1.84500 40.06100
H  3.96400 3.63100 42.48400
H  2.31100 3.35400 42.18600
H  3.26300 4.11100 40.87900
H  6.89000 1.24300 41.01600
H  5.93300 2.29400 40.06600
H  5.47200 -0.67900 40.03300
H  7.02900 -0.21400 39.50000
H  -2.42200 1.59100 39.70200
H  -1.12200 2.52600 40.39200
H  -2.57700 2.29300 41.28700
H  -5.52900 -1.63700 42.25000
H  -4.10600 -2.18000 43.16900
H  -4.30300 -2.79100 41.48100
H  -1.29500 -5.85900 42.94300
H  0.27100 -5.93200 45.56900
H  -2.33300 -4.17400 45.08700
H  -2.04200 -5.85500 45.65500
H  -3.08800 -5.49200 44.24300
H  1.74000 -7.29700 43.54100
H  0.33600 -7.28500 42.74200
H  -0.29100 -9.26900 43.92000
H  -0.71700 -8.21900 45.26200
H  0.86700 -8.91400 45.13900
H  5.77300 -6.23200 44.52300
H  5.18600 -5.68600 46.06300
H  6.85700 -5.34700 45.71300
H  7.09700 -0.79400 42.19200
H  7.13400 1.53400 46.65300
H  5.56500 2.16300 46.25600
H  6.96500 2.58100 45.22000
Mg -11.06200 38.76200 41.36100
C  -9.19800 36.10000 40.07800
C  -8.93800 40.87400 39.65900
C  -13.28600 41.32000 41.72700
C  -13.46300 36.50700 42.36300
N  -9.23300 38.49900 39.98300
C  -8.66000 37.33700 39.64500
C  -7.40700 37.52600 38.84700
C  -7.20500 39.12100 38.91700
C  -8.50700 39.53300 39.58500
C  -5.92300 39.62700 39.52100
C  -7.42700 36.88400 37.37800
C  -6.19400 35.98600 37.05200
H  -5.42100 36.21600 35.69700
N  -11.16900 40.74200 40.75300
C  -10.12000 41.45000 40.15800
C  -10.44600 42.81100 40.09300
C  -11.75100 42.96400 40.58500
C  -12.10700 41.66200 41.05300
C  -9.54100 43.95100 39.56500
C  -12.50900 44.30100 40.53500
O  -12.03300 45.33700 40.07500
C  -13.95700 44.32500 40.88100
N  -13.22500 38.86600 41.84900
C  -13.71200 40.09200 42.16800
C  -15.03000 39.93100 42.87900
C  -15.03400 38.41300 43.28500
C  -13.83100 37.87100 42.46900
C  -15.11700 41.07800 43.98100
C  -16.38800 37.68000 42.92900
C  -17.49300 37.63200 43.95900
N  -11.30400 36.62700 41.34600
C  -12.35800 35.88800 41.83900
C  -11.96500 34.55600 41.71300
C  -10.74700 34.58400 40.99600
C  -10.41500 35.88000 40.79100
C  -12.68100 33.35400 42.33300
C  -9.69200 33.68900 40.43600
O  -9.58100 32.48900 40.49300
C  -8.61800 34.65200 39.70900
C  -7.28700 34.46800 40.36800
O  -6.37700 33.87400 39.83700
O  -7.15900 35.02500 41.59800
C  -5.90700 34.80400 42.27400
H  -8.13600 41.46700 39.21600
H  -13.97400 42.10100 42.05800
H  -14.28200 35.92900 42.79700
H  -6.63200 37.09300 39.47900
H  -7.13500 39.35600 37.85500
H  -6.26100 39.85300 40.53200
H  -5.55400 40.53300 39.04000
H  -5.11800 38.90200 39.63800
H  -7.37700 37.58100 36.54100
H  -8.28000 36.21200 37.28900
H  -6.47300 34.93400 36.99500
H  -5.47200 36.03000 37.86800
H  -9.82900 44.30700 38.57500
H  -8.50400 43.62100 39.51200
H  -9.61800 44.77300 40.27600
H  -13.98000 44.31000 41.97100
H  -14.54800 43.54500 40.40300
H  -14.38500 45.27000 40.54500
H  -15.70400 40.17400 42.05800
H  -14.88100 38.36300 44.36300
H  -14.08100 41.19700 44.29900
H  -15.69900 40.81500 44.86400
H  -15.47100 42.03500 43.59900
H  -16.27100 36.64800 42.59900
H  -16.78300 38.14400 42.02500
H  -17.62400 36.58500 44.23000
H  -18.35500 38.07500 43.46000
H  -17.25900 38.14900 44.89000
H  -12.47800 32.50700 41.67700
H  -13.75700 33.50700 42.41800
H  -12.37700 33.11100 43.35200
H  -8.58700 34.54500 38.62500
H  -5.00400 34.69300 41.67400
H  -6.08900 33.88300 42.82900
H  -5.78900 35.55400 43.05600

