158

Mg -0.67600 -3.08400 43.63200
C  2.94600 -3.19500 43.39300
C  -0.53400 -0.33200 41.87400
C  -4.00500 -3.26400 43.56300
C  -0.50800 -6.34600 45.06800
N  1.07100 -1.85500 42.78900
C  2.40200 -2.03800 42.76700
C  3.13700 -0.79500 42.13400
C  1.93900 0.19800 41.86000
C  0.76300 -0.70200 42.26400
C  1.96500 1.54800 42.79200
C  4.02900 -1.20200 40.89700
C  5.23000 -0.22400 40.80300
H  5.37500 0.68900 39.55700
N  -2.07200 -1.93900 42.80500
C  -1.82700 -0.80500 42.08000
C  -3.02500 -0.27600 41.64000
C  -4.03900 -1.22100 42.00500
C  -3.33800 -2.24700 42.82500
C  -3.32000 1.03300 41.03500
C  -5.52800 -1.14000 41.67500
O  -6.02000 -0.06300 41.22500
C  -6.44900 -2.22300 41.96700
N  -2.12200 -4.71700 44.04400
C  -3.45500 -4.43400 44.11300
C  -4.22500 -5.55000 44.80800
C  -3.07400 -6.41800 45.35300
C  -1.79700 -5.81100 44.80700
C  -5.12500 -5.00000 45.98200
C  -3.20000 -7.89200 45.03200
C  -3.66400 -8.73900 46.19400
N  0.82100 -4.53500 44.04900
C  0.67600 -5.80500 44.64500
C  1.95200 -6.27300 44.97200
C  2.87700 -5.35100 44.40000
C  2.15800 -4.29700 43.92000
C  2.19500 -7.56000 45.74600
C  4.30500 -4.95300 44.26900
O  5.32100 -5.37400 44.75500
C  4.35200 -3.67200 43.42700
C  5.35100 -2.71400 44.02300
O  5.37700 -2.31000 45.18800
O  6.33100 -2.41500 43.12800
C  7.39700 -1.57800 43.59700
H  -0.71700 0.59200 41.32200
H  -5.09400 -3.21400 43.63200
H  -0.51700 -7.29900 45.60100
H  3.81400 -0.41900 42.90200
H  1.71300 0.41200 40.81500
H  1.16300 1.54200 43.53000
H  2.05100 2.43100 42.15800
H  2.79400 1.38900 43.48100
H  3.54300 -1.13000 39.92400
H  4.32300 -2.24900 40.98100
H  6.10800 -0.86600 40.86400
H  5.34000 0.34500 41.72600
H  -4.27900 1.52200 41.20700
H  -3.16000 0.97000 39.95900
H  -2.52000 1.73600 41.26900
H  -5.95700 -3.18200 41.80600
H  -7.15000 -2.20900 41.13300
H  -6.92300 -2.14600 42.94600
H  -4.78800 -6.08400 44.04200
H  -2.94000 -6.19700 46.41200
H  -5.34600 -3.94200 45.83900
H  -4.63200 -5.08500 46.95100
H  -6.12100 -5.42800 46.09300
H  -2.18200 -8.21400 44.81200
H  -3.89000 -8.04800 44.20300
H  -3.98800 -8.16700 47.06300
H  -2.87100 -9.32400 46.66100
H  -4.52300 -9.34000 45.89600
H  3.22100 -7.65300 46.10200
H  1.98900 -8.33200 45.00500
H  1.49100 -7.54900 46.57800
H  4.60000 -3.96800 42.40700
H  6.96200 -0.59100 43.43900
H  8.30600 -1.60500 42.99700
H  7.70000 -1.76500 44.62700
Mg 9.79900 47.36900 26.29200
C  7.60700 47.71900 28.92100
C  12.33300 48.35300 28.43000
C  11.86400 47.43500 23.68400
C  7.07000 47.27800 24.03900
N  9.85600 48.16500 28.32600
C  8.87200 48.06700 29.24900
C  9.41800 48.23400 30.70300
C  10.81200 48.87400 30.43600
C  11.04700 48.43700 28.97800
C  10.77200 50.42600 30.57400
C  9.47400 46.93400 31.53600
C  10.47800 46.96200 32.75800
H  10.08400 46.08100 34.00800
N  11.89000 47.64500 26.10000
C  12.75600 47.98500 27.10500
C  14.08300 48.11300 26.58200
C  13.95900 47.71200 25.18700
C  12.53400 47.60700 24.94300
C  15.34400 48.56000 27.35800
C  15.06300 47.47500 24.23200
O  14.87500 47.01300 23.13800
C  16.49300 47.50900 24.69100
N  9.47800 47.40000 24.19200
C  10.51600 47.39700 23.31800
C  10.14500 47.38000 21.87000
C  8.60200 47.12600 21.97500
C  8.35200 47.22000 23.46600
C  10.47000 48.61200 21.06100
C  8.13800 45.79200 21.27300
C  7.48500 45.92600 19.86100
N  7.72300 47.49700 26.35100
C  6.66800 47.51000 25.40300
C  5.41500 47.39800 26.09300
C  5.72200 47.34900 27.47900
C  7.16200 47.51500 27.58400
C  4.18200 47.43300 25.35600
C  5.18700 47.27000 28.76600
O  4.03400 47.24300 29.19800
C  6.37700 47.39400 29.78500
C  6.61700 46.04900 30.42200
O  7.11200 45.10000 29.81300
O  6.18300 46.01100 31.80600
C  6.49700 44.71400 32.51300
H  13.17100 48.54100 29.10400
H  12.57700 47.44200 22.85800
H  6.17300 47.07200 23.45100
H  8.85000 48.96800 31.27500
H  11.60000 48.42200 31.03800
H  10.10200 50.72000 31.38200
H  10.46500 51.00100 29.70000
H  11.76600 50.72600 30.90400
H  9.63400 46.05500 30.91200
H  8.49200 46.67200 31.93100
H  10.47400 47.99600 33.10400
H  11.42200 46.65200 32.31000
H  15.13800 48.82600 28.39500
H  15.75900 49.44000 26.86600
H  16.12100 47.80300 27.25300
H  16.65700 48.51000 25.09000
H  17.01200 47.30000 23.75500
H  16.73000 46.67500 25.35100
H  10.57900 46.46400 21.46900
H  7.97500 47.93400 21.59900
H  9.58000 49.22000 20.89900
H  11.04300 48.46000 20.14600
H  11.05800 49.25200 21.71900
H  7.35300 45.42200 21.93300
H  8.94600 45.06400 21.34800
H  7.44800 46.97600 19.57000
H  6.50700 45.45300 19.76900
H  8.13300 45.49400 19.09900
H  3.75100 46.43300 25.31000
H  4.31900 47.66200 24.29900
H  3.46000 48.01800 25.92600
H  6.14000 48.24700 30.42100
H  6.45300 44.75900 33.60100
H  7.50500 44.31800 32.39100
H  5.72900 43.98800 32.24600

