158

Mg 30.10000 57.19100 41.39900
C  27.34300 55.35500 40.36400
C  32.08700 54.69500 40.37700
C  32.50700 59.43200 41.56500
C  27.88000 59.72700 42.66500
N  29.70300 55.39700 40.39000
C  28.51200 54.78200 40.04100
C  28.74800 53.44700 39.28700
C  30.14700 53.02000 39.82500
C  30.74100 54.46200 40.27300
C  30.14600 51.95300 40.91700
C  28.62300 53.52400 37.67000
C  27.63500 52.55400 36.94400
H  26.59700 53.12600 35.98100
N  32.02700 57.11100 40.95300
C  32.68100 55.92500 40.65400
C  34.11300 56.21000 40.63300
C  34.24400 57.59600 40.94600
C  32.92000 58.13800 41.18600
C  35.16800 55.18500 40.38100
C  35.55300 58.29400 41.00700
O  36.54700 57.68000 40.67600
C  35.69600 59.70700 41.39000
N  30.11700 59.40000 41.90600
C  31.24600 60.01200 41.84200
C  31.14400 61.54500 42.13200
C  29.73600 61.56600 42.87400
C  29.17800 60.12500 42.42600
C  32.33400 62.44000 42.68500
C  28.73300 62.72500 42.53700
C  28.10300 62.80900 41.05100
N  27.99700 57.44800 41.53000
C  27.26900 58.48100 42.17300
C  25.86500 58.03700 42.24700
C  25.82700 56.81000 41.44300
C  27.15900 56.51900 41.10600
C  24.63500 58.64000 42.87000
C  24.98300 55.75100 41.03100
O  23.79800 55.54600 41.14000
C  25.96000 54.76100 40.26600
C  25.87100 53.39300 40.90600
O  26.23700 53.10700 42.06200
O  25.27600 52.56100 39.98800
C  25.34800 51.14900 40.33400
H  32.77800 53.86300 40.22800
H  33.33600 60.14000 41.50200
H  27.17400 60.35800 43.20800
H  28.05600 52.73300 39.73400
H  30.70400 52.49200 39.05100
H  30.70700 52.40100 41.73700
H  30.59600 51.05200 40.50000
H  29.13000 51.73500 41.24600
H  29.62200 53.40100 37.25100
H  28.26900 54.47800 37.28000
H  27.07000 51.89900 37.60700
H  28.28300 51.96300 36.29700
H  35.89000 55.68000 39.73100
H  34.70800 54.39200 39.79100
H  35.68300 54.93500 41.30800
H  35.13000 59.98700 42.27900
H  35.23500 60.32900 40.62300
H  36.75600 59.88600 41.57200
H  30.95100 62.13000 41.23300
H  29.89500 61.51500 43.95100
H  32.74300 61.78300 43.45300
H  31.84700 63.27400 43.19000
H  32.93800 62.81800 41.86100
H  29.12100 63.68500 42.88000
H  27.87400 62.51500 43.17500
H  27.17400 62.24500 40.97500
H  28.81600 62.32700 40.38300
H  28.00200 63.84100 40.71400
H  24.08100 59.32200 42.22500
H  25.14200 59.29100 43.58200
H  23.99700 57.83300 43.22900
H  25.61900 54.78900 39.23100
H  26.37700 50.81700 40.20200
H  24.79500 50.62900 39.55200
H  24.84000 50.97600 41.28400
Mg -12.54600 16.80400 42.32100
C  -9.65900 14.78900 41.61300
C  -10.98600 19.39000 40.70900
C  -15.53500 18.22800 41.96300
C  -14.24400 13.81900 43.22500
N  -10.54400 16.98300 41.22200
C  -9.53600 16.12800 41.15900
C  -8.31900 16.69900 40.43500
C  -8.72800 18.19800 40.56800
C  -10.23900 18.18900 40.78100
C  -7.88200 18.91500 41.73100
C  -8.09000 16.07300 39.04000
C  -6.64600 15.90400 38.57900
H  -6.33200 16.82500 37.46000
N  -13.13100 18.58900 41.56300
C  -12.35400 19.59700 41.01000
C  -13.10300 20.74700 40.71400
C  -14.44500 20.47600 41.10600
C  -14.42100 19.04300 41.58000
C  -12.58200 21.99900 40.19600
C  -15.66800 21.44900 41.07800
O  -15.62800 22.48400 40.45500
C  -16.96500 21.04000 41.63600
N  -14.61100 16.10200 42.83100
C  -15.62100 16.96800 42.52300
C  -16.99200 16.33800 42.79700
C  -16.55600 14.91000 43.32200
C  -15.04100 14.94700 43.14100
C  -18.06200 17.08900 43.62200
C  -17.30900 13.58200 42.83800
C  -17.89500 12.71200 43.99500
N  -12.15200 14.71900 42.41700
C  -12.87900 13.65400 42.86000
C  -12.10300 12.40400 42.79100
C  -10.79100 12.82900 42.37400
C  -10.90100 14.22500 42.09200
C  -12.51600 10.99500 43.17500
C  -9.43200 12.37400 42.14200
O  -8.92100 11.28000 42.35600
C  -8.67600 13.56700 41.51300
C  -7.50700 13.80700 42.43000
O  -7.48600 13.99400 43.66400
O  -6.44000 13.75500 41.56000
C  -5.12600 14.02300 42.10900
H  -10.50000 20.34700 40.51000
H  -16.46100 18.70200 41.62900
H  -14.76700 12.89100 43.46600
H  -7.40200 16.54200 41.00200
H  -8.56400 18.76000 39.64900
H  -7.13400 19.48000 41.17400
H  -7.42600 18.29800 42.50500
H  -8.56200 19.65600 42.15200
H  -8.38000 16.88400 38.37200
H  -8.61500 15.15700 38.77100
H  -6.43400 14.87800 38.27900
H  -5.89300 16.15400 39.32700
H  -12.93700 22.09600 39.17000
H  -11.50500 22.15600 40.25700
H  -13.02900 22.73200 40.86700
H  -17.56600 21.94700 41.69800
H  -16.86400 20.55500 42.60700
H  -17.55300 20.39900 40.97900
H  -17.58100 16.12400 41.90500
H  -16.60000 15.01500 44.40600
H  -17.62300 18.02100 43.97900
H  -18.28100 16.44900 44.47700
H  -18.92500 17.27500 42.98300
H  -16.76700 12.90100 42.18200
H  -18.16500 13.84900 42.21900
H  -18.97400 12.85000 43.91900
H  -17.52700 13.01800 44.97400
H  -17.60300 11.66800 43.88400
H  -12.68700 10.95100 44.25000
H  -11.80000 10.33300 42.68600
H  -13.49700 10.84300 42.72400
H  -8.23100 13.46100 40.52300
H  -5.03300 13.62600 43.12100
H  -4.88900 15.07900 42.23600
H  -4.26500 13.62400 41.57400

