158

Mg -1.84400 17.41700 26.71400
C  -2.26700 15.16300 29.53900
C  -2.51200 19.92500 29.01200
C  -1.65900 19.38700 24.32000
C  -1.77600 14.59600 24.69100
N  -2.56400 17.48400 28.99500
C  -2.54500 16.46500 29.93700
C  -2.75900 17.01500 31.36800
C  -2.96200 18.57000 31.13200
C  -2.68700 18.69900 29.60400
C  -4.37100 19.00400 31.60500
C  -1.54300 16.67200 32.31300
C  -1.52900 17.43800 33.64200
H  -1.44100 16.67800 34.98300
N  -1.94300 19.38100 26.67800
C  -2.19600 20.26500 27.67900
C  -2.06800 21.65100 27.15800
C  -1.85300 21.52400 25.76500
C  -1.82800 20.04700 25.48300
C  -2.22000 22.86900 28.05400
C  -1.63200 22.58700 24.67600
O  -1.57900 22.32400 23.49400
C  -1.48900 23.98600 25.05200
N  -1.54900 17.04800 24.71200
C  -1.56200 18.07900 23.89000
C  -1.20500 17.67300 22.41700
C  -1.01000 16.11700 22.60500
C  -1.43100 15.86100 24.07700
C  -2.31300 18.00900 21.31700
C  0.39500 15.56000 22.27900
C  1.47000 15.38100 23.40900
N  -1.88900 15.37700 26.97600
C  -1.87600 14.33600 26.04500
C  -2.05600 13.04200 26.62300
C  -2.17600 13.34300 27.99100
C  -2.02600 14.75400 28.19100
C  -2.15200 11.68400 26.04600
C  -2.25500 12.73600 29.29500
O  -2.34800 11.54600 29.59400
C  -2.29000 13.83200 30.29700
C  -1.00600 13.64100 31.15200
O  -0.05100 14.31300 30.86900
O  -1.09900 12.73500 32.15900
C  -0.11400 12.81700 33.24100
H  -2.34900 20.74400 29.71500
H  -1.54500 19.98900 23.41600
H  -1.89700 13.71400 24.05800
H  -3.61300 16.54400 31.85500
H  -2.24300 19.17800 31.68100
H  -4.99600 18.12200 31.74000
H  -4.83100 19.69300 30.89700
H  -4.36800 19.63100 32.49700
H  -0.62000 16.98200 31.82100
H  -1.53700 15.60600 32.53900
H  -2.50200 17.92500 33.56700
H  -0.81800 18.26300 33.62800
H  -1.20300 23.14200 28.33500
H  -2.93500 22.63700 28.84300
H  -2.79300 23.60200 27.48600
H  -2.43000 24.40300 25.41200
H  -1.12700 24.48500 24.15400
H  -0.71500 24.13800 25.80500
H  -0.32900 18.11700 21.94500
H  -1.66500 15.59100 21.91100
H  -3.10300 17.26800 21.44200
H  -1.93500 17.90500 20.30000
H  -2.81600 18.97100 21.42200
H  0.76200 16.21100 21.48500
H  0.25200 14.63800 21.71500
H  0.98800 15.22500 24.37400
H  2.29800 16.07900 23.53800
H  1.96800 14.45700 23.11700
H  -1.48900 11.63100 25.18300
H  -3.15800 11.58000 25.63800
H  -1.83500 10.96700 26.80400
H  -3.11700 13.64500 30.98200
H  0.86600 13.23600 33.01200
H  0.10400 11.80400 33.57900
H  -0.51600 13.47100 34.01500
Mg -1.71500 34.08300 27.05100
C  -3.57900 32.28200 29.35600
C  -0.24600 35.86100 29.67300
C  -0.24500 36.21400 24.78200
C  -3.35900 32.61000 24.44200
N  -1.99700 34.24400 29.17300
C  -2.73000 33.25400 29.90100
C  -2.50400 33.41200 31.38600
C  -1.57400 34.65200 31.43000
C  -1.24600 34.92000 30.01300
C  -2.26600 35.81200 32.13000
C  -1.89300 32.06800 31.84400
C  -2.59900 31.41200 32.99000
H  -2.04200 31.41600 34.45600
N  -0.23300 35.70500 27.20000
C  0.27600 36.19400 28.39400
C  1.32300 37.13300 28.04500
C  1.25300 37.31200 26.58700
C  0.18900 36.44400 26.14800
C  2.21200 37.83000 29.14500
C  2.06600 38.29300 25.75100
O  1.86900 38.43600 24.57800
C  3.02100 39.11200 26.36200
N  -1.86300 34.46300 24.93200
C  -1.22700 35.40200 24.28700
C  -1.72100 35.56300 22.81100
C  -2.50400 34.25600 22.60000
C  -2.62300 33.74400 24.05500
C  -2.56400 36.83600 22.53500
C  -1.64500 33.22600 21.78000
C  -2.44000 32.65100 20.60000
N  -3.05500 32.65400 26.86000
C  -3.60800 32.10000 25.75200
C  -4.49400 31.02000 26.15200
C  -4.54800 31.13000 27.53900
C  -3.65500 32.09100 27.92800
C  -5.24400 30.14600 25.23500
C  -5.08200 30.47300 28.69000
O  -5.86800 29.51600 28.78000
C  -4.52000 31.25000 29.95800
C  -5.75700 31.81900 30.63400
O  -6.65800 32.36400 30.05600
O  -5.88200 31.39700 32.00800
C  -6.80900 32.14000 32.91500
H  0.17700 36.31700 30.57000
H  0.28900 36.88500 24.10600
H  -3.80100 32.20900 23.52800
H  -3.50900 33.56800 31.77900
H  -0.63100 34.61100 31.97500
H  -1.83100 36.74900 31.78200
H  -2.01300 35.67800 33.18100
H  -3.33500 35.74600 31.93000
H  -0.88700 32.21700 32.23600
H  -1.83300 31.28700 31.08600
H  -2.76900 30.37600 32.69600
H  -3.58000 31.87200 33.10700
H  2.00800 37.61700 30.19400
H  2.14200 38.91800 29.17200
H  3.26200 37.61000 28.95100
H  3.78900 38.53000 26.87100
H  2.39900 39.67300 27.05900
H  3.46500 39.86300 25.70700
H  -0.85400 35.66100 22.15800
H  -3.52800 34.35600 22.23900
H  -3.59700 36.63700 22.24800
H  -1.99100 37.30700 21.73600
H  -2.53400 37.49800 23.40000
H  -1.35800 32.37700 22.40100
H  -0.68500 33.67500 21.52800
H  -2.33900 33.30500 19.73400
H  -3.51600 32.60600 20.76800
H  -1.92100 31.70400 20.45500
H  -4.73100 29.71000 24.37800
H  -6.10700 30.67700 24.83400
H  -5.60000 29.21300 25.67200
H  -3.88200 30.58000 30.53400
H  -6.25000 32.79400 33.58500
H  -7.55900 31.55500 33.44700
H  -7.38700 32.91100 32.40500

