158

Mg 41.31900 40.72000 26.47000
C  40.80100 43.14100 29.14000
C  42.75800 38.79100 28.95600
C  42.15800 38.69400 24.15400
C  40.57500 43.35000 24.24200
N  41.69600 41.00600 28.79900
C  41.27100 41.97000 29.65600
C  41.42900 41.59300 31.13000
C  42.30900 40.28700 30.93900
C  42.30400 39.97600 29.43900
C  43.73300 40.47000 31.42800
C  40.09300 41.63000 31.89500
C  40.19500 40.90700 33.28000
H  39.51000 41.51600 34.51300
N  42.05600 38.92400 26.58700
C  42.66000 38.26300 27.71500
C  43.13200 36.94300 27.33800
C  42.97700 36.85900 25.91600
C  42.39200 38.18200 25.45500
C  43.69400 35.94100 28.29700
C  43.41700 35.74300 24.98900
O  43.30100 35.87000 23.75200
C  44.04200 34.47100 25.52400
N  41.52500 41.02500 24.48500
C  41.78800 39.96600 23.65500
C  41.41200 40.31600 22.16400
C  40.87000 41.80300 22.25100
C  41.00600 42.08000 23.74600
C  42.61100 40.18500 21.19200
C  39.37600 41.85400 21.84900
C  38.37400 41.17400 22.86500
N  40.72500 42.81100 26.54200
C  40.60200 43.74200 25.57700
C  40.28400 45.05900 26.13700
C  40.36600 44.87300 27.51100
C  40.61000 43.42800 27.73400
C  39.98400 46.30000 25.31200
C  40.21900 45.52400 28.78400
O  39.78800 46.62200 29.01400
C  40.58500 44.49500 29.83600
C  41.78000 44.93500 30.57100
O  42.90800 44.96700 30.05100
O  41.53500 45.30600 31.83900
C  42.73800 45.59700 32.65400
H  43.22800 38.14100 29.69800
H  42.11600 37.82600 23.49300
H  40.21000 44.10900 23.54600
H  42.01600 42.38500 31.59400
H  41.82800 39.46000 31.46100
H  44.45500 40.31400 30.62600
H  43.81100 39.68900 32.18400
H  43.82900 41.45700 31.88000
H  39.41800 41.03100 31.28500
H  39.75700 42.66600 31.95200
H  41.25600 40.76800 33.48800
H  39.86900 39.88200 33.10100
H  43.29300 34.95300 28.07100
H  43.28600 36.11400 29.29300
H  44.77600 35.99500 28.18000
H  44.81800 34.59400 26.28000
H  44.42400 33.83500 24.72500
H  43.17800 33.89400 25.85400
H  40.68800 39.56100 21.85800
H  41.56500 42.38800 21.64800
H  43.45000 39.93000 21.83900
H  42.97400 41.08100 20.68900
H  42.49300 39.40400 20.44100
H  39.31600 41.60100 20.79100
H  39.09400 42.90700 21.83400
H  37.71800 41.96100 23.23600
H  38.77800 40.76900 23.79200
H  37.72500 40.41200 22.43200
H  40.37700 47.20700 25.77000
H  38.90400 46.44400 25.27100
H  40.38000 46.10300 24.31500
H  39.73100 44.49100 30.51400
H  43.19500 46.46300 32.17400
H  43.42600 44.75400 32.59300
H  42.44600 45.81200 33.68200
Mg 35.48700 49.12000 26.47500
C  35.83200 46.77100 29.05800
C  34.34200 51.41500 28.70300
C  34.47200 50.98500 23.82900
C  36.03800 46.49900 24.28700
N  35.06500 49.01500 28.67400
C  35.48200 48.03500 29.51900
C  35.41400 48.52100 30.94300
C  34.61700 49.91700 30.84400
C  34.61800 50.13900 29.30500
C  33.23200 50.09000 31.43000
C  36.79700 48.70600 31.63600
C  36.80300 48.30800 33.15800
H  36.69200 49.43100 34.24600
N  34.67700 50.98900 26.31000
C  34.35000 51.79400 27.29500
C  33.85000 53.06800 26.75800
C  33.96400 53.01500 25.34100
C  34.43300 51.65300 25.08700
C  33.12300 54.15700 27.60800
C  33.54600 54.12500 24.29600
O  33.36600 53.90000 23.10400
C  33.18000 55.48000 24.81900
N  35.40200 48.78000 24.42600
C  34.83500 49.70400 23.53400
C  34.84400 49.18000 22.04700
C  35.57000 47.80100 22.23800
C  35.72000 47.68500 23.74600
C  33.44200 49.14100 21.28100
C  36.88700 47.54200 21.47200
C  36.78000 46.64300 20.17000
N  35.89200 47.09300 26.56800
C  36.14900 46.10400 25.59200
C  36.58100 44.83800 26.16500
C  36.48000 45.03900 27.55100
C  36.05900 46.43300 27.70100
C  36.89200 43.61700 25.36000
C  36.62100 44.52100 28.93400
O  36.89900 43.40600 29.34200
C  36.33900 45.68800 29.90000
C  35.28700 45.30900 30.92200
O  34.08100 45.22100 30.87700
O  35.96400 44.95100 32.07200
C  35.18700 44.69400 33.24400
H  34.05600 52.25000 29.34600
H  33.92900 51.62600 23.13100
H  36.18900 45.58300 23.71100
H  34.83500 47.81200 31.53400
H  35.25300 50.62700 31.37400
H  33.16000 50.95700 32.08600
H  32.85700 49.18400 31.90400
H  32.52300 50.38600 30.65600
H  37.01900 49.77200 31.57600
H  37.56100 48.22700 31.02200
H  37.72300 47.73900 33.29100
H  35.92900 47.67000 33.29000
H  33.62900 55.12200 27.62400
H  33.06400 53.83300 28.64700
H  32.09800 54.28900 27.26000
H  33.02200 56.15800 23.98100
H  34.15000 55.78700 25.21000
H  32.39700 55.49700 25.57700
H  35.49100 49.86100 21.49400
H  34.87700 47.01100 21.94700
H  32.69200 49.69500 21.84700
H  33.00200 48.16900 21.06000
H  33.56500 49.79400 20.41700
H  37.58000 47.20900 22.24500
H  37.32100 48.46600 21.09100
H  37.85700 46.52500 20.05000
H  36.35800 47.10600 19.27800
H  36.43300 45.61000 20.19400
H  37.77200 43.85600 24.76300
H  36.12400 43.22100 24.69700
H  37.20100 42.72700 25.90900
H  37.25400 46.01500 30.39400
H  34.35900 45.39300 33.36300
H  35.82100 44.57200 34.12200
H  34.74500 43.70000 33.17800

