158

Mg 2.00400 -0.52900 44.32600
C  5.36800 -0.29300 43.32200
C  1.30700 2.09000 42.23900
C  -1.26600 -1.11300 44.69300
C  2.79700 -3.46000 46.03700
N  3.22000 0.78300 43.09400
C  4.54000 0.65700 42.77200
C  5.01800 1.68100 41.72400
C  3.69900 2.61700 41.55600
C  2.65400 1.81000 42.37800
C  3.86600 4.12400 41.85400
C  5.57800 1.12000 40.36100
C  6.84200 1.88500 39.79000
H  6.70800 2.56400 38.37700
N  0.21700 0.41200 43.62200
C  0.19600 1.51900 42.78900
C  -1.18100 1.79500 42.52100
C  -1.96900 0.88400 43.25500
C  -1.01300 -0.01800 43.91500
C  -1.65200 2.89200 41.69300
C  -3.50700 0.80500 43.20700
O  -4.18100 1.59800 42.60600
C  -4.19600 -0.43800 43.72300
N  0.99100 -2.13700 45.11400
C  -0.35200 -2.06200 45.24100
C  -0.98500 -3.18700 46.18800
C  0.33200 -4.08200 46.43100
C  1.44900 -3.15700 45.88200
C  -1.68000 -2.76000 47.50500
C  0.25400 -5.56500 45.89200
C  0.52600 -6.71700 46.91100
N  3.77300 -1.65300 44.82400
C  3.94700 -2.75300 45.55300
C  5.41200 -3.07500 45.53100
C  6.00600 -2.21500 44.65500
C  4.96100 -1.30200 44.26500
C  6.06200 -4.14600 46.27000
C  7.27500 -1.78900 44.13700
O  8.36400 -2.29300 44.17400
C  6.83400 -0.48800 43.16000
C  7.58800 0.64500 43.74200
O  7.34100 1.23200 44.75200
O  8.70800 0.95600 43.01900
C  9.19400 2.34800 43.14600
H  1.21000 2.90800 41.52200
H  -2.25500 -1.35500 45.08800
H  2.91500 -4.28800 46.74000
H  5.72900 2.29000 42.28100
H  3.26800 2.63000 40.55500
H  4.82600 4.60000 41.65500
H  3.51200 4.32400 42.86600
H  3.17000 4.59300 41.15900
H  4.77100 1.14500 39.62800
H  5.76900 0.04700 40.40000
H  7.75500 1.29100 39.83200
H  7.02400 2.70300 40.48700
H  -0.94800 3.13100 40.89700
H  -1.72100 3.84000 42.22800
H  -2.55900 2.69500 41.12200
H  -5.17200 -0.57600 43.25700
H  -4.32800 -0.26100 44.79000
H  -3.69900 -1.40000 43.60300
H  -1.67800 -3.76300 45.57500
H  0.55400 -4.10600 47.49800
H  -1.99700 -1.74100 47.28300
H  -1.04900 -2.72900 48.39400
H  -2.45600 -3.48900 47.74000
H  0.91000 -5.61500 45.02300
H  -0.75400 -5.77200 45.53100
H  1.28500 -7.37900 46.49400
H  -0.31600 -7.32700 47.23600
H  0.82100 -6.17600 47.81100
H  6.25500 -5.03100 45.66400
H  5.71700 -4.48700 47.24600
H  7.00400 -3.68300 46.56500
H  7.19700 -0.71000 42.15600
H  8.43500 3.00900 43.56400
H  9.57700 2.65800 42.17400
H  10.00200 2.28200 43.87400
Mg 47.04600 34.21600 28.24800
C  45.55100 32.47600 30.97700
C  47.32800 36.98800 30.40600
C  47.94400 36.02600 25.57200
C  46.02800 31.69500 26.25700
N  46.59800 34.62600 30.47700
C  46.02300 33.74600 31.32100
C  46.07900 34.40800 32.75300
C  46.19400 35.90700 32.39400
C  46.76400 35.83800 30.97800
C  44.90000 36.77200 32.51100
C  47.22500 33.94600 33.75100
C  46.79500 33.61100 35.25200
H  46.96800 34.73600 36.24400
N  47.70300 36.19300 28.07200
C  47.70000 37.19500 29.06600
C  48.11500 38.40900 28.38000
C  48.29000 38.13900 26.97900
C  48.05600 36.72100 26.83400
C  48.13500 39.83100 29.03700
C  48.58700 39.06300 25.85100
O  48.63900 38.67200 24.68900
C  48.93300 40.52500 26.20900
N  46.98000 33.87600 26.20100
C  47.37300 34.78000 25.33600
C  47.27100 34.23700 23.84500
C  46.78400 32.82500 24.03000
C  46.63800 32.76200 25.58100
C  46.43200 35.08800 22.82100
C  47.66200 31.76600 23.45400
C  46.93700 30.53000 23.13200
N  45.94600 32.46900 28.50200
C  45.77400 31.42300 27.58000
C  45.03800 30.35100 28.19900
C  44.95000 30.76300 29.52600
C  45.56400 32.01500 29.65200
C  44.43700 29.15800 27.44200
C  44.46300 30.33200 30.82200
O  43.75100 29.39700 31.13100
C  44.99000 31.37000 31.83100
C  45.67500 30.84600 32.97400
O  46.87900 30.55600 32.92400
O  44.79000 30.67900 33.95200
C  45.39800 30.12200 35.19300
H  47.29200 37.90800 30.99400
H  48.24400 36.46400 24.61700
H  45.71800 30.84600 25.64400
H  45.15300 34.19300 33.28600
H  46.94400 36.43700 32.98100
H  45.08900 37.50000 33.30100
H  44.10500 36.15000 32.92100
H  44.66100 37.11800 31.50500
H  48.00100 34.70500 33.84700
H  47.68800 33.07300 33.29100
H  47.23900 32.69700 35.64600
H  45.75200 33.29500 35.22900
H  47.34300 40.47300 28.65000
H  49.09100 40.32900 28.87800
H  47.97700 39.80800 30.11500
H  49.10500 41.13100 25.32000
H  49.81700 40.50500 26.84700
H  48.11300 41.09200 26.65100
H  48.29800 34.15600 23.48900
H  45.76900 32.79400 23.63400
H  45.71100 34.51500 22.23700
H  47.10000 35.67300 22.18900
H  45.92300 35.93000 23.29200
H  48.42800 31.50600 24.18400
H  48.19400 32.04600 22.54500
H  46.96800 30.42600 22.04700
H  45.88500 30.55400 23.41600
H  47.47200 29.66700 23.52700
H  43.51800 29.59100 27.04700
H  44.19400 28.32600 28.10300
H  45.08900 28.72100 26.68600
H  44.04000 31.79300 32.15900
H  45.47500 30.94000 35.91000
H  46.41200 29.72600 35.14600
H  44.61200 29.43000 35.49600

