158

Mg 0.08500 7.22200 26.96700
C  0.85700 9.43100 29.45400
C  -0.05400 4.61500 29.32500
C  -0.50200 5.03700 24.50200
C  0.20200 9.87400 24.70400
N  0.65400 7.07000 29.07500
C  0.81800 8.12300 29.96600
C  0.86400 7.67500 31.44200
C  0.79800 6.10100 31.29400
C  0.36000 5.92500 29.79100
C  2.15300 5.34800 31.41500
C  -0.31000 8.12200 32.32500
C  -0.02700 8.30700 33.84200
H  -0.71100 7.49300 35.02000
N  -0.21200 5.08100 26.86300
C  -0.24300 4.19300 27.93700
C  -0.52500 2.90300 27.48700
C  -0.60500 2.94700 26.01000
C  -0.42100 4.40200 25.72600
C  -0.73800 1.79300 28.43400
C  -0.84700 1.85000 25.00300
O  -0.76200 2.00500 23.82700
C  -0.89700 0.50500 25.55800
N  0.11100 7.40500 24.88800
C  -0.29100 6.34700 24.07500
C  -0.59400 6.81800 22.61900
C  -0.55900 8.32500 22.75600
C  -0.04200 8.58400 24.16500
C  0.45500 6.30000 21.66600
C  -1.89600 9.11000 22.49000
C  -1.73200 10.11400 21.39200
N  0.57600 9.20300 27.02300
C  0.65500 10.18600 25.98700
C  0.96300 11.40400 26.53100
C  1.10000 11.15300 27.87400
C  0.86300 9.83100 28.10400
C  1.15700 12.67500 25.74000
C  1.38600 11.74900 29.18800
O  1.67700 12.92600 29.48800
C  1.04500 10.73900 30.22400
C  2.22400 10.60100 31.08800
O  3.37500 10.28600 30.72900
O  1.93900 11.01800 32.34100
C  2.95300 11.28200 33.37100
H  -0.05800 3.92400 30.17000
H  -0.76500 4.40200 23.65400
H  -0.06000 10.66100 23.99300
H  1.81700 7.76700 31.96400
H  0.10400 5.57100 31.94700
H  2.09700 4.98300 32.44000
H  2.96000 6.01600 31.11300
H  2.17400 4.54800 30.67500
H  -1.07900 7.34900 32.30100
H  -0.80800 8.99300 31.90000
H  -0.03700 9.38900 33.97600
H  1.01300 8.07900 34.07500
H  -1.78100 1.53800 28.62000
H  -0.12000 1.93700 29.32100
H  -0.19900 0.98000 27.94600
H  -1.87000 0.22200 25.96100
H  0.01500 0.41700 26.14900
H  -0.72700 -0.13200 24.69000
H  -1.56900 6.54300 22.21800
H  0.27300 8.55200 22.09000
H  0.75100 7.05600 20.94000
H  0.03100 5.43200 21.16100
H  1.28000 6.12900 22.35800
H  -2.29600 9.57600 23.39000
H  -2.74100 8.48800 22.19700
H  -2.66000 10.10000 20.82100
H  -0.90400 9.83200 20.74100
H  -1.46200 11.10600 21.75300
H  1.94800 12.49000 25.01300
H  1.52700 13.42600 26.43800
H  0.24700 12.88500 25.17700
H  0.17900 11.04600 30.81200
H  3.76200 12.00100 33.24100
H  3.29200 10.28000 33.63400
H  2.50100 11.74500 34.24800
Mg -12.93700 16.03400 42.80900
C  -10.13300 14.03000 42.00600
C  -11.48700 18.58900 41.19400
C  -15.94400 17.49200 42.72400
C  -14.43200 12.90900 43.81300
N  -10.99400 16.18700 41.66200
C  -10.00300 15.32100 41.51500
C  -8.77600 16.05900 40.84000
C  -9.19300 17.52800 40.87700
C  -10.65600 17.43500 41.18500
C  -8.32300 18.59100 41.62400
C  -8.35100 15.43000 39.48900
C  -6.88300 15.08200 39.22600
H  -6.16200 15.84600 38.07300
N  -13.58700 17.93300 42.09900
C  -12.84400 18.83000 41.54100
C  -13.61700 20.02600 41.36600
C  -14.92500 19.78600 41.91300
C  -14.88500 18.36400 42.25700
C  -13.12600 21.25000 40.63000
C  -16.05500 20.75900 42.16700
O  -15.82100 21.90000 41.96300
C  -17.41800 20.33700 42.67600
N  -14.91400 15.32600 43.13300
C  -15.99000 16.14600 43.00000
C  -17.22500 15.39400 43.43100
C  -16.73500 13.88700 43.59000
C  -15.21400 14.04800 43.58900
C  -17.93500 15.91200 44.69600
C  -17.26400 12.83100 42.60700
C  -17.55500 11.48300 43.17700
N  -12.31700 13.98100 43.26500
C  -13.03000 12.81100 43.63900
C  -12.11900 11.69200 43.77100
C  -10.98700 12.14200 43.14000
C  -11.18400 13.52000 42.79300
C  -12.37400 10.31400 44.39500
C  -9.66500 11.77800 42.76900
O  -9.01500 10.82200 43.07100
C  -9.05900 12.95600 41.92400
C  -7.88000 13.39800 42.64000
O  -7.88500 13.87000 43.77900
O  -6.77700 13.15400 41.83200
C  -5.45900 13.44600 42.38500
H  -11.06400 19.47300 40.71300
H  -16.93600 17.94900 42.72000
H  -14.99900 11.99600 44.00700
H  -7.99400 15.96000 41.59200
H  -9.09800 17.98800 39.89400
H  -7.93700 19.30300 40.89400
H  -7.47200 18.03600 42.01800
H  -8.85200 19.09300 42.43300
H  -8.67600 16.10500 38.69700
H  -8.92500 14.52700 39.28000
H  -6.88600 14.05000 38.87700
H  -6.23600 15.19100 40.09700
H  -12.23900 21.60200 41.15600
H  -13.88800 22.03000 40.62200
H  -12.86900 20.95300 39.61300
H  -17.99300 19.67900 42.02500
H  -18.02500 21.20900 42.92000
H  -17.29500 19.84200 43.64000
H  -17.90200 15.44000 42.57800
H  -17.01100 13.58000 44.59900
H  -17.11600 16.27700 45.31600
H  -18.54600 15.28600 45.34700
H  -18.52000 16.79100 44.42700
H  -16.48400 12.73900 41.85100
H  -18.15400 13.23600 42.12500
H  -17.62000 11.44300 44.26400
H  -16.76200 10.82000 42.83000
H  -18.45200 11.14700 42.65700
H  -13.07100 10.43100 45.22500
H  -11.37800 10.00500 44.71300
H  -12.84800 9.59800 43.72300
H  -8.76300 12.62000 40.93000
H  -5.30300 14.49500 42.13400
H  -4.66100 12.82500 41.97900
H  -5.46400 13.37900 43.47300

