158

Mg 41.16200 8.62100 29.69600
C  43.00400 10.03100 32.38800
C  39.27100 6.99200 31.85200
C  39.92400 6.98000 27.08400
C  43.71700 9.94300 27.48900
N  41.11400 8.60900 31.87300
C  41.87700 9.27700 32.79400
C  41.37500 9.08800 34.25400
C  40.31700 7.94400 34.03400
C  40.28000 7.75200 32.48000
C  40.67500 6.56100 34.71900
C  40.86800 10.39800 34.85600
C  40.95200 10.43500 36.35200
H  40.92700 11.70300 37.11000
N  39.67600 7.30700 29.52200
C  38.95900 6.76800 30.52100
C  37.86400 5.94000 29.97300
C  38.06200 5.99200 28.58100
C  39.30700 6.76200 28.34800
C  36.86100 5.11700 30.85900
C  37.10800 5.35900 27.56400
O  37.44900 5.45000 26.39300
C  35.75500 4.89900 27.86100
N  41.76000 8.46400 27.61500
C  40.98400 7.75100 26.71800
C  41.36100 7.93500 25.27100
C  42.48600 9.02800 25.34900
C  42.65000 9.21300 26.86900
C  41.75300 6.59000 24.55100
C  42.10800 10.35500 24.63400
C  40.95000 11.22800 25.28400
N  43.11100 9.61100 29.88600
C  43.95100 10.13500 28.89200
C  44.96400 10.91700 29.57800
C  44.66000 10.97000 30.91700
C  43.49800 10.06700 31.05200
C  46.14900 11.58200 28.91600
C  45.01600 11.50700 32.27100
O  45.88300 12.30100 32.71200
C  43.88700 10.91500 33.27100
C  44.55000 10.27000 34.35400
O  45.35900 9.36200 34.39700
O  44.12300 10.83100 35.52200
C  44.51100 10.34300 36.86500
H  38.71100 6.62700 32.71400
H  39.47800 6.54100 26.18900
H  44.40000 10.37700 26.75600
H  42.21000 8.67700 34.82300
H  39.36300 8.19300 34.49700
H  41.65500 6.58300 35.19400
H  40.73200 5.81100 33.93000
H  39.88300 6.33700 35.43400
H  39.82000 10.42900 34.55700
H  41.36000 11.27600 34.43700
H  41.82500 9.86400 36.66800
H  40.07200 9.85600 36.63000
H  36.87500 4.11100 30.43800
H  35.83300 5.46200 30.74500
H  37.18000 4.97700 31.89200
H  35.40700 4.45000 26.93100
H  35.20700 5.77200 28.21600
H  35.76600 4.17400 28.67500
H  40.44800 8.37200 24.86600
H  43.37300 8.58400 24.89700
H  41.01800 6.02300 23.98000
H  41.95800 5.91100 25.37800
H  42.58200 6.75400 23.86200
H  41.84700 10.07600 23.61300
H  43.03700 10.92400 24.68000
H  40.55900 10.67400 26.13700
H  40.21800 11.44600 24.50600
H  41.38400 12.16300 25.64000
H  46.55500 12.45600 29.42500
H  45.94600 11.81800 27.87200
H  46.99000 10.88800 28.93700
H  43.26900 11.72200 33.66600
H  44.29100 9.30500 37.11700
H  43.86700 10.97200 37.48000
H  45.55900 10.55900 37.06900
Mg 8.63500 48.04600 26.05800
C  6.57600 48.04000 28.83500
C  11.35000 48.44500 28.32700
C  10.78100 48.75200 23.44100
C  5.93700 48.33500 24.01000
N  8.88200 48.19400 28.37100
C  7.91800 48.18700 29.28400
C  8.42900 48.38200 30.72400
C  9.96500 48.75300 30.45700
C  10.08600 48.39600 28.95700
C  10.16000 50.18500 30.78500
C  8.19900 47.11900 31.60900
C  9.23300 46.84300 32.71000
H  8.91400 45.82400 33.74000
N  10.79100 48.54300 25.85800
C  11.72800 48.47700 26.90000
C  13.04600 48.40300 26.36500
C  12.86100 48.55800 24.93500
C  11.41500 48.71300 24.70900
C  14.40400 48.33100 27.16300
C  13.90400 48.49800 23.74300
O  13.55000 48.72400 22.58600
C  15.34600 48.11300 23.99300
N  8.44700 48.39200 23.99500
C  9.41000 48.68400 23.14500
C  8.87700 48.74600 21.72300
C  7.31900 48.60300 21.88000
C  7.18600 48.37900 23.38000
C  9.29900 50.00700 20.89000
C  6.70800 47.38300 21.15900
C  5.25900 47.67100 20.74400
N  6.73300 48.03200 26.28900
C  5.71000 48.20200 25.39200
C  4.47700 48.03300 25.99500
C  4.75900 47.92400 27.39700
C  6.12800 47.98500 27.52300
C  3.19500 48.17800 25.28700
C  4.11600 47.92700 28.66800
O  2.90400 48.01300 28.90000
C  5.21700 47.98000 29.64200
C  5.06200 46.99100 30.71500
O  5.34300 45.80100 30.71500
O  4.61700 47.61300 31.79500
C  4.57600 46.74800 33.02200
H  12.20000 48.64500 28.98200
H  11.33500 48.79200 22.50000
H  5.06200 48.57800 23.40300
H  7.91400 49.25300 31.13000
H  10.76400 48.20800 30.96000
H  9.36100 50.80900 31.18800
H  10.39400 50.71900 29.86400
H  10.99700 50.30700 31.47200
H  8.02500 46.24000 30.98800
H  7.22900 47.16200 32.10600
H  9.61500 47.72900 33.21700
H  10.05200 46.38200 32.15800
H  14.86000 49.30100 26.96700
H  15.01200 47.45200 26.94600
H  14.18900 48.40600 28.22900
H  15.72700 48.83600 24.71400
H  15.92500 48.10500 23.07000
H  15.33400 47.16300 24.52800
H  9.29300 47.88000 21.20800
H  6.94200 49.57800 21.57000
H  9.99600 50.55500 21.52400
H  8.46500 50.60000 20.51600
H  9.83200 49.60700 20.02800
H  6.75900 46.50100 21.79700
H  7.22400 47.11100 20.23900
H  5.17500 47.63400 19.65800
H  4.97400 48.68700 21.01800
H  4.56400 47.00600 21.25600
H  2.86300 47.38300 24.61900
H  3.15800 49.10100 24.70800
H  2.42800 48.17800 26.06200
H  5.01000 48.97300 30.04200
H  3.53600 46.42600 33.07700
H  4.82500 47.42800 33.83600
H  5.30000 45.93600 33.08800

