158

Mg 8.69400 3.68200 27.24100
C  10.12300 1.98900 29.85100
C  6.94400 5.61800 29.42100
C  7.15300 5.08900 24.63200
C  9.77800 1.15700 25.02200
N  8.52100 3.72000 29.45300
C  9.40700 3.05800 30.30500
C  9.22400 3.58500 31.63300
C  8.05600 4.70800 31.57200
C  7.81500 4.72300 30.05500
C  6.79100 4.29500 32.40500
C  10.56100 4.13200 32.21600
C  11.08500 3.63100 33.56500
H  10.97800 4.69300 34.74300
N  7.36900 5.30000 27.01900
C  6.66700 5.96200 28.06600
C  5.82000 6.96300 27.59400
C  5.95100 6.88500 26.16200
C  6.87700 5.74800 25.85600
C  4.97100 7.85500 28.42800
C  5.37400 7.86400 25.02600
O  5.75600 7.76100 23.85800
C  4.42500 8.98000 25.36900
N  8.41700 3.17300 25.17300
C  7.86900 4.02100 24.32400
C  8.02700 3.47600 22.78000
C  9.07900 2.32900 22.94800
C  9.04900 2.19200 24.44700
C  6.71600 3.03600 22.05200
C  10.48700 2.56000 22.38200
C  11.22200 1.36700 21.83800
N  9.70500 1.87300 27.33100
C  10.17700 0.95400 26.36900
C  11.00500 -0.02200 27.00700
C  11.05100 0.40100 28.40600
C  10.19700 1.51500 28.52500
C  11.80100 -1.11200 26.39900
C  11.62500 0.15300 29.65200
O  12.33600 -0.76400 30.07000
C  10.99700 1.09000 30.64300
C  10.37800 0.24200 31.75400
O  9.50700 -0.58200 31.68800
O  11.03300 0.50100 32.89100
C  10.53300 -0.05500 34.16300
H  6.41200 6.35400 30.02700
H  6.62300 5.50100 23.77100
H  10.10500 0.32400 24.39700
H  8.99500 2.71900 32.25400
H  8.28100 5.72900 31.88000
H  6.02100 3.98900 31.69800
H  6.48500 5.14100 33.02100
H  7.05000 3.42000 33.00100
H  10.39700 5.20900 32.22000
H  11.36500 3.95100 31.50200
H  12.16500 3.54600 33.44200
H  10.61000 2.72200 33.93300
H  5.00000 7.67000 29.50200
H  3.93100 7.76300 28.11400
H  5.37100 8.86400 28.33200
H  3.49000 8.59200 25.77300
H  4.13800 9.53400 24.47600
H  4.99200 9.66700 25.99900
H  8.59700 4.22300 22.22600
H  8.74300 1.39800 22.49100
H  5.87000 3.41300 22.62700
H  6.65300 1.94900 21.99500
H  6.69300 3.42700 21.03500
H  11.17600 2.82400 23.18500
H  10.45500 3.31100 21.59300
H  12.23900 1.34900 22.22800
H  11.34900 1.34300 20.75600
H  10.74700 0.42200 22.10400
H  11.40800 -1.46500 25.44600
H  11.90900 -1.96200 27.07300
H  12.81400 -0.71000 26.37000
H  11.75600 1.67100 31.16700
H  9.62400 0.41200 34.54200
H  11.25700 0.15000 34.95200
H  10.37100 -1.13300 34.13700
Mg 17.39200 -1.52600 27.02600
C  16.25700 0.61600 29.52500
C  19.23600 -3.14300 29.24200
C  18.70600 -3.34200 24.42300
C  15.72800 0.51800 24.61300
N  17.95000 -1.05500 29.16100
C  17.18100 -0.31600 30.00300
C  17.45900 -0.59800 31.51100
C  18.66800 -1.66700 31.34300
C  18.62700 -2.03100 29.82900
C  19.99800 -0.96900 31.76400
C  16.25100 -1.13400 32.36600
C  16.26100 -0.78500 33.87900
H  17.50600 -0.12100 34.41900
N  18.64900 -3.16300 26.85300
C  19.22700 -3.72300 27.90200
C  19.88600 -4.91600 27.51900
C  19.85500 -4.98700 26.07200
C  19.05200 -3.80200 25.71800
C  20.59700 -5.87900 28.52300
C  20.48700 -5.97100 25.07100
O  20.19100 -5.84100 23.88900
C  21.50100 -6.95600 25.55300
N  17.05600 -1.52200 24.81500
C  17.87200 -2.23000 23.97800
C  17.87700 -1.66200 22.54200
C  16.74100 -0.57200 22.64900
C  16.47000 -0.54800 24.10800
C  19.20200 -1.16000 21.95700
C  15.60200 -0.74100 21.64000
C  14.18100 -0.98600 22.06700
N  16.18800 0.15100 27.00600
C  15.54700 0.78500 25.95800
C  14.63600 1.75100 26.56000
C  14.92600 1.78900 27.92500
C  15.92300 0.85700 28.16000
C  13.62400 2.63500 25.86600
C  14.54400 2.35700 29.23400
O  13.64000 3.15700 29.57000
C  15.41800 1.64300 30.35200
C  16.19500 2.75800 31.03900
O  17.36900 3.01300 30.72500
O  15.42100 3.28500 32.04000
C  16.30300 3.87900 33.11400
H  19.82100 -3.77300 29.91500
H  19.22400 -3.74900 23.55200
H  15.24900 1.19900 23.90700
H  17.69400 0.38900 31.91100
H  18.62900 -2.50400 32.03900
H  20.65300 -1.71400 32.21500
H  19.82800 -0.15100 32.46400
H  20.53600 -0.49200 30.94400
H  16.25200 -2.20600 32.56200
H  15.30800 -0.94000 31.85600
H  16.07900 -1.69800 34.44500
H  15.49800 -0.06100 34.16400
H  20.05100 -6.03700 29.45300
H  21.58400 -5.47800 28.75300
H  20.63900 -6.87400 28.08000
H  21.05100 -7.76200 26.13200
H  22.29000 -6.43500 26.09700
H  21.90400 -7.39300 24.64000
H  17.72200 -2.55200 21.93100
H  17.24200 0.39400 22.58800
H  19.15400 -0.09800 21.71700
H  19.35200 -1.74100 21.04700
H  19.93900 -1.35200 22.73700
H  15.89000 -1.50300 20.91600
H  15.52400 0.21800 21.12900
H  13.76300 -1.71200 21.37100
H  13.55500 -0.09500 22.00800
H  14.10400 -1.31700 23.10300
H  12.64700 2.57600 26.34500
H  13.55100 2.36800 24.81100
H  14.01800 3.65100 25.87800
H  14.83200 1.20900 31.16200
H  16.77300 4.73700 32.63300
H  17.07400 3.19900 33.47300
H  15.77000 4.25900 33.98600

