158

Mg -1.77900 17.55400 27.07200
C  -2.34200 15.24100 29.83200
C  -2.63000 20.04100 29.35800
C  -1.76800 19.65400 24.56000
C  -1.62700 14.76700 25.03800
N  -2.33100 17.70400 29.35500
C  -2.36200 16.62200 30.27600
C  -2.62700 17.12500 31.71000
C  -3.02700 18.56400 31.49300
C  -2.66700 18.83100 30.04000
C  -4.62600 18.70000 31.67600
C  -1.42800 16.77300 32.67900
C  -0.99700 17.70700 33.90400
H  -0.87000 16.91800 35.23200
N  -1.96000 19.54400 27.03600
C  -2.32600 20.35800 28.03300
C  -2.48200 21.69100 27.45300
C  -2.09300 21.63300 26.14700
C  -1.94400 20.22500 25.82800
C  -2.92400 23.00700 28.22400
C  -1.89200 22.70700 25.09900
O  -1.40900 22.57400 23.97500
C  -2.00700 24.16900 25.53400
N  -1.55400 17.23800 25.09300
C  -1.59700 18.27100 24.22300
C  -1.41200 17.79100 22.78900
C  -1.17800 16.26100 22.96800
C  -1.49800 16.03200 24.44200
C  -2.66700 18.10900 21.88200
C  0.30800 15.78900 22.70300
C  1.35200 16.58600 23.48500
N  -1.87700 15.46500 27.33700
C  -1.78000 14.41900 26.39700
C  -2.05300 13.16400 27.03200
C  -2.20600 13.48300 28.39800
C  -2.16400 14.85600 28.49700
C  -2.05800 11.91100 26.22900
C  -2.47500 12.76200 29.70700
O  -2.69600 11.63100 30.07400
C  -2.60500 13.98500 30.72700
C  -1.47400 13.66200 31.68500
O  -0.20600 13.85200 31.53800
O  -2.03000 13.09100 32.77500
C  -1.17100 12.62200 33.78500
H  -2.80900 20.88500 30.02700
H  -1.88800 20.40000 23.77100
H  -1.63200 13.95500 24.30800
H  -3.43500 16.49000 32.07200
H  -2.54500 19.31300 32.12200
H  -5.04300 17.70600 31.84200
H  -4.99600 18.88300 30.66700
H  -4.91000 19.41900 32.44400
H  -0.56800 16.76500 32.00800
H  -1.54500 15.79800 33.15100
H  -1.56100 18.61200 34.12900
H  0.08100 17.84600 33.81600
H  -2.12700 23.74400 28.31800
H  -3.22400 22.66600 29.21500
H  -3.81200 23.40500 27.73200
H  -2.99200 24.39500 25.94200
H  -1.95600 24.73300 24.60300
H  -1.13900 24.31600 26.17600
H  -0.60400 18.31900 22.28200
H  -1.96300 15.63600 22.54200
H  -2.32100 18.43200 20.90000
H  -3.29000 18.95500 22.17200
H  -3.36200 17.27300 21.79800
H  0.50800 15.87200 21.63400
H  0.50600 14.72500 22.83200
H  0.83700 17.32100 24.10300
H  2.01300 16.93000 22.69000
H  1.89200 15.83900 24.06700
H  -1.38300 12.09500 25.39300
H  -3.06700 11.70200 25.87200
H  -1.83200 11.11500 26.93900
H  -3.54900 14.09500 31.26100
H  -1.74800 11.90300 34.36700
H  -0.97900 13.53200 34.35300
H  -0.20300 12.30500 33.39500
Mg 16.68600 51.58700 26.81000
C  18.72100 49.62900 28.92900
C  14.52100 51.94100 29.37700
C  14.72600 52.99800 24.60900
C  18.97100 50.54700 24.20000
N  16.75900 51.06600 28.92900
C  17.71600 50.28900 29.55400
C  17.47800 50.29100 31.09100
C  15.94300 50.73400 31.14600
C  15.66500 51.27000 29.70800
C  15.01200 49.68800 31.77900
C  18.47100 51.28400 31.76400
C  18.77000 50.97200 33.20200
H  17.84700 51.49300 34.19200
N  14.88300 52.45300 27.04000
C  14.20600 52.59200 28.14600
C  13.06100 53.38600 27.92300
C  13.02400 53.59300 26.46000
C  14.24600 53.03600 25.98200
C  12.01800 53.77600 29.04500
C  11.97600 54.20500 25.54500
O  12.08900 54.26000 24.33400
C  10.77300 54.79300 26.11800
N  16.87700 51.77100 24.71700
C  15.87000 52.43200 24.06600
C  16.26300 52.51300 22.57800
C  17.65200 51.85700 22.50600
C  17.84900 51.36800 23.95000
C  15.12400 51.98600 21.68900
C  18.87900 52.84800 22.18400
C  19.60800 52.52200 20.87400
N  18.45700 50.37700 26.51400
C  19.27500 50.05300 25.45800
C  20.34400 49.23200 25.85700
C  20.18400 49.03800 27.19900
C  19.00300 49.81000 27.57800
C  21.46100 48.65200 24.94600
C  20.74100 48.35400 28.33800
O  21.65900 47.57400 28.37700
C  19.84100 48.89700 29.55900
C  19.51900 47.79400 30.43800
O  18.77200 46.88600 30.18800
O  20.16200 47.94700 31.64700
C  19.78700 46.97700 32.72100
H  13.93900 52.16400 30.27400
H  14.09600 53.48500 23.86200
H  19.60600 50.40600 23.32300
H  17.57700 49.30200 31.53800
H  15.82800 51.60900 31.78600
H  14.01300 50.04500 32.03000
H  15.48000 49.35800 32.70700
H  14.99100 48.85100 31.08200
H  18.02800 52.28000 31.79900
H  19.46300 51.31100 31.31500
H  19.79400 51.24200 33.45900
H  18.86400 49.91400 33.44700
H  11.71000 54.80800 28.87500
H  12.59900 53.82600 29.96600
H  11.13600 53.13600 29.08400
H  10.32000 54.02200 26.74300
H  10.15500 55.11600 25.28000
H  10.99700 55.64400 26.76100
H  16.39600 53.59400 22.63000
H  17.69000 50.98500 21.85400
H  14.43000 52.80100 21.48200
H  14.57200 51.14500 22.11100
H  15.54900 51.58100 20.77100
H  19.59900 52.94800 22.99700
H  18.43100 53.83900 22.11100
H  19.34400 51.54200 20.47700
H  20.68900 52.49300 21.00900
H  19.34900 53.31800 20.17600
H  21.63300 49.48500 24.26400
H  21.18100 47.75800 24.38900
H  22.34300 48.51300 25.57300
H  20.50300 49.62700 30.02300
H  19.83000 47.51200 33.67000
H  20.48200 46.13900 32.78000
H  18.81300 46.49600 32.63300

