158

Mg 16.88100 -1.24900 28.24800
C  15.60100 0.71300 30.86500
C  18.86800 -2.93300 30.50700
C  18.11600 -3.16400 25.67800
C  15.18500 0.75600 26.01700
N  17.23500 -1.11600 30.40500
C  16.55200 -0.25800 31.25800
C  17.03300 -0.54600 32.69300
C  18.21400 -1.48800 32.58100
C  18.15600 -1.84900 31.07100
C  19.68700 -0.97100 32.82400
C  15.87200 -0.99500 33.65300
C  16.06200 -0.60200 35.13800
H  17.34400 0.23300 35.56000
N  18.14600 -2.85000 28.11100
C  18.76600 -3.42500 29.20300
C  19.53200 -4.59400 28.73900
C  19.31600 -4.78500 27.32200
C  18.53600 -3.55300 26.98200
C  20.33400 -5.35900 29.84800
C  19.73200 -5.89900 26.36900
O  19.55200 -5.89200 25.15100
C  20.44300 -7.03100 26.85700
N  16.77400 -1.12300 26.13700
C  17.31100 -2.11200 25.33900
C  16.91300 -1.78500 23.92400
C  15.86200 -0.65600 24.02800
C  15.90800 -0.27900 25.47900
C  18.15700 -1.54500 23.04900
C  14.44800 -1.11100 23.64000
C  13.83400 -0.32600 22.44300
N  15.59500 0.37600 28.37600
C  15.05300 1.07600 27.41600
C  14.27600 2.15000 27.96600
C  14.45000 1.99200 29.33500
C  15.31500 0.94400 29.54800
C  13.47900 3.03100 27.23900
C  14.05000 2.58200 30.54100
O  13.22800 3.49300 30.72200
C  14.89600 1.79100 31.72800
C  15.80500 2.87500 32.49900
O  16.67500 3.55700 31.94900
O  15.51000 2.98100 33.82800
C  16.25900 4.11700 34.39100
H  19.45400 -3.42600 31.28600
H  18.52500 -3.70900 24.82500
H  14.62800 1.39400 25.32900
H  17.51500 0.38200 33.00000
H  18.20300 -2.32900 33.27400
H  20.21000 -1.79700 33.30700
H  19.74900 -0.09900 33.47400
H  20.17900 -0.72600 31.88200
H  15.90100 -2.08100 33.56400
H  14.92400 -0.66000 33.23200
H  16.06000 -1.49300 35.76600
H  15.11900 -0.08900 35.33000
H  19.67600 -5.35000 30.71700
H  21.16800 -4.79100 30.26000
H  20.60100 -6.38800 29.60900
H  20.90600 -7.56400 26.02600
H  19.73700 -7.73400 27.29800
H  21.20300 -6.72200 27.57500
H  16.34300 -2.63300 23.54300
H  16.15800 0.22200 23.45400
H  18.28000 -0.46900 22.93000
H  18.03300 -2.10200 22.12000
H  19.09700 -1.91300 23.46100
H  13.87700 -1.02500 24.56500
H  14.40200 -2.19200 23.50500
H  14.40800 0.59100 22.31200
H  12.79500 -0.17000 22.73000
H  13.82400 -0.94800 21.54700
H  12.45500 2.65800 27.22400
H  13.84100 3.27100 26.23900
H  13.57800 3.91400 27.87100
H  14.18400 1.24300 32.34600
H  16.10600 4.16000 35.46900
H  15.86200 4.96600 33.83400
H  17.33300 4.04000 34.22300
Mg 6.28400 53.28700 40.63800
C  6.05900 49.71400 40.42600
C  9.66100 53.05900 40.10300
C  6.18700 56.62500 40.30100
C  2.72100 53.33000 40.93800
N  7.67300 51.48400 40.23700
C  7.38200 50.16600 40.21200
C  8.69400 49.43600 39.96500
C  9.79700 50.47500 40.33200
C  9.01300 51.79600 40.25200
C  10.44100 50.31800 41.70500
C  8.95400 48.77000 38.52500
C  8.35900 49.53500 37.25200
H  7.26800 48.90800 36.19400
N  7.75200 54.62400 40.24200
C  9.01300 54.32800 40.00800
C  9.71400 55.63100 39.84400
C  8.75000 56.67300 39.92600
C  7.46000 55.97800 40.17500
C  11.26800 55.67100 39.54500
C  9.13700 58.16000 39.85300
O  10.33000 58.49500 39.56600
C  8.14900 59.36800 39.85000
N  4.65500 54.73900 40.74300
C  4.92300 56.08300 40.54900
C  3.67400 56.97100 40.62400
C  2.60000 55.88800 40.63700
C  3.34000 54.54800 40.76200
C  3.67100 57.85300 41.87600
C  1.66100 55.85600 39.38700
C  0.15800 55.67600 39.63000
N  4.69300 51.90300 40.80500
C  3.31600 52.06100 40.94800
C  2.64900 50.79300 40.94900
C  3.63200 49.82400 40.82400
C  4.90100 50.51300 40.71200
C  1.10400 50.64400 41.12900
C  3.90900 48.44100 40.75400
O  3.20900 47.49600 40.81100
C  5.45900 48.32500 40.45900
C  5.61000 47.52800 39.15800
O  5.25600 47.83600 38.04300
O  6.06300 46.29000 39.48200
C  5.90400 45.26700 38.45200
H  10.74000 52.98900 39.95500
H  6.29000 57.70500 40.17000
H  1.63000 53.34100 40.96900
H  8.71300 48.65300 40.72300
H  10.59100 50.46900 39.58500
H  9.79400 49.63900 42.26100
H  10.42700 51.27800 42.22200
H  11.50200 50.11000 41.84200
H  8.49100 47.78600 38.60200
H  10.00600 48.67800 38.25300
H  9.14300 49.79500 36.54100
H  8.02300 50.51100 37.60200
H  11.37100 56.37500 38.71900
H  11.78200 54.71800 39.41900
H  11.74300 56.06700 40.44300
H  8.70500 60.24700 39.52400
H  7.69500 59.53500 40.82700
H  7.33400 59.18100 39.15100
H  3.69800 57.52700 39.68600
H  1.94800 56.00500 41.50200
H  3.95400 58.88200 41.65500
H  4.45900 57.45000 42.51200
H  2.70200 57.83600 42.37400
H  2.01800 55.10500 38.68200
H  1.81200 56.83700 38.93700
H  -0.46000 56.45400 39.18200
H  -0.08800 55.72900 40.69000
H  -0.20800 54.69800 39.31800
H  0.83400 49.68700 41.57500
H  0.56100 50.79700 40.19700
H  0.82400 51.31700 41.94000
H  5.90200 47.83900 41.32900
H  6.90900 45.05400 38.09000
H  5.37200 45.51900 37.53500
H  5.54800 44.38300 38.98200

