158

Mg 41.70000 40.97200 26.86000
C  41.03300 43.43100 29.36500
C  42.84400 39.01700 29.33600
C  42.66200 38.90400 24.39300
C  40.91600 43.45700 24.45400
N  41.95000 41.23500 29.13300
C  41.47100 42.25400 29.90700
C  41.43300 41.93200 31.44400
C  42.08000 40.47400 31.42300
C  42.38400 40.20800 29.88300
C  43.40400 40.22200 32.16300
C  40.00600 41.95000 32.08100
C  39.90300 42.80800 33.34800
H  38.95400 42.52600 34.50900
N  42.59800 39.17200 26.89400
C  43.00900 38.57400 27.99500
C  43.47400 37.24600 27.65300
C  43.43000 37.10300 26.23900
C  42.95400 38.42800 25.75900
C  43.78400 36.11200 28.70200
C  43.65700 35.94000 25.35000
O  43.44100 36.03100 24.12200
C  44.17700 34.63300 25.92200
N  41.81800 41.16900 24.82200
C  42.16500 40.13600 23.98400
C  41.97600 40.49000 22.50300
C  41.20000 41.81100 22.57300
C  41.33300 42.24300 24.05400
C  43.33000 40.75800 21.77600
C  39.73800 41.75000 22.08700
C  38.70700 41.04000 23.02200
N  41.05900 42.96900 26.73600
C  40.88700 43.88800 25.76200
C  40.49700 45.16500 26.30500
C  40.51400 44.98900 27.65800
C  40.91200 43.66400 27.93400
C  39.99900 46.29700 25.59100
C  40.27000 45.68200 28.95800
O  39.99800 46.81000 29.18000
C  40.59700 44.69900 30.03100
C  41.60000 45.27500 31.06600
O  42.78600 45.22100 31.09700
O  40.89800 45.80800 32.15500
C  41.81200 46.55600 33.05700
H  43.06500 38.27000 30.10200
H  42.87500 38.21000 23.57700
H  40.54500 44.06800 23.62800
H  42.13700 42.63300 31.89400
H  41.37600 39.73200 31.80100
H  44.20000 40.02200 31.44600
H  43.21900 39.46900 32.93000
H  43.77000 41.12700 32.64700
H  39.64200 40.94700 32.30700
H  39.29200 42.30800 31.34000
H  39.61700 43.84700 33.18200
H  40.92100 42.86100 33.73600
H  42.80500 35.68500 28.91900
H  44.08000 36.61100 29.62400
H  44.50100 35.33600 28.43200
H  45.24100 34.75400 26.12600
H  44.01700 33.99500 25.05200
H  43.57300 34.28100 26.75900
H  41.40500 39.70600 22.00500
H  41.59400 42.68700 22.05700
H  44.16300 40.63400 22.46800
H  43.41700 41.79800 21.46100
H  43.50200 40.00400 21.00800
H  39.64700 41.24000 21.12800
H  39.46900 42.80400 22.02500
H  39.04200 40.85000 24.04200
H  38.34600 40.06200 22.70400
H  37.81900 41.66300 22.91200
H  39.52200 45.91500 24.68900
H  40.74900 47.06400 25.40000
H  39.31000 46.73000 26.31600
H  39.71800 44.70200 30.67500
H  42.58100 47.09500 32.50400
H  42.39300 45.91800 33.72300
H  41.22900 47.30300 33.59700
Mg -0.82100 34.53900 27.01000
C  -2.97600 32.80300 29.15200
C  -0.26300 36.79800 29.47200
C  0.96400 36.42600 24.81900
C  -2.24200 32.80700 24.27600
N  -1.35300 34.58100 29.11900
C  -2.14100 33.75600 29.82300
C  -2.30200 34.16500 31.27000
C  -1.59900 35.58300 31.35000
C  -1.07100 35.73300 29.86500
C  -2.57100 36.75700 31.63700
C  -1.76200 33.17400 32.36200
C  -2.32700 33.30400 33.78100
H  -1.64100 32.59300 35.01200
N  0.27700 36.35600 27.14100
C  0.35000 37.15300 28.24600
C  1.16200 38.38000 27.92800
C  1.51800 38.25800 26.61400
C  0.93600 36.96100 26.14800
C  1.43800 39.48200 28.84300
C  2.42000 39.19600 25.74200
O  2.74800 38.95600 24.61900
C  3.04600 40.40500 26.49400
N  -0.71900 34.56100 24.83200
C  0.21400 35.41700 24.23200
C  0.30800 35.05500 22.74300
C  -0.54800 33.71800 22.56200
C  -1.13700 33.62000 24.00000
C  -0.06800 36.18000 21.73000
C  0.22800 32.55100 22.06300
C  1.32200 31.99000 22.96800
N  -2.19600 33.02900 26.68800
C  -2.76400 32.57900 25.55900
C  -3.80000 31.58500 25.90500
C  -3.82400 31.62700 27.29200
C  -2.95200 32.56500 27.75600
C  -4.63900 30.75400 25.05000
C  -4.51600 31.02800 28.50300
O  -5.34800 30.19900 28.49400
C  -4.00300 31.79200 29.73900
C  -5.19400 32.44100 30.44400
O  -5.68600 33.54100 30.15500
O  -5.78800 31.49700 31.37000
C  -6.81700 32.12900 32.18900
H  -0.03200 37.45700 30.31100
H  1.42900 37.05100 24.05500
H  -2.76100 32.34500 23.43300
H  -3.38400 34.29100 31.30700
H  -0.76600 35.61700 32.05300
H  -2.19500 37.30000 32.50300
H  -3.55200 36.47000 32.01500
H  -2.75800 37.49600 30.85700
H  -0.72700 33.46100 32.54800
H  -1.75200 32.10900 32.13400
H  -3.29200 32.80600 33.68500
H  -2.49000 34.36500 33.96500
H  2.43900 39.56400 29.26700
H  0.78500 39.43500 29.71400
H  1.02100 40.41600 28.46700
H  2.15000 40.98000 26.72900
H  3.77900 40.89700 25.85300
H  3.64900 39.97500 27.29400
H  1.37600 34.94300 22.55600
H  -1.40500 33.77200 21.89200
H  -0.41400 37.14400 22.10200
H  -0.83400 35.86800 21.02000
H  0.85000 36.39800 21.18500
H  0.59800 32.72900 21.05300
H  -0.36200 31.65400 21.87600
H  1.32400 32.49600 23.93300
H  2.25200 32.32000 22.50500
H  1.14200 30.92100 23.08100
H  -4.21300 29.75400 24.97200
H  -4.90300 31.26000 24.12100
H  -5.57700 30.65600 25.59800
H  -3.54400 31.01800 30.35400
H  -7.51900 32.75900 31.64300
H  -6.31000 32.84600 32.83600
H  -7.45200 31.51500 32.82800

