158

Mg 24.55200 -6.41300 45.62300
C  26.89000 -4.11700 44.27400
C  22.32900 -5.03200 43.51500
C  22.67900 -9.08800 46.13200
C  27.29900 -7.76200 47.50700
N  24.63800 -4.78200 43.99900
C  25.67400 -3.98100 43.64500
C  25.40300 -3.16400 42.40500
C  23.86900 -3.12600 42.63800
C  23.55100 -4.37300 43.41700
C  23.42200 -1.72300 43.31500
C  25.86500 -3.80900 41.09400
C  26.64100 -2.83000 40.21000
H  26.46000 -2.83500 38.69800
N  22.72700 -6.91300 44.93700
C  21.94600 -6.25000 44.08800
C  20.65100 -6.93700 43.93100
C  20.71400 -8.10300 44.75200
C  22.11700 -8.09600 45.29400
C  19.46300 -6.51000 43.07900
C  19.61800 -9.11600 44.87400
O  18.59300 -9.06400 44.16400
C  19.76500 -10.35800 45.81600
N  24.95200 -8.22000 46.54800
C  23.96000 -9.12600 46.74400
C  24.56800 -10.34800 47.51100
C  25.85300 -9.72900 48.10700
C  26.09600 -8.52100 47.33800
C  23.55600 -10.93600 48.57800
C  27.05200 -10.80900 48.12100
C  27.68800 -11.21700 49.44100
N  26.61600 -6.03300 45.88900
C  27.56800 -6.62700 46.72200
C  28.81500 -5.94100 46.59000
C  28.60900 -4.94400 45.61500
C  27.26100 -5.10900 45.21100
C  30.05300 -6.30200 47.32600
C  29.25400 -3.88400 44.96900
O  30.42300 -3.51500 44.98700
C  28.12800 -3.28300 43.97600
C  27.89400 -1.81800 44.18900
O  27.37900 -1.32700 45.13800
O  28.56100 -1.07200 43.17600
C  28.64500 0.42000 43.31900
H  21.53700 -4.51100 42.97400
H  22.03000 -9.92700 46.38800
H  28.12800 -8.14100 48.10900
H  25.90700 -2.21000 42.56200
H  23.32900 -3.29500 41.70600
H  22.77400 -1.18000 42.62600
H  24.27700 -1.05200 43.39300
H  22.91800 -1.85400 44.27200
H  24.98300 -4.06700 40.50800
H  26.51100 -4.68200 41.19300
H  27.67900 -2.89700 40.53400
H  26.35600 -1.83300 40.54700
H  18.58400 -6.59500 43.71800
H  19.26400 -7.16700 42.23300
H  19.62400 -5.48300 42.75100
H  18.90600 -11.02500 45.88900
H  19.98400 -10.09400 46.85000
H  20.51400 -10.99800 45.35200
H  24.85700 -11.11900 46.79800
H  25.71900 -9.45000 49.15200
H  22.81800 -10.15800 48.77400
H  24.14000 -11.10000 49.48300
H  23.06600 -11.81700 48.16200
H  27.93000 -10.52900 47.54000
H  26.76600 -11.78300 47.72300
H  28.03600 -12.24200 49.31000
H  27.10300 -11.00100 50.33500
H  28.54900 -10.54900 49.45400
H  30.89800 -5.66500 47.06400
H  30.22800 -7.32000 46.98000
H  29.87200 -6.20200 48.39700
H  28.52400 -3.52300 42.98900
H  27.84900 1.00400 42.85600
H  29.44600 0.70300 42.63600
H  28.84100 0.65500 44.36500
Mg -9.95100 17.02200 40.74900
C  -6.59600 16.78400 40.88200
C  -9.51500 20.39900 39.68900
C  -13.34800 17.45000 40.16800
C  -10.28000 13.65000 41.13600
N  -8.28500 18.46200 40.43200
C  -6.97100 18.02600 40.55000
C  -6.00800 19.13500 39.93300
C  -6.93400 20.39300 40.00100
C  -8.31100 19.67700 39.98700
C  -6.82200 21.10100 41.43200
C  -5.54500 18.73500 38.49300
C  -4.07700 18.71300 38.13900
H  -3.58200 17.68600 37.17800
N  -11.29400 18.72800 40.00600
C  -10.89500 19.95800 39.59700
C  -12.03300 20.72600 39.12700
C  -13.14500 20.01800 39.52300
C  -12.65600 18.65800 39.93700
C  -12.05400 22.03500 38.48500
C  -14.57100 20.46100 39.47300
O  -14.88300 21.63300 39.20700
C  -15.66500 19.58000 39.59500
N  -11.50800 15.61300 40.31700
C  -12.84100 16.11000 40.32400
C  -13.80300 14.89400 40.46700
C  -12.76600 13.69900 40.79100
C  -11.41200 14.31000 40.74100
C  -14.86200 15.23100 41.56300
C  -12.81200 12.53900 39.81500
C  -13.83400 11.37600 40.14200
N  -8.68600 15.51200 40.96500
C  -8.94500 14.18500 41.13100
C  -7.72600 13.42600 41.44900
C  -6.66000 14.43200 41.30800
C  -7.36800 15.64100 41.09900
C  -7.64700 11.91600 41.63000
C  -5.24700 14.66400 41.31000
O  -4.33700 13.79500 41.42200
C  -5.11900 16.25800 41.03500
C  -4.43100 16.88200 42.21200
O  -3.58300 17.76300 42.21500
O  -4.92700 16.27800 43.36800
C  -4.29800 16.68700 44.57900
H  -9.32700 21.40000 39.29600
H  -14.43800 17.52300 40.16900
H  -10.37600 12.60000 41.42300
H  -5.15100 19.30300 40.58500
H  -6.83400 21.03500 39.12600
H  -7.80600 21.33400 41.83900
H  -6.39600 22.08200 41.22100
H  -6.18500 20.49500 42.07600
H  -5.96600 19.50600 37.84800
H  -5.96700 17.77700 38.18800
H  -3.48400 18.64600 39.05100
H  -3.75400 19.64400 37.67400
H  -11.14800 22.25800 37.92300
H  -12.22200 22.83900 39.20200
H  -12.90900 21.99400 37.81000
H  -15.57300 18.77200 38.86900
H  -16.61100 20.04400 39.31600
H  -15.86400 19.24200 40.61200
H  -14.37700 14.89200 39.54100
H  -12.93300 13.32400 41.80100
H  -14.63900 16.18200 42.04600
H  -14.77700 14.57500 42.43000
H  -15.80100 15.26400 41.01000
H  -11.87000 12.03100 39.60800
H  -13.04400 12.91800 38.81900
H  -14.73900 11.59800 39.57800
H  -13.93300 11.17400 41.20900
H  -13.47400 10.46900 39.65700
H  -6.69400 11.67000 42.09800
H  -7.51400 11.50900 40.62800
H  -8.53000 11.39600 42.00100
H  -4.54200 16.48100 40.13700
H  -4.68700 17.52700 45.15500
H  -3.22400 16.86500 44.62800
H  -4.55100 15.85300 45.23200

