158

Mg 26.24700 -0.68900 29.32000
C  28.30800 -1.19300 32.25700
C  23.61300 -0.17900 31.53600
C  24.16400 -0.60700 26.69600
C  28.83100 -1.89500 27.41000
N  26.03500 -0.58200 31.66300
C  26.99600 -0.68100 32.60400
C  26.48200 -0.31500 34.01200
C  24.91200 -0.01900 33.70600
C  24.81600 -0.34300 32.19800
C  23.92000 -0.72600 34.71700
C  27.17900 0.90800 34.74600
C  27.97600 0.57500 36.01800
H  27.37600 1.25000 37.30000
N  24.14600 -0.34100 29.13100
C  23.23900 -0.10900 30.14000
C  21.91400 -0.00900 29.54800
C  22.08200 -0.07700 28.12700
C  23.48600 -0.38300 27.94300
C  20.69900 0.28400 30.47200
C  21.04800 -0.04700 27.03600
O  21.27300 -0.11000 25.83200
C  19.61800 0.16900 27.46900
N  26.41800 -1.20900 27.36700
C  25.52800 -0.88200 26.40500
C  26.11000 -0.85300 25.08000
C  27.58200 -1.41000 25.26500
C  27.62000 -1.48100 26.76900
C  25.27200 -1.61000 23.98700
C  28.72200 -0.59200 24.58500
C  29.02900 0.77500 25.19800
N  28.16500 -1.40400 29.66300
C  29.13600 -1.90600 28.82800
C  30.34000 -2.28800 29.57300
C  30.05700 -1.87500 30.86300
C  28.74600 -1.38000 30.91400
C  31.63000 -2.60600 28.90400
C  30.72700 -1.77800 32.15000
O  31.85900 -2.16900 32.51500
C  29.54100 -1.40700 33.14100
C  29.43900 -2.46100 34.12800
O  28.71600 -3.48000 34.09000
O  30.27100 -2.20400 35.16400
C  30.04500 -3.08500 36.35000
H  22.80700 0.05100 32.23600
H  23.53200 -0.51500 25.81000
H  29.66900 -2.20000 26.78100
H  26.57500 -1.20700 34.63000
H  24.79800 1.05800 33.83200
H  23.65300 -1.75600 34.48300
H  22.94600 -0.23700 34.70500
H  24.45200 -0.74900 35.66900
H  26.49600 1.73000 34.96100
H  27.91300 1.44100 34.14100
H  29.04100 0.73700 35.85300
H  27.96700 -0.49600 36.22100
H  20.01600 -0.56200 30.54500
H  20.13900 1.18300 30.21300
H  20.96200 0.53700 31.50000
H  19.36300 -0.57900 28.21900
H  18.92900 0.16400 26.62400
H  19.46600 1.16500 27.88200
H  26.12600 0.15300 24.66000
H  27.71300 -2.41200 24.85800
H  24.76700 -0.93700 23.29400
H  24.56000 -2.15100 24.61000
H  25.89900 -2.31000 23.43600
H  28.54400 -0.43800 23.52100
H  29.68300 -1.10000 24.66200
H  30.04700 0.71100 25.58100
H  28.33900 0.97300 26.01800
H  28.86100 1.51100 24.41200
H  31.94600 -1.64000 28.51000
H  31.45300 -3.19900 28.00700
H  32.45200 -2.95600 29.53000
H  29.75300 -0.46000 33.63700
H  30.88100 -2.82100 36.99700
H  30.14600 -4.09700 35.95800
H  29.14400 -2.95900 36.95000
Mg 26.62600 50.25000 25.88600
C  24.30600 51.67300 28.20500
C  28.52100 49.42400 28.52900
C  28.84200 49.29900 23.57800
C  24.52400 51.49200 23.27900
N  26.40100 50.41200 28.04500
C  25.39300 51.01400 28.75700
C  25.59100 51.01500 30.18900
C  27.07200 50.63600 30.38400
C  27.42700 50.13500 28.97400
C  27.97100 51.85800 30.84100
C  24.49100 50.17300 30.93300
C  23.82300 50.80900 32.16700
H  23.70300 49.98200 33.40800
N  28.50600 49.46800 26.05400
C  29.09700 49.12900 27.25500
C  30.42300 48.63300 26.92900
C  30.51900 48.57800 25.46600
C  29.26900 49.13200 24.95600
C  31.32300 48.22800 27.98000
C  31.59400 48.04300 24.61000
O  31.57800 47.94400 23.40900
C  32.76400 47.46300 25.35500
N  26.65900 50.30200 23.72700
C  27.71000 49.88700 23.04500
C  27.48300 50.03900 21.52700
C  26.10000 50.65300 21.41300
C  25.76700 50.86800 22.90700
C  28.58200 50.98800 20.90200
C  24.91800 49.90800 20.69400
C  24.15000 50.59200 19.59000
N  24.81400 51.39700 25.72800
C  24.10500 51.75400 24.60200
C  22.89500 52.44300 25.07700
C  22.92200 52.42200 26.45300
C  24.11000 51.75500 26.76000
C  21.78800 52.96300 24.21900
C  22.19300 52.78400 27.69000
O  21.16200 53.43100 27.80500
C  23.06700 52.36800 28.85500
C  23.34700 53.60500 29.61500
O  23.99700 54.58400 29.21300
O  22.79800 53.46800 30.88300
C  23.31000 54.37000 31.87700
H  29.09000 49.01200 29.36500
H  29.50400 48.89200 22.81100
H  23.90900 51.92800 22.48900
H  25.59900 52.02600 30.59700
H  27.11100 49.87200 31.16000
H  28.89800 51.74300 30.27900
H  28.10400 51.96000 31.91800
H  27.53300 52.80400 30.52200
H  24.83600 49.16000 31.14000
H  23.73900 50.02700 30.15800
H  22.79700 51.07200 31.90700
H  24.38900 51.70500 32.42400
H  31.56300 47.16500 27.98500
H  30.95000 48.28100 29.00300
H  32.22100 48.79000 27.72300
H  32.42100 46.66000 26.00800
H  33.31300 48.21500 25.92200
H  33.33200 46.94600 24.58200
H  27.48300 49.09600 20.98100
H  26.12900 51.65500 20.98700
H  29.40300 51.06400 21.61500
H  28.32200 52.02500 20.68900
H  28.93600 50.55700 19.96600
H  24.16600 49.62300 21.43000
H  25.46700 49.03200 20.34800
H  24.34100 49.90200 18.76800
H  24.56900 51.56300 19.32600
H  23.09400 50.77000 19.79700
H  22.08300 53.62300 23.40300
H  21.20600 53.60000 24.88500
H  21.15300 52.12700 23.92600
H  22.38900 51.72300 29.41400
H  23.63700 53.74500 32.70900
H  22.42600 54.92800 32.18700
H  24.09000 55.08900 31.62600

