158

Mg 9.91900 48.10300 25.64500
C  7.92400 48.21800 28.56200
C  12.49300 49.47500 27.32100
C  11.73400 47.86100 22.85200
C  7.02700 47.35200 23.82800
N  10.15500 48.68000 27.70700
C  9.23800 48.65100 28.75300
C  9.92400 49.09000 29.99200
C  11.09700 49.93700 29.56400
C  11.24700 49.37300 28.04600
C  10.89500 51.47000 29.53000
C  10.31400 47.83000 30.82900
C  10.31000 47.99500 32.43700
H  10.14900 46.72100 33.25100
N  11.91600 48.51800 25.18700
C  12.84600 49.08900 26.03700
C  14.16400 49.00200 25.39700
C  13.91000 48.56600 24.01500
C  12.47600 48.27300 23.97200
C  15.41300 49.29300 26.11700
C  14.80400 48.32400 22.79900
O  14.40500 47.84300 21.77000
C  16.21400 48.65900 22.95900
N  9.42300 47.72600 23.62500
C  10.36000 47.67100 22.68200
C  9.74000 47.33600 21.31300
C  8.25400 46.90800 21.70600
C  8.24200 47.34700 23.09600
C  9.75400 48.61600 20.38700
C  7.84400 45.38000 21.56400
C  8.70600 44.37000 22.30900
N  7.86300 47.88300 26.02800
C  6.78600 47.64800 25.19000
C  5.58500 47.61800 25.96800
C  6.01600 47.73200 27.31900
C  7.37500 47.98500 27.30100
C  4.24600 47.29400 25.42600
C  5.53600 47.75200 28.65000
O  4.43000 47.54500 29.10000
C  6.79200 48.05700 29.55800
C  7.02700 46.90600 30.55400
O  7.52800 45.82200 30.31500
O  6.41600 47.25200 31.77900
C  6.39400 46.08700 32.67400
H  13.30600 50.00900 27.81600
H  12.15900 47.74800 21.85300
H  6.18700 47.11700 23.17200
H  9.22600 49.70000 30.56600
H  11.92200 49.68300 30.23100
H  9.94700 51.70700 30.01400
H  10.75400 51.83600 28.51300
H  11.72100 51.93900 30.06500
H  11.35000 47.64600 30.54600
H  9.74900 46.98200 30.44200
H  9.54900 48.67800 32.81400
H  11.29000 48.46100 32.53900
H  15.36500 48.99200 27.16300
H  15.64700 50.35600 26.05200
H  16.21000 48.69900 25.66900
H  16.73600 48.54900 22.00800
H  16.58000 47.98000 23.72900
H  16.21200 49.70300 23.27100
H  10.11600 46.47400 20.76000
H  7.53600 47.53300 21.17500
H  10.56400 48.64200 19.65800
H  9.69400 49.52700 20.98300
H  8.80500 48.52200 19.85900
H  7.79500 45.02900 20.53300
H  6.83300 45.33200 21.96700
H  9.42500 44.89000 22.94200
H  9.38800 43.80700 21.67200
H  8.17000 43.63100 22.90600
H  3.82500 46.47500 26.00800
H  4.27200 46.99200 24.37900
H  3.53200 48.08900 25.64200
H  6.64400 48.97600 30.12500
H  5.51600 45.48900 32.43200
H  6.17300 46.33900 33.71100
H  7.25900 45.42600 32.60600
Mg -12.67000 16.88700 42.06300
C  -9.74100 15.20500 41.49500
C  -11.63000 19.47400 40.22800
C  -15.89000 18.03900 42.21500
C  -14.03000 13.76900 43.32100
N  -10.91500 17.24700 40.87900
C  -9.79400 16.47100 40.88900
C  -8.63800 17.13600 40.09300
C  -9.10500 18.70300 40.02700
C  -10.68100 18.44500 40.28600
C  -8.56300 19.72000 41.05200
C  -8.25600 16.47700 38.73800
C  -6.72500 16.29700 38.46300
H  -6.03700 16.97500 37.31700
N  -13.64100 18.62900 41.45500
C  -13.01700 19.55900 40.68500
C  -13.93600 20.59600 40.55800
C  -15.18900 20.27900 41.15400
C  -14.96900 18.91500 41.61900
C  -13.50700 21.90200 39.81200
C  -16.43100 21.15800 41.20400
O  -16.44200 22.25600 40.73100
C  -17.68800 20.73500 42.00900
N  -14.69300 16.01000 42.69600
C  -15.74700 16.77300 42.76600
C  -16.97800 15.97600 43.24300
C  -16.43200 14.60300 43.50500
C  -14.98600 14.79400 43.17600
C  -17.67400 16.66100 44.50400
C  -16.99000 13.41800 42.64500
C  -16.99500 12.03800 43.24900
N  -11.96400 14.92300 42.47700
C  -12.64100 13.78600 42.89400
C  -11.68700 12.68900 43.01500
C  -10.46800 13.20700 42.54000
C  -10.76000 14.51000 42.10100
C  -11.99600 11.36400 43.63200
C  -9.06500 12.93100 42.22100
O  -8.33600 11.94900 42.30900
C  -8.55200 14.31600 41.61600
C  -7.50300 14.92200 42.53800
O  -7.78300 15.60800 43.49600
O  -6.24100 14.63100 42.11400
C  -5.10700 15.23600 42.79300
H  -11.27900 20.41700 39.80600
H  -16.89200 18.47100 42.22500
H  -14.43300 12.85700 43.76500
H  -7.74200 17.11600 40.71300
H  -8.99500 19.15500 39.04100
H  -7.72000 19.32600 41.62000
H  -9.34600 19.91300 41.78500
H  -8.11200 20.58900 40.57300
H  -8.86200 17.07300 38.05500
H  -8.72300 15.49200 38.76300
H  -6.51700 15.22700 38.47700
H  -6.16100 16.70800 39.30100
H  -13.57000 21.67500 38.74800
H  -12.53600 22.26000 40.15600
H  -14.25100 22.63300 40.12800
H  -17.44200 20.40100 43.01700
H  -18.13500 19.97400 41.36900
H  -18.32300 21.62200 42.02900
H  -17.77100 15.96400 42.49500
H  -16.46000 14.38300 44.57200
H  -17.43900 16.12300 45.42200
H  -18.73500 16.62300 44.25500
H  -17.30500 17.66300 44.71900
H  -16.43500 13.47700 41.70900
H  -18.00800 13.67600 42.35200
H  -16.39100 11.37000 42.63400
H  -17.98900 11.60100 43.35000
H  -16.49200 12.02600 44.21600
H  -12.38400 11.57000 44.62900
H  -11.00300 10.92500 43.72700
H  -12.63600 10.67900 43.07500
H  -8.11700 14.21600 40.62200
H  -4.52700 14.36000 43.08500
H  -5.35800 15.82000 43.67800
H  -4.59200 15.77500 41.99800

