158

Mg 53.50500 23.95300 45.16800
C  50.63600 25.86300 44.49100
C  52.19600 21.28700 43.83500
C  56.71100 22.60300 45.09300
C  54.99500 27.04300 46.09500
N  51.65600 23.68600 44.23900
C  50.62700 24.51400 44.02300
C  49.31400 23.80800 43.75000
C  49.83600 22.27500 43.67900
C  51.33700 22.44000 43.96000
C  49.13900 21.23700 44.66100
C  48.54600 24.23500 42.54200
C  49.35800 24.36400 41.23000
H  48.85600 23.74900 39.99300
N  54.34300 22.14700 44.56500
C  53.59900 21.14100 44.11700
C  54.45900 19.97800 43.90700
C  55.80200 20.33600 44.22300
C  55.69400 21.71700 44.68200
C  53.90700 18.64000 43.28300
C  57.02800 19.47300 44.11400
O  56.92900 18.34700 43.66500
C  58.37900 20.01300 44.47300
N  55.55900 24.75300 45.40700
C  56.61200 23.97400 45.29600
C  57.93900 24.78600 45.58400
C  57.38000 26.16900 45.94400
C  55.84500 26.00400 45.77100
C  58.99800 24.20200 46.62000
C  57.74500 27.37100 45.02500
C  59.23000 27.46100 44.60500
N  52.91500 26.00000 45.45900
C  53.58900 27.06900 45.92300
C  52.74200 28.23700 46.22100
C  51.56600 27.85700 45.58500
C  51.74200 26.47900 45.12200
C  53.17100 29.50500 46.93200
C  50.20500 28.25400 45.22800
O  49.54200 29.30300 45.46100
C  49.59900 26.99800 44.46300
C  49.35400 27.52400 43.12600
O  50.27500 27.79800 42.32400
O  47.99900 27.59400 42.86600
C  47.40700 28.02700 41.54900
H  51.58700 20.39300 43.68400
H  57.69400 22.13300 45.16600
H  55.37400 28.04800 46.29400
H  48.81900 23.93700 44.71300
H  49.77500 21.92100 42.64900
H  48.44800 21.80000 45.28800
H  49.81300 20.62800 45.26300
H  48.59500 20.57600 43.98500
H  48.01300 25.16700 42.72800
H  47.66200 23.60200 42.45700
H  50.33000 23.91900 41.44200
H  49.56200 25.41000 40.99800
H  54.42000 18.39800 42.35200
H  52.83500 18.72400 43.11100
H  54.05500 17.75200 43.89700
H  58.58900 20.82100 43.77300
H  59.04600 19.17400 44.27500
H  58.30300 20.25500 45.53400
H  58.47000 24.81800 44.63300
H  57.53800 26.32900 47.01100
H  59.70400 23.54300 46.11600
H  58.62800 23.60300 47.45300
H  59.62000 24.97300 47.07400
H  57.50900 28.33000 45.48800
H  57.19600 27.18400 44.10200
H  59.87100 26.75500 45.13300
H  59.73200 28.41000 44.79700
H  59.22200 27.17900 43.55300
H  52.29900 30.13000 47.12700
H  53.91600 30.05800 46.36000
H  53.58300 29.28300 47.91600
H  48.64100 26.68800 44.88000
H  46.80500 28.93500 41.54500
H  46.79800 27.23400 41.11300
H  48.23200 28.28700 40.88600
Mg 29.24200 58.87700 41.10300
C  26.08300 57.45600 40.46800
C  30.80600 56.20100 39.67500
C  32.04900 60.62600 41.39000
C  27.44700 61.95800 41.79800
N  28.48500 57.11100 40.04300
C  27.16300 56.66700 40.01900
C  27.10000 55.36700 39.26400
C  28.59200 54.94000 39.18100
C  29.38500 56.15400 39.64800
C  28.94300 53.73000 40.04200
C  26.40700 55.66100 37.85400
C  25.08900 55.02300 37.42300
H  25.03000 54.40500 36.05900
N  31.19200 58.43600 40.63300
C  31.67400 57.26100 40.11800
C  33.17100 57.41000 40.06100
C  33.52900 58.73300 40.56300
C  32.22800 59.31000 40.94700
C  34.09900 56.42500 39.39900
C  35.00600 59.23500 40.71000
O  35.84900 58.42200 40.53600
C  35.36400 60.61900 41.06900
N  29.64100 61.01000 41.27500
C  30.88000 61.38900 41.57900
C  30.89500 62.90100 41.94400
C  29.42000 63.34500 41.78900
C  28.75100 62.03200 41.56600
C  31.57300 63.30600 43.28000
C  29.24200 64.49500 40.75800
C  28.42500 65.64400 41.35800
N  27.21900 59.57000 41.23800
C  26.67400 60.82400 41.54600
C  25.23000 60.73600 41.64700
C  24.93700 59.44200 41.27200
C  26.21200 58.77100 41.01200
C  24.30800 61.78900 41.80500
C  23.85800 58.52700 41.03600
O  22.63000 58.69600 41.13900
C  24.58300 57.16300 40.46800
C  24.25000 56.09600 41.48600
O  24.62800 56.15400 42.62300
O  23.69900 54.96700 40.89600
C  23.68100 53.75700 41.74300
H  31.26600 55.23700 39.44700
H  32.98700 61.08900 41.70400
H  26.93600 62.89300 42.03500
H  26.46000 54.63100 39.75000
H  28.87300 54.60200 38.18400
H  29.96100 53.58100 40.40300
H  28.61900 52.73400 39.74000
H  28.26400 53.69100 40.89400
H  27.10200 55.42600 37.04800
H  26.21000 56.73200 37.82400
H  24.39700 55.86400 37.37000
H  24.79800 54.29600 38.18000
H  33.58400 55.46400 39.38900
H  34.96500 56.23800 40.03400
H  34.40000 56.71900 38.39400
H  35.01600 61.32800 40.31800
H  36.43900 60.78400 41.14200
H  35.02700 60.82100 42.08500
H  31.53500 63.33400 41.17500
H  28.96000 63.62300 42.73800
H  31.91700 62.39400 43.76900
H  30.84100 63.76000 43.94800
H  32.45800 63.89800 43.04500
H  28.75900 64.05600 39.88500
H  30.16500 64.94200 40.39100
H  28.99800 66.54000 41.12100
H  28.21300 65.67300 42.42600
H  27.48500 65.61700 40.80700
H  24.39600 62.49800 40.98200
H  24.51500 62.26000 42.76600
H  23.26900 61.46200 41.81800
H  24.12700 56.85200 39.52800
H  22.62700 53.55000 41.93100
H  24.30400 53.77800 42.63700
H  24.17300 53.00700 41.12500

