158

Mg 54.75500 22.56600 44.53600
C  52.07200 24.73800 43.69700
C  52.64600 19.97300 43.49200
C  57.24500 20.41600 44.88800
C  56.70600 25.24600 45.32800
N  52.65500 22.38800 43.45100
C  51.75300 23.41100 43.21400
C  50.41700 22.92000 42.83700
C  50.47500 21.36500 43.17600
C  52.04000 21.21000 43.37400
C  49.70300 20.99800 44.59000
C  50.02100 23.22700 41.36300
C  48.54000 23.34200 41.21000
H  47.81000 23.23000 39.80700
N  54.94000 20.45000 44.31500
C  53.99100 19.63400 43.82800
C  54.53500 18.31600 43.85700
C  55.84000 18.31300 44.39100
C  56.12800 19.74100 44.48800
C  53.62900 17.20400 43.36800
C  56.79400 17.17500 44.68500
O  56.45500 16.05500 44.35100
C  58.13300 17.39000 45.29000
N  56.73400 22.81900 44.89600
C  57.48900 21.79000 45.23700
C  58.78100 22.25500 45.80400
C  58.61700 23.76400 45.90900
C  57.22000 23.94600 45.39100
C  59.13600 21.51000 47.16200
C  59.78200 24.66000 45.24600
C  60.04900 26.04600 45.81100
N  54.44900 24.63300 44.58500
C  55.36400 25.59400 45.03900
C  54.62300 26.85400 45.05600
C  53.37200 26.53700 44.61500
C  53.29200 25.15400 44.28100
C  55.16000 28.13500 45.64500
C  52.01600 27.07000 44.37300
O  51.52000 28.16500 44.55700
C  51.17400 25.93600 43.71700
C  50.81500 26.34700 42.31900
O  51.62100 26.50000 41.42400
O  49.43900 26.63700 42.14100
C  48.97500 27.02000 40.83000
H  51.88400 19.24200 43.21100
H  58.05700 19.70400 45.04900
H  57.23900 26.12400 45.69900
H  49.59500 23.34200 43.41500
H  50.01400 20.73500 42.41500
H  49.33200 21.86800 45.13200
H  50.33600 20.67300 45.41600
H  48.86200 20.31300 44.48800
H  50.28200 22.34000 40.78600
H  50.46500 24.16500 41.02700
H  48.25200 24.33300 41.56200
H  47.99900 22.64100 41.84600
H  53.29000 17.40100 42.35100
H  52.81200 16.93300 44.03800
H  54.30000 16.35100 43.27100
H  58.03000 17.93900 46.22600
H  58.87900 17.74400 44.57700
H  58.40600 16.40200 45.66100
H  59.63300 21.93500 45.20500
H  58.60400 24.06000 46.95800
H  60.18000 21.34200 47.42700
H  58.58100 20.57200 47.13700
H  58.76000 21.98200 48.07000
H  59.43700 24.70300 44.21300
H  60.69900 24.07200 45.21300
H  59.84100 26.83800 45.09200
H  61.05900 26.04300 46.22000
H  59.40600 26.33700 46.64200
H  54.87600 28.12400 46.69700
H  54.65400 28.98500 45.18700
H  56.23500 28.21600 45.48100
H  50.25000 25.71500 44.25100
H  49.67500 26.90000 40.00300
H  48.74400 28.08000 40.93400
H  48.01700 26.55200 40.60100
Mg -0.65100 44.15800 25.81600
C  1.42200 43.89400 28.65400
C  -3.20500 42.81400 27.90700
C  -2.60600 44.06700 23.16300
C  2.11400 45.16700 23.95000
N  -0.92700 43.66300 28.13300
C  0.04000 43.66800 29.01500
C  -0.39600 43.19500 30.41300
C  -1.83800 42.62000 30.05700
C  -2.01000 43.02200 28.62800
C  -2.07700 41.04100 30.28900
C  -0.40500 44.42000 31.39700
C  -0.07500 44.20100 32.89700
H  -0.22800 42.77200 33.52500
N  -2.63900 43.64100 25.60200
C  -3.48500 43.11000 26.52400
C  -4.73200 42.73500 25.83600
C  -4.59400 42.94800 24.47300
C  -3.22900 43.50700 24.34800
C  -5.96800 42.20600 26.48000
C  -5.54200 42.65800 23.30300
O  -5.19000 42.80400 22.11400
C  -6.86600 42.02000 23.42300
N  -0.30400 44.54400 23.87400
C  -1.31200 44.63600 22.95600
C  -0.79600 45.13700 21.66900
C  0.60800 45.72200 21.98500
C  0.86200 45.13300 23.36300
C  -0.68400 44.09400 20.52900
C  0.50100 47.28800 21.95000
C  1.12200 47.89400 20.76200
N  1.43000 44.45900 26.15500
C  2.41800 44.77700 25.27000
C  3.69900 44.77000 25.97100
C  3.33600 44.38300 27.30600
C  1.94600 44.24100 27.37200
C  5.07600 45.06600 25.44400
C  3.90400 44.16600 28.60000
O  5.08500 44.24200 28.97100
C  2.71100 43.89300 29.53300
C  2.85600 42.57300 30.16500
O  2.83700 41.53400 29.53100
O  3.23900 42.68600 31.46600
C  3.76700 41.46100 32.07700
H  -3.95500 42.26900 28.48500
H  -3.22800 44.31200 22.30000
H  3.00000 45.53300 23.42600
H  0.26100 42.37800 30.71000
H  -2.57600 43.05900 30.72900
H  -2.80000 40.87600 31.08800
H  -1.13000 40.67900 30.69000
H  -2.28100 40.36400 29.45900
H  -1.46000 44.68900 31.43700
H  0.05100 45.30600 30.95400
H  -0.72400 44.90300 33.42000
H  0.94800 44.56400 33.00200
H  -6.72200 42.98800 26.39000
H  -5.73000 41.95400 27.51300
H  -6.44100 41.36100 25.97900
H  -6.85600 41.06000 23.94000
H  -7.03300 41.72000 22.38900
H  -7.68900 42.67400 23.71300
H  -1.43000 45.94200 21.29900
H  1.51300 45.37700 21.48400
H  -0.67800 43.11900 21.01600
H  0.23500 44.26500 19.97000
H  -1.41800 44.17200 19.72700
H  1.10200 47.51600 22.83000
H  -0.46600 47.75600 22.12900
H  2.03200 48.41900 21.05200
H  0.39500 48.51000 20.23100
H  1.39500 47.05800 20.11800
H  5.85300 44.54100 26.00100
H  5.28300 46.13600 25.40600
H  5.11200 44.62900 24.44700
H  2.66800 44.58000 30.37700
H  4.85100 41.49600 31.96600
H  3.41700 40.52100 31.65100
H  3.48400 41.46500 33.12900

