158

Mg 1.87700 8.33400 25.29000
C  2.30200 9.99900 28.34800
C  1.59500 5.29300 27.11400
C  1.23900 6.65300 22.42800
C  2.28100 11.25200 23.55200
N  2.04400 7.71200 27.49800
C  2.15000 8.62700 28.52500
C  2.18200 7.88000 29.88600
C  2.31500 6.34100 29.44100
C  1.92500 6.41600 27.92000
C  3.68600 5.67000 29.75000
C  0.99500 8.26800 30.76900
C  1.29000 8.48800 32.27700
H  2.46600 7.67500 32.99300
N  1.44700 6.21200 24.79400
C  1.33000 5.18100 25.72400
C  0.93200 4.05900 24.96700
C  0.98900 4.36500 23.57700
C  1.23200 5.78600 23.53200
C  0.57700 2.78300 25.65200
C  0.77800 3.48100 22.34600
O  0.86100 3.88200 21.17500
C  0.49600 2.06900 22.51700
N  2.13300 8.84100 23.30100
C  1.76700 7.96400 22.26700
C  2.00000 8.54900 20.89300
C  2.00000 10.12000 21.21100
C  2.24600 10.11500 22.79100
C  3.29700 8.04000 20.18800
C  0.56000 10.75300 20.89400
C  0.67500 11.89000 19.88400
N  2.19100 10.20700 25.78600
C  2.35000 11.32300 24.95400
C  2.44800 12.53900 25.78100
C  2.38900 12.05400 27.09400
C  2.36600 10.59700 27.05800
C  2.37200 13.96500 25.34300
C  2.41900 12.44100 28.49600
O  2.63200 13.49100 29.01400
C  2.35000 11.11300 29.36000
C  3.38900 10.94700 30.37400
O  4.42400 10.27100 30.23200
O  3.08900 11.77400 31.48500
C  4.26200 11.97600 32.30200
H  1.60200 4.37000 27.69800
H  1.12300 6.11800 21.48300
H  2.22400 12.18900 22.99400
H  3.10300 8.18400 30.38400
H  1.66300 5.62600 29.94200
H  4.53500 6.33600 29.90800
H  3.80400 5.01400 28.88800
H  3.53800 5.06800 30.64600
H  0.18500 7.54100 30.71600
H  0.56600 9.23200 30.49600
H  0.37600 8.33400 32.85000
H  1.47000 9.56200 32.33200
H  1.38000 2.07800 25.43800
H  -0.31400 2.42000 25.14000
H  0.27600 2.81900 26.69900
H  0.61400 1.44000 21.63500
H  -0.55100 2.06200 22.81900
H  1.19700 1.63000 23.22700
H  1.28600 8.35500 20.09200
H  2.77500 10.58400 20.60200
H  2.92300 7.05400 19.91300
H  4.15000 7.97600 20.86400
H  3.53200 8.70300 19.35600
H  0.04800 11.16900 21.76200
H  -0.09400 10.00500 20.44500
H  1.08800 11.50200 18.95300
H  1.33800 12.68200 20.23400
H  -0.35900 12.23500 19.87900
H  1.82300 14.39400 26.18100
H  1.80300 14.06000 24.41800
H  3.37500 14.39300 25.31500
H  1.44900 11.19700 29.96600
H  4.71500 11.04800 32.65200
H  3.98900 12.49600 33.22000
H  4.92800 12.60600 31.71300
Mg 44.60100 2.89200 47.26600
C  42.70400 5.69500 46.69300
C  41.92000 0.82000 46.53500
C  46.64800 0.19000 46.82400
C  47.49300 4.92100 47.13700
N  42.66600 3.30200 46.60000
C  41.96800 4.48700 46.60600
C  40.47100 4.33900 46.36800
C  40.28000 2.78400 46.50300
C  41.70300 2.22200 46.52800
C  39.53400 2.42200 47.92800
C  39.96400 4.93600 45.01200
C  40.53700 4.28000 43.70500
H  41.44900 5.12700 42.75700
N  44.35000 0.78000 46.88000
C  43.11600 0.16100 46.58600
C  43.33200 -1.27500 46.33900
C  44.70500 -1.53900 46.39100
C  45.35000 -0.16800 46.69800
C  42.22100 -2.32000 46.00700
C  45.38800 -2.82400 46.19500
O  44.84200 -3.90600 46.07300
C  46.88600 -3.02600 46.22500
N  46.77900 2.59700 47.07300
C  47.27900 1.41100 46.93500
C  48.75700 1.48900 47.18900
C  49.08300 2.93500 46.97500
C  47.72000 3.52000 47.07900
C  49.30800 0.95600 48.49800
C  49.89800 3.35300 45.71800
C  51.38200 3.68000 45.91600
N  45.02200 4.94300 47.15400
C  46.24700 5.60700 47.03600
C  46.00700 7.02200 46.95800
C  44.59700 7.15600 46.78200
C  44.07000 5.82100 46.87000
C  47.01300 8.17000 46.93100
C  43.47200 8.00100 46.49000
O  43.38100 9.25400 46.48100
C  42.21400 7.05900 46.60600
C  41.24800 7.46800 47.64800
O  41.23300 7.02800 48.82300
O  40.30600 8.30800 47.11000
C  39.02800 8.62100 47.81400
H  41.03100 0.18600 46.50300
H  47.27400 -0.68500 46.63800
H  48.35700 5.58500 47.20300
H  40.03400 4.95900 47.15100
H  39.72000 2.25200 45.73400
H  39.17900 3.29700 48.47300
H  40.14600 2.00000 48.72500
H  38.69700 1.77600 47.66200
H  40.14300 6.01000 44.95900
H  38.88800 4.77300 44.95900
H  39.74000 4.24200 42.96200
H  40.91300 3.27000 43.86900
H  41.29500 -1.85500 45.67000
H  41.91700 -2.88700 46.88600
H  42.32400 -3.03500 45.19100
H  47.47300 -2.46100 45.50100
H  47.15100 -4.06500 46.03300
H  47.14700 -2.70700 47.23400
H  49.17700 0.86400 46.40100
H  49.64800 3.23600 47.85800
H  48.43400 0.80500 49.13200
H  50.00700 1.52300 49.11300
H  49.69200 -0.02600 48.22100
H  49.40300 4.27500 45.41200
H  49.98700 2.48500 45.06400
H  51.60300 3.70900 46.98300
H  51.66100 4.64700 45.49600
H  52.07800 2.98800 45.44100
H  47.24300 8.33900 47.98300
H  46.57900 9.07800 46.51300
H  47.95100 7.86300 46.46900
H  41.61100 7.15800 45.70300
H  38.27700 8.14500 47.18300
H  38.76600 9.67900 47.81000
H  38.99500 8.30100 48.85600

