158

Mg 1.23400 7.62600 25.40600
C  1.73000 9.50300 28.29400
C  1.78500 4.78300 27.40900
C  0.89300 5.88400 22.60000
C  1.50700 10.61500 23.60600
N  1.82300 7.21900 27.56700
C  1.74300 8.15700 28.53400
C  1.76000 7.47100 29.92100
C  2.14800 5.94300 29.63300
C  1.94200 5.96900 28.11200
C  3.53300 5.54400 30.04300
C  0.33700 7.66800 30.62900
C  0.38900 7.87500 32.21500
H  1.67700 7.58400 32.96200
N  1.31400 5.61100 25.03700
C  1.42700 4.56200 26.07200
C  1.25900 3.29100 25.35800
C  1.01700 3.60900 23.96800
C  0.98800 5.08800 23.79600
C  1.29300 1.92300 26.03600
C  0.77300 2.58400 22.83700
O  0.33800 2.96300 21.74600
C  1.17600 1.13100 23.01000
N  1.15700 8.20600 23.39800
C  0.95400 7.25400 22.43200
C  1.01400 7.90800 21.02400
C  0.81900 9.46900 21.30000
C  1.26800 9.45700 22.82700
C  2.32000 7.71400 20.15700
C  -0.65900 9.96000 21.02800
C  -0.77800 11.14300 20.02800
N  1.53100 9.66500 25.82200
C  1.59800 10.74100 24.96400
C  1.79800 11.96600 25.75500
C  1.81700 11.47700 27.08000
C  1.57900 10.10700 27.05300
C  2.09300 13.35600 25.22200
C  2.11900 11.94300 28.41500
O  2.51700 13.05600 28.75300
C  1.91900 10.68800 29.27600
C  3.07900 10.56900 30.14600
O  4.13200 9.97300 29.98600
O  2.76200 11.22500 31.34000
C  3.69300 11.16500 32.45300
H  1.97100 3.89100 28.01000
H  0.72200 5.27100 21.71300
H  1.39400 11.59000 23.12700
H  2.51900 7.88400 30.58500
H  1.43800 5.24000 30.06800
H  4.10600 6.17800 30.71900
H  4.12100 5.28600 29.16200
H  3.32800 4.57700 30.50200
H  -0.24500 6.75500 30.50400
H  -0.23600 8.51700 30.25600
H  -0.45700 7.35400 32.66500
H  0.29200 8.94700 32.38300
H  1.99700 1.17400 25.67300
H  0.32600 1.44600 25.87500
H  1.39700 2.05900 27.11300
H  1.10800 0.48000 22.13800
H  0.45000 0.70100 23.70100
H  2.16400 0.99400 23.44900
H  0.20500 7.56300 20.38000
H  1.50300 10.11100 20.74400
H  2.77000 8.64200 19.80300
H  2.27100 6.90900 19.42300
H  3.01700 7.22400 20.83700
H  -1.18400 10.30000 21.92000
H  -1.29400 9.19600 20.58000
H  -1.61000 11.00200 19.33800
H  0.07900 11.27900 19.36800
H  -0.93500 12.05300 20.60800
H  1.73400 13.46900 24.19900
H  3.16100 13.57200 25.26900
H  1.61800 14.05600 25.90900
H  1.04100 10.89800 29.88700
H  3.25300 11.37300 33.42800
H  4.52700 11.84400 32.27400
H  4.06800 10.14200 32.41600
Mg 47.37800 44.41600 44.03100
C  43.96600 43.90500 43.65600
C  47.73600 41.09200 42.86500
C  50.72000 44.86400 43.71000
C  46.85700 47.82000 44.27000
N  46.02000 42.63400 43.65300
C  44.70500 42.74600 43.37600
C  44.08800 41.53900 42.65000
C  45.27700 40.56700 42.77900
C  46.45400 41.46500 43.14900
C  45.17700 39.39300 43.78100
C  43.51600 41.88700 41.18700
C  42.09100 41.36800 40.89700
H  41.84100 40.95300 39.49500
N  49.01700 43.09100 43.56900
C  48.94900 41.80600 43.15200
C  50.28100 41.36200 42.80700
C  51.16800 42.37800 43.21900
C  50.31600 43.54800 43.53800
C  50.59200 39.94000 42.31600
C  52.64600 42.18700 43.28100
O  53.20800 41.14000 42.93900
C  53.63500 43.26500 43.67600
N  48.61000 46.13900 43.84500
C  49.99500 46.02300 43.87900
C  50.65500 47.40200 43.98400
C  49.39200 48.40900 44.07700
C  48.21700 47.44400 44.05700
C  51.66100 47.54200 45.21100
C  49.40800 49.51500 42.96200
C  49.17100 50.96200 43.42100
N  45.76700 45.61400 43.99100
C  45.71100 47.02400 44.23900
C  44.29300 47.37800 44.27400
C  43.57900 46.14000 44.06800
C  44.54400 45.15100 43.92300
C  43.67600 48.78000 44.42800
C  42.29000 45.59600 43.90100
O  41.18300 46.13500 43.84700
C  42.49400 44.07400 43.56300
C  41.74900 43.21000 44.50800
O  40.83200 42.47000 44.17900
O  42.33400 43.30700 45.74200
C  41.53800 42.60900 46.75000
H  47.96800 40.07600 42.53800
H  51.78000 45.04600 43.52200
H  46.67700 48.89700 44.31000
H  43.25100 41.14200 43.22400
H  45.50600 40.26700 41.75600
H  44.14400 39.30500 44.11900
H  45.71500 39.68500 44.68300
H  45.66300 38.50000 43.38800
H  44.23500 41.59200 40.42300
H  43.46900 42.96800 41.05500
H  41.32900 42.13200 41.05000
H  41.88000 40.51900 41.54800
H  49.78600 39.39000 41.82900
H  50.83200 39.40300 43.23300
H  51.55600 39.82900 41.81900
H  53.53000 44.00500 42.88200
H  54.61600 42.80100 43.57100
H  53.45100 43.57600 44.70500
H  51.27400 47.57000 43.10300
H  49.22000 48.84300 45.06200
H  51.48500 46.78300 45.97300
H  51.65000 48.54500 45.63700
H  52.66300 47.40200 44.80600
H  48.73800 49.21000 42.15700
H  50.36600 49.47700 42.44500
H  48.13900 51.26800 43.25000
H  49.80000 51.55900 42.76100
H  49.52700 51.27500 44.40200
H  44.23500 49.58500 44.90500
H  42.74400 48.73900 44.99300
H  43.40100 49.01200 43.40000
H  42.14300 43.96000 42.53700
H  41.54800 41.53100 46.58600
H  40.52300 43.00400 46.78700
H  41.98000 42.84700 47.71800

