158

Mg 1.24900 7.28000 26.57700
C  1.95600 9.38300 29.43300
C  0.99200 4.68600 28.90600
C  0.85700 5.33700 24.04500
C  1.86700 10.05200 24.62400
N  1.36400 7.11000 28.97500
C  1.66000 8.05100 29.88600
C  1.68200 7.45800 31.35500
C  1.57700 5.92400 31.05200
C  1.30500 5.91200 29.54200
C  2.82600 5.05000 31.35500
C  0.52300 8.06400 32.16000
C  0.69300 8.40800 33.62900
H  1.75900 7.62100 34.36900
N  0.79600 5.32800 26.48600
C  0.76100 4.40700 27.55300
C  0.35000 3.18100 26.98700
C  0.30000 3.30400 25.56700
C  0.66100 4.68100 25.29900
C  0.25700 1.92800 27.80000
C  -0.10200 2.36600 24.52100
O  -0.30800 2.68100 23.33300
C  -0.42400 0.95300 24.79700
N  1.67900 7.56500 24.61300
C  1.28100 6.58100 23.71100
C  1.39200 7.16400 22.22900
C  1.48800 8.66800 22.55200
C  1.66700 8.81800 24.09200
C  2.63100 6.70200 21.36300
C  0.14900 9.44200 22.15200
C  0.42300 10.69200 21.26200
N  1.84300 9.32000 26.89700
C  1.87900 10.34200 25.98700
C  2.14000 11.61900 26.63800
C  2.17000 11.27900 28.01000
C  2.02900 9.84900 28.08600
C  2.14700 12.97300 25.98200
C  2.27400 11.86100 29.35200
O  2.34500 13.04300 29.63600
C  2.17500 10.53900 30.33400
C  3.28600 10.49200 31.31100
O  4.29300 9.76100 31.28600
O  2.93900 11.36000 32.35300
C  3.92400 11.44100 33.41900
H  0.99300 3.79800 29.54100
H  0.54800 4.77800 23.15900
H  1.97900 10.95100 24.01500
H  2.60900 7.74800 31.85000
H  0.75000 5.51000 31.62900
H  2.64600 4.20500 32.02000
H  3.64900 5.60700 31.80400
H  3.28500 4.63700 30.45700
H  -0.32600 7.38700 32.06200
H  0.16000 8.95200 31.64300
H  -0.22900 8.26100 34.19200
H  1.07900 9.42100 33.51700
H  -0.75600 1.52500 27.79600
H  0.51100 1.89400 28.86000
H  0.83400 1.19600 27.23500
H  -0.71500 0.34900 23.93900
H  -1.32000 0.95400 25.41700
H  0.44700 0.42900 25.19100
H  0.54400 6.82900 21.63300
H  2.37400 9.19200 22.19400
H  3.05100 7.58000 20.87200
H  2.41100 5.86700 20.69800
H  3.43300 6.52700 22.08000
H  -0.38500 9.79700 23.03300
H  -0.49400 8.77700 21.57600
H  0.07300 10.41300 20.26800
H  1.42000 11.12000 21.16400
H  -0.25000 11.49700 21.55800
H  2.08000 12.92400 24.89500
H  3.03700 13.47000 26.36900
H  1.20300 13.39000 26.33100
H  1.25000 10.69800 30.88900
H  4.86000 11.66300 32.90500
H  4.20300 10.51500 33.92100
H  3.53300 12.20700 34.08900
Mg 53.36700 23.48300 44.78500
C  50.61100 25.40400 43.84900
C  51.71600 20.59300 43.86300
C  56.33000 22.00900 44.93400
C  54.88500 26.52000 45.79000
N  51.40500 23.06500 43.86800
C  50.42200 23.99500 43.59900
C  49.21300 23.32200 42.98700
C  49.43000 21.82100 43.47500
C  50.92200 21.78600 43.77600
C  48.37500 21.47700 44.53500
C  49.27200 23.49400 41.47400
C  47.88000 23.43500 40.73900
H  47.70700 23.44300 39.23200
N  53.98100 21.56300 44.36100
C  53.16500 20.52400 44.03800
C  53.97500 19.35500 44.10500
C  55.36100 19.71000 44.32500
C  55.32000 21.18600 44.51700
C  53.51100 17.90000 43.76300
C  56.53500 18.75500 44.38600
O  56.50000 17.63300 43.89400
C  57.86100 19.19900 45.06700
N  55.34300 24.13000 45.39900
C  56.43500 23.38000 45.32600
C  57.72700 24.06100 45.73100
C  57.15100 25.41700 46.26700
C  55.73100 25.35100 45.78500
C  58.56000 23.34600 46.81100
C  58.04200 26.56100 45.70500
C  59.52300 26.79500 46.21300
N  52.92500 25.55400 44.76600
C  53.60500 26.61700 45.25000
C  52.83100 27.83200 45.28500
C  51.64300 27.44900 44.68900
C  51.78100 26.08100 44.31100
C  53.31100 29.19000 45.74100
C  50.30700 27.84900 44.34400
O  49.63000 28.85600 44.55800
C  49.66800 26.60100 43.70300
C  49.41000 27.08300 42.32900
O  50.26300 27.62100 41.61100
O  48.13000 26.80400 41.97300
C  47.71700 27.28900 40.68200
H  51.14400 19.67600 43.70800
H  57.32200 21.57200 44.80400
H  55.28100 27.46500 46.16800
H  48.30700 23.80000 43.35900
H  49.19700 21.14600 42.65100
H  47.75000 20.69000 44.11500
H  47.70500 22.26000 44.89100
H  48.84300 21.13200 45.45700
H  49.79400 22.61000 41.10600
H  49.77500 24.42400 41.21000
H  47.34900 24.30000 41.13800
H  47.47600 22.52200 41.17700
H  53.62700 17.68500 42.70100
H  52.44800 17.73100 43.93200
H  54.06400 17.12600 44.29600
H  58.42800 19.79100 44.35000
H  58.42400 18.27700 45.21600
H  57.62100 19.65200 46.02900
H  58.34400 24.12600 44.83500
H  57.17000 25.52700 47.35200
H  58.67500 23.98200 47.68900
H  59.59100 23.14600 46.51800
H  57.94100 22.51700 47.15100
H  57.70000 27.58400 45.86800
H  58.21900 26.40400 44.64100
H  59.60700 26.29800 47.18000
H  59.85100 27.82800 46.33200
H  60.24400 26.31400 45.55300
H  52.51900 29.91400 45.55000
H  54.07600 29.49700 45.02700
H  53.63300 29.05700 46.77400
H  48.73000 26.37700 44.21000
H  47.84500 26.52000 39.92100
H  48.21600 28.21300 40.39000
H  46.64100 27.46200 40.70500

