158

Mg 47.08800 15.56500 28.13300
C  44.98600 15.67200 30.94800
C  49.39000 17.44700 29.79400
C  48.64600 16.16300 25.23400
C  44.39100 14.26900 26.31000
N  47.07900 16.51300 30.08200
C  46.22200 16.30400 31.16100
C  46.78400 16.84600 32.49000
C  48.06300 17.67600 32.01700
C  48.25700 17.08700 30.53700
C  47.89400 19.18800 32.02000
C  46.93200 15.70300 33.49100
C  46.21500 16.13700 34.83000
H  46.09300 17.59100 35.31600
N  48.85400 16.61400 27.56700
C  49.71500 17.24600 28.43200
C  50.87700 17.67800 27.63400
C  50.67000 17.31200 26.28400
C  49.32600 16.70100 26.30800
C  51.98300 18.40400 28.33500
C  51.57500 17.43300 25.04800
O  51.26500 17.01100 23.95300
C  52.92800 18.05500 25.26600
N  46.61300 15.21500 26.10200
C  47.42700 15.51100 25.09100
C  46.87200 15.08300 23.71700
C  45.59300 14.34100 24.09100
C  45.58100 14.48900 25.59800
C  46.68700 16.23800 22.78600
C  45.51300 12.87100 23.65000
C  44.45500 12.54400 22.58000
N  45.12800 14.96400 28.54200
C  44.14400 14.53600 27.65600
C  42.93800 14.25000 28.34400
C  43.15400 14.75000 29.64500
C  44.53900 15.12300 29.71100
C  41.66200 13.75600 27.77300
C  42.60200 14.88700 30.98600
O  41.49100 14.61500 31.45500
C  43.77300 15.40500 31.90000
C  43.19100 16.63600 32.45400
O  43.32200 17.73500 31.95100
O  42.49300 16.49600 33.67200
C  41.93600 17.68900 34.24900
H  50.14800 17.92500 30.41700
H  49.00300 16.07700 24.20500
H  43.56700 13.87700 25.71000
H  46.07000 17.56900 32.88400
H  48.92900 17.47700 32.64800
H  48.37500 19.63100 32.89300
H  46.85300 19.47700 32.16100
H  48.23500 19.63000 31.08400
H  47.97600 15.53600 33.75600
H  46.51400 14.81200 33.02300
H  46.62300 15.49500 35.61100
H  45.17000 15.86300 34.68200
H  52.87200 17.87300 27.99500
H  51.90300 18.29800 29.41700
H  52.15600 19.45500 28.10300
H  52.73300 19.06500 25.62800
H  53.45600 18.13600 24.31600
H  53.52900 17.49000 25.97800
H  47.50600 14.38900 23.16600
H  44.75200 14.91900 23.70800
H  45.71600 16.28200 22.29500
H  47.45800 16.19500 22.01700
H  46.77100 17.18700 23.31600
H  45.38200 12.21300 24.50900
H  46.47100 12.63100 23.18900
H  43.99400 11.62200 22.93500
H  44.95400 12.55400 21.61100
H  43.66700 13.29100 22.47600
H  41.69800 12.75700 27.33900
H  41.40600 14.45400 26.97600
H  40.83700 13.75900 28.48600
H  44.04300 14.79600 32.76300
H  41.31200 18.11900 33.46600
H  42.67700 18.47300 34.40200
H  41.34700 17.45000 35.13500
Mg 46.51500 25.16300 28.70500
C  47.60000 27.50400 31.08200
C  45.67800 23.10900 31.25600
C  45.97500 22.75000 26.42400
C  47.97900 27.11800 26.18500
N  46.55700 25.37800 30.85700
C  46.87700 26.45000 31.67800
C  46.56700 26.22200 33.13100
C  46.01800 24.73600 33.17300
C  46.09600 24.36700 31.65200
C  46.67600 23.79500 34.16100
C  45.68500 27.40400 33.74200
C  46.16900 28.01500 35.05900
H  45.09500 28.27200 36.20400
N  45.83200 23.14500 28.81300
C  45.56100 22.53700 30.00800
C  45.06800 21.17800 29.60700
C  45.20300 21.00400 28.18300
C  45.71100 22.30600 27.72700
C  44.55000 20.14700 30.60400
C  44.88600 19.87100 27.33700
O  44.93100 19.89300 26.11300
C  44.56700 18.52400 27.97200
N  46.99200 24.94700 26.62600
C  46.47000 23.91000 25.89400
C  46.59200 24.22100 24.40500
C  47.01600 25.68800 24.38300
C  47.42000 25.93500 25.78500
C  47.50100 23.26100 23.60300
C  45.86600 26.68300 23.94000
C  46.26200 27.55900 22.74800
N  47.51500 26.95700 28.59700
C  48.03500 27.63000 27.48200
C  48.68000 28.85700 27.97900
C  48.51500 28.79700 29.37000
C  47.79500 27.71700 29.68300
C  49.47400 29.79500 27.17400
C  48.86300 29.42100 30.54500
O  49.64300 30.38200 30.71700
C  48.23600 28.73300 31.74100
C  49.33800 28.24200 32.63700
O  50.33000 27.60300 32.29200
O  49.12300 28.67500 33.88900
C  50.12300 28.43800 35.02400
H  45.30200 22.52000 32.09500
H  45.66400 22.04200 25.65300
H  48.27200 27.90600 25.48800
H  47.44400 26.24000 33.77800
H  44.96200 24.93100 33.35600
H  46.89200 24.48300 34.97800
H  47.59900 23.43300 33.70800
H  46.07400 22.94400 34.47800
H  44.68600 27.02700 33.95900
H  45.48000 28.09500 32.92400
H  46.38000 29.03100 34.72600
H  47.06500 27.56200 35.48300
H  43.52900 19.77100 30.55700
H  44.57400 20.42400 31.65800
H  45.16000 19.26900 30.39100
H  43.74400 18.67000 28.67100
H  45.43100 18.18300 28.54300
H  44.42600 17.68800 27.28600
H  45.61200 24.13900 23.93500
H  47.93900 25.91500 23.84900
H  46.95600 22.69000 22.85100
H  47.90600 22.55400 24.32800
H  48.22600 23.86000 23.05200
H  45.67500 27.32500 24.79900
H  44.90900 26.20300 23.73600
H  45.63600 27.32300 21.88800
H  47.31500 27.37600 22.53400
H  46.11700 28.58200 23.09600
H  49.12400 30.04600 26.17300
H  50.43300 29.31700 26.97100
H  49.54700 30.72300 27.74200
H  47.60200 29.44500 32.26800
H  49.75500 28.75900 35.99800
H  51.04500 28.98600 34.82900
H  50.33900 27.39600 35.26100

