158

Mg 25.05400 1.96600 30.72900
C  27.29400 1.70100 33.33800
C  22.36900 2.19600 32.92200
C  22.92000 1.93000 28.02700
C  27.67700 1.24000 28.48900
N  24.90900 1.79700 32.93400
C  26.00100 1.98000 33.73700
C  25.58200 2.53000 35.19300
C  23.95400 2.53000 35.03800
C  23.70500 2.09300 33.54100
C  23.16200 1.64500 36.07100
C  26.23000 3.90100 35.53700
C  27.28600 3.93100 36.75400
H  26.86400 4.79800 37.95000
N  22.97300 2.02500 30.55500
C  22.03100 2.11300 31.55600
C  20.70400 2.15700 30.94500
C  20.85300 1.96900 29.55300
C  22.28000 1.97400 29.35900
C  19.41600 2.10400 31.85000
C  19.75000 1.98800 28.47400
O  19.99900 2.00300 27.22300
C  18.31600 1.97100 28.85600
N  25.31300 1.70400 28.61000
C  24.25400 1.74900 27.73600
C  24.67400 1.64000 26.31300
C  26.21600 1.31400 26.41300
C  26.44500 1.41700 27.90800
C  23.91200 0.55900 25.48000
C  27.08200 2.24400 25.45500
C  27.20600 3.71100 25.89600
N  27.09600 1.50800 30.85000
C  27.99700 1.25400 29.85300
C  29.30200 1.03700 30.48700
C  29.07300 1.20700 31.86100
C  27.71200 1.44000 32.06200
C  30.53900 0.71500 29.84800
C  29.68200 1.18500 33.17300
O  30.83600 0.82900 33.50300
C  28.60900 1.68700 34.19500
C  28.57300 0.80800 35.32300
O  27.83400 -0.14500 35.54000
O  29.38900 1.29000 36.26700
C  29.29800 0.72800 37.56100
H  21.53900 2.40000 33.60100
H  22.19400 2.13700 27.23800
H  28.51500 0.99800 27.83200
H  25.92000 1.83400 35.96100
H  23.50900 3.52400 35.08500
H  22.69500 0.80800 35.55200
H  22.39000 2.36000 36.35500
H  23.85000 1.35900 36.86600
H  25.40500 4.56700 35.79200
H  26.78000 4.23500 34.65800
H  28.27300 4.30200 36.47700
H  27.18300 2.93000 37.17400
H  18.86700 1.16300 31.90400
H  18.74000 2.84800 31.42800
H  19.63000 2.45400 32.86000
H  18.11600 1.00300 29.31500
H  17.78100 2.05500 27.91000
H  18.07000 2.81400 29.50200
H  24.63800 2.64100 25.88300
H  26.44600 0.28200 26.14700
H  23.32000 0.04400 26.23700
H  24.59400 -0.13200 24.98500
H  23.27800 1.07900 24.76300
H  26.77400 2.18900 24.41100
H  28.10400 1.86700 25.49900
H  28.23700 3.98000 26.12500
H  26.48200 3.96300 26.67000
H  26.78100 4.31800 25.09700
H  30.24600 -0.18400 29.30600
H  31.30500 0.53900 30.60300
H  30.73400 1.45700 29.07300
H  28.96100 2.65500 34.55200
H  28.27300 0.92700 37.87200
H  30.12600 1.14500 38.13400
H  29.44300 -0.34700 37.44700
Mg -11.99800 37.48400 43.32300
C  -9.82100 35.08200 42.18900
C  -10.08300 39.77800 41.54400
C  -14.37900 39.89800 43.76700
C  -14.07900 35.03300 44.38200
N  -10.22300 37.37600 41.88600
C  -9.45500 36.30100 41.60800
C  -8.28600 36.56300 40.61800
C  -8.35900 38.12000 40.62700
C  -9.69200 38.48900 41.31300
C  -7.06000 38.77900 41.25700
C  -8.57900 35.84300 39.28900
C  -7.30500 35.27600 38.56800
H  -6.80200 36.06500 37.35500
N  -12.14800 39.58800 42.88600
C  -11.25800 40.30700 42.19000
C  -11.64800 41.71100 42.40700
C  -12.89100 41.77700 43.04300
C  -13.20700 40.35400 43.28500
C  -10.76900 42.83700 41.74500
C  -13.67700 43.02100 43.31600
O  -13.20000 44.11800 43.02000
C  -15.03200 43.11400 43.94600
N  -14.00800 37.49300 43.90300
C  -14.80100 38.58100 43.95400
C  -16.18200 38.22300 44.67100
C  -16.09400 36.63700 44.70600
C  -14.66900 36.30500 44.21200
C  -16.40500 38.86200 46.07800
C  -17.17000 35.86100 43.98500
C  -16.85900 35.03200 42.68900
N  -11.94900 35.51400 43.37700
C  -12.79100 34.66900 44.02200
C  -12.22400 33.38400 44.00800
C  -11.01100 33.52500 43.38100
C  -10.92500 34.82400 42.98500
C  -12.76500 32.12100 44.67100
C  -9.77100 32.85400 42.98700
O  -9.38800 31.71400 43.25700
C  -8.94700 33.80600 42.07900
C  -7.65200 34.01000 42.87700
O  -7.48600 34.70500 43.85800
O  -6.62700 33.37300 42.21800
C  -5.32500 33.48400 42.89100
H  -9.50200 40.57700 41.07900
H  -15.15600 40.66100 43.83700
H  -14.75200 34.27400 44.78600
H  -7.42800 36.12400 41.12700
H  -8.29500 38.53300 39.62000
H  -7.37200 39.42100 42.08000
H  -6.71200 39.48100 40.49900
H  -6.26300 38.11600 41.59300
H  -9.13300 36.54500 38.66500
H  -9.20700 34.99000 39.54400
H  -7.62000 34.27600 38.27200
H  -6.51300 35.07200 39.28900
H  -11.40700 43.54000 41.20900
H  -10.13900 42.45400 40.94200
H  -10.13900 43.35400 42.46800
H  -15.22100 44.17300 44.11900
H  -15.12600 42.36700 44.73500
H  -15.81200 42.82400 43.24200
H  -16.97200 38.56900 44.00500
H  -16.04200 36.32500 45.75000
H  -16.96000 39.76500 45.82400
H  -15.40000 39.10400 46.42500
H  -17.01000 38.26800 46.76200
H  -18.08100 36.43900 43.83300
H  -17.54700 35.19300 44.76000
H  -16.70200 33.99600 42.98700
H  -15.95300 35.40000 42.20900
H  -17.70900 35.12500 42.01200
H  -13.47700 32.40900 45.44400
H  -11.98100 31.61100 45.23000
H  -13.19400 31.51000 43.87700
H  -8.81700 33.37900 41.08400
H  -4.49600 33.20500 42.24000
H  -5.28900 32.66500 43.60900
H  -5.09000 34.40900 43.41800

