158

Mg 53.48600 24.33000 44.68400
C  50.72700 26.26000 44.16000
C  51.55200 21.58400 43.67800
C  56.26800 22.38500 44.20600
C  55.37300 27.06600 45.23100
N  51.32400 23.91700 44.07900
C  50.44500 24.95400 43.81500
C  49.11600 24.41300 43.19500
C  49.27100 22.95600 43.61700
C  50.79300 22.80300 43.76100
C  48.40100 22.60200 44.80500
C  49.10100 24.62600 41.68500
C  47.66700 24.83500 41.19500
H  47.41500 24.47700 39.74800
N  53.85400 22.28000 44.23800
C  52.92200 21.33400 43.86100
C  53.49500 20.10000 43.74200
C  54.83600 20.16400 43.99100
C  55.05200 21.65300 44.22200
C  52.66300 18.91500 43.36100
C  55.80100 19.13500 43.99900
O  55.52600 17.98800 43.64500
C  57.10800 19.42600 44.43100
N  55.58500 24.61000 44.61700
C  56.54500 23.72400 44.38100
C  57.96400 24.43900 44.34700
C  57.63700 25.91600 44.65700
C  56.14400 25.88600 44.91200
C  58.91100 23.78800 45.43000
C  57.90500 26.84000 43.38200
C  59.00300 27.95000 43.73500
N  53.10500 26.20600 44.89500
C  53.98300 27.22600 45.21900
C  53.21600 28.39600 45.50000
C  51.84300 28.09500 45.12000
C  51.89200 26.72000 44.67800
C  53.70900 29.74100 45.94300
C  50.59900 28.63100 44.85300
O  50.08300 29.71200 45.19100
C  49.81300 27.48300 44.22200
C  49.20200 27.96900 42.90600
O  49.70700 27.97600 41.76000
O  47.93600 28.33500 43.10100
C  47.22900 28.88900 41.91600
H  50.89300 20.74800 43.43300
H  57.10500 21.75700 43.89300
H  55.96500 27.94100 45.50700
H  48.22800 24.90800 43.58700
H  48.91400 22.42300 42.73500
H  47.68300 21.80400 44.61800
H  47.92900 23.48200 45.24300
H  49.10300 22.36200 45.60300
H  49.48300 23.73000 41.19700
H  49.72600 25.45700 41.35700
H  47.38500 25.88100 41.30900
H  47.00100 24.23600 41.81500
H  52.31000 18.85600 42.33100
H  51.84900 18.99400 44.08100
H  53.18500 17.96400 43.47300
H  57.79900 19.70400 43.63500
H  57.48900 18.43500 44.67800
H  57.20200 20.07600 45.30000
H  58.45400 24.30800 43.38200
H  58.09300 26.33100 45.55700
H  59.95100 23.81100 45.10500
H  58.61100 22.80500 45.79400
H  58.86800 24.40200 46.33000
H  56.97600 27.28300 43.02200
H  58.24000 26.25500 42.52600
H  59.81500 27.61500 44.38000
H  58.62100 28.74600 44.37500
H  59.40000 28.37000 42.81100
H  53.20500 30.62700 45.55800
H  54.76100 29.82700 45.66800
H  53.43700 29.89800 46.98700
H  48.94900 27.28300 44.85500
H  46.94200 27.95800 41.42600
H  47.74200 29.47200 41.15100
H  46.39800 29.50600 42.25600
Mg 42.70200 41.30800 26.19000
C  41.61700 43.74300 28.58600
C  43.69500 39.35600 28.72400
C  43.89500 39.17400 23.82800
C  42.38300 43.88700 23.83300
N  42.82100 41.59900 28.47000
C  42.18700 42.61800 29.22800
C  42.09200 42.22400 30.73200
C  42.79200 40.82800 30.74300
C  43.19900 40.57300 29.21500
C  43.92600 40.43500 31.68000
C  40.69900 42.15800 31.26600
C  40.35200 43.10400 32.42900
H  39.82100 42.41900 33.69600
N  43.61100 39.48700 26.25600
C  43.86100 38.84200 27.36700
C  44.40600 37.54500 27.02400
C  44.46200 37.43200 25.62700
C  44.00200 38.76600 25.15200
C  44.84300 36.50100 28.03300
C  45.01900 36.35300 24.71800
O  45.05400 36.42600 23.47600
C  45.37300 35.00400 25.31400
N  43.21700 41.53100 24.16400
C  43.56800 40.43500 23.38800
C  43.58100 40.79000 21.87900
C  42.85000 42.18400 21.90500
C  42.76400 42.58700 23.39100
C  45.00600 40.87000 21.30500
C  41.42300 42.15200 21.15200
C  40.19500 41.55800 21.85500
N  42.20000 43.46100 26.18700
C  42.03100 44.26800 25.11400
C  41.43800 45.53900 25.48500
C  41.26200 45.38500 26.89800
C  41.66300 44.07700 27.24200
C  41.20800 46.64600 24.55200
C  40.74000 45.96500 28.12300
O  40.09200 47.00800 28.28100
C  40.95900 44.89600 29.27600
C  41.87300 45.56500 30.22300
O  43.11800 45.56300 30.16100
O  41.10600 46.10200 31.23300
C  41.76000 46.74000 32.41300
H  43.96800 38.66800 29.52700
H  43.94600 38.42000 23.04000
H  42.18200 44.60500 23.03600
H  42.72300 42.86900 31.34400
H  42.09500 39.99100 30.78100
H  44.81300 40.11900 31.13000
H  43.76700 39.56100 32.31200
H  44.00500 41.24400 32.40600
H  40.44100 41.13400 31.53500
H  40.12500 42.41100 30.37400
H  39.69300 43.94100 32.19800
H  41.32900 43.52600 32.66600
H  44.64500 36.69700 29.08700
H  45.92000 36.34200 27.97900
H  44.53000 35.47500 27.84300
H  46.11800 35.18800 26.08800
H  45.90300 34.41600 24.56400
H  44.44500 34.52500 25.62400
H  43.10500 40.00900 21.28600
H  43.44400 42.98500 21.46500
H  45.74800 40.38900 21.94300
H  45.42100 41.79800 20.91300
H  44.92300 40.21400 20.43800
H  41.50900 41.58900 20.22300
H  41.00800 43.12900 20.90400
H  40.33800 40.94400 22.74400
H  39.64600 40.92600 21.15700
H  39.68400 42.44200 22.23800
H  42.24300 46.89500 24.31600
H  40.51400 47.39200 24.93800
H  40.81800 46.33700 23.58200
H  39.98000 44.78700 29.74100
H  41.63900 46.02700 33.22800
H  41.20300 47.63800 32.68200
H  42.83300 46.92500 32.36200

