158

Mg 16.58200 -2.27200 27.77200
C  15.54500 -0.25500 30.46500
C  18.51600 -4.14000 29.90400
C  18.16700 -3.50400 25.16500
C  15.05800 0.16100 25.73100
N  17.06000 -2.11000 29.89000
C  16.37100 -1.35400 30.79200
C  16.74000 -1.67300 32.24200
C  17.78400 -2.78800 32.00600
C  17.77800 -3.10500 30.49200
C  19.29700 -2.41800 32.51700
C  15.55500 -2.02100 33.21300
C  15.48500 -1.26800 34.54300
H  16.79100 -0.60200 35.10500
N  18.02200 -3.71800 27.53000
C  18.67600 -4.44000 28.56000
C  19.50200 -5.38100 27.99400
C  19.36300 -5.29600 26.53800
C  18.46500 -4.11600 26.33300
C  20.38200 -6.31900 28.82200
C  19.98100 -6.11400 25.40500
O  19.84300 -5.80300 24.24000
C  20.72500 -7.33000 25.65400
N  16.55800 -1.77400 25.68300
C  17.27500 -2.46500 24.79700
C  17.16400 -1.94100 23.40100
C  15.96300 -0.92100 23.55000
C  15.86400 -0.81100 25.08700
C  18.49300 -1.42500 22.81300
C  14.65300 -1.28400 22.90300
C  13.55200 -1.85400 23.83200
N  15.41900 -0.48700 27.94800
C  14.80000 0.40100 27.04600
C  14.10600 1.43500 27.77200
C  14.37400 1.18600 29.10100
C  15.12100 0.05900 29.20900
C  13.20100 2.43200 27.19400
C  14.09800 1.72300 30.39000
O  13.52000 2.71400 30.75000
C  14.84100 0.73100 31.41800
C  15.77400 1.64600 32.12400
O  16.86100 2.08300 31.70100
O  15.10200 2.18200 33.22800
C  15.94900 3.29000 33.82600
H  18.88900 -4.86200 30.63300
H  18.63300 -3.91900 24.26800
H  14.68300 0.85500 24.97500
H  17.34200 -0.87400 32.67700
H  17.61300 -3.75600 32.47900
H  19.34500 -1.40900 32.92900
H  20.01300 -2.61100 31.71900
H  19.52700 -3.17200 33.27000
H  15.61400 -3.09800 33.36900
H  14.59400 -1.89000 32.71500
H  15.14300 -1.98600 35.28900
H  14.78500 -0.43300 34.51900
H  20.05000 -7.35500 28.75700
H  20.39300 -6.07100 29.88300
H  21.42200 -6.31700 28.49500
H  21.56100 -6.99000 26.26500
H  20.99800 -7.88000 24.75400
H  20.05100 -7.93900 26.25700
H  16.80800 -2.82900 22.87700
H  16.21500 0.08600 23.21900
H  19.13600 -1.08300 23.62400
H  18.33200 -0.56000 22.17000
H  19.00400 -2.20900 22.25500
H  14.83000 -1.93200 22.04400
H  14.24100 -0.33700 22.55500
H  12.69600 -1.19300 23.96300
H  13.85600 -2.28100 24.78800
H  13.12400 -2.59900 23.16000
H  12.18400 2.03900 27.19700
H  13.28800 2.68500 26.13800
H  13.18500 3.35400 27.77500
H  14.15500 0.35200 32.17500
H  16.97500 2.96400 33.99700
H  15.49900 3.47700 34.80100
H  15.92000 4.18800 33.20900
Mg -12.21100 15.93600 41.87600
C  -9.36900 14.12500 41.23200
C  -10.80200 18.63000 40.10400
C  -15.32600 17.37200 41.68900
C  -13.72200 12.95500 42.96300
N  -10.44500 16.15800 40.56200
C  -9.35500 15.34100 40.56300
C  -8.11000 15.94900 39.90400
C  -8.54300 17.50500 39.79200
C  -10.07600 17.46100 40.15400
C  -7.67600 18.53700 40.57900
C  -7.61600 15.17800 38.64900
C  -6.16300 14.78000 38.67200
H  -5.40600 15.60500 37.60600
N  -13.00400 17.84900 41.18400
C  -12.19500 18.77400 40.51200
C  -13.01800 19.89000 40.28200
C  -14.32300 19.57200 40.62800
C  -14.29000 18.19400 41.23300
C  -12.34000 21.16000 39.74700
C  -15.52000 20.45400 40.41100
O  -15.36200 21.50900 39.72800
C  -16.86500 20.19700 40.98300
N  -14.24700 15.28100 42.27700
C  -15.32700 16.08700 42.13500
C  -16.61300 15.26000 42.41000
C  -16.07700 13.87800 42.86300
C  -14.59000 14.08500 42.72000
C  -17.59700 16.12100 43.35000
C  -16.64900 12.65100 42.06700
C  -17.48000 11.62600 42.83600
N  -11.71300 13.92700 42.13600
C  -12.36900 12.85800 42.72600
C  -11.44400 11.70600 42.93300
C  -10.23800 12.24800 42.36500
C  -10.47900 13.53100 41.88400
C  -11.76500 10.31700 43.56600
C  -8.86300 11.90700 42.09700
O  -8.22400 10.88600 42.43500
C  -8.21200 13.15400 41.39800
C  -7.10400 13.56200 42.38500
O  -7.24700 14.09900 43.44500
O  -5.92600 13.12500 41.86800
C  -4.69100 13.38000 42.69800
H  -10.42900 19.58600 39.73000
H  -16.34200 17.73100 41.51300
H  -14.16500 12.06900 43.42300
H  -7.25600 15.84100 40.57200
H  -8.50900 17.76300 38.73300
H  -7.19300 19.26700 39.93000
H  -7.02000 18.06300 41.30900
H  -8.30800 19.08400 41.27900
H  -7.80000 15.77700 37.75600
H  -8.14400 14.23000 38.54600
H  -6.17500 13.70300 38.50300
H  -5.63600 15.04200 39.58900
H  -12.98200 22.04100 39.75500
H  -11.86600 21.15600 38.76600
H  -11.50400 21.43400 40.39000
H  -17.42400 21.12800 41.08000
H  -16.84800 19.80500 42.00000
H  -17.35400 19.54400 40.26000
H  -17.12600 15.19000 41.45100
H  -16.16800 13.82700 43.94800
H  -18.41000 16.48100 42.71900
H  -16.98100 16.89100 43.81400
H  -17.92700 15.42100 44.11900
H  -15.88400 12.20600 41.43200
H  -17.40400 12.93600 41.33500
H  -18.53600 11.88100 42.74800
H  -17.09600 11.52500 43.85200
H  -17.30600 10.59700 42.52300
H  -10.90600 9.85600 44.05400
H  -12.17800 9.63200 42.82500
H  -12.48800 10.47900 44.36600
H  -7.74500 12.88100 40.45200
H  -3.86600 12.73900 42.38500
H  -4.84900 13.28900 43.77300
H  -4.41800 14.40700 42.45600

