158

Mg 25.95800 0.49800 29.11000
C  28.05100 0.29000 32.10700
C  23.36100 0.79800 31.20800
C  24.31200 1.11800 26.35000
C  28.99000 0.35800 27.31800
N  25.82800 0.55900 31.43000
C  26.67300 0.45300 32.45700
C  26.02500 0.52800 33.81100
C  24.52100 0.29800 33.39000
C  24.52900 0.48300 31.86700
C  23.74400 -0.93300 33.78200
C  26.23300 1.87400 34.53300
C  25.50700 1.95000 35.84600
H  26.30400 2.27100 37.12200
N  23.99100 0.87600 28.81700
C  23.08400 1.04900 29.85900
C  21.83800 1.33500 29.21700
C  22.07700 1.43500 27.76300
C  23.49300 1.03700 27.56300
C  20.60300 1.55500 30.03000
C  21.24400 1.81100 26.63600
O  21.63600 1.76700 25.51600
C  19.78700 2.06600 26.86300
N  26.56500 0.54700 27.16800
C  25.65700 0.93200 26.17300
C  26.37600 1.24700 24.88000
C  27.81400 0.78700 25.15500
C  27.82200 0.59900 26.62800
C  25.76100 0.61200 23.56700
C  28.88600 1.77900 24.52900
C  30.16300 1.11600 23.88200
N  28.09200 0.23000 29.56800
C  29.20700 0.22000 28.71600
C  30.47500 0.06000 29.47700
C  30.04000 0.10800 30.78300
C  28.58600 0.19200 30.74100
C  31.86900 -0.08300 28.98300
C  30.44500 0.21600 32.14600
O  31.59700 0.17400 32.59700
C  29.18000 0.26300 33.03800
C  29.09900 -0.70400 34.11100
O  28.84900 -1.89900 34.01600
O  29.20200 -0.08800 35.38200
C  28.89100 -0.79300 36.59600
H  22.56700 0.73300 31.95400
H  23.88100 1.48200 25.41500
H  29.93700 0.31400 26.77500
H  26.34500 -0.24500 34.51100
H  23.86600 1.11800 33.68600
H  22.82500 -0.78100 34.34700
H  24.21600 -1.64900 34.45400
H  23.44000 -1.56100 32.94400
H  26.01900 2.73400 33.89900
H  27.31000 1.97800 34.67100
H  25.10600 0.95200 36.02400
H  24.70800 2.67800 35.70500
H  19.82700 0.91900 29.60400
H  20.28300 2.59600 29.98500
H  20.90000 1.37900 31.06400
H  19.62300 2.71000 27.72700
H  19.23000 1.13500 26.96400
H  19.28000 2.58800 26.05100
H  26.38700 2.33100 24.76900
H  28.06500 -0.18400 24.73000
H  24.89500 -0.01100 23.79000
H  26.40700 -0.14500 23.12300
H  25.51400 1.27800 22.74000
H  29.16800 2.37400 25.39800
H  28.35800 2.43600 23.83800
H  30.17400 1.09500 22.79200
H  30.37200 0.06500 24.08300
H  31.03000 1.71400 24.16300
H  31.81500 0.06100 27.90400
H  32.33700 -1.00500 29.32800
H  32.40300 0.80600 29.31700
H  29.21100 1.28400 33.41800
H  29.37000 -1.74900 36.80900
H  27.87500 -1.16600 36.45900
H  28.95400 -0.20700 37.51300
Mg 41.09600 9.00900 29.35900
C  42.88500 10.09600 32.20600
C  38.78100 7.57900 31.36900
C  39.54800 7.94800 26.56000
C  43.72100 10.21100 27.39100
N  40.88400 8.84400 31.63100
C  41.68600 9.41400 32.59900
C  41.12600 9.19300 34.02200
C  39.91800 8.25700 33.69500
C  39.86700 8.15000 32.15800
C  40.15000 6.88200 34.34600
C  40.70600 10.54400 34.73700
C  40.33700 10.37700 36.19500
H  41.02700 11.26300 37.25100
N  39.38300 7.89500 28.99200
C  38.52000 7.46200 29.98400
C  37.41600 6.82100 29.31900
C  37.58300 6.90400 27.85200
C  38.88300 7.65400 27.72200
C  36.32400 6.15100 30.09300
C  36.72700 6.44900 26.69600
O  36.93800 6.59000 25.52600
C  35.49300 5.84000 27.01800
N  41.67200 8.96100 27.35300
C  40.82400 8.53000 26.36800
C  41.38400 8.70700 24.90000
C  42.62800 9.64700 25.19600
C  42.70000 9.55200 26.76200
C  41.58100 7.44400 24.04900
C  42.55600 11.06100 24.60000
C  41.61400 11.98400 25.40400
N  42.96600 9.85400 29.74200
C  43.89300 10.41200 28.79200
C  44.85600 11.14000 29.45200
C  44.54900 11.00100 30.83700
C  43.38900 10.23700 30.88900
C  46.10900 11.83000 28.90200
C  45.05700 11.32100 32.12700
O  46.07400 11.91300 32.48900
C  43.89000 10.86400 33.12700
C  44.45300 9.94900 34.18100
O  45.33100 9.17700 34.04500
O  43.76700 10.16300 35.39200
C  44.03200 9.10800 36.42300
H  38.07600 7.19200 32.10800
H  39.05200 7.73500 25.61100
H  44.42300 10.75900 26.75900
H  41.77100 8.54600 34.61700
H  38.96400 8.63400 34.06300
H  40.33100 6.19200 33.52200
H  39.29600 6.55300 34.93800
H  40.95000 6.76700 35.07900
H  39.78000 10.81800 34.23100
H  41.43800 11.34000 34.60500
H  40.56600 9.33500 36.41700
H  39.27500 10.61900 36.23800
H  36.47000 5.09300 29.87700
H  35.32100 6.44800 29.78700
H  36.37100 6.38300 31.15700
H  34.87100 6.59600 27.49800
H  35.70600 4.99100 27.66600
H  35.01200 5.52800 26.09100
H  40.53400 9.22400 24.45400
H  43.59000 9.17800 24.98900
H  42.60500 7.46000 23.67600
H  40.93400 7.46900 23.17200
H  41.27500 6.54600 24.58600
H  42.10200 10.85900 23.63000
H  43.55500 11.44600 24.39500
H  41.63200 11.81600 26.48100
H  40.58100 11.85300 25.08200
H  41.78200 13.01600 25.09300
H  45.87400 12.22900 27.91500
H  46.96800 11.17400 29.04200
H  46.25900 12.66500 29.58500
H  43.28700 11.70800 33.46000
H  45.09800 9.20200 36.62800
H  43.88500 8.06700 36.13700
H  43.54800 9.40800 37.35300

