158

Mg 40.40900 9.74600 29.40500
C  42.41500 10.79400 32.08600
C  38.29300 8.33000 31.76100
C  38.75800 8.55600 26.87800
C  42.94300 10.92400 27.24400
N  40.46900 9.47400 31.67700
C  41.26300 10.24000 32.54400
C  40.76100 10.20100 33.98300
C  39.47300 9.23500 33.89800
C  39.42000 8.99000 32.38000
C  39.53300 7.92900 34.65100
C  40.65500 11.52600 34.64600
C  39.62500 11.74300 35.69600
H  40.07700 12.21900 37.07300
N  38.85300 8.57400 29.30900
C  38.01500 8.16800 30.39800
C  36.87000 7.46300 29.90700
C  36.95700 7.57500 28.52500
C  38.27100 8.13500 28.13800
C  35.80400 6.78600 30.69900
C  35.89900 7.32800 27.51000
O  36.05300 7.44000 26.27900
C  34.43400 7.04600 27.92600
N  40.72800 9.83600 27.38600
C  39.87800 9.29600 26.51700
C  40.27600 9.41100 25.09800
C  41.74200 9.96800 25.25500
C  41.78400 10.36600 26.75200
C  40.14900 8.11900 24.11900
C  42.12300 11.29500 24.44300
C  43.60600 11.37200 23.94700
N  42.33500 10.56100 29.58200
C  43.21000 11.07000 28.60300
C  44.36700 11.67900 29.20400
C  44.03600 11.55200 30.57600
C  42.83000 10.89900 30.79700
C  45.55300 12.32800 28.54300
C  44.51700 11.90000 31.95200
O  45.50500 12.56300 32.24700
C  43.47100 11.38100 32.98700
C  44.05600 10.43300 34.03400
O  44.51900 9.31500 33.80600
O  44.31600 11.14500 35.19900
C  45.16200 10.50200 36.30600
H  37.55400 7.88100 32.42800
H  38.09200 8.46000 26.01800
H  43.72100 11.14900 26.51100
H  41.55800 9.63500 34.46500
H  38.59100 9.73000 34.30300
H  39.09800 7.06600 34.14600
H  38.73100 8.02900 35.38300
H  40.39700 7.60500 35.23100
H  40.73400 12.27400 33.85700
H  41.54800 11.68200 35.25100
H  39.11600 10.79900 35.88800
H  38.78800 12.30600 35.28300
H  36.15800 6.25100 31.58100
H  35.45200 5.94800 30.09800
H  34.89800 7.39000 30.66900
H  34.36500 6.01300 28.26700
H  33.80600 7.12500 27.03800
H  34.03400 7.73200 28.67300
H  39.57500 10.16600 24.74100
H  42.31100 9.05100 25.10800
H  40.96200 8.14700 23.39400
H  39.16600 8.32800 23.69700
H  40.17600 7.18000 24.67200
H  41.81000 12.05700 25.15700
H  41.42200 11.47500 23.62800
H  43.46900 11.69100 22.91400
H  44.10000 10.40000 23.93400
H  44.25300 12.06500 24.48300
H  45.36800 12.37000 27.46900
H  46.49600 11.81000 28.72000
H  45.75400 13.36600 28.80800
H  43.12600 12.28200 33.49500
H  46.12500 11.01000 36.25700
H  45.19200 9.43700 36.07900
H  44.68800 10.82500 37.23400
Mg 10.21500 47.82400 25.81800
C  8.23700 48.10000 28.70100
C  12.95400 48.95300 27.62100
C  12.13300 47.23300 23.10800
C  7.30200 47.49900 23.92800
N  10.59100 48.34500 27.99300
C  9.61400 48.33300 28.98100
C  10.16800 48.86200 30.31500
C  11.50200 49.58800 29.78000
C  11.76500 48.93500 28.37300
C  11.46500 51.16400 29.71800
C  10.45800 47.72100 31.36900
C  9.69000 47.95100 32.66700
H  9.57100 46.77600 33.66700
N  12.29600 48.02800 25.43800
C  13.25400 48.49000 26.32200
C  14.54300 48.41400 25.64500
C  14.33600 47.80000 24.35000
C  12.85500 47.65600 24.25000
C  15.83300 48.93200 26.20000
C  15.29400 47.28300 23.28200
O  14.92000 46.51200 22.40900
C  16.74600 47.56700 23.43500
N  9.75400 47.54300 23.79400
C  10.74900 47.14200 22.91200
C  10.24000 46.55800 21.58600
C  8.69100 46.83500 21.78700
C  8.50800 47.28000 23.26100
C  10.63200 47.34200 20.29300
C  7.90200 45.53900 21.43200
C  7.79400 44.41500 22.50000
N  8.16100 47.72600 26.20500
C  7.10000 47.61800 25.31700
C  5.84900 47.63000 26.06000
C  6.23700 47.80600 27.40700
C  7.62100 47.88100 27.46000
C  4.52000 47.32400 25.43600
C  5.81300 47.94200 28.71800
O  4.68400 47.70700 29.14900
C  7.03800 48.12200 29.63800
C  7.03800 46.95500 30.66100
O  7.83000 46.01200 30.57500
O  6.16400 47.18700 31.73700
C  5.93200 46.03700 32.65900
H  13.78200 49.46200 28.11900
H  12.71800 46.82600 22.28100
H  6.48700 47.35000 23.21700
H  9.54900 49.64600 30.75100
H  12.33300 49.37900 30.45400
H  10.46100 51.49300 29.98800
H  11.49600 51.45300 28.66800
H  12.28100 51.54100 30.33600
H  11.51400 47.72700 31.63900
H  10.28600 46.73000 30.94800
H  8.68700 48.34600 32.50600
H  10.24800 48.73400 33.18100
H  15.72400 49.35700 27.19800
H  16.37900 49.70700 25.66200
H  16.56000 48.12900 26.32300
H  16.90100 48.63700 23.57700
H  17.28100 47.27500 22.53100
H  16.93000 46.98400 24.33700
H  10.55000 45.51300 21.57200
H  8.34300 47.72600 21.26400
H  9.76700 47.63500 19.69800
H  11.24700 46.65300 19.71500
H  11.18600 48.23700 20.57800
H  8.21500 45.11400 20.47900
H  6.86100 45.79400 21.23200
H  7.99200 43.48800 21.96200
H  6.78000 44.45500 22.89900
H  8.63600 44.46000 23.19000
H  4.15000 46.45000 25.97200
H  4.53900 47.26000 24.34800
H  3.82600 48.13700 25.65000
H  7.05500 49.03700 30.23000
H  6.18500 46.28600 33.69000
H  6.39300 45.09300 32.36700
H  4.86500 45.83900 32.75200

