158

Mg 46.61400 24.43900 28.78300
C  47.27200 26.75600 31.37400
C  45.57300 22.17300 31.08300
C  46.57600 22.04400 26.27100
C  47.95600 26.73000 26.49700
N  46.36700 24.50400 30.99600
C  46.76200 25.48300 31.84300
C  46.25000 25.16100 33.26200
C  45.69300 23.72900 33.13700
C  45.97700 23.39900 31.68800
C  46.33600 22.68400 34.08800
C  45.30800 26.22000 33.86100
C  44.46400 25.81900 35.05900
H  44.46400 26.56500 36.40500
N  46.09100 22.35900 28.72400
C  45.69900 21.59800 29.78400
C  45.43400 20.27800 29.27500
C  45.77900 20.18300 27.86900
C  46.17000 21.55500 27.55600
C  44.82000 19.13600 30.24900
C  45.81200 19.03300 26.90700
O  46.09200 19.08600 25.74700
C  45.36400 17.71000 27.34700
N  47.09800 24.35100 26.69400
C  46.86800 23.32900 25.85000
C  47.30500 23.70800 24.40100
C  47.78400 25.16200 24.56800
C  47.68200 25.42400 26.06500
C  48.42200 22.74900 23.80600
C  46.92800 26.21000 23.65200
C  45.43000 26.38200 23.96500
N  47.39600 26.38600 28.80500
C  47.88900 27.18000 27.82400
C  48.28000 28.42700 28.39600
C  48.17500 28.27600 29.79100
C  47.51500 27.02800 29.96500
C  48.96600 29.48300 27.50500
C  48.30700 28.95800 31.06200
O  48.72300 30.08800 31.37600
C  47.71800 27.96800 32.14800
C  48.54700 27.70600 33.28300
O  49.45400 26.90700 33.28000
O  48.37300 28.65700 34.17800
C  49.25900 28.72100 35.37900
H  45.26000 21.40900 31.79800
H  46.53500 21.33500 25.44100
H  48.31600 27.41400 25.72600
H  47.21200 25.13900 33.77500
H  44.61800 23.69400 33.31700
H  45.58800 21.91700 34.28700
H  46.63600 23.20500 34.99700
H  47.28200 22.24900 33.76400
H  44.66500 26.73900 33.15000
H  46.00000 26.93700 34.30100
H  44.70400 24.76800 35.22400
H  43.43700 25.84600 34.69500
H  44.74300 19.47700 31.28100
H  45.45900 18.25400 30.29300
H  43.82200 18.91000 29.87200
H  44.30400 17.70300 27.59900
H  46.08000 17.39200 28.10500
H  45.32700 17.10100 26.44400
H  46.43600 23.51700 23.77200
H  48.81900 25.29900 24.25500
H  48.79700 22.07600 24.57700
H  49.16200 23.45100 23.42000
H  48.05900 22.16800 22.95800
H  47.14100 26.09300 22.58900
H  47.37400 27.18900 23.82500
H  45.10800 27.37300 24.28400
H  45.22900 25.71300 24.80100
H  44.88800 26.07300 23.07100
H  48.56200 29.54100 26.49400
H  50.01500 29.20100 27.41700
H  48.93600 30.40300 28.08800
H  46.78800 28.44900 32.45200
H  48.86400 27.95900 36.05100
H  49.26700 29.63000 35.98100
H  50.29700 28.41800 35.23500
Mg -1.52200 34.68800 27.35000
C  -3.28600 32.77200 29.99800
C  -0.29000 36.63600 29.80000
C  -0.84800 36.68400 24.97500
C  -3.41100 32.63600 25.07800
N  -1.84300 34.71100 29.68600
C  -2.49000 33.86100 30.49000
C  -2.18000 34.19000 32.00200
C  -1.24500 35.43000 31.89200
C  -1.10000 35.64600 30.36400
C  -1.68200 36.67800 32.65800
C  -1.45100 33.07200 32.77000
C  -2.21900 32.18400 33.72700
H  -1.69200 32.08700 35.21000
N  -0.57700 36.33200 27.39900
C  -0.08300 37.03200 28.49000
C  0.58900 38.22100 27.98300
C  0.46600 38.25500 26.57100
C  -0.35600 37.07300 26.26500
C  1.54200 39.06400 28.84400
C  1.04400 39.20900 25.59600
O  0.95800 39.09500 24.36600
C  1.57700 40.43700 26.04100
N  -2.14100 34.65300 25.26200
C  -1.62400 35.63000 24.51200
C  -1.96700 35.37300 23.00100
C  -2.48600 33.91700 23.06600
C  -2.69800 33.70200 24.54200
C  -3.01500 36.38300 22.44800
C  -1.53900 32.80600 22.41800
C  -0.34800 32.33300 23.36000
N  -2.99200 32.99200 27.46600
C  -3.59500 32.39200 26.44400
C  -4.30600 31.23500 26.91400
C  -4.31200 31.31700 28.37700
C  -3.44800 32.44100 28.62900
C  -4.97500 30.20400 25.95600
C  -4.79900 30.78500 29.64900
O  -5.47100 29.78000 29.89500
C  -4.11500 31.71800 30.72100
C  -5.14100 32.29100 31.59500
O  -5.88800 33.20900 31.29200
O  -5.21600 31.62600 32.77700
C  -6.25900 31.92400 33.71300
H  0.32600 37.11700 30.56400
H  -0.66200 37.40500 24.17600
H  -3.72500 31.96400 24.27700
H  -3.10800 34.55400 32.44300
H  -0.23700 35.24400 32.26300
H  -2.65300 36.96200 32.25100
H  -0.80900 37.33000 32.68800
H  -1.98100 36.37600 33.66200
H  -0.56900 33.41300 33.31300
H  -1.25900 32.40500 31.93000
H  -2.14300 31.21000 33.24200
H  -3.22800 32.57500 33.85700
H  2.37800 39.50100 28.29800
H  1.95600 38.58500 29.73200
H  1.08300 40.01700 29.10900
H  1.05800 40.85800 26.90100
H  1.71100 41.11800 25.20000
H  2.57100 40.08600 26.31800
H  -0.98200 35.35600 22.53500
H  -3.40000 33.74500 22.49800
H  -2.49700 36.84200 21.60500
H  -3.37200 37.07200 23.21300
H  -3.88200 35.85400 22.05100
H  -0.98200 33.11900 21.53500
H  -1.97800 31.85900 22.10300
H  -0.32700 32.87700 24.30500
H  0.62900 32.30400 22.87600
H  -0.45600 31.34500 23.80700
H  -4.31300 29.51400 25.43300
H  -5.41500 30.67900 25.07900
H  -5.68500 29.58600 26.50500
H  -3.57000 30.99500 31.32800
H  -6.86400 32.78300 33.42200
H  -5.80100 32.19600 34.66400
H  -6.83900 31.03600 33.96400

