158

Mg -3.06600 17.18100 26.12600
C  -3.64200 14.76000 28.66500
C  -3.34400 19.51700 28.69200
C  -3.09500 19.48400 23.80600
C  -3.45800 14.80900 23.77500
N  -3.49500 17.08400 28.53900
C  -3.53100 15.94900 29.36300
C  -3.58200 16.40900 30.83200
C  -3.51100 18.04600 30.69600
C  -3.50200 18.24600 29.22900
C  -4.52700 18.86900 31.57300
C  -2.43500 15.78500 31.74100
C  -1.75800 16.49900 32.86000
H  -1.03300 15.65600 33.87000
N  -3.08400 19.15000 26.19500
C  -3.17600 19.96600 27.33600
C  -2.95300 21.34100 26.86100
C  -2.88900 21.40000 25.42600
C  -3.12100 19.99400 25.06800
C  -2.85400 22.57300 27.70900
C  -2.62200 22.53000 24.44300
O  -2.82600 22.39700 23.25600
C  -2.17400 23.90500 24.95200
N  -3.41300 17.18200 23.97500
C  -3.22300 18.18200 23.25000
C  -2.97000 17.85100 21.76800
C  -3.22600 16.34900 21.70200
C  -3.31100 16.06100 23.22500
C  -3.89800 18.68500 20.81300
C  -2.16600 15.51200 20.96100
C  -2.70200 14.52400 19.84700
N  -3.37500 15.16700 26.18000
C  -3.57100 14.33200 25.08900
C  -3.74000 12.93900 25.47900
C  -3.76800 13.09300 26.90500
C  -3.58400 14.45800 27.27900
C  -3.98300 11.73100 24.72500
C  -4.01300 12.32000 28.20000
O  -4.29900 11.19800 28.44300
C  -3.93100 13.43300 29.33800
C  -2.84400 13.01200 30.24100
O  -1.64600 13.02700 29.99900
O  -3.39900 12.59400 31.45700
C  -2.54600 12.09100 32.52500
H  -3.58400 20.36500 29.33700
H  -3.18400 20.25100 23.03400
H  -3.62600 14.04400 23.01500
H  -4.56800 16.11900 31.19500
H  -2.53800 18.33900 31.09100
H  -4.75300 18.22000 32.41800
H  -5.51800 18.98600 31.13400
H  -4.14400 19.82200 31.94000
H  -1.64900 15.35000 31.12500
H  -2.95700 15.01200 32.30400
H  -2.52000 17.11900 33.33200
H  -1.05300 17.20500 32.42300
H  -2.80300 22.21300 28.73700
H  -3.69700 23.26400 27.68100
H  -1.92400 23.09500 27.48400
H  -2.22800 24.64600 24.15400
H  -1.13200 23.80500 25.25800
H  -2.76900 24.32500 25.76300
H  -1.93200 18.16200 21.65300
H  -4.25000 16.29500 21.33300
H  -3.80200 18.23300 19.82600
H  -3.87500 19.77200 20.89300
H  -4.92200 18.50800 21.14300
H  -1.66400 14.81200 21.62900
H  -1.44900 16.18800 20.49500
H  -2.39100 14.94800 18.89300
H  -3.78800 14.52400 19.93500
H  -2.41700 13.51400 20.14400
H  -5.03300 11.45100 24.80900
H  -3.32100 10.97300 25.14300
H  -3.76700 11.97900 23.68500
H  -4.82600 13.49800 29.95700
H  -2.95300 11.22300 33.04400
H  -2.29700 12.91700 33.19100
H  -1.58300 11.69800 32.20100
Mg 16.89500 51.29200 26.68600
C  18.87600 49.92700 29.21500
C  14.54200 52.03200 29.22700
C  14.84500 52.46200 24.32700
C  19.22100 50.17800 24.33700
N  16.68000 50.95000 28.95100
C  17.66600 50.41900 29.73200
C  17.42900 50.77300 31.19700
C  15.92400 51.04700 31.18200
C  15.70200 51.37800 29.73900
C  14.98800 49.86600 31.84500
C  18.35000 51.83500 31.69800
C  18.86900 51.48300 33.11900
H  18.03400 52.01500 34.30500
N  15.04700 52.24400 26.77900
C  14.26900 52.47000 27.89300
C  13.05500 53.18500 27.45400
C  13.14200 53.41200 26.06500
C  14.37500 52.64200 25.68800
C  12.03100 53.61000 28.45700
C  12.24500 54.27600 25.09200
O  12.57200 54.46700 23.94500
C  11.10100 55.02800 25.68100
N  16.91600 51.14900 24.63600
C  15.97200 51.75800 23.84700
C  16.49300 51.85100 22.45900
C  17.90300 51.16700 22.38200
C  18.00700 50.78900 23.91100
C  15.47200 51.27500 21.43500
C  19.09900 51.99800 21.80400
C  19.81500 51.30000 20.59300
N  18.67700 50.20900 26.63200
C  19.57200 49.87300 25.62900
C  20.65700 49.11000 26.21100
C  20.45700 49.19100 27.56300
C  19.19200 49.80200 27.86200
C  21.83100 48.56000 25.39100
C  21.03900 48.76000 28.87300
O  22.02200 48.04600 29.08400
C  20.04700 49.32600 29.96000
C  19.59700 48.21100 30.88900
O  18.64700 47.49300 30.73300
O  20.40800 48.20500 32.01600
C  20.08900 47.31400 33.11700
H  13.90800 52.44100 30.01500
H  14.39400 53.11100 23.57400
H  19.89700 49.95100 23.51000
H  17.59500 49.81100 31.68100
H  15.77100 51.89500 31.84900
H  14.36300 50.18600 32.67900
H  15.62100 49.04400 32.17900
H  14.30600 49.44700 31.10500
H  17.89200 52.82000 31.78200
H  19.16600 52.01100 30.99700
H  19.91800 51.76400 33.20900
H  18.88300 50.40200 33.26300
H  12.07100 54.68000 28.66000
H  12.03400 53.01800 29.37200
H  11.07300 53.56500 27.93900
H  10.42200 54.45600 26.31500
H  10.56400 55.50000 24.85800
H  11.47200 55.87700 26.25500
H  16.64200 52.92100 22.31200
H  17.79200 50.26200 21.78500
H  15.89000 50.45300 20.85400
H  15.14200 52.08300 20.78200
H  14.60900 51.00400 22.04200
H  19.76900 52.24300 22.62800
H  18.71600 52.91100 21.34800
H  19.59200 50.24000 20.46800
H  20.88500 51.49200 20.67600
H  19.55500 51.82700 19.67500
H  21.46800 48.74800 24.38000
H  22.02400 47.53800 25.71600
H  22.71200 49.18900 25.52000
H  20.50300 50.14200 30.52100
H  20.74900 47.70200 33.89300
H  20.46000 46.29100 33.04500
H  19.06100 47.44200 33.45500

