158

Mg 53.88400 23.42400 44.35300
C  51.21400 25.82400 43.18700
C  51.89600 21.07500 42.78000
C  56.46300 21.44000 44.24400
C  55.61600 26.15100 45.33100
N  51.81500 23.50400 43.11000
C  51.00400 24.53100 42.72900
C  49.95500 24.02600 41.76100
C  49.86200 22.57600 42.29400
C  51.22900 22.33300 42.83600
C  48.74100 22.28100 43.30500
C  50.52900 24.09500 40.25000
C  49.72100 24.99200 39.20200
H  50.51800 25.56800 37.94600
N  54.08600 21.49900 43.78500
C  53.17400 20.68900 43.21600
C  53.79700 19.34800 42.94100
C  55.12900 19.48200 43.41900
C  55.29200 20.83200 43.81500
C  53.14700 18.15900 42.37900
C  56.05000 18.24900 43.45100
O  55.69700 17.18300 43.02400
C  57.36700 18.29700 44.18900
N  55.90300 23.89600 44.33400
C  56.73000 22.80100 44.52500
C  58.12600 23.32000 45.04400
C  57.77100 24.76800 45.44500
C  56.37900 25.06300 44.93100
C  58.77500 22.48200 46.23800
C  58.65900 25.83100 44.76000
C  58.90300 27.13900 45.56800
N  53.50300 25.56600 44.41500
C  54.33300 26.49400 44.99000
C  53.63200 27.71500 45.08600
C  52.46700 27.49100 44.30400
C  52.39400 26.16100 43.96600
C  54.03400 28.99700 45.77400
C  51.32800 28.11500 43.74400
O  51.01700 29.29000 43.79800
C  50.41200 27.06500 43.03200
C  50.07300 27.53100 41.67600
O  50.88200 27.80800 40.80100
O  48.73000 27.78600 41.66600
C  48.22400 28.38600 40.38100
H  51.40100 20.17400 42.41100
H  57.34100 20.79800 44.34400
H  56.08900 26.94900 45.90700
H  49.00400 24.54700 41.87500
H  49.59200 21.98500 41.41900
H  49.37200 22.03500 44.15900
H  48.12500 21.44600 42.97100
H  48.12100 23.16700 43.44300
H  50.45700 23.09300 39.82700
H  51.57700 24.38300 40.33600
H  49.28500 25.81300 39.77200
H  48.86900 24.38600 38.89400
H  53.19800 17.33000 43.08500
H  53.78300 17.80600 41.56700
H  52.14200 18.32300 41.98800
H  57.08500 18.60500 45.19600
H  58.09500 18.96400 43.72900
H  57.71000 17.27200 44.32900
H  58.77600 23.25200 44.17200
H  57.79200 24.86200 46.53100
H  58.07400 21.65000 46.30300
H  58.89600 23.03400 47.17100
H  59.72100 22.03400 45.93300
H  58.20700 26.08000 43.80000
H  59.62200 25.34800 44.59700
H  58.37800 27.32600 46.50500
H  58.61700 27.93200 44.87800
H  59.92900 27.43000 45.79100
H  55.11300 29.08100 45.91100
H  53.71000 28.85900 46.80600
H  53.45400 29.76300 45.26000
H  49.49700 26.99300 43.61900
H  49.03900 28.90500 39.87800
H  47.42300 29.07600 40.64600
H  47.62300 27.69500 39.79000
Mg 36.68100 49.42900 24.97400
C  36.87700 47.62500 27.81900
C  35.30700 52.03400 26.75900
C  36.30600 51.12800 22.07400
C  37.36800 46.50400 23.14300
N  36.34200 49.84300 27.07300
C  36.55200 48.96900 28.07000
C  36.21800 49.52800 29.45900
C  35.65900 50.89200 29.05400
C  35.73100 50.92800 27.54100
C  34.29900 51.17000 29.73900
C  37.38000 49.51400 30.45800
C  37.06600 49.22800 31.92900
H  35.65900 49.26900 32.42300
N  35.92500 51.37800 24.51700
C  35.35900 52.23700 25.36000
C  34.96600 53.43000 24.64900
C  35.36300 53.19600 23.28100
C  35.86800 51.81600 23.25100
C  34.50000 54.63800 25.42300
C  35.22400 54.14700 22.03100
O  35.59800 53.86800 20.90300
C  34.48400 55.44700 22.08200
N  36.79000 48.87300 22.90200
C  36.75100 49.79200 21.94500
C  36.98400 49.23000 20.57900
C  37.52100 47.73800 20.94400
C  37.15400 47.65500 22.38000
C  35.77300 49.29300 19.62400
C  39.05800 47.53800 20.70300
C  40.09800 48.50100 21.36300
N  37.21600 47.48600 25.34800
C  37.48900 46.41100 24.52900
C  37.67400 45.18900 25.33300
C  37.53000 45.65200 26.64900
C  37.17000 47.02700 26.59000
C  37.88600 43.77100 24.88000
C  37.52900 45.34100 28.02800
O  37.80000 44.27200 28.59500
C  37.01200 46.52000 28.84100
C  35.72400 46.11800 29.41300
O  34.65500 46.10400 28.86400
O  35.86000 45.72300 30.73000
C  34.68800 45.15900 31.36600
H  34.85700 52.81500 27.37600
H  36.07300 51.65500 21.14700
H  37.75600 45.59700 22.67500
H  35.37300 48.93600 29.81100
H  36.39300 51.66400 29.28400
H  34.45300 52.08200 30.31500
H  34.01600 50.38600 30.44200
H  33.46000 51.30400 29.05600
H  38.02600 50.37900 30.31400
H  38.04800 48.75300 30.05400
H  37.64000 49.95500 32.50300
H  37.40700 48.19700 32.02900
H  33.75200 55.21200 24.87500
H  35.37500 55.24300 25.66000
H  33.91700 54.44900 26.32400
H  34.55500 55.96600 21.12600
H  34.96000 56.03200 22.87000
H  33.46200 55.20600 22.37500
H  37.73500 49.85900 20.10000
H  36.93400 47.00200 20.39400
H  34.87000 49.24200 20.23200
H  35.77200 48.44700 18.93700
H  35.95000 50.20100 19.04700
H  39.13000 47.38000 19.62700
H  39.31700 46.54000 21.05700
H  40.80600 48.80000 20.59000
H  40.63300 48.18600 22.25900
H  39.63600 49.47000 21.55400
H  37.63400 43.65500 23.82600
H  37.21400 43.09700 25.41000
H  38.90500 43.43800 25.07600
H  37.80800 46.74100 29.55200
H  33.78800 45.77400 31.38400
H  34.96800 45.18800 32.41900
H  34.40600 44.14600 31.07800

