158

Mg -1.79900 34.16300 27.14000
C  -3.71600 32.38500 29.51000
C  -0.94300 36.32100 29.56600
C  -0.64300 36.02000 24.77200
C  -3.60200 32.17900 24.60800
N  -2.44100 34.38700 29.23000
C  -2.94300 33.42700 30.05600
C  -2.76300 33.70800 31.58000
C  -2.26400 35.18200 31.46500
C  -1.82000 35.31800 30.02500
C  -3.28700 36.25600 31.84300
C  -1.86900 32.65300 32.23400
C  -2.50100 31.96100 33.45800
H  -1.70300 32.13600 34.80000
N  -0.81300 35.82800 27.24600
C  -0.46000 36.55900 28.31900
C  0.45800 37.59500 27.87700
C  0.52500 37.57900 26.46400
C  -0.37300 36.45200 26.09100
C  1.27100 38.44800 28.86400
C  1.35600 38.40100 25.48500
O  1.20800 38.33200 24.31200
C  2.46000 39.30300 26.03000
N  -2.24500 34.10600 25.01600
C  -1.44000 34.93600 24.33200
C  -1.50700 34.66100 22.76600
C  -2.15800 33.24300 22.76800
C  -2.68800 33.13300 24.17200
C  -2.37300 35.77400 22.17200
C  -1.15700 32.14300 22.35800
C  0.08300 31.82600 23.14100
N  -3.30800 32.64700 27.02000
C  -4.01000 31.96000 25.98200
C  -4.93000 31.04700 26.49700
C  -4.81000 31.21400 27.87200
C  -3.85700 32.11800 28.11600
C  -5.80400 30.14400 25.80100
C  -5.36900 30.71600 29.09900
O  -6.23100 29.87200 29.22000
C  -4.68900 31.44700 30.23400
C  -5.78600 32.08600 31.01400
O  -6.31700 33.18400 30.73800
O  -5.90600 31.46900 32.18700
C  -6.83400 32.11100 33.17600
H  -0.65900 36.91700 30.43600
H  -0.28700 36.65600 23.95800
H  -3.93700 31.43900 23.87900
H  -3.73300 33.74700 32.07500
H  -1.43400 35.37800 32.14400
H  -4.08300 35.81500 32.44300
H  -3.62900 36.79500 30.96000
H  -2.82700 37.01200 32.47800
H  -0.95200 33.14400 32.55800
H  -1.55600 31.85400 31.56100
H  -2.59400 30.90000 33.22700
H  -3.50200 32.29600 33.73100
H  0.99700 39.49800 28.76000
H  2.34800 38.39800 28.70500
H  1.12300 38.03500 29.86200
H  2.90800 39.90400 25.23800
H  3.20800 38.64500 26.47100
H  1.96100 39.99100 26.71200
H  -0.51300 34.68800 22.31800
H  -3.01400 33.14900 22.10100
H  -2.88500 36.36100 22.93400
H  -3.16200 35.27500 21.60900
H  -1.71600 36.39900 21.56600
H  -1.07600 32.52800 21.34200
H  -1.74500 31.24200 22.18200
H  0.08700 30.80800 23.53100
H  0.11500 32.54400 23.96000
H  0.95500 32.04800 22.52500
H  -5.57200 30.00300 24.74500
H  -6.76700 30.63000 25.95700
H  -5.75000 29.21500 26.36900
H  -4.21700 30.64700 30.80500
H  -7.71300 32.60600 32.76300
H  -6.37300 32.83400 33.84900
H  -7.04700 31.30900 33.88300
Mg -12.06700 16.48300 41.14900
C  -8.93000 14.97000 41.00500
C  -10.85600 19.30500 39.99000
C  -15.25300 17.55000 40.94200
C  -13.29600 13.26100 42.12600
N  -10.09600 16.94400 40.39600
C  -8.91100 16.29100 40.53000
C  -7.74800 17.13600 40.16700
C  -8.39900 18.54700 40.15500
C  -9.90100 18.26300 40.14000
C  -7.95700 19.35600 41.38000
C  -7.05200 16.69100 38.84300
C  -5.50100 16.94100 38.76500
H  -5.02400 17.24400 37.30400
N  -12.99800 18.16900 40.47700
C  -12.30800 19.24300 40.00700
C  -13.20300 20.28200 39.68700
C  -14.52000 19.80900 39.93100
C  -14.31200 18.49200 40.50300
C  -12.62500 21.56200 39.14500
C  -15.72100 20.58600 39.73600
O  -15.78500 21.69700 39.20300
C  -17.04300 19.99600 39.92800
N  -14.09200 15.42400 41.16500
C  -15.17700 16.18900 41.29400
C  -16.36000 15.44600 41.95000
C  -15.67100 14.15000 42.43400
C  -14.26900 14.26100 41.80200
C  -17.20300 16.22900 43.00800
C  -16.43400 12.82500 42.25200
C  -16.76800 12.06300 43.52800
N  -11.34500 14.39700 41.37500
C  -11.92200 13.27900 41.87300
C  -10.93000 12.24200 42.15500
C  -9.67700 12.89200 41.83100
C  -10.02000 14.17900 41.35300
C  -11.24600 10.90000 42.62200
C  -8.24800 12.68800 41.76300
O  -7.53000 11.72500 42.08400
C  -7.71200 14.00700 41.06700
C  -6.53900 14.58800 41.79300
O  -6.55200 14.85600 42.95400
O  -5.42400 14.50200 41.00600
C  -4.20700 14.88900 41.66100
H  -10.40700 20.28500 39.81400
H  -16.23500 17.97200 41.16900
H  -13.79600 12.41100 42.59700
H  -7.00100 17.02300 40.95300
H  -8.11000 19.05700 39.23700
H  -8.83800 19.56600 41.98600
H  -7.44800 20.25400 41.02600
H  -7.29200 18.77800 42.02100
H  -7.53800 17.15200 37.98300
H  -7.17000 15.62100 38.67700
H  -4.95400 16.03200 39.01300
H  -5.41000 17.78800 39.44500
H  -11.72100 21.40200 38.55800
H  -12.34900 22.22200 39.96700
H  -13.31200 22.12100 38.51100
H  -17.85700 20.49300 39.39900
H  -17.21900 19.88500 40.99800
H  -16.92800 19.02800 39.44000
H  -16.98500 15.25300 41.07800
H  -15.40700 14.31700 43.47800
H  -16.73000 17.19600 43.17900
H  -17.22200 15.67600 43.94700
H  -18.15200 16.47100 42.52900
H  -15.82600 12.19400 41.60500
H  -17.36600 13.02900 41.72400
H  -16.51600 12.65900 44.40600
H  -16.30000 11.07900 43.50300
H  -17.84400 11.90700 43.60000
H  -10.30800 10.36400 42.76400
H  -11.92700 10.25500 42.06500
H  -11.77000 10.84800 43.57600
H  -7.35200 13.58500 40.12900
H  -3.57500 14.01200 41.52100
H  -4.17000 14.99000 42.74600
H  -3.82200 15.80100 41.20400

