158

Mg -1.12000 17.86500 27.16500
C  -1.82500 15.79500 29.99100
C  -1.99500 20.59900 29.12100
C  -0.71500 19.83100 24.53100
C  -1.11700 14.90700 25.18000
N  -1.87200 18.11300 29.27900
C  -1.81000 17.17300 30.29400
C  -2.02500 17.81800 31.60700
C  -2.28000 19.30300 31.25000
C  -2.08400 19.34200 29.78300
C  -3.64500 19.89600 31.59200
C  -0.80400 17.62600 32.53500
C  -1.18300 17.18400 33.90100
H  -0.14000 17.02900 34.98600
N  -1.14300 19.94500 26.87900
C  -1.46400 20.94200 27.82700
C  -1.23600 22.23700 27.25200
C  -0.79200 21.94400 25.90100
C  -0.84400 20.54000 25.72000
C  -1.55500 23.51100 28.01800
C  -0.40900 22.97900 24.79900
O  -0.04000 22.66200 23.72200
C  -0.76700 24.48200 25.07900
N  -0.97200 17.43900 25.19700
C  -0.77100 18.44800 24.30000
C  -0.75300 17.79800 22.90900
C  -0.66800 16.26200 23.11200
C  -0.88900 16.22200 24.64100
C  -1.89000 18.28900 22.01700
C  0.80900 15.84300 22.70400
C  1.95000 16.40500 23.58300
N  -1.32900 15.74400 27.47600
C  -1.33700 14.68800 26.58500
C  -1.65500 13.45100 27.28600
C  -1.77400 13.83000 28.62400
C  -1.60600 15.21900 28.67200
C  -1.96200 12.13700 26.84300
C  -1.95300 13.34700 29.97800
O  -2.04000 12.23200 30.42500
C  -1.87000 14.60400 30.93100
C  -0.65000 14.36100 31.77000
O  0.52000 14.52400 31.37300
O  -0.98100 13.90200 32.98900
C  0.17400 13.30600 33.71300
H  -2.21000 21.45100 29.77000
H  -0.69300 20.42200 23.61300
H  -1.03300 14.06200 24.49400
H  -2.80700 17.27400 32.13800
H  -1.55200 19.96600 31.71700
H  -4.33900 19.19700 32.05900
H  -4.18200 20.23100 30.70400
H  -3.58300 20.85700 32.10300
H  -0.35800 18.61200 32.66000
H  0.05000 17.10000 32.10700
H  -1.70700 16.23100 33.83600
H  -1.81000 17.94500 34.36600
H  -0.65000 24.11700 28.03600
H  -1.71800 23.30400 29.07600
H  -2.37600 23.98800 27.48200
H  -1.83800 24.65200 25.18700
H  -0.42300 24.95200 24.15800
H  -0.24200 24.76400 25.99200
H  0.13900 18.29600 22.52900
H  -1.31300 15.60000 22.53500
H  -2.43700 18.84200 22.78000
H  -2.67600 17.58600 21.74100
H  -1.52400 18.96100 21.24000
H  1.04000 16.11500 21.67400
H  0.87100 14.75500 22.71900
H  1.54500 17.01900 24.38800
H  2.69700 17.01900 23.08100
H  2.50200 15.54600 23.96300
H  -2.21100 12.15900 25.78200
H  -2.81700 11.68200 27.34100
H  -1.10300 11.49800 27.04600
H  -2.79200 14.63800 31.51200
H  -0.24300 13.14400 34.70700
H  1.11900 13.83500 33.58800
H  0.21800 12.32400 33.24300
Mg 48.08700 34.00100 26.48000
C  46.45800 32.84400 29.17600
C  48.98900 36.88800 28.17800
C  49.53000 35.23500 23.65100
C  47.03600 31.23300 24.63600
N  47.70300 34.77900 28.41500
C  47.17100 34.01700 29.45600
C  47.23800 34.76200 30.71400
C  47.78100 36.19900 30.33700
C  48.19200 35.97100 28.90000
C  46.65700 37.23100 30.35900
C  48.32400 34.04100 31.62400
C  48.31500 34.32100 33.10100
H  47.11700 35.12500 33.65900
N  49.12800 35.90700 25.96200
C  49.42300 36.90600 26.86700
C  50.28800 37.82600 26.15300
C  50.42500 37.33600 24.85000
C  49.70700 36.10200 24.76700
C  50.92700 39.03800 26.81100
C  51.25800 37.93800 23.67700
O  51.32100 37.42000 22.55500
C  52.16300 39.19500 23.92100
N  48.37400 33.29300 24.51400
C  49.01500 33.98300 23.56300
C  49.05900 33.29800 22.21100
C  48.59000 31.85300 22.59000
C  47.90000 32.10100 23.92500
C  48.24300 33.94600 21.07400
C  49.59400 30.69500 22.68300
C  50.02600 30.00200 21.40900
N  46.86400 32.42600 26.70300
C  46.56300 31.36200 25.90900
C  45.71300 30.46500 26.73200
C  45.57600 31.07500 27.92800
C  46.38300 32.19700 27.89200
C  45.05700 29.11900 26.36000
C  45.03800 30.83600 29.25000
O  44.55500 29.78100 29.64600
C  45.45100 32.08000 30.15500
C  45.86000 31.67500 31.49500
O  46.87400 31.04600 31.75200
O  44.87500 31.99500 32.35500
C  44.77000 31.22000 33.60700
H  49.29000 37.80500 28.68800
H  50.07500 35.48300 22.73700
H  46.72600 30.28800 24.18700
H  46.33400 34.88000 31.31200
H  48.63400 36.58900 30.89300
H  45.93000 37.09600 29.55800
H  47.17100 38.17400 30.17500
H  46.14900 37.27300 31.32300
H  49.19000 34.59700 31.26500
H  48.46700 32.98600 31.38800
H  49.28100 34.62500 33.50300
H  48.24100 33.33600 33.56100
H  50.37300 39.84300 26.32900
H  51.99800 39.10500 26.62100
H  50.69400 39.05400 27.87500
H  52.52200 39.38100 22.90900
H  52.95000 38.93500 24.62900
H  51.56400 40.05000 24.23300
H  50.06100 33.30700 21.78100
H  47.89100 31.38100 21.89900
H  47.40100 33.33300 20.75100
H  48.91100 34.14300 20.23600
H  47.76200 34.85800 21.43000
H  49.19000 29.98300 23.40300
H  50.41900 31.14500 23.23600
H  49.51600 30.48400 20.57500
H  49.71500 28.96800 21.56300
H  51.10300 30.16500 21.43200
H  44.38200 29.24200 25.51400
H  44.54900 28.67500 27.21600
H  45.79500 28.37100 26.07200
H  44.53300 32.66400 30.21700
H  45.31800 30.28300 33.69900
H  43.70500 31.10900 33.81200
H  45.13400 31.82000 34.44100

