158

Mg 9.09900 3.41200 27.38100
C  10.19000 2.09900 30.37900
C  6.87600 5.36300 29.02800
C  7.99300 4.60300 24.34900
C  10.61300 0.75100 25.71900
N  8.52600 3.64700 29.53400
C  9.26400 3.13100 30.61700
C  8.69300 3.71200 31.92200
C  7.42100 4.58500 31.46900
C  7.50700 4.48300 29.92600
C  6.05100 4.17300 32.06200
C  9.81100 4.35000 32.78400
C  9.44700 4.89300 34.13500
H  10.37300 4.64100 35.33200
N  7.70700 4.96500 26.73800
C  6.94300 5.64700 27.63800
C  6.19400 6.57800 26.88700
C  6.45000 6.40300 25.50500
C  7.49700 5.35600 25.40700
C  5.17100 7.52900 27.54400
C  5.94700 7.07400 24.27000
O  6.35500 6.83300 23.09000
C  4.87300 8.04300 24.39800
N  9.30900 2.76500 25.36300
C  8.79800 3.47800 24.24900
C  9.22200 2.76600 22.92400
C  10.01800 1.51900 23.40100
C  9.97600 1.67800 24.92300
C  8.04700 2.48000 22.03700
C  11.40800 1.43800 22.67600
C  11.45800 0.36600 21.55500
N  10.10100 1.72300 27.89900
C  10.74100 0.76900 27.08200
C  11.51700 -0.12000 27.88900
C  11.32100 0.43500 29.15500
C  10.47500 1.55300 29.06600
C  12.37600 -1.24700 27.50800
C  11.82900 0.27600 30.45200
O  12.48600 -0.58100 30.88800
C  11.16600 1.39600 31.33600
C  10.61400 0.79200 32.52600
O  9.61300 0.09900 32.63100
O  11.26200 1.35200 33.56400
C  10.66400 1.01600 34.86800
H  6.23100 6.03500 29.59900
H  7.81300 5.05000 23.37000
H  11.28400 0.13400 25.11800
H  8.37400 2.81200 32.44700
H  7.51400 5.65000 31.68200
H  6.16900 3.60300 32.98300
H  5.47500 3.59900 31.33600
H  5.43900 5.03500 32.32500
H  10.31600 5.03500 32.10300
H  10.56600 3.61300 33.05800
H  8.45700 4.51000 34.38300
H  9.46000 5.98100 34.07200
H  4.16500 7.27100 27.21500
H  5.32500 8.57300 27.27200
H  5.27800 7.50300 28.62900
H  4.52700 8.32100 23.40300
H  5.42600 8.81000 24.94000
H  3.95500 7.78900 24.92800
H  10.00900 3.35000 22.44700
H  9.57000 0.53300 23.28000
H  7.19400 2.57800 22.70700
H  8.14700 1.45400 21.68200
H  8.10000 3.23300 21.25000
H  12.18200 1.11800 23.37400
H  11.74400 2.39100 22.26700
H  11.51100 0.89100 20.60100
H  10.63100 -0.34300 21.51200
H  12.26000 -0.37100 21.60500
H  13.00400 -1.58400 28.33300
H  12.93900 -0.87400 26.65200
H  11.73100 -2.06000 27.17500
H  12.01300 2.04600 31.55800
H  11.47300 0.92900 35.59400
H  10.11000 0.08300 34.96500
H  10.07300 1.88000 35.17200
Mg 37.00100 50.16300 25.51300
C  37.09800 48.19900 28.45900
C  35.88400 52.77900 27.24900
C  36.59400 51.73300 22.56400
C  37.97500 47.25200 23.80100
N  36.34600 50.35700 27.60100
C  36.64600 49.58000 28.66600
C  36.32700 50.20100 30.00400
C  35.82800 51.53200 29.52300
C  35.96200 51.59100 28.04700
C  34.36400 51.86100 29.95600
C  37.59500 50.14000 30.91900
C  37.37300 50.00800 32.43600
H  35.99800 49.69800 32.98500
N  36.25700 51.96500 25.01900
C  35.93100 52.93600 25.86000
C  35.66100 54.16700 25.16200
C  35.93300 53.93300 23.77400
C  36.25600 52.45300 23.68100
C  35.51900 55.47300 25.91900
C  35.92200 54.86500 22.60800
O  35.75900 54.42900 21.45800
C  35.90400 56.36600 22.71500
N  37.08800 49.50600 23.53700
C  36.96700 50.37700 22.45200
C  37.43700 49.77900 21.07700
C  38.01800 48.40300 21.55600
C  37.62500 48.34700 23.06400
C  36.28300 49.58400 20.02300
C  39.50600 48.29700 21.22900
C  40.48200 49.28400 21.94900
N  37.47000 48.09800 25.97400
C  37.79100 47.05700 25.15200
C  38.12400 45.84100 25.88900
C  37.82700 46.24300 27.20400
C  37.48700 47.64500 27.18500
C  38.63300 44.50400 25.31200
C  37.76200 45.87000 28.59700
O  38.00500 44.75900 29.02100
C  37.31900 47.09500 29.46500
C  36.11800 46.69300 30.15600
O  35.04000 46.71500 29.63300
O  36.43400 46.26500 31.43700
C  35.35500 45.71000 32.24500
H  35.59400 53.64900 27.84200
H  36.60900 52.29900 21.63000
H  38.33800 46.40000 23.22300
H  35.46100 49.64300 30.36200
H  36.51700 52.30500 29.86400
H  33.91700 51.25100 30.74100
H  33.76300 51.99000 29.05500
H  34.45000 52.82300 30.46100
H  38.13600 51.08400 30.86800
H  38.20200 49.30300 30.57300
H  37.66000 50.92600 32.95000
H  38.06600 49.25500 32.81000
H  36.50400 55.74900 26.29400
H  34.81300 55.36500 26.74300
H  35.35200 56.24600 25.16900
H  34.91900 56.59900 23.12100
H  35.96300 56.89000 21.76000
H  36.71000 56.67300 23.38100
H  38.19400 50.43900 20.65200
H  37.36100 47.67000 21.08800
H  35.94300 48.54900 19.99600
H  36.60100 49.87600 19.02200
H  35.34500 50.06000 20.30800
H  39.57900 48.52600 20.16600
H  39.70200 47.22500 21.26800
H  41.19400 49.84800 21.34700
H  41.02400 48.68300 22.68000
H  39.86500 49.94900 22.55200
H  39.40600 44.09400 25.96200
H  38.99600 44.65200 24.29500
H  37.79800 43.82800 25.13100
H  38.13700 47.19000 30.17900
H  35.72800 45.60100 33.26300
H  34.86100 44.82200 31.84900
H  34.48500 46.36700 32.26900

