158

Mg 48.97900 35.88300 27.43500
C  47.06100 33.99400 29.99900
C  49.08100 38.41500 29.65200
C  50.22400 37.66400 25.01700
C  48.50500 33.23100 25.24200
N  48.00600 36.18200 29.52700
C  47.44700 35.28800 30.42600
C  47.49900 35.93800 31.83400
C  47.68500 37.45900 31.60300
C  48.29900 37.36200 30.15600
C  46.39600 38.34100 31.54400
C  48.60300 35.23100 32.73100
C  48.25600 34.80100 34.16500
H  46.99400 35.38300 34.82400
N  49.72600 37.69900 27.44600
C  49.79100 38.57500 28.48000
C  50.59600 39.74600 28.11300
C  50.86000 39.56600 26.71800
C  50.21700 38.27800 26.30700
C  51.02000 40.77000 29.09300
C  51.62600 40.48800 25.82400
O  51.69100 40.28300 24.61600
C  52.28500 41.72100 26.46500
N  49.31400 35.47600 25.37300
C  49.92200 36.34000 24.59300
C  50.17200 35.81200 23.17900
C  49.96800 34.27500 23.42800
C  49.26400 34.25900 24.74800
C  49.26100 36.54200 22.15300
C  51.26500 33.39400 23.53800
C  51.20100 32.09100 22.80100
N  48.05800 33.96800 27.56500
C  47.83100 33.09800 26.51100
C  47.03600 31.98900 27.01900
C  46.78600 32.36400 28.30600
C  47.36600 33.53000 28.66700
C  46.54100 30.71700 26.30600
C  45.99700 31.88400 29.47100
O  45.30600 30.95200 29.69100
C  46.08600 33.12000 30.51200
C  46.24400 32.58300 31.88800
O  47.24100 32.05100 32.37400
O  45.06700 32.75600 32.44100
C  44.71200 32.15000 33.70200
H  49.03000 39.21700 30.39100
H  50.65200 38.33900 24.27200
H  48.39500 32.40800 24.53300
H  46.53100 35.84900 32.32500
H  48.36600 37.95200 32.29700
H  46.02400 38.38200 32.56800
H  45.58200 37.91500 30.95700
H  46.56100 39.36700 31.21600
H  49.44600 35.90400 32.88700
H  49.11100 34.41500 32.21700
H  49.01800 35.10800 34.88100
H  48.24700 33.72500 34.34300
H  50.80500 40.45300 30.11300
H  50.66800 41.75800 28.79800
H  52.10900 40.79400 29.12900
H  51.49000 42.42400 26.71100
H  52.78200 42.27600 25.66900
H  53.07600 41.38100 27.13300
H  51.18700 36.11800 22.92500
H  49.20800 33.95000 22.71700
H  49.60500 37.48500 21.72700
H  48.40800 36.81900 22.77300
H  49.05300 35.87600 21.31600
H  51.45600 33.25100 24.60200
H  52.15000 33.86200 23.10500
H  51.10500 31.22900 23.46200
H  52.05200 31.98500 22.12800
H  50.24700 31.98600 22.28600
H  47.31900 30.05800 25.92100
H  46.00800 31.10700 25.43900
H  45.83200 30.11100 26.87000
H  45.13800 33.63500 30.35700
H  45.47600 32.26300 34.47100
H  44.72900 31.07300 33.53700
H  43.77300 32.49900 34.13400
Mg 30.61100 58.59900 40.22000
C  27.90700 56.70300 38.78600
C  32.80500 56.01500 39.22400
C  33.25700 60.66300 41.00100
C  28.36700 61.32200 40.45300
N  30.25300 56.62900 39.17300
C  29.12700 56.05100 38.69900
C  29.37900 54.63800 38.15500
C  30.77900 54.36900 38.79800
C  31.38200 55.74300 39.08200
C  30.68000 53.52500 40.15800
C  29.38700 54.61500 36.61300
C  28.49700 53.59700 35.89000
H  27.60200 54.10700 34.71600
N  32.70100 58.37400 40.18200
C  33.37500 57.27000 39.65600
C  34.81400 57.49600 39.67900
C  34.97400 58.79500 40.21600
C  33.65100 59.36900 40.48800
C  35.89000 56.49900 39.17600
C  36.31500 59.53000 40.33900
O  37.32000 59.06000 39.79600
C  36.52700 60.76700 41.03700
N  30.78800 60.67100 40.76000
C  31.96700 61.25100 41.12800
C  31.72800 62.80700 41.41700
C  30.18300 62.98400 41.15600
C  29.73600 61.55000 40.71400
C  32.11200 63.26300 42.79700
C  29.78000 64.10800 40.09400
C  28.71400 65.07400 40.55700
N  28.44600 58.88700 39.88700
C  27.72900 60.06800 40.00000
C  26.37200 59.84500 39.55200
C  26.41100 58.52000 39.10900
C  27.69000 57.98300 39.37000
C  25.20800 60.76200 39.50000
C  25.56900 57.41500 38.58000
O  24.39200 57.34400 38.30300
C  26.55500 56.26800 38.39300
C  26.07600 55.04000 39.09700
O  26.42800 54.58200 40.14000
O  25.31500 54.37300 38.23500
C  24.89500 53.00000 38.59500
H  33.43000 55.15700 38.97100
H  33.94800 61.45100 41.31000
H  27.71700 62.17300 40.67000
H  28.63400 53.88200 38.39800
H  31.41400 53.88200 38.05900
H  29.63100 53.43200 40.44100
H  31.38000 53.85700 40.92500
H  30.94900 52.48500 39.97200
H  30.37100 54.53800 36.15000
H  29.15800 55.64200 36.32800
H  27.77200 53.24700 36.62400
H  29.19600 52.78200 35.70500
H  36.69100 57.00400 38.63700
H  35.39000 55.71800 38.60400
H  36.30900 55.93000 40.00600
H  36.03500 61.54700 40.45700
H  37.61000 60.87000 40.97200
H  36.17100 60.73800 42.06700
H  32.37500 63.28100 40.67900
H  29.59300 63.18800 42.05000
H  31.58000 62.58100 43.46100
H  31.75500 64.28700 42.90300
H  33.19000 63.16600 42.92400
H  29.45600 63.55300 39.21400
H  30.67700 64.62600 39.75500
H  28.07800 65.33200 39.71000
H  29.29900 65.89100 40.97700
H  27.96600 64.69500 41.25400
H  25.10000 61.21300 40.48600
H  24.29900 60.19700 39.29900
H  25.32000 61.57900 38.78700
H  26.48700 55.96700 37.34700
H  23.83800 53.08800 38.84500
H  25.28000 52.44800 39.45300
H  24.97500 52.44300 37.66200

