158

Mg 46.31200 24.80400 28.56800
C  47.09500 27.21200 31.22900
C  45.17600 22.77200 30.86500
C  46.81400 22.32200 26.37200
C  47.91000 26.96600 26.41800
N  46.35000 24.92300 30.85400
C  46.48800 26.04500 31.72700
C  45.92500 25.75600 33.04800
C  45.35800 24.31000 32.94700
C  45.63400 23.96500 31.44400
C  45.81900 23.27000 33.93700
C  44.92600 26.85900 33.57400
C  45.34600 27.57100 34.86100
H  44.23100 27.83500 35.85600
N  45.74500 22.86700 28.56300
C  45.19900 22.18400 29.64200
C  44.74200 20.93600 29.18300
C  45.35300 20.72600 27.82900
C  46.11900 21.96800 27.54100
C  43.85500 19.93500 30.00400
C  45.39900 19.43100 26.98200
O  45.90100 19.47600 25.82800
C  44.79900 18.15700 27.52300
N  47.23800 24.67800 26.62300
C  47.33200 23.55600 25.93700
C  47.80000 23.80100 24.49100
C  47.92000 25.39100 24.40100
C  47.63600 25.76800 25.92400
C  49.08200 22.97400 24.05000
C  46.96900 26.01100 23.31700
C  45.60000 26.61600 23.71500
N  47.29100 26.78200 28.74700
C  47.75500 27.50600 27.70400
C  48.20900 28.75400 28.29200
C  47.99100 28.68800 29.67200
C  47.42500 27.45200 29.90100
C  48.67300 29.98300 27.52000
C  48.16500 29.45900 30.91100
O  48.60600 30.55000 31.19300
C  47.51300 28.46000 31.96200
C  48.62800 28.15100 32.92200
O  49.59400 27.42100 32.64500
O  48.44300 28.70200 34.11700
C  49.11300 28.00200 35.24900
H  44.66700 22.14700 31.60100
H  46.78500 21.52100 25.63100
H  48.30500 27.70000 25.71300
H  46.81800 25.73500 33.67300
H  44.30800 24.59700 33.00900
H  46.81800 22.98600 33.60800
H  45.07400 22.48300 34.04800
H  45.86100 23.70700 34.93500
H  43.95800 26.39600 33.76200
H  44.98400 27.57300 32.75300
H  45.62700 28.61500 34.72300
H  46.16900 27.06300 35.36400
H  42.99300 19.57800 29.44000
H  43.42700 20.49900 30.83200
H  44.53800 19.17400 30.38200
H  45.05400 17.92700 28.55700
H  45.15000 17.40100 26.82100
H  43.71200 18.07700 27.55000
H  46.88800 23.55600 23.94700
H  48.90600 25.68300 24.03900
H  48.83000 22.11100 23.43400
H  49.66500 22.50300 24.84200
H  49.78200 23.60200 23.49900
H  46.71200 25.27000 22.56000
H  47.56300 26.71200 22.73000
H  45.35300 26.34900 24.74300
H  44.79600 26.20400 23.10500
H  45.63400 27.68700 23.51300
H  47.92300 30.08400 26.73500
H  49.69500 29.80600 27.18600
H  48.52500 30.87800 28.12400
H  46.72400 28.84700 32.60600
H  48.23400 27.72300 35.83000
H  49.72000 28.66900 35.86100
H  49.51800 27.00100 35.09900
Mg 36.03000 50.12900 25.85700
C  36.07000 48.23800 28.69900
C  34.56700 52.64300 27.71500
C  35.52700 51.91400 23.04200
C  36.93500 47.39800 23.91700
N  35.51900 50.49400 27.97400
C  35.65000 49.48700 28.90900
C  35.33400 50.11000 30.32800
C  34.58800 51.35700 29.97800
C  34.87000 51.53100 28.44100
C  32.97600 51.37200 30.29000
C  36.56000 50.33000 31.20400
C  36.35800 49.59800 32.53400
H  34.98800 49.67900 33.16600
N  35.30100 52.06600 25.44800
C  34.80900 52.94500 26.38500
C  34.38900 54.12900 25.71500
C  34.69500 54.02700 24.34500
C  35.22800 52.62300 24.19000
C  33.81000 55.25900 26.38500
C  34.41800 55.00400 23.13500
O  34.70900 54.72000 21.92900
C  33.82400 56.42400 23.30800
N  36.36200 49.81100 23.75100
C  36.07900 50.68800 22.78200
C  36.42800 50.11800 21.39300
C  36.93600 48.71400 21.71400
C  36.66700 48.56400 23.21700
C  35.27800 50.25000 20.32700
C  38.31800 48.41200 21.17500
C  39.50900 48.92300 22.02900
N  36.40800 48.17200 26.17600
C  36.80000 47.16700 25.29600
C  37.15200 45.98300 26.07900
C  36.86400 46.35300 27.42200
C  36.44100 47.69700 27.39600
C  37.48700 44.66500 25.50200
C  36.86100 45.82900 28.73900
O  37.24100 44.74000 29.15300
C  36.21100 47.03600 29.63800
C  34.89900 46.48300 30.11800
O  33.91500 46.29100 29.47800
O  35.01400 46.11000 31.38200
C  33.86200 45.56600 32.05400
H  34.07500 53.31800 28.41900
H  35.38700 52.43700 22.09300
H  37.41600 46.57700 23.38100
H  34.62400 49.45700 30.83500
H  34.96800 52.22600 30.51600
H  32.72500 50.37500 30.65300
H  32.41800 51.65800 29.39800
H  32.77600 51.83200 31.25700
H  36.69500 51.40500 31.31900
H  37.44200 49.84400 30.78600
H  37.12100 50.00500 33.19800
H  36.70900 48.57800 32.37400
H  33.51000 55.15900 27.42800
H  32.91300 55.45100 25.79700
H  34.53700 56.06400 26.27200
H  34.28900 57.09500 24.03000
H  32.77200 56.40200 23.59200
H  33.72200 56.92500 22.34500
H  37.27300 50.68800 21.00500
H  36.24300 47.97300 21.31500
H  34.51700 50.92200 20.72500
H  34.91700 49.26800 20.02100
H  35.60400 50.76000 19.42000
H  38.43200 48.88000 20.19700
H  38.35500 47.33100 21.04500
H  39.95700 48.06500 22.53100
H  39.15100 49.64900 22.75900
H  40.31300 49.33100 21.41600
H  37.96800 44.01600 26.23400
H  38.21300 44.86700 24.71400
H  36.63700 44.14300 25.06200
H  36.80000 47.35100 30.49900
H  33.04200 46.27100 31.92000
H  34.04100 45.32100 33.10100
H  33.42800 44.66600 31.61800

