158

Mg 16.78200 -0.97900 27.63600
C  16.11000 1.00200 30.54100
C  18.80900 -2.93400 29.72400
C  18.13500 -2.24900 24.93300
C  15.06500 1.37900 25.79300
N  17.39300 -0.88000 29.74800
C  16.96500 -0.01900 30.85100
C  17.45500 -0.42100 32.22300
C  18.45200 -1.60000 31.82700
C  18.23800 -1.83300 30.34100
C  19.90300 -1.44100 32.21700
C  16.31500 -0.71800 33.30800
C  16.33400 0.10400 34.66800
H  17.75700 0.63900 35.17300
N  18.22200 -2.42300 27.31400
C  18.80700 -3.22800 28.33800
C  19.58500 -4.23000 27.69100
C  19.40800 -4.09900 26.23100
C  18.54100 -2.88300 26.07700
C  20.32500 -5.33300 28.48900
C  19.91700 -4.83100 24.97800
O  19.62000 -4.62100 23.82500
C  21.04600 -5.87600 25.21300
N  16.66300 -0.52700 25.57700
C  17.38000 -1.14500 24.67900
C  17.16200 -0.49200 23.26800
C  15.98400 0.54900 23.56000
C  15.83700 0.42200 25.05200
C  18.48400 0.18300 22.65900
C  14.64700 0.19300 22.82200
C  14.73200 0.23900 21.23600
N  15.70200 0.74100 28.01700
C  15.03100 1.58800 27.19800
C  14.44700 2.66700 28.01100
C  14.80800 2.41800 29.30400
C  15.66600 1.32300 29.26300
C  13.68500 3.89500 27.43600
C  14.64200 2.85200 30.66200
O  13.91300 3.74600 31.04100
C  15.58000 2.03100 31.49400
C  16.44600 3.07700 32.08500
O  17.44500 3.55200 31.54600
O  15.90300 3.54100 33.24700
C  16.57700 4.64000 33.96600
H  19.45700 -3.55900 30.34100
H  18.76000 -2.58900 24.10400
H  14.45700 2.09100 25.23000
H  18.11100 0.32300 32.67400
H  18.19400 -2.59200 32.19700
H  20.58300 -1.90800 31.50500
H  20.16000 -2.05800 33.07800
H  20.11700 -0.38900 32.41000
H  16.41000 -1.80000 33.40100
H  15.42700 -0.41200 32.75500
H  15.88700 -0.51500 35.44600
H  15.62700 0.91400 34.49000
H  20.27900 -6.30000 27.98800
H  19.84700 -5.36600 29.46800
H  21.37100 -5.06000 28.63300
H  20.64800 -6.77100 25.69100
H  21.87200 -5.55200 25.84600
H  21.41800 -6.15900 24.22800
H  16.82900 -1.31500 22.63500
H  16.32300 1.50300 23.15500
H  18.40800 1.26800 22.72600
H  18.56900 -0.13200 21.61900
H  19.40800 -0.18200 23.10800
H  13.84500 0.77900 23.27100
H  14.40800 -0.83800 23.08300
H  14.95100 1.30100 21.12500
H  13.77700 0.09500 20.73200
H  15.54600 -0.36500 20.83600
H  13.79100 4.10800 26.37300
H  14.16000 4.75100 27.91500
H  12.65400 3.81200 27.78300
H  14.89600 1.62300 32.23800
H  16.80700 5.52500 33.37200
H  17.54800 4.21800 34.22700
H  16.10000 4.88400 34.91500
Mg -2.36200 34.53600 26.60600
C  -4.21300 32.78600 29.20000
C  -1.20700 36.51400 29.03500
C  -0.84500 36.16000 24.17900
C  -4.04500 32.47300 24.30200
N  -2.79800 34.76600 28.95300
C  -3.42200 33.83300 29.75800
C  -3.21900 34.22000 31.20100
C  -2.39700 35.53400 31.08100
C  -2.06100 35.64200 29.57500
C  -3.13100 36.79200 31.61600
C  -2.54700 33.09600 32.03300
C  -3.34200 32.36200 33.15000
H  -3.39300 33.23500 34.39800
N  -1.20700 36.13900 26.56800
C  -0.74300 36.80000 27.70500
C  0.20300 37.82600 27.32700
C  0.33500 37.72500 25.94300
C  -0.62000 36.64800 25.48000
C  0.91100 38.68900 28.35400
C  1.28000 38.46100 25.01400
O  1.26300 38.34400 23.80600
C  2.34500 39.32900 25.57500
N  -2.73000 34.46700 24.51600
C  -1.72600 35.15400 23.78400
C  -1.68400 34.60800 22.35100
C  -2.61900 33.38700 22.36000
C  -3.19700 33.38300 23.77900
C  -1.98500 35.64500 21.28700
C  -1.87300 32.05900 22.06300
C  -2.69500 30.81000 21.61400
N  -4.03400 33.13500 26.69900
C  -4.54700 32.34200 25.63100
C  -5.42900 31.32900 26.17500
C  -5.32900 31.43900 27.56200
C  -4.45900 32.58800 27.83000
C  -6.18500 30.17800 25.44800
C  -5.72300 30.88600 28.80800
O  -6.59100 30.02000 28.99700
C  -5.06700 31.77900 29.91600
C  -6.25700 32.36700 30.59900
O  -6.73600 33.43800 30.29400
O  -6.63400 31.70300 31.68500
C  -7.59800 32.20600 32.61800
H  -0.80800 37.18600 29.79800
H  -0.14700 36.44000 23.38700
H  -4.41200 31.76900 23.55200
H  -4.23100 34.37200 31.57700
H  -1.44000 35.53600 31.60200
H  -4.08800 36.49100 32.04300
H  -3.32500 37.46700 30.78200
H  -2.54700 37.34200 32.35500
H  -1.64800 33.53800 32.46300
H  -2.12800 32.40800 31.29900
H  -2.75100 31.47500 33.38200
H  -4.31900 32.04400 32.78500
H  1.99200 38.68500 28.21000
H  0.65100 38.51600 29.39800
H  0.56900 39.69700 28.11900
H  3.00100 39.62400 24.75600
H  3.02700 38.70700 26.15500
H  1.94200 40.11400 26.21500
H  -0.64000 34.32600 22.21400
H  -3.39300 33.60800 21.62400
H  -1.15700 35.72800 20.58400
H  -2.08100 36.60200 21.79900
H  -2.97500 35.45600 20.87100
H  -1.39900 31.69400 22.97400
H  -1.01600 32.14800 21.39500
H  -2.38700 30.50800 20.61300
H  -3.74700 31.09500 21.59000
H  -2.56200 30.04400 22.37800
H  -5.91100 29.23600 25.92200
H  -5.91300 30.24300 24.39400
H  -7.25600 30.36300 25.53800
H  -4.49500 31.20400 30.64500
H  -7.03200 32.85000 33.29100
H  -8.12000 31.42100 33.16500
H  -8.32400 32.78900 32.05200

