158

Mg 24.90600 1.40400 29.98500
C  27.10200 1.37200 32.62300
C  22.29100 1.81800 32.20000
C  22.76700 1.14500 27.36400
C  27.61500 0.71300 27.81900
N  24.76900 1.53500 32.16200
C  25.81800 1.56900 33.04900
C  25.33700 1.92100 34.44200
C  23.79100 1.76300 34.34900
C  23.55900 1.73600 32.86000
C  23.12200 0.55900 35.15800
C  25.84900 3.23200 35.09100
C  26.50600 3.11600 36.49200
H  26.19100 4.09000 37.62600
N  22.88200 1.45300 29.81800
C  21.96000 1.57400 30.85600
C  20.60000 1.38800 30.37400
C  20.70500 1.16000 28.98100
C  22.17500 1.20300 28.62600
C  19.47500 1.09800 31.36300
C  19.60400 0.71100 27.99500
O  19.85800 0.37400 26.87200
C  18.22700 0.66700 28.51100
N  25.11300 1.13100 27.90000
C  24.12200 1.16600 26.98100
C  24.63900 1.03500 25.55500
C  26.19800 1.20300 25.73500
C  26.34800 0.95500 27.24500
C  24.19300 -0.19800 24.76600
C  26.69700 2.58300 25.26400
C  28.18500 2.60200 24.90100
N  26.96400 1.07000 30.13900
C  27.94600 0.79600 29.22100
C  29.19400 0.60000 29.85900
C  28.94100 0.82800 31.23900
C  27.57800 1.06000 31.32100
C  30.50400 0.28900 29.20300
C  29.60800 0.88500 32.51800
O  30.78200 0.67300 32.91000
C  28.37900 1.35200 33.50100
C  28.42900 0.37600 34.65500
O  28.21800 -0.82400 34.55000
O  28.84500 1.02900 35.78300
C  28.92900 0.17700 36.93300
H  21.50400 2.26700 32.81000
H  22.08500 0.89700 26.54900
H  28.48000 0.65400 27.15500
H  25.74800 1.12800 35.06600
H  23.31300 2.69900 34.64000
H  23.94000 0.02400 35.64200
H  22.51200 -0.14300 34.59100
H  22.49800 1.02600 35.92000
H  25.05800 3.96700 35.24000
H  26.57000 3.67800 34.40600
H  27.57900 3.24200 36.34900
H  26.44300 2.14300 36.97800
H  18.98200 2.05000 31.56100
H  19.88500 0.77500 32.31900
H  18.75800 0.33700 31.05500
H  17.85900 1.58900 28.96100
H  18.27200 -0.25100 29.09600
H  17.58200 0.48100 27.65200
H  24.09100 1.78400 24.98200
H  26.52900 0.39800 25.07900
H  23.58800 0.06700 23.89900
H  23.59600 -0.83300 25.42200
H  25.10400 -0.75200 24.54200
H  26.52600 3.36000 26.00900
H  26.11500 2.88400 24.39300
H  28.81200 3.19500 25.56700
H  28.25000 2.94800 23.87000
H  28.64900 1.62800 24.73800
H  30.16500 -0.33600 28.37600
H  31.14300 -0.32700 29.83600
H  30.99500 1.17500 28.80200
H  28.61700 2.35100 33.86500
H  28.10000 0.22100 37.64000
H  29.77300 0.38500 37.59100
H  29.01600 -0.90300 36.82000
Mg 43.17700 42.46300 25.75700
C  42.39400 44.85500 28.26600
C  44.46500 40.49600 28.24900
C  44.35600 40.39300 23.48800
C  42.21400 44.81100 23.37000
N  43.48000 42.76500 27.94700
C  42.94200 43.72700 28.80600
C  43.19000 43.43900 30.36800
C  44.11400 42.10100 30.27900
C  44.03500 41.76500 28.67500
C  45.50700 42.35100 30.90100
C  41.86800 43.39900 31.16600
C  41.49200 42.32900 32.26100
H  40.86000 42.89300 33.46400
N  44.09500 40.59800 25.83800
C  44.47600 39.93800 27.00500
C  44.86800 38.56900 26.63200
C  44.70600 38.53900 25.20900
C  44.42800 39.85900 24.80500
C  45.30800 37.50400 27.67300
C  44.95400 37.38100 24.22800
O  44.86000 37.46100 22.99900
C  45.18100 36.05000 24.80900
N  43.27700 42.59500 23.74800
C  43.84400 41.57300 23.00700
C  43.76100 41.91000 21.51400
C  42.73000 43.11900 21.49500
C  42.75100 43.56200 22.95000
C  45.09600 42.31500 20.88000
C  41.34000 42.74100 20.91800
C  40.36400 42.08200 21.89200
N  42.48400 44.42600 25.78300
C  42.14500 45.26500 24.74100
C  41.69700 46.52400 25.29400
C  41.78500 46.39800 26.65800
C  42.23600 45.08800 26.88600
C  41.25700 47.68700 24.47300
C  41.54300 47.10000 27.87000
O  41.31800 48.26300 28.10400
C  41.84700 46.12600 28.95100
C  42.88200 46.67800 29.90400
O  44.10800 46.59100 29.69300
O  42.38000 47.16600 31.08900
C  43.36400 47.33000 32.15400
H  44.89500 39.90000 29.05600
H  44.74300 39.72900 22.71200
H  41.91000 45.58400 22.66100
H  43.80200 44.24500 30.77300
H  43.73300 41.21600 30.78800
H  45.71800 43.40900 31.05700
H  46.23500 41.82300 30.28600
H  45.72600 41.89600 31.86700
H  41.00800 43.38300 30.49700
H  41.79200 44.42100 31.53600
H  42.37300 41.74400 32.52600
H  40.85800 41.55700 31.82500
H  45.26800 37.89500 28.69000
H  46.31500 37.17700 27.41500
H  44.66000 36.64700 27.86000
H  45.55400 35.37700 24.03800
H  44.28800 35.69500 25.32500
H  46.04800 36.17600 25.45800
H  43.42100 40.98800 21.04200
H  43.11600 43.99600 20.97500
H  45.73600 42.58700 21.71900
H  44.88800 43.25400 20.36600
H  45.52500 41.51700 20.27300
H  41.54700 42.13000 20.04000
H  41.02100 43.73300 20.60100
H  40.22000 41.10400 21.43200
H  39.42200 42.62800 21.84600
H  40.60100 42.05600 22.95600
H  40.16900 47.67400 24.40800
H  41.60900 47.51500 23.45600
H  41.66300 48.65800 24.75900
H  40.87300 46.03300 29.43000
H  44.04300 46.47800 32.18100
H  42.82800 47.43700 33.09700
H  43.79000 48.33100 32.08300

