158

Mg 1.68300 -1.46100 44.39900
C  5.03700 -0.70000 44.02300
C  0.93800 1.43900 42.73900
C  -1.57700 -2.62700 43.99300
C  2.56800 -4.64900 45.62900
N  2.85500 0.04900 43.28300
C  4.20000 0.26300 43.44000
C  4.63400 1.63600 42.97200
C  3.31800 2.34100 42.69800
C  2.24400 1.20900 43.00200
C  3.02800 3.61100 43.61100
C  5.68900 1.79400 41.79100
C  5.38600 0.94800 40.55300
H  6.21200 1.30700 39.29200
N  -0.15800 -0.59000 43.58600
C  -0.20000 0.61900 43.00100
C  -1.63700 0.88400 42.70500
C  -2.34700 -0.33900 43.01800
C  -1.35400 -1.31800 43.59700
C  -2.06100 2.14500 42.03000
C  -3.93700 -0.53300 42.86900
O  -4.67600 0.27400 42.26500
C  -4.59800 -1.76000 43.43800
N  0.57800 -3.37500 44.93200
C  -0.73700 -3.59300 44.67800
C  -1.12000 -5.04500 44.98600
C  0.27600 -5.71000 45.39600
C  1.20600 -4.45800 45.40500
C  -2.13900 -5.24800 46.08900
C  0.75100 -6.86900 44.53400
C  1.69900 -6.68500 43.33800
N  3.40600 -2.49100 44.78200
C  3.66300 -3.78000 45.36200
C  5.08600 -4.00800 45.41300
C  5.69500 -2.82100 44.95300
C  4.63100 -1.95800 44.52000
C  5.78700 -5.21800 45.94400
C  6.93100 -2.03300 44.76900
O  8.10000 -2.27900 45.03200
C  6.51200 -0.61900 44.28700
C  6.87300 0.45300 45.22700
O  6.36600 0.68300 46.29300
O  7.93400 1.14300 44.67800
C  8.50600 2.23300 45.52200
H  0.71600 2.46900 42.45400
H  -2.57300 -3.00200 43.74900
H  2.68600 -5.64000 46.07100
H  5.12500 2.07700 43.83900
H  3.28000 2.51100 41.62200
H  3.89300 3.81100 44.24300
H  2.16600 3.57800 44.27700
H  2.73900 4.41800 42.93800
H  6.69000 1.68600 42.20900
H  5.61300 2.85900 41.57000
H  4.35100 0.87800 40.21800
H  5.53300 -0.09400 40.83700
H  -2.78700 1.92100 41.24900
H  -1.23200 2.54400 41.44700
H  -2.36800 2.92800 42.72400
H  -5.68600 -1.70000 43.43300
H  -4.30500 -1.96400 44.46800
H  -4.56700 -2.60900 42.75400
H  -1.49100 -5.49600 44.06500
H  0.35900 -5.95500 46.45500
H  -1.78200 -5.94400 46.84800
H  -3.06200 -5.56600 45.60500
H  -2.47400 -4.31600 46.54400
H  -0.08700 -7.48800 44.21200
H  1.29000 -7.45700 45.27600
H  1.63100 -5.69800 42.88100
H  1.53500 -7.57200 42.72500
H  2.73200 -6.80500 43.66500
H  5.91300 -5.97600 45.17100
H  5.20600 -5.62300 46.77200
H  6.68700 -4.96800 46.50600
H  7.08700 -0.37300 43.39500
H  7.75400 2.93300 45.88500
H  9.30600 2.70900 44.95400
H  8.85300 1.70300 46.40900
Mg -12.03000 15.88000 42.70500
C  -8.84000 14.56000 41.76900
C  -11.08000 18.89300 41.49800
C  -15.35700 16.75800 42.75300
C  -12.97900 12.45200 43.53700
N  -10.19700 16.57900 41.78600
C  -8.94700 15.93600 41.72600
C  -7.77900 16.94200 41.39000
C  -8.55000 18.33700 41.62200
C  -10.03100 17.94500 41.49900
C  -8.26800 18.97800 43.01400
C  -7.16900 16.75300 39.98900
C  -5.65800 16.72800 39.71500
H  -5.33800 15.51800 38.76200
N  -13.07100 17.58900 42.23700
C  -12.44800 18.70900 41.68500
C  -13.41100 19.64300 41.36400
C  -14.73700 19.06800 41.69500
C  -14.43500 17.77300 42.25400
C  -13.15200 20.94900 40.72700
C  -16.13000 19.68500 41.53900
O  -16.20100 20.86200 41.13900
C  -17.36400 18.92800 41.84100
N  -13.83600 14.85500 43.35500
C  -15.10400 15.46800 43.23900
C  -16.17500 14.54200 43.67400
C  -15.43400 13.16000 43.91100
C  -13.96700 13.49300 43.62500
C  -17.19400 15.08000 44.77100
C  -16.04800 11.92500 43.20000
C  -15.65300 11.76500 41.74900
N  -11.13800 13.92000 42.74600
C  -11.69100 12.67200 43.06500
C  -10.69800 11.67900 42.94000
C  -9.54300 12.35000 42.46100
C  -9.89600 13.67900 42.27000
C  -10.92900 10.23900 43.33500
C  -8.14100 12.23400 42.10600
O  -7.40300 11.32300 42.12300
C  -7.65200 13.62400 41.65200
C  -6.56300 13.87000 42.56500
O  -6.66700 13.90500 43.79600
O  -5.33000 13.99800 41.92000
C  -4.16300 14.14900 42.85300
H  -10.85600 19.96100 41.45100
H  -16.37300 17.11200 42.94200
H  -13.29800 11.45600 43.85200
H  -7.05000 16.80700 42.18900
H  -8.22100 19.01100 40.83100
H  -7.29900 18.71100 43.43700
H  -9.02300 18.84700 43.78900
H  -8.21000 20.06100 42.91000
H  -7.58600 17.39600 39.21300
H  -7.48500 15.73600 39.75800
H  -5.08300 16.58600 40.63000
H  -5.33600 17.63400 39.20100
H  -13.93200 21.17800 40.00100
H  -12.29200 21.01800 40.06100
H  -13.17000 21.84800 41.34200
H  -17.32200 18.03800 41.21300
H  -18.07800 19.68900 41.52400
H  -17.41300 18.84700 42.92700
H  -16.73700 14.32500 42.76600
H  -15.40200 12.94400 44.97900
H  -18.16700 14.66500 44.50800
H  -17.35300 16.15300 44.87300
H  -16.98000 14.73100 45.78200
H  -17.11500 11.88800 43.42200
H  -15.59500 11.07400 43.70900
H  -15.22100 12.73300 41.49300
H  -16.46800 11.47400 41.08600
H  -14.83800 11.04900 41.65100
H  -10.06400 9.58100 43.25400
H  -11.77300 9.82900 42.78000
H  -11.28700 10.16000 44.36200
H  -7.28800 13.57500 40.62600
H  -4.36100 13.47100 43.68300
H  -4.13100 15.18200 43.19900
H  -3.25600 13.92900 42.28900

