158

Mg 45.54500 4.54100 47.90600
C  43.82000 7.39200 46.95900
C  43.06200 2.58400 47.43100
C  47.83700 1.85800 48.07800
C  48.50800 6.64700 47.74000
N  43.73800 4.87400 47.03500
C  43.13100 6.11700 46.90000
C  41.65100 5.87500 46.41400
C  41.30300 4.38300 46.68900
C  42.74700 3.89900 47.03800
C  40.19200 4.03400 47.68900
C  41.36100 6.27400 44.92900
C  40.09500 7.10800 44.75400
H  39.13300 6.80200 43.62200
N  45.48800 2.53700 47.73800
C  44.30800 1.87900 47.63500
C  44.56400 0.43900 47.68200
C  45.87300 0.25300 48.02900
C  46.47300 1.59100 47.92800
C  43.47100 -0.54000 47.49200
C  46.53400 -1.11600 48.43500
O  45.86400 -2.18900 48.36600
C  47.96400 -1.15200 48.83900
N  47.76800 4.29800 47.97500
C  48.42300 3.10200 47.93300
C  49.91500 3.21200 47.94900
C  50.10400 4.71300 47.83000
C  48.69500 5.30100 47.77200
C  50.67300 2.54500 49.12700
C  51.01000 5.10900 46.62000
C  52.43700 5.65600 46.84200
N  46.09300 6.62400 47.70300
C  47.29300 7.35700 47.70700
C  47.01600 8.77000 47.51400
C  45.61000 8.83100 47.32500
C  45.15700 7.54900 47.34600
C  47.86500 9.94300 47.26500
C  44.50600 9.72900 46.89900
O  44.45500 10.89200 46.54400
C  43.26200 8.79300 46.73400
C  42.24500 9.05300 47.82200
O  42.40100 8.81600 49.01200
O  41.11200 9.48300 47.25100
C  39.93600 9.69900 48.12100
H  42.26500 1.84400 47.53000
H  48.57700 1.05600 48.03600
H  49.44900 7.18500 47.87200
H  41.13100 6.56800 47.07600
H  41.08800 3.85400 45.76000
H  39.77900 3.03800 47.53000
H  39.34000 4.70200 47.57300
H  40.54100 4.16400 48.71300
H  41.30100 5.37500 44.31500
H  42.12900 6.97100 44.59400
H  40.24400 8.18500 44.67600
H  39.50800 6.93000 45.65500
H  43.68300 -1.54900 47.84600
H  43.32300 -0.62300 46.41500
H  42.53800 -0.27300 47.98900
H  48.05500 -1.98900 49.53100
H  48.33200 -0.38000 49.51500
H  48.61100 -1.30800 47.97500
H  50.26900 2.65000 47.08400
H  50.59900 4.98900 48.76100
H  49.98100 2.39200 49.95500
H  51.56200 3.09700 49.43500
H  51.03000 1.52700 48.97600
H  50.47200 5.86000 46.04200
H  51.13000 4.32900 45.86800
H  53.13200 5.06400 46.24600
H  52.67800 5.72100 47.90300
H  52.45700 6.61500 46.32500
H  48.93300 9.74800 47.16900
H  47.75400 10.71200 48.02900
H  47.46400 10.36000 46.34100
H  42.79100 8.86200 45.75400
H  39.36200 8.78600 48.27800
H  39.17800 10.43900 47.86500
H  40.27400 9.92600 49.13200
Mg -11.99100 15.40200 41.78400
C  -8.93400 13.88300 41.80000
C  -10.65100 18.28100 40.31200
C  -15.19500 16.57900 41.01000
C  -13.34900 12.44900 43.16800
N  -10.03100 15.92400 40.93300
C  -8.90500 15.18500 41.18700
C  -7.68100 15.92500 40.66600
C  -8.20300 17.44500 40.58100
C  -9.73000 17.22300 40.64400
C  -7.76300 18.23800 41.81800
C  -7.18900 15.36000 39.25000
C  -5.68300 15.47500 39.06600
H  -5.14200 16.32700 37.95500
N  -12.86200 17.25300 40.89100
C  -12.07100 18.30300 40.41500
C  -12.97000 19.42200 40.03100
C  -14.34500 18.86100 40.10600
C  -14.19200 17.51800 40.69300
C  -12.52800 20.85300 39.64800
C  -15.64900 19.49600 39.67800
O  -15.66300 20.69900 39.43900
C  -16.92500 18.63500 39.33400
N  -14.01300 14.43300 41.80200
C  -15.12300 15.24600 41.54500
C  -16.34500 14.39500 41.99100
C  -15.78600 13.22300 42.88400
C  -14.31100 13.35200 42.54500
C  -17.56400 15.06400 42.69000
C  -16.36600 11.82100 42.64600
C  -16.69100 11.02700 43.86800
N  -11.38500 13.46800 42.23200
C  -12.00900 12.44500 42.96600
C  -11.02800 11.43700 43.34900
C  -9.83000 11.88100 42.82100
C  -10.08800 13.12200 42.17300
C  -11.26200 10.23200 44.20700
C  -8.42700 11.68200 42.65400
O  -7.71700 10.74400 42.98600
C  -7.76700 12.92700 42.02800
C  -6.74700 13.52200 42.95400
O  -6.98700 14.20300 43.97700
O  -5.48100 13.28200 42.46700
C  -4.37600 13.91900 43.19600
H  -10.21100 19.18200 39.88000
H  -16.24200 16.88100 40.95300
H  -13.70700 11.50200 43.57700
H  -6.86500 15.99400 41.38400
H  -7.87300 17.94800 39.67200
H  -7.58200 17.57100 42.66100
H  -8.54200 18.94600 42.10100
H  -6.83000 18.75500 41.59500
H  -7.59600 15.90200 38.39700
H  -7.39900 14.29200 39.18800
H  -5.30300 14.47900 38.83700
H  -5.12800 15.79200 39.94900
H  -13.19000 21.61000 40.06800
H  -12.58200 20.87700 38.55900
H  -11.51900 21.08800 39.98900
H  -16.57600 17.64600 39.03600
H  -17.51000 19.16600 38.58400
H  -17.67000 18.63600 40.12900
H  -16.58000 13.82700 41.09000
H  -15.82600 13.47700 43.94300
H  -17.36500 16.12700 42.83100
H  -17.75600 14.58200 43.64900
H  -18.36700 14.93200 41.96500
H  -15.61700 11.17700 42.18500
H  -17.16300 11.85400 41.90200
H  -16.17700 10.06800 43.81500
H  -17.75900 10.82000 43.93500
H  -16.44300 11.54100 44.79700
H  -12.32800 10.01100 44.25900
H  -10.92700 10.40000 45.23100
H  -10.75100 9.36600 43.78600
H  -7.25400 12.63600 41.11100
H  -3.52100 13.86200 42.52300
H  -4.09400 13.42800 44.12700
H  -4.64000 14.94700 43.44500

