158

Mg 7.81400 3.44400 27.71800
C  9.20100 1.99000 30.60600
C  5.76500 5.32300 29.76300
C  5.97800 4.46700 25.05700
C  9.12900 0.76700 25.90100
N  7.46100 3.55300 29.89100
C  8.23300 2.95400 30.87400
C  7.94600 3.49200 32.26800
C  6.69500 4.34100 31.99000
C  6.57200 4.41300 30.43600
C  5.33800 3.84500 32.48200
C  9.17000 4.23900 32.91400
C  9.87600 3.87200 34.20000
H  9.98900 4.82700 35.37300
N  6.20000 4.85100 27.45900
C  5.61000 5.54100 28.40300
C  4.75300 6.58200 27.81800
C  4.75500 6.38200 26.43100
C  5.65700 5.14300 26.28900
C  3.99200 7.62500 28.63000
C  4.10500 7.11200 25.35100
O  4.31700 6.88700 24.15600
C  3.10800 8.19100 25.73100
N  7.47100 2.61500 25.80100
C  6.74900 3.31700 24.76700
C  6.96700 2.65200 23.39600
C  8.16100 1.66600 23.67400
C  8.14700 1.61500 25.25300
C  5.66200 2.00000 22.77300
C  9.61900 2.15100 23.13300
C  10.42800 1.01600 22.56000
N  9.14500 1.81900 28.04500
C  9.64200 0.89200 27.20300
C  10.55000 0.07400 27.91700
C  10.47200 0.52400 29.26100
C  9.56100 1.57700 29.28900
C  11.25300 -1.07800 27.39200
C  10.91400 0.24000 30.55900
O  11.65300 -0.63700 30.98400
C  10.02500 1.20600 31.61100
C  9.20100 0.25000 32.37900
O  8.22200 -0.38000 31.88500
O  9.68400 0.28800 33.67700
C  8.72400 -0.21500 34.66400
H  5.39100 6.04200 30.49400
H  5.47500 4.82900 24.15700
H  9.55500 0.02300 25.22600
H  7.60200 2.59300 32.78000
H  6.71100 5.37900 32.31900
H  4.72200 4.64500 32.89400
H  5.53000 3.12900 33.28100
H  4.77100 3.20300 31.80800
H  8.81600 5.26900 32.94300
H  9.93600 4.34400 32.14600
H  10.89100 3.55700 33.96000
H  9.28200 3.01700 34.52200
H  4.23500 8.66000 28.38900
H  4.14500 7.47400 29.69900
H  2.92600 7.54000 28.42200
H  2.23900 7.76400 26.23300
H  2.70100 8.65400 24.83200
H  3.53900 9.03400 26.27100
H  7.22100 3.52200 22.79000
H  7.91900 0.64300 23.38400
H  4.78500 2.04200 23.41900
H  5.80600 0.97500 22.43000
H  5.46700 2.62600 21.90300
H  10.07700 2.50200 24.05800
H  9.55300 2.97400 22.42100
H  9.77300 0.19500 22.26600
H  11.21500 0.73200 23.25800
H  10.82400 1.40900 21.62400
H  12.18700 -0.74300 26.94100
H  10.63100 -1.50000 26.60200
H  11.53100 -1.83200 28.12800
H  10.66600 1.79300 32.26800
H  9.32000 -0.78300 35.37900
H  7.87800 -0.77400 34.26500
H  8.31400 0.64800 35.18800
Mg 43.70000 42.32600 26.29100
C  43.16200 44.85900 28.80400
C  44.83200 40.24400 28.74700
C  44.34300 40.14600 23.90400
C  42.38700 44.63200 23.93300
N  44.08800 42.58100 28.48700
C  43.72800 43.63400 29.33300
C  43.85000 43.17500 30.77700
C  44.73000 41.85100 30.68900
C  44.46100 41.50900 29.21100
C  46.26400 42.23000 30.81200
C  42.38100 43.05100 31.45400
C  42.13200 43.83900 32.70700
H  42.94500 43.47100 33.98300
N  44.37500 40.34900 26.32300
C  44.80800 39.69800 27.37200
C  45.14500 38.33200 27.01500
C  45.00400 38.24100 25.55200
C  44.55000 39.63500 25.17200
C  45.54300 37.31400 28.13600
C  45.28800 37.16500 24.56800
O  45.38700 37.34500 23.36200
C  45.48100 35.80000 25.12900
N  43.51800 42.45000 24.27300
C  43.91100 41.42300 23.45600
C  43.77000 41.73800 21.94800
C  42.87000 43.01300 22.01400
C  42.89400 43.41400 23.52700
C  45.04100 41.90100 21.13300
C  41.35100 42.78400 21.51100
C  40.60900 41.52800 22.07200
N  43.07900 44.35900 26.28900
C  42.56400 45.16900 25.27000
C  42.19800 46.39400 25.82900
C  42.34000 46.28200 27.23600
C  42.87800 45.07100 27.45100
C  41.62000 47.54800 25.06200
C  42.07700 47.04900 28.40500
O  41.40400 48.02400 28.63200
C  42.58900 46.07100 29.52400
C  43.51200 46.72000 30.55800
O  44.73200 46.69400 30.58300
O  42.79100 47.28100 31.52300
C  43.57800 48.09600 32.52800
H  45.06200 39.59600 29.59500
H  44.42100 39.46500 23.05300
H  42.02900 45.36400 23.20600
H  44.39800 43.93700 31.33200
H  44.45600 41.11500 31.44400
H  46.36200 43.29800 30.61700
H  46.98300 41.69000 30.19600
H  46.53000 42.03500 31.85100
H  42.26400 41.98700 31.66300
H  41.55200 43.26200 30.77900
H  41.05200 43.75700 32.83300
H  42.28800 44.90500 32.53900
H  45.17400 37.52300 29.14000
H  46.62600 37.19100 28.12700
H  45.25600 36.28200 27.93700
H  44.54500 35.68200 25.67400
H  46.20000 36.04000 25.91200
H  45.85300 35.06000 24.42000
H  43.28600 40.91500 21.42200
H  43.27900 43.79000 21.36800
H  45.79900 41.23700 21.54900
H  45.25100 42.97000 21.16000
H  44.89600 41.50800 20.12600
H  41.25200 42.87500 20.42900
H  40.81400 43.61500 21.96900
H  40.40500 40.85600 21.23900
H  39.63100 41.70000 22.52100
H  41.32600 40.95200 22.65800
H  40.60000 47.37000 24.72100
H  42.14800 47.57200 24.10900
H  41.64700 48.46600 25.64900
H  41.73500 45.75700 30.12500
H  43.97400 47.45600 33.31700
H  42.93700 48.87100 32.94900
H  44.39100 48.57300 31.98000

