158

Mg 48.65900 45.54300 43.83400
C  45.09100 45.56800 42.83200
C  48.77100 42.34100 42.87600
C  51.86300 45.91500 43.80000
C  48.36700 49.15100 44.17600
N  47.12000 44.18500 42.84000
C  45.80900 44.36600 42.51000
C  45.24100 43.05100 42.01300
C  46.32800 42.02200 42.40000
C  47.53300 42.90200 42.80700
C  45.91600 41.09200 43.58100
C  44.65800 42.98800 40.61900
C  45.64900 43.07300 39.43200
H  45.36900 42.29100 38.09700
N  50.16500 44.21300 43.46200
C  50.03200 42.93900 43.01400
C  51.27900 42.31700 42.95700
C  52.19200 43.35400 43.18100
C  51.46100 44.55800 43.54000
C  51.51400 40.89800 42.50700
C  53.75500 43.07000 43.13200
O  54.16400 41.96800 42.89400
C  54.65400 44.11000 43.44700
N  49.93200 47.33400 43.77700
C  51.25800 47.16600 43.81400
C  52.04700 48.45600 43.83700
C  50.88300 49.56300 43.74200
C  49.57500 48.62300 43.77400
C  53.00900 48.77400 45.04600
C  51.01500 50.43500 42.50700
C  51.04300 52.00400 42.76900
N  47.05800 46.99100 43.73100
C  47.14600 48.39100 43.93200
C  45.82400 48.93700 43.71000
C  44.98200 47.88300 43.31800
C  45.75000 46.70300 43.32300
C  45.41600 50.38400 43.71400
C  43.63900 47.51900 42.81700
O  42.73000 48.20300 42.42000
C  43.63400 45.90500 42.55300
C  42.68400 45.21400 43.44800
O  42.14100 44.07900 43.17000
O  42.26800 45.99300 44.53400
C  41.39600 45.41400 45.56000
H  48.83400 41.25500 42.78300
H  52.94900 45.91200 43.91400
H  48.36000 50.19200 44.50700
H  44.33400 42.91000 42.60100
H  46.50700 41.36900 41.54600
H  44.88300 41.28500 43.86900
H  46.55400 41.32900 44.43200
H  46.02400 40.02900 43.36200
H  43.83400 43.68600 40.47100
H  44.13000 42.04100 40.50600
H  46.63500 42.96400 39.88200
H  45.53500 44.08800 39.05000
H  52.28100 40.83600 41.73500
H  50.61100 40.33400 42.27800
H  51.92500 40.30100 43.32200
H  54.57800 45.02300 42.85600
H  55.68500 43.75900 43.41600
H  54.40700 44.34900 44.48100
H  52.63900 48.52900 42.92500
H  50.89900 50.28900 44.55400
H  52.59000 49.57300 45.65800
H  53.90500 49.18400 44.57900
H  53.25700 47.92400 45.68300
H  50.10400 50.28400 41.92800
H  51.74200 50.11200 41.76200
H  51.88100 52.48800 42.26600
H  51.17900 52.20700 43.83100
H  50.08800 52.46800 42.52100
H  44.71600 50.80300 44.43700
H  44.83700 50.41900 42.79100
H  46.23300 51.10600 43.70600
H  43.23200 45.68000 41.56500
H  41.40600 45.68300 46.61600
H  41.34500 44.33800 45.39200
H  40.36800 45.58600 45.24000
Mg 17.17400 51.48500 26.40600
C  19.04900 50.33500 29.16100
C  14.63900 52.31600 28.51800
C  15.45500 52.39100 23.71200
C  19.79700 50.27600 24.23600
N  16.83000 51.30400 28.55700
C  17.80200 50.95800 29.55400
C  17.29500 51.14200 30.96700
C  15.81100 51.64400 30.67400
C  15.74300 51.79500 29.14900
C  14.66200 50.79200 31.24800
C  17.97900 52.16200 31.82300
C  17.97500 51.90100 33.38400
H  17.48400 53.06800 34.31400
N  15.27800 52.22800 26.14000
C  14.39100 52.50600 27.13300
C  13.20800 52.95800 26.49600
C  13.32200 52.89800 25.09500
C  14.75300 52.51400 24.95400
C  11.96600 53.30500 27.34600
C  12.31400 53.22300 24.09300
O  12.58400 53.09100 22.90400
C  10.97200 53.90100 24.43400
N  17.55300 51.28400 24.24500
C  16.72600 51.90200 23.40000
C  17.30400 51.89000 21.97000
C  18.81600 51.46400 22.22100
C  18.72900 50.94300 23.62700
C  16.65100 50.95800 20.93100
C  19.98400 52.38500 22.02600
C  20.80000 51.97900 20.78400
N  18.97000 50.41700 26.58500
C  19.91200 50.03600 25.62800
C  21.04300 49.38900 26.30000
C  20.70700 49.43800 27.69600
C  19.47400 50.05100 27.81300
C  22.25900 48.86900 25.61000
C  21.08100 49.11100 29.05900
O  22.08000 48.53300 29.41400
C  20.09500 49.69600 30.09400
C  19.69100 48.69900 31.06800
O  19.16400 47.60400 30.84600
O  20.11800 49.14300 32.31100
C  19.80600 48.45800 33.57300
H  13.85300 52.50600 29.25100
H  14.93800 52.89600 22.89300
H  20.65500 50.02400 23.61000
H  17.32600 50.17700 31.47200
H  15.61500 52.64700 31.05300
H  15.06000 50.03400 31.92400
H  14.25300 50.14600 30.47200
H  13.87300 51.30800 31.79600
H  17.58000 53.17300 31.73900
H  19.00100 52.23800 31.45100
H  18.95900 51.51500 33.65100
H  17.20000 51.14400 33.51000
H  12.03300 54.26400 27.86000
H  11.84300 52.58000 28.15100
H  10.96900 53.33700 26.90600
H  11.14400 54.76700 25.07400
H  10.28700 53.19300 24.90000
H  10.45900 54.19600 23.51800
H  17.28000 52.89000 21.53700
H  19.02100 50.65200 21.52300
H  15.86800 51.33300 20.27100
H  16.22600 50.07400 21.40800
H  17.42300 50.63500 20.23200
H  20.57400 52.37400 22.94300
H  19.63500 53.40800 21.88200
H  20.40400 51.14800 20.20000
H  21.81800 51.83200 21.14500
H  20.83900 52.83400 20.10900
H  22.66700 49.54700 24.86000
H  21.85300 47.93200 25.22800
H  23.06900 48.72100 26.32400
H  20.59200 50.51000 30.62300
H  18.90900 48.93600 33.96600
H  20.61300 48.52500 34.30300
H  19.63500 47.39200 33.42600

