158

Mg 9.75300 4.32300 27.69400
C  10.96000 2.55700 30.43700
C  7.77900 6.10700 30.05000
C  8.13600 5.84800 25.20300
C  10.92000 1.87600 25.67700
N  9.59400 4.57100 29.98000
C  10.24900 3.68100 30.83600
C  9.91700 3.94900 32.23400
C  8.67800 4.86800 32.12500
C  8.66500 5.26000 30.62600
C  7.32300 4.13300 32.36500
C  11.18300 4.48700 33.02800
C  11.39100 3.85300 34.36700
H  11.76500 4.67700 35.54600
N  8.20800 5.79300 27.63800
C  7.54600 6.44100 28.66500
C  6.68700 7.43800 28.13800
C  6.83400 7.40000 26.70700
C  7.68700 6.28500 26.42800
C  5.75600 8.29700 28.99100
C  6.14100 8.32600 25.66000
O  6.32000 8.16300 24.43400
C  5.26900 9.43500 26.23800
N  9.54800 3.82100 25.74700
C  8.86000 4.66900 24.91300
C  9.18800 4.29500 23.42700
C  9.93000 2.94100 23.55900
C  10.18200 2.86400 25.04800
C  8.11900 4.35500 22.38600
C  11.31900 2.80100 22.85300
C  11.61200 1.42300 22.19600
N  11.07000 2.72300 27.95300
C  11.37500 1.79400 27.01100
C  12.09400 0.73900 27.60900
C  11.97300 0.99100 28.99700
C  11.30100 2.18700 29.11400
C  12.82600 -0.38500 26.92100
C  12.33200 0.42400 30.30800
O  12.97900 -0.57700 30.61500
C  11.67600 1.50300 31.29400
C  10.59600 0.77000 31.95000
O  9.45100 0.62500 31.53100
O  11.09700 0.37200 33.17900
C  10.03900 -0.31600 34.00700
H  7.32200 6.68600 30.85500
H  7.82800 6.39600 24.31000
H  11.17400 1.04900 25.01100
H  9.61300 3.03200 32.73800
H  8.79900 5.77600 32.71700
H  7.22500 3.56600 33.29100
H  7.16600 3.43600 31.54200
H  6.51400 4.86100 32.31300
H  11.04200 5.56600 33.09000
H  12.11100 4.42200 32.46100
H  12.18200 3.13300 34.15900
H  10.50700 3.24600 34.56400
H  6.04500 9.30300 29.29500
H  5.67400 7.77000 29.94100
H  4.70200 8.36700 28.72400
H  4.34000 8.99000 26.59400
H  4.91300 10.08400 25.43800
H  5.85900 10.04100 26.92600
H  9.84500 5.09700 23.08800
H  9.35800 2.03100 23.38000
H  7.31100 4.88700 22.88800
H  7.62400 3.42200 22.11700
H  8.39300 4.96100 21.52200
H  12.13100 2.87500 23.57700
H  11.36200 3.60400 22.11700
H  10.71600 0.80300 22.22300
H  12.38700 0.81900 22.66800
H  11.96800 1.57300 21.17700
H  13.87700 -0.46300 27.19900
H  12.72400 -0.41500 25.83600
H  12.20400 -1.22400 27.23100
H  12.28600 1.99800 32.04900
H  10.59000 -0.80900 34.80800
H  9.43100 -1.04400 33.46900
H  9.34300 0.35800 34.50700
Mg 35.60500 47.75800 25.98400
C  35.63200 45.71000 28.78900
C  34.41000 50.37300 27.88500
C  35.21600 49.57600 23.10800
C  36.22000 44.96800 23.90200
N  35.12300 47.97700 28.11500
C  35.23900 47.00600 29.07700
C  35.16400 47.72500 30.44700
C  34.53300 49.12300 30.10300
C  34.66900 49.13200 28.57900
C  33.02600 49.44000 30.54500
C  36.61300 47.75200 31.03900
C  36.70600 47.75600 32.57000
H  35.49200 47.82900 33.40900
N  35.02900 49.70800 25.54900
C  34.63400 50.61400 26.48500
C  34.43000 51.90500 25.84700
C  34.63800 51.73300 24.43100
C  34.95400 50.25100 24.27400
C  34.05700 53.15400 26.51800
C  34.73100 52.76300 23.31900
O  35.20700 52.53900 22.19200
C  34.19700 54.13500 23.54400
N  35.40600 47.29300 23.76100
C  35.39400 48.23600 22.84400
C  35.77500 47.83400 21.42100
C  36.08500 46.31100 21.67500
C  35.93200 46.17900 23.19900
C  34.75300 48.13700 20.30900
C  37.54900 45.93300 21.12700
C  38.69700 46.34800 22.03000
N  35.97200 45.81900 26.24900
C  36.17000 44.76000 25.32600
C  36.55600 43.57700 26.08000
C  36.40400 43.87800 27.44200
C  35.99100 45.30500 27.48200
C  36.90700 42.26500 25.40500
C  36.41500 43.36300 28.78300
O  36.73300 42.22000 29.22100
C  35.90600 44.54700 29.70400
C  34.69600 44.13700 30.38300
O  33.56900 44.00600 29.93600
O  34.89200 44.11000 31.74000
C  33.68600 43.75000 32.63000
H  34.07500 51.19500 28.52100
H  35.16100 50.09600 22.15000
H  36.46100 44.20900 23.15400
H  34.44900 47.23100 31.10500
H  35.09600 49.96800 30.49900
H  33.09000 50.40700 31.04300
H  32.53300 48.59900 31.03400
H  32.34800 49.61000 29.71000
H  37.23700 48.56100 30.66100
H  37.14500 46.85000 30.73700
H  37.34900 48.59800 32.82600
H  37.21200 46.85100 32.90600
H  33.07900 53.43200 26.12600
H  34.70800 54.01000 26.33900
H  34.08100 53.00300 27.59700
H  33.23700 53.88500 23.99500
H  33.97100 54.65200 22.61200
H  34.89200 54.66900 24.19300
H  36.71200 48.29900 21.11500
H  35.35700 45.66100 21.18900
H  34.25700 47.29000 19.83400
H  35.33100 48.52100 19.46800
H  33.96600 48.78800 20.68900
H  37.64600 46.42900 20.16100
H  37.73100 44.88200 20.90300
H  38.90300 45.50500 22.68900
H  38.48500 47.25600 22.59600
H  39.56300 46.72500 21.48600
H  37.98400 42.26200 25.23800
H  36.52300 42.22400 24.38600
H  36.63300 41.46400 26.09300
H  36.63500 44.72300 30.49400
H  34.04200 43.03100 33.36700
H  32.80200 43.35500 32.12900
H  33.50200 44.66100 33.20000

