158

Mg 47.42700 24.91600 28.50200
C  48.37600 27.11800 31.04300
C  46.42200 22.64000 31.00300
C  47.19600 22.59400 26.10700
C  49.17200 26.96500 26.20400
N  47.41700 24.97500 30.75500
C  47.72100 25.98400 31.53500
C  47.42600 25.66400 32.95400
C  47.00900 24.18400 32.96100
C  46.86700 23.87500 31.46500
C  47.90900 23.22200 33.72500
C  46.30200 26.64800 33.58100
C  46.64600 27.27400 34.97200
H  45.55200 27.17100 36.02100
N  46.66700 22.97200 28.53200
C  46.31900 22.21700 29.65400
C  45.84500 20.89400 29.15400
C  45.99800 20.96400 27.73300
C  46.66900 22.17900 27.42200
C  45.34700 19.80200 30.02800
C  45.62000 19.87700 26.69700
O  45.53200 19.98000 25.48500
C  45.24600 18.52200 27.22600
N  48.24200 24.72100 26.47000
C  47.96800 23.64500 25.69600
C  48.27200 23.83900 24.22800
C  48.86400 25.35700 24.23700
C  48.75200 25.73500 25.72000
C  49.25800 22.78200 23.70300
C  48.17300 26.31400 23.25100
C  46.81400 26.91900 23.66100
N  48.56400 26.71100 28.54100
C  49.15600 27.41500 27.52600
C  49.51300 28.72300 27.97800
C  49.39200 28.62600 29.39200
C  48.80500 27.33600 29.67100
C  49.85500 29.92000 27.14700
C  49.48200 29.35800 30.61700
O  49.88400 30.47000 30.80600
C  48.79800 28.39800 31.78200
C  49.85400 28.17500 32.74000
O  50.71900 27.28800 32.70600
O  49.63800 28.99200 33.82800
C  50.64900 28.80500 34.91300
H  46.13500 21.94500 31.79600
H  46.96200 21.92600 25.27500
H  49.73800 27.64500 25.56400
H  48.37400 25.83600 33.46300
H  46.00600 24.10200 33.37900
H  48.75600 23.72000 34.19700
H  48.33500 22.42300 33.11900
H  47.24000 22.76100 34.45200
H  45.39500 26.08200 33.79300
H  46.06900 27.53400 32.99100
H  46.75400 28.35100 34.84600
H  47.62400 26.94400 35.32200
H  45.86400 18.85800 29.85100
H  44.31800 19.70300 29.68300
H  45.33200 20.11500 31.07200
H  44.86000 17.84400 26.46500
H  44.37500 18.54500 27.88000
H  46.15600 18.07500 27.62800
H  47.34400 23.74500 23.66400
H  49.90600 25.30300 23.92200
H  48.86100 22.41600 22.75600
H  49.61800 21.93600 24.28800
H  50.20400 23.28800 23.50500
H  47.98800 25.74400 22.34100
H  48.90600 27.08000 22.99900
H  46.03000 26.66100 22.95000
H  46.88200 28.00600 23.71500
H  46.47700 26.56000 24.63300
H  49.82900 30.83000 27.74600
H  49.08400 29.91900 26.37700
H  50.86600 29.73800 26.78200
H  47.96100 28.92200 32.24400
H  50.46600 27.77400 35.21700
H  50.57600 29.52400 35.72900
H  51.67800 28.83500 34.55500
Mg -10.94100 39.94800 41.46200
C  -9.96400 36.66000 40.71500
C  -7.82900 41.08800 40.34700
C  -12.20900 43.05600 41.28500
C  -14.29900 38.72400 41.66100
N  -9.16900 38.93900 40.67000
C  -8.95700 37.55500 40.46300
C  -7.58100 37.31700 39.82800
C  -6.82900 38.68700 40.04300
C  -8.01000 39.63400 40.38200
C  -5.71000 38.80300 41.14000
C  -7.63900 36.78100 38.32400
C  -6.59600 35.72100 37.88200
H  -5.65200 36.18600 36.79900
N  -10.04700 41.83300 40.93000
C  -8.75600 42.12700 40.54800
C  -8.69300 43.55300 40.27400
C  -9.96100 44.11600 40.48500
C  -10.81600 42.97600 40.93000
C  -7.40600 44.24500 39.67300
C  -10.31400 45.53100 40.21100
O  -9.49300 46.28100 39.76300
C  -11.78300 45.95900 40.25700
N  -13.05900 40.73700 41.62000
C  -13.20200 42.12200 41.54800
C  -14.75100 42.44000 41.63400
C  -15.38900 41.06400 41.73700
C  -14.24300 40.09400 41.66000
C  -15.24900 43.60600 42.67600
C  -16.56900 40.73900 40.81400
C  -17.96800 40.66600 41.45900
N  -11.84400 38.11900 41.58000
C  -13.17700 37.80700 41.67700
C  -13.37400 36.43000 41.72800
C  -12.10300 35.87300 41.43200
C  -11.20400 36.97200 41.23500
C  -14.56300 35.74300 42.01000
C  -11.33400 34.71600 41.18300
O  -11.69000 33.53500 41.27800
C  -9.96800 35.17300 40.71800
C  -8.91000 34.64900 41.58800
O  -8.68900 34.87200 42.80700
O  -8.06500 33.91000 40.85200
C  -6.72300 33.69800 41.36500
H  -6.81800 41.36700 40.04600
H  -12.63400 44.05600 41.40200
H  -15.31100 38.31600 41.65100
H  -7.03100 36.55900 40.38700
H  -6.45400 38.97400 39.06000
H  -4.90500 39.44600 40.78700
H  -5.28100 37.80500 41.22900
H  -5.99000 39.08200 42.15600
H  -7.44100 37.63000 37.67000
H  -8.59400 36.34700 38.02700
H  -7.18100 34.88700 37.49400
H  -6.01700 35.34600 38.72600
H  -6.77600 43.40900 39.36800
H  -6.95300 44.82400 40.47700
H  -7.59400 44.90500 38.82600
H  -12.08700 46.09600 41.29500
H  -12.41800 45.25200 39.72300
H  -11.79600 46.93900 39.77900
H  -14.94700 42.81300 40.62900
H  -15.58000 40.90100 42.79800
H  -15.73800 43.07900 43.49600
H  -15.89800 44.23200 42.06400
H  -14.42400 44.05300 43.23000
H  -16.44100 39.80700 40.26400
H  -16.69200 41.54500 40.09000
H  -18.22500 39.60800 41.51300
H  -18.76700 41.28900 41.05600
H  -17.89100 40.97800 42.50100
H  -15.02600 36.24200 42.86100
H  -14.46100 34.69400 42.28600
H  -15.19100 35.82700 41.12300
H  -9.90300 34.74400 39.71800
H  -5.95000 34.35700 40.96800
H  -6.34900 32.74200 40.99800
H  -6.53300 33.62500 42.43600

