158

Mg 54.75600 24.42900 44.70200
C  52.41200 26.91600 43.78400
C  52.44100 22.07000 43.87800
C  57.19300 22.31700 44.10700
C  56.99400 27.02900 45.48200
N  52.66600 24.43400 43.71300
C  51.92200 25.58900 43.59500
C  50.51800 25.17000 43.27700
C  50.42400 23.72700 43.83000
C  51.96600 23.34800 43.80400
C  49.73400 23.49100 45.27500
C  50.28700 25.15700 41.75100
C  48.76500 25.14600 41.33600
H  48.41000 24.88400 39.81800
N  54.77100 22.48800 44.11200
C  53.72300 21.62400 43.88800
C  54.14800 20.22800 43.79800
C  55.57500 20.30700 43.84800
C  55.92200 21.75100 43.98300
C  53.15800 18.99000 43.61600
C  56.50500 19.14100 43.78500
O  56.08200 17.98500 43.59400
C  58.04800 19.26200 43.83000
N  56.89000 24.73100 44.53500
C  57.67400 23.59900 44.40100
C  59.03600 23.82600 45.02800
C  59.04700 25.44000 45.24500
C  57.55000 25.75900 45.13200
C  59.25800 23.10200 46.32800
C  59.95800 26.16800 44.22200
C  59.30300 26.59300 42.83600
N  54.69500 26.55700 44.85800
C  55.68700 27.40300 45.20400
C  55.12600 28.72700 45.18000
C  53.87900 28.61800 44.64300
C  53.67400 27.23900 44.40500
C  55.88900 29.92600 45.46500
C  52.69200 29.34300 44.28000
O  52.34300 30.52400 44.32200
C  51.72100 28.25900 43.62900
C  51.33900 28.56000 42.22400
O  52.08900 28.64600 41.27300
O  49.94700 28.78200 42.11600
C  49.43100 29.09600 40.77000
H  51.71200 21.25800 43.83900
H  58.04500 21.63400 44.13300
H  57.74700 27.76800 45.76500
H  49.89600 25.84200 43.86800
H  49.91600 23.10400 43.09400
H  50.49100 23.54400 46.05700
H  49.22600 22.53100 45.36800
H  49.06100 24.28200 45.60600
H  50.81100 24.34000 41.25400
H  50.66500 26.11100 41.38500
H  48.28300 26.08800 41.59800
H  48.33000 24.29000 41.85300
H  53.68400 18.21500 43.05800
H  52.22300 19.21100 43.10000
H  52.85400 18.58600 44.58100
H  58.44000 19.82000 42.97900
H  58.51400 18.27900 43.88900
H  58.40300 19.61900 44.79700
H  59.78900 23.51600 44.30400
H  59.35900 25.70200 46.25600
H  60.07300 22.39700 46.16200
H  58.31000 22.70300 46.68900
H  59.66500 23.71900 47.12900
H  60.81900 25.53700 44.00100
H  60.35900 27.05100 44.71900
H  58.30500 26.17400 42.70400
H  59.84900 25.99900 42.10200
H  59.32900 27.68000 42.76200
H  55.35100 30.87000 45.55600
H  56.81000 29.92700 44.88100
H  56.28600 29.74500 46.46300
H  50.81600 28.36500 44.22700
H  48.53600 29.67200 41.00500
H  49.16800 28.14100 40.31300
H  50.03300 29.73600 40.12400
Mg 35.35500 48.93900 25.49500
C  35.95600 47.22300 28.44100
C  33.70900 51.39100 27.22400
C  34.43800 50.37700 22.55100
C  36.74500 46.31900 23.65900
N  34.92400 49.20700 27.56100
C  35.45600 48.53300 28.61900
C  35.33100 49.24300 29.90900
C  34.56600 50.56500 29.46300
C  34.46800 50.42200 27.94000
C  33.17300 50.67000 30.11700
C  36.71100 49.53800 30.52900
C  36.75800 49.37900 32.11000
H  35.40900 49.48700 32.80700
N  34.17400 50.62400 24.95700
C  33.51800 51.43500 25.85600
C  32.60800 52.34700 25.09700
C  32.77500 51.99700 23.69000
C  33.84400 50.96200 23.66200
C  31.72800 53.39800 25.71500
C  32.17000 52.64500 22.40700
O  32.32900 52.26300 21.26500
C  31.15100 53.82400 22.61600
N  35.82600 48.54900 23.45200
C  35.29600 49.29300 22.41600
C  35.65500 48.77100 21.00400
C  36.57500 47.50700 21.32400
C  36.43800 47.44300 22.93000
C  34.37200 48.44500 20.15100
C  38.11300 47.57100 20.98300
C  38.83200 46.25700 20.55800
N  36.07500 47.07900 25.86800
C  36.63500 46.10100 25.02100
C  36.96600 44.94600 25.85000
C  36.79900 45.34500 27.18700
C  36.21400 46.65300 27.15200
C  37.41400 43.57600 25.34400
C  36.96200 44.91200 28.54200
O  37.41400 43.87200 28.96000
C  36.23100 46.09600 29.39800
C  35.08400 45.63600 30.21200
O  34.20800 44.83400 29.91400
O  35.28300 46.04500 31.44100
C  34.41400 45.42000 32.48800
H  33.23100 52.19100 27.79300
H  34.08200 50.73000 21.58100
H  37.13400 45.44800 23.12700
H  34.74700 48.56900 30.53600
H  35.19900 51.42400 29.68500
H  32.75500 49.79400 30.61200
H  32.42300 50.75200 29.33100
H  33.14400 51.56200 30.74400
H  36.97800 50.58300 30.36800
H  37.42300 48.78400 30.19300
H  37.42000 50.15200 32.50100
H  37.19300 48.39500 32.28800
H  31.80900 53.33500 26.80000
H  30.69300 53.13500 25.49700
H  31.96900 54.39700 25.35200
H  31.77000 54.59100 23.08200
H  30.33400 53.49900 23.25900
H  30.78800 54.12200 21.63200
H  36.22900 49.54100 20.48900
H  36.12800 46.62700 20.86000
H  33.45800 48.88800 20.54600
H  34.19200 47.37000 20.15100
H  34.49500 48.71500 19.10200
H  38.60500 48.07900 21.81200
H  38.33600 48.26500 20.17300
H  39.36000 46.47000 19.62800
H  38.22100 45.35500 20.53300
H  39.63300 46.15300 21.29100
H  38.49100 43.59100 25.51000
H  37.14500 43.35100 24.31200
H  37.05900 42.81800 26.04300
H  37.07100 46.44800 29.99700
H  33.54700 46.06400 32.63400
H  34.94200 45.68700 33.40300
H  34.22600 44.34700 32.54200

