158

Mg 45.21700 5.12100 46.98400
C  42.98200 7.74100 46.71000
C  42.55300 2.89200 46.59600
C  47.41700 2.65400 46.33200
C  47.82400 7.43000 46.48400
N  43.03700 5.36200 46.45300
C  42.32100 6.49100 46.53100
C  40.78600 6.28500 46.46700
C  40.73300 4.76500 46.75000
C  42.20700 4.28000 46.65400
C  39.99600 4.39200 48.07800
C  40.20300 6.83800 45.13300
C  40.49100 6.13000 43.78100
H  41.00600 7.07500 42.69200
N  45.02600 3.02800 46.63500
C  43.84300 2.33300 46.53300
C  44.13100 0.90600 46.49000
C  45.59700 0.86100 46.39300
C  46.08200 2.19200 46.39600
C  43.11200 -0.23800 46.36000
C  46.45000 -0.40000 46.27800
O  45.85700 -1.47800 46.24800
C  47.99100 -0.50800 46.22700
N  47.27000 5.14300 46.19400
C  47.95300 3.90300 46.30100
C  49.52300 4.13600 46.31500
C  49.57400 5.67300 46.11200
C  48.12200 6.13400 46.27200
C  50.17500 3.60700 47.65300
C  50.18100 6.14000 44.77600
C  51.52500 5.75400 44.23200
N  45.49300 7.20500 46.86700
C  46.55100 8.03100 46.70200
C  46.10700 9.37400 46.88200
C  44.71000 9.34300 46.92700
C  44.41000 7.95200 46.77800
C  47.05300 10.56900 47.07100
C  43.51400 10.17500 47.04300
O  43.38100 11.36900 47.19100
C  42.32400 9.08400 47.01200
C  41.42000 9.18000 48.21300
O  41.70300 8.71400 49.28000
O  40.30800 9.90500 47.92100
C  39.46000 10.28500 49.01700
H  41.73000 2.18200 46.49300
H  48.25400 1.95900 46.23100
H  48.69500 8.08900 46.51200
H  40.33200 6.89800 47.24400
H  40.20900 4.30800 45.91000
H  39.04700 3.90500 47.85200
H  39.83300 5.28900 48.67500
H  40.71400 3.82600 48.67100
H  40.41000 7.90700 45.08700
H  39.14300 6.81500 45.38300
H  39.69600 5.58000 43.27800
H  41.30900 5.43200 43.96100
H  43.30500 -0.89700 45.51300
H  42.07500 0.09800 46.34600
H  43.19200 -0.82700 47.27400
H  48.47900 -0.05900 47.09200
H  48.23300 0.07000 45.33500
H  48.27300 -1.55900 46.15100
H  50.07800 3.57400 45.56400
H  50.31400 6.02600 46.83100
H  50.61800 4.36600 48.29800
H  51.00500 2.96300 47.36300
H  49.47100 3.12100 48.32900
H  50.10900 7.22500 44.85700
H  49.44400 5.87100 44.01900
H  51.28300 5.19600 43.32800
H  52.09000 5.14600 44.93900
H  52.16300 6.58300 43.92600
H  46.71600 11.36300 47.73800
H  47.39800 10.90000 46.09100
H  47.95300 10.22700 47.58300
H  41.78700 9.36300 46.10600
H  39.57400 9.63400 49.88400
H  38.40000 10.24400 48.76700
H  39.61800 11.33100 49.27900
Mg -5.67800 25.29300 26.17900
C  -4.21900 26.97800 28.95000
C  -7.21100 23.15200 28.48700
C  -6.60800 23.45700 23.67000
C  -3.51800 27.13900 24.14000
N  -5.70600 25.15700 28.49100
C  -5.10900 26.00400 29.39300
C  -5.56700 25.71500 30.87200
C  -6.17200 24.26800 30.71700
C  -6.47100 24.19200 29.16600
C  -5.18800 23.14700 31.11900
C  -6.46700 26.81700 31.39400
C  -6.69600 26.94700 32.89700
H  -6.21300 25.70100 33.75300
N  -6.97300 23.71200 26.06000
C  -7.46800 23.00400 27.10000
C  -8.34200 21.99000 26.61100
C  -8.21600 22.03200 25.18900
C  -7.26300 23.14900 24.88000
C  -9.14800 20.99200 27.55100
C  -8.87600 21.09600 24.08900
O  -8.62400 21.19900 22.85600
C  -9.81500 20.06700 24.49000
N  -5.04600 25.20400 24.22900
C  -5.65400 24.41100 23.35700
C  -5.17000 24.55800 21.93300
C  -4.38500 25.88300 21.99400
C  -4.26900 26.09200 23.58400
C  -4.29500 23.41700 21.44700
C  -5.04300 27.02400 21.24200
C  -4.26800 27.67500 20.03900
N  -4.19200 26.76900 26.39500
C  -3.45400 27.46600 25.49700
C  -2.64400 28.48300 26.11900
C  -2.86700 28.29200 27.44100
C  -3.87200 27.27100 27.63500
C  -1.67100 29.38500 25.42300
C  -2.45600 28.79700 28.73200
O  -1.72500 29.75800 29.00600
C  -3.22200 27.91600 29.78300
C  -2.29200 27.05500 30.53900
O  -1.82000 25.96800 30.21600
O  -2.22200 27.59400 31.82900
C  -1.46100 26.89900 32.89600
H  -7.62100 22.46800 29.23300
H  -6.84500 22.73300 22.88700
H  -2.81600 27.59400 23.43700
H  -4.64900 25.59100 31.44600
H  -7.07100 24.21700 31.33000
H  -5.76700 22.34900 31.58300
H  -4.39900 23.42400 31.81800
H  -4.76400 22.79100 30.18000
H  -7.42800 26.63200 30.91500
H  -6.07800 27.79200 31.10100
H  -7.75600 27.18600 32.98200
H  -5.99900 27.74800 33.14100
H  -10.12200 20.61300 27.24300
H  -9.41700 21.30400 28.56000
H  -8.50400 20.12400 27.69600
H  -10.17900 19.66100 23.54700
H  -10.64800 20.62500 24.91900
H  -9.28700 19.32200 25.08600
H  -5.99700 24.63800 21.22800
H  -3.37000 25.92000 21.59800
H  -4.18100 22.68000 22.24300
H  -3.30600 23.65200 21.05500
H  -4.86400 23.01000 20.61100
H  -5.03200 27.77700 22.03000
H  -6.11800 26.95800 21.07300
H  -3.25500 27.27400 19.99300
H  -4.15400 28.75600 20.12500
H  -4.82000 27.39800 19.14100
H  -2.24800 29.95900 24.69800
H  -0.77200 28.90400 25.03700
H  -1.22500 30.15000 26.05900
H  -3.81800 28.55100 30.43700
H  -2.06500 26.12500 33.36900
H  -0.94800 27.60600 33.54800
H  -0.64400 26.35400 32.42300

