158

Mg 40.48900 9.29700 29.21200
C  42.09400 10.67400 31.96600
C  38.28100 7.78000 31.38300
C  39.19000 7.75400 26.67600
C  43.38700 10.23200 27.24600
N  40.23300 9.17700 31.35900
C  40.90100 9.97500 32.28500
C  40.23300 9.94100 33.66400
C  39.25100 8.74700 33.48700
C  39.28400 8.47100 32.02200
C  39.45500 7.53700 34.41200
C  39.64500 11.31400 34.13400
C  38.91400 11.34700 35.50400
H  39.53700 12.25400 36.60000
N  38.98700 8.00700 28.97700
C  38.13900 7.63400 29.99400
C  37.06500 6.80200 29.41700
C  37.28000 6.70300 27.94600
C  38.48800 7.50400 27.78100
C  35.97000 6.17600 30.22300
C  36.44900 5.92100 26.94400
O  36.78400 5.90600 25.75800
C  35.36200 4.96500 27.32800
N  41.32500 8.90100 27.29000
C  40.43800 8.35100 26.43000
C  40.92700 8.53700 24.93000
C  42.29300 9.24600 25.10300
C  42.37700 9.50000 26.62400
C  40.96800 7.28500 24.00000
C  42.54800 10.53700 24.22800
C  41.79400 11.86700 24.61700
N  42.29100 10.33600 29.49300
C  43.36100 10.63400 28.65500
C  44.32200 11.51000 29.26900
C  43.92400 11.48500 30.59600
C  42.71700 10.77700 30.65400
C  45.45500 12.22100 28.67700
C  44.27300 11.89200 31.84700
O  45.25300 12.54300 32.16400
C  43.15400 11.37500 32.81100
C  43.68700 10.40200 33.86600
O  44.57600 9.55800 33.66100
O  43.16000 10.73700 35.09700
C  43.68600 9.84800 36.21800
H  37.49100 7.42300 32.04800
H  38.70000 7.31500 25.80500
H  44.29700 10.52200 26.71800
H  41.03700 9.70100 34.36000
H  38.32800 9.30300 33.65200
H  39.97000 6.73200 33.88900
H  38.48400 7.28300 34.83800
H  40.19800 7.83500 35.15100
H  38.86700 11.59800 33.42500
H  40.50100 11.98800 34.14400
H  38.82300 10.30200 35.80300
H  37.87900 11.68800 35.49500
H  35.07900 6.19500 29.59600
H  35.74600 6.67000 31.16800
H  36.23600 5.14000 30.43000
H  34.41700 5.50400 27.39600
H  35.58100 4.35900 28.20700
H  35.25800 4.23300 26.52700
H  40.23700 9.29000 24.54700
H  43.11600 8.57300 24.86400
H  40.06400 7.23500 23.39400
H  41.09500 6.42300 24.65500
H  41.77700 7.47800 23.29500
H  42.65900 10.49400 23.14500
H  43.57400 10.83300 24.44800
H  42.59100 12.50600 24.99900
H  41.02400 11.57400 25.33000
H  41.30000 12.21100 23.70800
H  45.56800 12.12600 27.59700
H  46.36100 11.78800 29.10200
H  45.42100 13.27300 28.96000
H  42.75300 12.24400 33.33200
H  43.13900 10.04200 37.14100
H  44.76600 9.95100 36.32200
H  43.42300 8.86900 35.81800
Mg 0.73200 43.12800 26.13800
C  2.87400 43.43600 28.80300
C  -1.89400 42.46500 28.26500
C  -1.11000 42.56700 23.51600
C  3.62500 43.33300 23.98800
N  0.58500 42.97400 28.28700
C  1.58100 43.18300 29.15300
C  1.01600 43.15700 30.59500
C  -0.42200 42.60100 30.48200
C  -0.63300 42.73200 28.93700
C  -0.67400 41.23700 31.15500
C  1.02500 44.54100 31.32700
C  1.24200 44.52100 32.83400
H  0.93700 43.20400 33.67700
N  -1.23300 42.59500 25.90400
C  -2.15400 42.39600 26.89700
C  -3.41400 42.03900 26.32900
C  -3.20000 42.01000 24.88900
C  -1.76600 42.35800 24.73400
C  -4.69500 41.79400 27.08900
C  -4.15400 41.65800 23.78100
O  -3.93100 41.52700 22.58500
C  -5.59200 41.39700 24.10400
N  1.17700 43.10800 24.00500
C  0.19100 42.90800 23.16600
C  0.67900 43.01400 21.71200
C  2.18200 43.39100 21.84300
C  2.36300 43.28600 23.35800
C  0.40000 41.74800 20.88300
C  2.52100 44.74300 21.15800
C  2.26900 45.99000 22.11100
N  2.87700 43.27200 26.37700
C  3.86400 43.34600 25.39600
C  5.13100 43.54800 26.05800
C  4.82300 43.60100 27.43000
C  3.38600 43.45200 27.47800
C  6.41700 43.69600 25.34200
C  5.40000 43.77300 28.74900
O  6.54600 43.93700 29.12900
C  4.12700 43.61200 29.72400
C  4.43900 42.44100 30.55300
O  4.71000 41.34400 30.14600
O  4.46400 42.80000 31.92400
C  4.99400 41.80200 32.80200
H  -2.80300 42.23900 28.82700
H  -1.68100 42.40100 22.60100
H  4.43500 43.45900 23.26600
H  1.58500 42.46600 31.21600
H  -1.08800 43.33900 30.92700
H  -1.40600 41.25400 31.96200
H  0.23800 40.77000 31.53000
H  -1.19000 40.59600 30.44000
H  0.11300 45.05900 31.03100
H  1.86800 45.17800 31.06200
H  0.56900 45.28400 33.22400
H  2.18800 44.95800 33.15400
H  -5.43900 42.53600 26.79900
H  -4.65900 41.82900 28.17800
H  -4.96900 40.75300 26.91700
H  -5.68700 40.63800 24.88100
H  -6.00600 40.88400 23.23500
H  -6.02400 42.38000 24.28700
H  0.13100 43.89600 21.38100
H  2.81400 42.56700 21.51300
H  1.28700 41.38100 20.36600
H  -0.30900 41.89800 20.06900
H  0.11300 40.99900 21.62100
H  1.99500 44.89600 20.21600
H  3.57800 44.63300 20.91700
H  1.70100 46.74300 21.56400
H  3.19100 46.47700 22.42600
H  1.76600 45.85000 23.06800
H  6.39500 43.67800 24.25300
H  7.01500 42.82900 25.62300
H  6.79900 44.65000 25.70600
H  4.10600 44.46300 30.40400
H  4.14500 41.41300 33.36400
H  5.71400 42.21600 33.50800
H  5.42800 40.95100 32.27800

