158

Mg 49.87900 45.98600 43.67700
C  46.64700 46.77600 42.55000
C  49.34500 42.71800 42.46400
C  53.19500 45.42800 44.08800
C  50.33100 49.31000 44.60000
N  48.24300 44.93600 42.53600
C  47.01500 45.45400 42.21700
C  46.14800 44.38700 41.52600
C  46.94400 43.06400 41.72900
C  48.25300 43.57400 42.31400
C  46.35300 41.85300 42.50400
C  45.85500 44.66300 40.00300
C  44.44200 44.18200 39.67400
H  43.83000 44.85600 38.41700
N  51.07400 44.26100 43.49800
C  50.65000 43.06300 42.98200
C  51.82800 42.27500 42.85100
C  52.98900 43.04200 43.33000
C  52.44800 44.31500 43.69400
C  51.70400 40.82500 42.27300
C  54.43600 42.51800 43.27400
O  54.73500 41.41700 42.80900
C  55.62300 43.30600 43.82800
N  51.56400 47.22200 44.26600
C  52.82700 46.77900 44.39000
C  53.79600 47.83400 45.06700
C  52.76400 48.92000 45.47400
C  51.46500 48.51800 44.75900
C  54.63900 47.33900 46.29000
C  53.33500 50.30100 45.15200
C  53.63900 50.70100 43.64800
N  48.73700 47.75800 43.56400
C  49.05600 48.99300 44.04200
C  47.90700 49.91700 43.78900
C  46.92100 49.06300 43.29100
C  47.50500 47.80900 43.12200
C  47.84300 51.36100 44.20500
C  45.49400 48.90100 42.85400
O  44.57400 49.67800 42.88700
C  45.38400 47.55400 42.25100
C  44.22300 46.86500 42.85200
O  44.01800 46.55600 43.99900
O  43.35700 46.54700 41.82800
C  42.17600 45.88200 42.27500
H  49.21700 41.71000 42.06500
H  54.23600 45.32800 44.40000
H  50.43300 50.34000 44.94800
H  45.20900 44.14500 42.02600
H  47.12900 42.71000 40.71500
H  45.51600 42.07000 43.16700
H  47.10400 41.45700 43.18800
H  45.92300 41.12200 41.82000
H  46.54700 44.12900 39.35100
H  45.97600 45.70300 39.70300
H  43.75800 44.20400 40.52300
H  44.51500 43.10600 39.51300
H  52.05000 40.77000 41.24100
H  50.72400 40.35400 42.35500
H  52.31200 40.15800 42.88400
H  55.38100 43.64300 44.83700
H  55.74300 44.26500 43.32400
H  56.55900 42.79600 43.60100
H  54.51000 48.18500 44.32100
H  52.53400 48.88500 46.53900
H  54.26200 47.75500 47.22400
H  55.69600 47.60100 46.24100
H  54.55600 46.25300 46.32100
H  54.33200 50.27600 45.59100
H  52.70200 51.04600 45.63300
H  54.71500 50.79100 43.49900
H  53.23900 51.71300 43.58000
H  53.16800 50.11700 42.85700
H  46.89800 51.85400 43.97800
H  48.69500 52.00000 43.97000
H  47.85100 51.27700 45.29100
H  45.34800 47.62900 41.16500
H  41.42400 46.51300 42.75000
H  42.39300 45.01700 42.90200
H  41.72300 45.47500 41.37100
Mg 49.41400 35.95600 27.37800
C  46.93500 34.37600 29.61700
C  49.33400 38.54800 29.55700
C  50.97600 37.65700 25.12300
C  48.56200 33.41000 25.05600
N  48.26600 36.34000 29.29800
C  47.60300 35.45500 30.12100
C  47.55400 36.02200 31.54300
C  47.78700 37.54300 31.38800
C  48.51000 37.53200 29.98800
C  46.47700 38.43700 31.54600
C  48.78800 35.42500 32.31900
C  48.72900 35.65400 33.86100
H  47.56000 36.44700 34.59300
N  50.15200 37.78700 27.39400
C  50.03800 38.74100 28.36400
C  50.81400 39.90400 27.98000
C  51.43900 39.60600 26.69100
C  50.86600 38.30300 26.34800
C  50.88500 41.12100 28.90500
C  52.29500 40.44500 25.73600
O  52.59100 40.16900 24.54700
C  52.81300 41.76400 26.23400
N  49.72200 35.58100 25.39200
C  50.50500 36.41800 24.68600
C  51.01400 35.81200 23.38400
C  50.12100 34.46900 23.27100
C  49.40700 34.42600 24.68600
C  51.14600 36.62700 22.10700
C  51.03500 33.14800 23.11700
C  50.40500 32.08400 22.19100
N  48.12400 34.19200 27.28500
C  47.89000 33.24500 26.28800
C  47.00500 32.21100 26.75000
C  46.62900 32.59700 28.06000
C  47.21900 33.85300 28.27000
C  46.50900 31.00600 25.99300
C  45.85800 32.23900 29.19300
O  45.19900 31.20100 29.41000
C  45.90300 33.42300 30.17800
C  46.32100 32.86900 31.51600
O  47.35600 32.37500 31.87400
O  45.27300 33.04500 32.36000
C  45.14100 32.31800 33.63300
H  49.40900 39.32200 30.32500
H  51.64100 38.05600 24.35400
H  48.32800 32.66900 24.28900
H  46.62600 35.83500 32.08200
H  48.55500 37.78400 32.12300
H  46.27100 38.97800 30.62200
H  46.43900 39.05200 32.44500
H  45.56600 37.84100 31.60400
H  49.74500 35.75700 31.91700
H  48.86500 34.34600 32.18800
H  49.62900 36.18200 34.17500
H  48.81600 34.68800 34.35800
H  49.96100 41.28600 29.45900
H  51.07800 41.96300 28.24000
H  51.60700 40.86100 29.68000
H  52.00400 42.47000 26.41900
H  53.56000 42.12800 25.52800
H  53.25800 41.49000 27.19000
H  52.06600 35.69000 23.64200
H  49.27900 34.68400 22.61400
H  50.37900 36.41000 21.36300
H  52.09600 36.47900 21.59300
H  51.06500 37.70800 22.21500
H  51.13200 32.67800 24.09600
H  52.00500 33.40200 22.69100
H  49.89300 32.48900 21.31800
H  49.86300 31.43500 22.87900
H  51.24900 31.47500 21.86900
H  46.10100 31.40900 25.06600
H  45.96000 30.32900 26.64800
H  47.34300 30.36700 25.70300
H  45.00200 34.03500 30.13400
H  46.09900 32.09200 34.10200
H  44.45200 31.47600 33.70200
H  44.61000 32.96100 34.33500

