158

Mg 53.26900 23.04700 44.37200
C  50.87000 25.46100 43.19000
C  51.34900 20.61400 43.22900
C  55.80200 21.06100 44.99600
C  55.36500 25.88300 44.94700
N  51.42700 23.11600 43.25700
C  50.48200 24.15900 42.95400
C  49.20100 23.60500 42.42500
C  49.35100 22.04400 42.81900
C  50.78600 21.92500 43.11200
C  48.41300 21.63200 44.01600
C  49.13700 23.83200 40.92500
C  50.42400 23.75100 40.10300
H  51.15400 22.31300 40.01900
N  53.51000 21.05000 44.24800
C  52.56900 20.17800 43.79900
C  53.12900 18.83700 43.78300
C  54.39600 18.96700 44.47300
C  54.59900 20.37300 44.62600
C  52.44200 17.71500 43.11300
C  55.28300 17.86500 44.87500
O  54.96800 16.71000 44.58900
C  56.53400 18.00400 45.69400
N  55.35200 23.47600 44.65500
C  56.12900 22.48000 45.07000
C  57.53800 22.96100 45.64900
C  57.40100 24.43200 45.40400
C  55.93900 24.57600 44.96500
C  57.74800 22.52700 47.18700
C  58.36400 25.01200 44.25800
C  58.16700 24.45900 42.89700
N  53.14900 25.22000 44.29800
C  54.01900 26.16900 44.72200
C  53.31600 27.47400 44.85500
C  52.14500 27.19000 44.13200
C  52.06700 25.85700 43.85600
C  53.87100 28.73700 45.55500
C  50.87100 27.79800 43.81100
O  50.46500 28.93600 44.02300
C  50.04600 26.77400 43.02600
C  50.09200 27.28200 41.66600
O  51.10000 27.60400 41.06500
O  48.85700 27.35500 41.12900
C  48.73500 27.65600 39.68600
H  50.65300 19.87900 42.81900
H  56.66700 20.48200 45.32700
H  56.05900 26.66800 45.25400
H  48.32600 24.08900 42.85900
H  49.12400 21.41100 41.96100
H  47.89100 20.75200 43.64100
H  47.75200 22.48400 44.17700
H  49.00200 21.39600 44.90300
H  48.72100 24.80700 40.67200
H  48.53100 23.04000 40.48600
H  51.16100 24.43200 40.52800
H  50.16800 24.19900 39.14300
H  51.89300 18.02400 42.22400
H  51.64600 17.31700 43.74200
H  53.08200 16.90300 42.76700
H  56.86000 16.98100 45.88300
H  56.38500 18.51500 46.64500
H  57.23700 18.50600 45.03000
H  58.32800 22.44200 45.10600
H  57.41700 24.97700 46.34800
H  57.37500 21.50900 47.29800
H  57.34900 23.33300 47.80300
H  58.80000 22.47800 47.46800
H  59.39300 24.75500 44.51000
H  58.33100 26.09700 44.15900
H  57.31800 23.77800 42.95100
H  59.08200 23.93700 42.61800
H  57.74800 25.14800 42.16400
H  53.49400 28.61200 46.57000
H  53.62100 29.73800 45.20400
H  54.96100 28.76200 45.54600
H  49.01200 26.59400 43.32300
H  49.61200 27.51100 39.05500
H  48.54000 28.72800 39.65000
H  47.92200 27.06400 39.26500
Mg -12.33100 15.52200 41.89500
C  -9.25700 13.91800 41.80000
C  -10.74000 18.26800 40.60700
C  -15.27500 16.90300 41.47900
C  -13.90700 12.38900 42.74400
N  -10.25900 15.94100 41.06100
C  -9.18200 15.12600 41.19600
C  -7.89600 15.76500 40.63500
C  -8.32900 17.24700 40.64500
C  -9.86400 17.24400 40.79300
C  -7.78200 18.09700 41.93700
C  -7.60900 15.15300 39.20400
C  -6.07600 14.88400 38.87000
H  -5.62500 15.76300 37.69600
N  -12.90700 17.39700 41.18900
C  -12.12900 18.42700 40.75000
C  -12.99500 19.55800 40.42700
C  -14.31800 19.21300 40.77400
C  -14.21500 17.76900 41.12700
C  -12.47500 20.87200 39.88700
C  -15.58700 20.02500 40.74300
O  -15.48800 21.14700 40.28900
C  -16.92200 19.59300 41.04500
N  -14.31100 14.65900 41.78800
C  -15.32500 15.51700 41.85500
C  -16.72900 14.87600 42.05700
C  -16.25600 13.36000 42.25800
C  -14.76600 13.46400 42.28900
C  -17.52900 15.36700 43.28300
C  -16.76200 12.39700 41.04100
C  -17.99600 11.53400 41.26900
N  -11.72300 13.58400 42.30800
C  -12.45600 12.48500 42.77100
C  -11.51400 11.46400 43.16900
C  -10.26700 11.93800 42.82600
C  -10.41400 13.18800 42.24300
C  -11.81100 10.12700 43.84500
C  -8.87500 11.64700 42.87700
O  -8.21600 10.69700 43.29200
C  -8.12100 12.96200 42.18000
C  -7.13700 13.63800 43.15900
O  -7.46600 14.38800 44.04500
O  -5.85600 13.49000 42.74900
C  -4.86100 14.31100 43.44400
H  -10.20900 19.21700 40.50400
H  -16.30800 17.25600 41.50300
H  -14.37600 11.42700 42.96100
H  -7.09700 15.56500 41.34900
H  -8.00800 17.76800 39.74300
H  -7.27500 17.42600 42.63100
H  -8.58000 18.70900 42.35700
H  -6.98500 18.70600 41.50900
H  -8.04800 15.80500 38.45000
H  -7.92700 14.11100 39.17700
H  -5.98900 13.84100 38.56500
H  -5.40600 15.06000 39.71100
H  -13.00400 21.28800 39.02900
H  -11.38900 20.89900 39.80700
H  -12.67800 21.56000 40.70800
H  -17.68300 20.37300 41.02100
H  -16.79800 19.30600 42.08900
H  -17.19500 18.73800 40.42700
H  -17.42400 14.88700 41.21800
H  -16.67200 12.95200 43.17900
H  -18.60300 15.44300 43.10900
H  -17.13200 16.32700 43.61200
H  -17.46300 14.72700 44.16300
H  -15.93600 11.84400 40.59500
H  -16.97500 13.11000 40.24400
H  -18.25800 11.40500 42.31900
H  -17.84800 10.49800 40.96400
H  -18.86400 11.96700 40.77300
H  -11.93400 10.22200 44.92400
H  -11.00500 9.45100 43.55900
H  -12.75000 9.65800 43.55200
H  -7.50000 12.66900 41.33300
H  -4.26300 14.79800 42.67400
H  -4.24500 13.62000 44.01900
H  -5.17600 15.10300 44.12300

