158

Mg 45.56400 24.71400 29.04400
C  46.24100 27.16600 31.36000
C  44.62700 22.51900 31.39900
C  45.34300 22.32500 26.62700
C  46.75300 26.89200 26.48700
N  45.30700 24.85400 31.15400
C  45.78700 25.91400 31.91000
C  45.50300 25.63300 33.36500
C  45.07800 24.12300 33.36500
C  44.92500 23.81000 31.90600
C  46.13500 23.24500 34.03600
C  44.36700 26.52900 33.94700
C  44.77700 27.32200 35.25300
H  43.73100 27.42700 36.36200
N  44.80700 22.70600 29.03000
C  44.47200 22.00300 30.14200
C  43.98900 20.78900 29.67800
C  44.33800 20.60900 28.28800
C  44.83200 21.91600 27.87900
C  43.30500 19.86000 30.64700
C  44.22700 19.32100 27.33800
O  44.64300 19.27600 26.17100
C  43.71600 18.04500 27.90100
N  46.17600 24.56200 26.88400
C  45.91100 23.42700 26.12600
C  46.36600 23.63800 24.66600
C  46.49700 25.16000 24.57100
C  46.50200 25.60100 26.04800
C  47.69800 22.89600 24.34000
C  45.30400 25.72900 23.83600
C  43.93500 25.88800 24.55600
N  46.27700 26.60000 28.95700
C  46.73900 27.35500 27.85100
C  47.16200 28.67900 28.31000
C  46.97100 28.66500 29.68800
C  46.49900 27.37400 29.99200
C  47.66200 29.75200 27.43500
C  47.07000 29.40700 30.91600
O  47.50700 30.56900 31.03300
C  46.80700 28.44000 32.08800
C  48.01300 28.14500 32.90200
O  48.96700 27.47200 32.52100
O  47.85500 28.62600 34.16200
C  48.78800 28.20900 35.20200
H  44.36400 21.89300 32.25500
H  45.36800 21.53300 25.87500
H  46.76100 27.80000 25.88000
H  46.43400 25.80500 33.90600
H  44.07600 23.93900 33.75300
H  45.83400 22.19800 34.08100
H  46.14700 23.65400 35.04600
H  47.13500 23.10700 33.62400
H  43.40500 26.05600 34.14300
H  44.12700 27.28100 33.19500
H  45.13100 28.33100 35.03900
H  45.66700 26.85400 35.67500
H  42.36600 19.47700 30.24700
H  43.37400 20.12700 31.70100
H  43.90200 18.94900 30.68300
H  42.63600 18.17000 27.97500
H  44.23500 18.07400 28.85900
H  44.02100 17.20300 27.28000
H  45.66200 23.26300 23.92200
H  47.43500 25.46800 24.10900
H  47.59600 22.35400 23.40000
H  47.97600 22.20900 25.13900
H  48.54200 23.55400 24.13200
H  45.10100 25.25900 22.87400
H  45.48100 26.76200 23.54000
H  44.01600 26.90100 24.95000
H  43.73200 25.07300 25.25200
H  43.17000 25.94400 23.78300
H  48.00100 29.33700 26.48500
H  48.51900 30.18600 27.95000
H  46.93300 30.54800 27.28700
H  46.00900 28.77500 32.75100
H  49.72800 27.83700 34.79400
H  48.52800 27.37400 35.85300
H  49.06400 29.11000 35.75000
Mg 46.36500 35.60900 28.77300
C  44.57500 33.39700 30.89400
C  46.74900 37.76100 31.38100
C  47.13800 37.90000 26.57000
C  45.55300 33.39400 26.06800
N  45.74600 35.57300 30.81500
C  45.08300 34.52700 31.49300
C  45.28700 34.78900 33.04500
C  45.38900 36.32400 33.07500
C  46.08700 36.53300 31.75800
C  43.99600 37.03300 33.11400
C  46.56700 34.09800 33.68600
C  46.40100 33.60400 35.16100
H  45.67700 34.53300 36.08900
N  47.04500 37.51200 28.96600
C  47.21000 38.22500 30.14400
C  47.89600 39.38600 29.87800
C  48.03900 39.48500 28.45500
C  47.39500 38.27500 27.94400
C  48.67300 40.19300 30.84800
C  48.73300 40.56000 27.69200
O  48.66500 40.66700 26.44100
C  49.41700 41.70900 28.36500
N  46.10500 35.70900 26.63600
C  46.67200 36.75300 25.96100
C  46.41800 36.58000 24.42100
C  46.16200 35.03800 24.30000
C  45.88700 34.66300 25.75900
C  45.14200 37.33300 23.83600
C  47.41400 34.29100 23.88400
C  47.38600 33.47300 22.56500
N  45.30400 33.74100 28.46300
C  45.11700 33.00800 27.36000
C  44.50100 31.76300 27.78400
C  44.25600 31.84000 29.14200
C  44.78800 33.05900 29.54600
C  44.17400 30.60100 26.81300
C  43.73400 31.15800 30.35400
O  43.19800 30.06400 30.51700
C  43.76400 32.23300 31.45600
C  43.96500 31.57900 32.82400
O  45.00600 30.99100 33.15300
O  42.91300 31.89100 33.70700
C  42.95000 31.12100 34.95200
H  46.76300 38.49700 32.18700
H  47.58000 38.53300 25.79700
H  45.61800 32.72700 25.20500
H  44.42300 34.41900 33.59600
H  45.96300 36.67000 33.93500
H  44.18800 37.97000 32.59100
H  43.80900 37.26000 34.16400
H  43.15400 36.42500 32.78300
H  47.40500 34.79300 33.62000
H  46.70600 33.24400 33.02300
H  47.41200 33.48000 35.54800
H  45.88000 32.65000 35.24400
H  48.45600 39.88500 31.87000
H  48.47400 41.26200 30.92400
H  49.70700 39.98800 30.57100
H  48.61600 42.14100 28.96500
H  49.85800 42.30900 27.56900
H  50.20500 41.24800 28.96100
H  47.30100 36.89300 23.86400
H  45.27400 34.68700 23.77600
H  44.75000 38.05300 24.55500
H  44.33100 36.73400 23.42300
H  45.44100 37.91800 22.96600
H  47.75400 33.54400 24.60200
H  48.23700 35.00500 23.87400
H  46.63500 33.89900 21.90000
H  47.20900 32.45100 22.90100
H  48.34600 33.51200 22.05100
H  44.96500 30.43300 26.08300
H  43.24700 30.83700 26.29000
H  44.04900 29.75300 27.48600
H  42.72400 32.55600 31.40400
H  43.15000 30.07400 34.72500
H  41.95700 31.14800 35.40200
H  43.69700 31.41400 35.69000

