158

Mg 40.42400 10.08300 29.94100
C  42.59400 11.26500 32.44500
C  38.38800 8.72900 32.27300
C  38.42900 8.90400 27.53600
C  42.72400 11.05300 27.57900
N  40.48600 10.09500 32.10800
C  41.47200 10.60300 32.93600
C  41.03200 10.44300 34.42500
C  39.69300 9.56000 34.36800
C  39.56600 9.39900 32.84700
C  39.80600 8.16900 35.09100
C  40.84500 11.79400 35.04200
C  40.22000 11.97300 36.42200
H  40.89500 12.89300 37.42100
N  38.65300 8.88000 29.87600
C  37.94000 8.48200 30.98100
C  36.76700 7.70200 30.59100
C  36.75300 7.83000 29.22600
C  37.97700 8.55600 28.77900
C  35.70700 7.08500 31.62200
C  35.77000 7.23500 28.20700
O  35.82100 7.34600 27.01400
C  34.51800 6.50700 28.68800
N  40.63500 9.79600 27.77700
C  39.58600 9.47100 26.99100
C  39.83100 9.74500 25.51900
C  41.21400 10.60000 25.55200
C  41.63500 10.45500 27.08100
C  39.89700 8.43700 24.66900
C  41.10800 12.05000 25.12300
C  40.00500 12.89300 25.74100
N  42.35400 10.81400 29.98000
C  43.12500 11.21900 28.93000
C  44.29900 11.77000 29.39900
C  44.11500 11.87900 30.81700
C  42.93500 11.23100 31.08300
C  45.37900 12.29000 28.58200
C  44.62700 12.48300 31.98800
O  45.66000 13.12000 32.13300
C  43.70800 12.01800 33.19000
C  44.45500 11.11400 34.17800
O  44.93500 10.03800 33.94800
O  44.47700 11.75100 35.35700
C  45.09200 11.18400 36.52700
H  37.63000 8.33500 32.95400
H  37.69000 8.58900 26.79600
H  43.29800 11.66200 26.87700
H  41.79600 9.87100 34.95100
H  38.78200 10.05300 34.70600
H  39.32800 7.37900 34.51200
H  39.25600 8.35900 36.01200
H  40.85000 8.13400 35.40200
H  40.34000 12.40700 34.29500
H  41.84200 12.22800 35.12000
H  40.30900 11.03400 36.97000
H  39.17500 12.26100 36.30700
H  36.14500 7.11900 32.62000
H  35.37900 6.06700 31.41300
H  34.82900 7.72900 31.57000
H  34.57600 5.66600 29.37800
H  33.91500 6.26300 27.81400
H  34.05200 7.37200 29.16100
H  38.99900 10.37200 25.19900
H  41.99600 10.13100 24.95500
H  39.50500 8.59200 23.66300
H  39.38600 7.59500 25.13600
H  40.93400 8.10200 24.64900
H  40.75200 12.10800 24.09500
H  42.07700 12.52500 25.27800
H  40.49800 13.64100 26.36200
H  39.22600 12.39700 26.31900
H  39.41800 13.46900 25.02500
H  44.96200 13.13800 28.03900
H  45.57700 11.55600 27.80100
H  46.32200 12.60500 29.02800
H  43.33700 12.95600 33.60500
H  45.53900 11.94000 37.17300
H  45.93600 10.59800 36.16300
H  44.44800 10.46700 37.03600
Mg 49.85100 46.42600 43.09600
C  47.27200 48.67900 42.24700
C  47.95400 43.89400 41.84400
C  52.66200 44.70600 43.00500
C  51.64600 49.33900 43.95900
N  47.86800 46.36900 42.22500
C  46.99800 47.35400 41.85100
C  45.80900 46.77900 41.16100
C  45.83300 45.28200 41.67700
C  47.33600 45.16200 41.86800
C  45.14300 44.93500 42.95700
C  45.80300 46.86700 39.60600
C  44.40100 46.68900 38.93200
H  44.46700 45.55700 37.92400
N  50.24300 44.55200 42.55200
C  49.37500 43.69100 42.01300
C  49.98200 42.46400 41.84100
C  51.32900 42.60000 42.17900
C  51.53300 43.99900 42.60500
C  49.34900 41.11200 41.42100
C  52.44500 41.60400 41.87600
O  52.22100 40.51900 41.39400
C  53.93900 41.93000 42.19300
N  51.90300 46.99400 43.32500
C  52.87400 45.99500 43.32200
C  54.18200 46.48100 43.95300
C  53.91700 48.00100 43.81600
C  52.36700 48.16000 43.66500
C  54.64600 45.94000 45.34700
C  54.68600 48.76300 42.75800
C  56.19400 49.11600 43.01200
N  49.53700 48.51500 43.37000
C  50.28600 49.51700 43.80400
C  49.53100 50.80100 43.84000
C  48.39700 50.55600 43.12600
C  48.42700 49.12600 42.87100
C  50.22700 52.09700 44.27700
C  47.19600 51.14900 42.64300
O  46.74800 52.27700 42.77600
C  46.41000 49.96000 41.99100
C  45.11600 49.79500 42.66100
O  45.00400 49.28500 43.70700
O  44.10200 49.91900 41.73300
C  42.78000 49.54500 42.29100
H  47.31800 43.13300 41.38800
H  53.63300 44.24400 43.19300
H  52.22100 50.21300 44.27200
H  44.90100 47.24900 41.53900
H  45.55900 44.57600 40.89400
H  44.27500 44.31000 42.75000
H  44.77500 45.86900 43.38100
H  45.79000 44.43800 43.67900
H  46.44000 46.01600 39.36800
H  46.12500 47.82700 39.20200
H  44.14600 47.61300 38.41200
H  43.60100 46.33500 39.58200
H  48.26000 41.15900 41.43600
H  49.64600 40.41800 42.20800
H  49.79200 40.84800 40.46100
H  53.94000 42.14700 43.26100
H  54.06500 42.92800 41.77100
H  54.64700 41.20800 41.78700
H  54.99700 46.24600 43.26800
H  54.24200 48.51100 44.72300
H  55.72700 46.02200 45.46100
H  54.40300 44.88400 45.46400
H  54.31600 46.62000 46.13300
H  54.08400 49.61000 42.42900
H  54.73900 48.09300 41.90000
H  56.18700 50.20500 42.98200
H  56.86600 48.60000 42.32700
H  56.46800 48.92000 44.04800
H  51.20100 52.16800 43.79200
H  50.49100 52.11000 45.33400
H  49.62900 52.99300 44.11100
H  46.33100 50.21000 40.93300
H  42.68000 48.46800 42.42900
H  41.98000 49.89600 41.64000
H  42.73200 50.14100 43.20200

