158

Mg 0.63400 7.75000 25.64600
C  1.58200 9.66200 28.45400
C  0.81800 4.91800 27.66200
C  0.20300 5.89400 22.95400
C  0.67900 10.61200 23.82300
N  1.24400 7.37800 27.84000
C  1.34500 8.33100 28.84700
C  1.34800 7.68500 30.25300
C  1.38100 6.19200 29.89500
C  1.16000 6.13400 28.38900
C  2.63000 5.41200 30.38200
C  0.02100 8.08500 31.04000
C  0.15400 8.17900 32.59800
H  1.42200 7.85700 33.24200
N  0.42300 5.67000 25.33600
C  0.55000 4.69500 26.31000
C  0.37400 3.35200 25.61900
C  0.15900 3.66500 24.22500
C  0.25700 5.11500 24.10600
C  0.47100 2.08700 26.35400
C  -0.20700 2.76000 23.04300
O  -0.42100 3.17200 21.88200
C  -0.38900 1.30600 23.32900
N  0.43100 8.17500 23.72500
C  0.25700 7.24500 22.75000
C  0.20400 7.89100 21.36900
C  -0.00700 9.39800 21.67600
C  0.32700 9.46000 23.19300
C  1.59900 7.65800 20.68100
C  -1.39200 9.99000 21.28800
C  -1.45400 11.30200 20.46300
N  1.27500 9.70500 25.98100
C  1.16500 10.76100 25.14700
C  1.52200 11.97300 25.83000
C  1.78600 11.63300 27.18900
C  1.53100 10.20300 27.22000
C  1.55900 13.45500 25.22600
C  2.03900 12.08700 28.49000
O  2.14800 13.17900 28.94700
C  1.82300 10.86100 29.38100
C  3.03900 10.77400 30.20400
O  3.90700 9.89800 30.16800
O  2.82200 11.71100 31.25000
C  3.50300 11.42800 32.49100
H  0.91200 3.99100 28.23100
H  0.12900 5.35900 22.00400
H  0.62500 11.56900 23.30000
H  2.22100 7.86900 30.88000
H  0.50200 5.66400 30.26400
H  2.19400 4.49200 30.77100
H  3.18000 5.96400 31.14400
H  3.20900 5.02000 29.54700
H  -0.76800 7.36100 30.83700
H  -0.28500 9.00300 30.53800
H  -0.58600 7.55400 33.09700
H  -0.11900 9.21500 32.79900
H  -0.27600 1.32200 26.14200
H  0.51900 2.20900 27.43600
H  1.38300 1.67200 25.92300
H  -1.13500 1.36500 24.12200
H  0.52600 0.78300 23.60600
H  -0.74800 0.84500 22.40800
H  -0.56600 7.44000 20.74300
H  0.68200 10.02300 21.10900
H  1.89700 8.39500 19.93500
H  1.61600 6.63400 20.30800
H  2.35000 7.78100 21.46100
H  -1.95900 10.19300 22.19700
H  -1.92000 9.12400 20.88900
H  -1.21900 11.10200 19.41700
H  -0.70700 12.04500 20.74200
H  -2.36900 11.89500 20.46600
H  2.53100 13.63800 24.76900
H  1.42600 14.14100 26.06400
H  0.78500 13.64300 24.48200
H  1.01400 11.03500 30.09100
H  3.92600 12.41500 32.67900
H  4.27300 10.65800 32.50800
H  2.74600 11.14600 33.22200
Mg 46.89400 35.15700 28.82500
C  45.67400 33.21400 31.34200
C  47.33300 37.76700 31.01800
C  47.40700 37.40500 26.24100
C  45.89600 32.78500 26.47200
N  46.38600 35.45900 30.84700
C  46.05800 34.49200 31.78400
C  46.24500 35.00300 33.21900
C  46.37100 36.52300 33.08300
C  46.63900 36.61500 31.52900
C  45.12000 37.33400 33.56000
C  47.50900 34.31900 33.84000
C  47.46300 34.08500 35.39100
H  46.98800 35.20900 36.29400
N  47.47300 37.25100 28.63800
C  47.72500 38.04300 29.69400
C  48.31200 39.30600 29.19600
C  48.31000 39.25200 27.77800
C  47.69900 37.93300 27.47200
C  48.91900 40.36400 30.10200
C  48.78400 40.29500 26.77100
O  48.79000 40.08600 25.59400
C  49.18700 41.70200 27.23400
N  46.57800 35.17900 26.68500
C  46.95400 36.13500 25.84500
C  47.01800 35.69700 24.39600
C  46.40900 34.19700 24.45200
C  46.34000 33.97700 25.92900
C  46.39400 36.62000 23.37000
C  47.19800 33.21100 23.53900
C  46.30800 32.17600 22.82800
N  46.03200 33.33400 28.88100
C  45.65400 32.49600 27.83900
C  45.23900 31.22500 28.41000
C  45.18600 31.50200 29.74800
C  45.62800 32.78900 29.99900
C  44.90500 30.03500 27.48500
C  44.89700 30.90000 31.03600
O  44.53400 29.81400 31.32100
C  45.01000 32.03400 32.07000
C  45.71700 31.34500 33.14700
O  46.93600 31.21100 33.27600
O  44.82800 30.94700 34.08000
C  45.29600 30.15400 35.19300
H  47.63000 38.51500 31.75600
H  47.72700 38.13300 25.49300
H  45.64600 31.99400 25.76200
H  45.35200 34.73000 33.78000
H  47.26100 36.87200 33.60700
H  44.83800 37.97800 32.72600
H  45.39000 38.02200 34.36100
H  44.25400 36.69500 33.73400
H  48.33800 35.02300 33.77600
H  47.67900 33.36400 33.34400
H  48.27500 33.49500 35.81700
H  46.60200 33.41700 35.39200
H  48.92200 40.09900 31.16000
H  48.51400 41.36900 29.98800
H  49.92800 40.61300 29.77300
H  50.12100 41.67000 27.79500
H  48.38500 41.97800 27.91700
H  49.25600 42.35400 26.36300
H  48.10200 35.67400 24.28700
H  45.39400 34.25500 24.05800
H  47.01700 37.45100 23.03900
H  45.50900 37.02100 23.86500
H  46.10800 36.02800 22.50100
H  47.90600 32.63100 24.13200
H  47.81900 33.76400 22.83400
H  45.68200 32.44300 21.97600
H  45.61100 31.99700 23.64700
H  46.70900 31.18900 22.59900
H  44.30600 30.34300 26.62800
H  44.52100 29.19200 28.05900
H  45.88800 29.98400 27.01600
H  43.99800 32.23300 32.42400
H  45.01800 30.60500 36.14600
H  46.36600 29.95200 35.23000
H  44.76800 29.20200 35.14900

