158

Mg -2.39100 34.22900 26.62500
C  -3.94300 32.78500 29.45800
C  -1.37200 36.80600 28.69300
C  -1.37500 35.82600 23.85100
C  -3.96400 31.80600 24.63900
N  -2.73800 34.76900 28.80700
C  -3.27100 33.94200 29.77700
C  -3.05900 34.48000 31.23700
C  -2.38200 35.90900 30.95600
C  -2.16600 35.85700 29.41300
C  -3.25500 37.05700 31.44700
C  -2.21900 33.56200 32.15600
C  -2.88400 32.98800 33.39500
H  -1.97300 32.55100 34.54300
N  -1.39500 36.03000 26.28700
C  -1.06300 36.90800 27.25900
C  -0.25200 37.92700 26.61900
C  -0.20100 37.65000 25.26900
C  -0.99100 36.42300 25.08100
C  0.38700 39.03000 27.40700
C  0.51700 38.34200 24.13200
O  0.57900 37.99300 22.96600
C  1.41400 39.49800 24.50600
N  -2.79600 33.94900 24.54700
C  -2.22600 34.71600 23.55800
C  -2.87600 34.49500 22.18700
C  -3.47800 33.02600 22.45100
C  -3.43400 32.87000 23.97900
C  -3.98600 35.48700 21.63600
C  -2.92700 31.86000 21.69900
C  -1.44200 31.58000 21.60100
N  -3.63500 32.55300 26.95600
C  -4.05900 31.66700 26.02700
C  -4.88800 30.70600 26.73800
C  -4.86700 31.09400 28.05800
C  -4.07800 32.26900 28.20700
C  -5.74200 29.56800 26.22000
C  -5.27700 30.71100 29.39300
O  -5.96000 29.71400 29.62000
C  -4.79100 31.84700 30.37800
C  -5.93500 32.39600 31.15000
O  -6.56600 33.43600 30.89500
O  -6.17300 31.55100 32.26000
C  -7.01000 32.00100 33.28600
H  -0.96600 37.57700 29.35100
H  -1.21100 36.49200 23.00200
H  -4.42400 31.00100 24.06200
H  -4.05100 34.63200 31.66300
H  -1.41800 35.98500 31.45900
H  -4.33200 36.90400 31.51300
H  -3.12200 37.91300 30.78600
H  -2.89200 37.46400 32.39100
H  -1.36600 34.17200 32.45300
H  -1.78300 32.78100 31.53300
H  -3.40300 32.08700 33.06800
H  -3.68000 33.65300 33.72900
H  1.44800 38.87300 27.21400
H  0.12500 39.02800 28.46500
H  0.10000 39.99700 26.99400
H  2.17700 39.40000 25.27800
H  0.69900 40.24900 24.84100
H  1.78500 40.02100 23.62400
H  -2.03900 34.45000 21.49000
H  -4.49700 33.04700 22.06600
H  -3.45400 35.90600 20.78100
H  -4.30600 36.37000 22.18900
H  -4.86300 34.96100 21.26000
H  -3.25500 31.95000 20.66300
H  -3.43500 30.94300 21.99500
H  -1.17700 31.71000 20.55200
H  -1.06600 30.59000 21.86000
H  -0.84800 32.31000 22.15100
H  -5.33000 29.27600 25.25400
H  -6.78900 29.76500 25.98600
H  -5.83200 28.73000 26.91100
H  -4.19000 31.36600 31.15000
H  -7.45200 31.07000 33.64100
H  -7.89300 32.53900 32.94100
H  -6.34600 32.44300 34.02800
Mg -5.89500 24.90800 25.98000
C  -4.35000 26.32000 28.84400
C  -7.76200 22.93400 28.13300
C  -6.95500 23.36100 23.20000
C  -3.62700 26.66600 23.97900
N  -5.78500 24.49000 28.20900
C  -5.24000 25.28400 29.20100
C  -5.76000 24.85200 30.60900
C  -6.69600 23.60700 30.27600
C  -6.79800 23.72400 28.77400
C  -6.08000 22.14900 30.80400
C  -6.50800 26.05700 31.27900
C  -6.39100 26.17900 32.79400
H  -5.92500 24.95600 33.53600
N  -7.38600 23.56600 25.65700
C  -8.03100 22.85800 26.66700
C  -9.08200 22.07100 26.09200
C  -8.78400 22.03800 24.66500
C  -7.66200 22.97700 24.45600
C  -10.15700 21.50400 26.91100
C  -9.46300 21.30200 23.54100
O  -9.19800 21.49000 22.30100
C  -10.70800 20.41000 23.80600
N  -5.25700 24.82300 23.92300
C  -5.86600 24.21200 22.94300
C  -5.41000 24.59900 21.58600
C  -4.49600 25.81000 21.78000
C  -4.47900 25.76700 23.32900
C  -4.73300 23.41800 20.78400
C  -5.09100 27.09100 21.13200
C  -4.25700 27.57900 19.96600
N  -4.33900 26.27200 26.27500
C  -3.56800 26.89300 25.35100
C  -2.69600 27.84700 26.01500
C  -2.90600 27.57100 27.36800
C  -3.94500 26.61600 27.50300
C  -1.70900 28.87400 25.37000
C  -2.45400 27.86800 28.70000
O  -1.47900 28.49000 29.04700
C  -3.42500 27.12100 29.74200
C  -2.55200 26.37300 30.67100
O  -2.08800 25.27500 30.42500
O  -2.43700 26.97100 31.84700
C  -1.76500 26.21100 32.93400
H  -8.47900 22.43900 28.79100
H  -7.48100 22.97600 22.32400
H  -2.90300 27.10600 23.29000
H  -4.90100 24.50800 31.18500
H  -7.63700 23.64400 30.82500
H  -6.86600 21.75800 31.45000
H  -5.23900 22.21700 31.49400
H  -6.02800 21.46600 29.95600
H  -7.53000 25.99900 30.90400
H  -6.12700 26.96700 30.81500
H  -7.38400 26.42300 33.17300
H  -5.75600 27.05000 32.95400
H  -10.45500 22.19600 27.69900
H  -10.01200 20.57100 27.45400
H  -11.03200 21.25500 26.30900
H  -10.40500 19.62500 24.49900
H  -11.08400 20.05700 22.84600
H  -11.46000 20.97800 24.35300
H  -6.37600 24.83100 21.13700
H  -3.47400 25.61500 21.45400
H  -3.81900 23.64100 20.23400
H  -5.47900 23.06800 20.07000
H  -4.42400 22.60500 21.44200
H  -5.24200 27.81800 21.93000
H  -6.08900 26.95400 20.71600
H  -3.60600 26.76800 19.63800
H  -3.62600 28.40400 20.29600
H  -4.92900 27.88600 19.16500
H  -2.02700 29.87500 25.66000
H  -1.71300 28.68600 24.29600
H  -0.69600 28.64200 25.69800
H  -3.91900 27.89700 30.32700
H  -0.69200 26.30100 32.76600
H  -2.06400 25.18200 33.13300
H  -2.11400 26.67400 33.85700

