158

Mg 54.66700 23.49200 44.13700
C  52.37800 26.12600 43.43200
C  52.40000 21.39700 42.94100
C  57.15400 21.08400 43.97400
C  57.16900 25.85500 44.87200
N  52.51700 23.80000 43.57400
C  51.85400 24.89300 43.15100
C  50.40200 24.60600 42.80300
C  50.44000 23.03900 42.74600
C  51.86700 22.64800 43.11800
C  49.44100 22.41600 43.74400
C  49.78000 25.42000 41.62800
C  48.60000 24.76000 40.85500
H  48.84000 24.18200 39.48400
N  54.75900 21.48500 43.62100
C  53.69600 20.77200 43.11900
C  54.09100 19.42500 42.75500
C  55.45600 19.33800 42.95800
C  55.85700 20.70400 43.54600
C  53.09200 18.45400 42.12100
C  56.31300 18.10700 42.69400
O  55.84600 17.11500 42.11300
C  57.70700 17.99100 43.14400
N  56.82800 23.49800 44.47600
C  57.61800 22.35500 44.43800
C  59.04400 22.69100 44.91900
C  59.14200 24.22600 44.90500
C  57.63500 24.57300 44.73100
C  59.59300 22.02500 46.24900
C  60.08200 24.81200 43.82200
C  60.74300 26.17700 44.09400
N  54.77000 25.52000 44.28500
C  55.89600 26.34600 44.71700
C  55.43300 27.70700 44.71100
C  54.06800 27.66800 44.24700
C  53.70500 26.33700 44.00200
C  56.20900 28.98700 44.98900
C  52.90400 28.50300 43.95600
O  52.69200 29.65300 44.09200
C  51.85600 27.53500 43.32500
C  51.65500 27.91800 41.97700
O  52.26800 27.51800 40.97800
O  50.55700 28.72900 41.96200
C  50.06600 29.01500 40.64100
H  51.58100 20.76700 42.58900
H  57.99100 20.38800 44.05800
H  57.83900 26.70800 45.00100
H  49.83800 24.96200 43.66500
H  50.19700 22.67500 41.74800
H  49.95400 21.84600 44.51800
H  48.65700 21.80100 43.30300
H  48.89900 23.17800 44.30400
H  50.60400 25.55300 40.92700
H  49.61900 26.41500 42.04300
H  47.84000 25.52100 40.68000
H  48.07800 24.08000 41.52900
H  52.99600 18.87700 41.12200
H  52.16400 18.70000 42.63800
H  53.31800 17.38800 42.08400
H  58.23600 18.85300 42.73600
H  58.20800 17.11100 42.74100
H  57.83000 17.91800 44.22400
H  59.70500 22.32700 44.13300
H  59.50900 24.60900 45.85700
H  60.22600 21.18400 45.96400
H  58.73800 21.60800 46.78000
H  60.23600 22.76500 46.72600
H  59.47500 24.91300 42.92300
H  60.88900 24.08400 43.73300
H  60.09400 27.05100 44.04500
H  61.44000 26.44700 43.30100
H  61.24200 26.14200 45.06300
H  56.06300 29.71100 44.18800
H  57.28500 28.88900 45.13500
H  55.81400 29.56800 45.82300
H  50.89900 27.53700 43.84500
H  50.93900 29.18200 40.01000
H  49.30300 29.78800 40.54400
H  49.58100 28.14600 40.19700
Mg 17.23900 52.51900 25.38400
C  18.88200 51.17800 28.14600
C  14.78800 53.67500 27.44400
C  15.84600 53.78400 22.59800
C  19.70800 50.95100 23.33100
N  16.87600 52.38900 27.65000
C  17.70700 51.82100 28.54300
C  17.15700 52.26100 29.94700
C  15.69400 52.71500 29.61800
C  15.82100 53.03100 28.15600
C  14.56800 51.64900 29.96100
C  18.14900 53.28700 30.67900
C  17.91800 53.48400 32.18600
H  16.72300 52.78900 32.87500
N  15.62000 53.53200 25.04900
C  14.64100 53.88500 26.02500
C  13.46300 54.46000 25.32300
C  13.79700 54.49300 23.86700
C  15.15900 53.92900 23.79800
C  12.36300 55.09600 26.13300
C  13.01100 55.04200 22.72000
O  13.36000 55.17200 21.52900
C  11.63900 55.52600 23.10800
N  17.74300 52.47400 23.28900
C  17.01800 53.11400 22.35000
C  17.66400 52.94500 20.96400
C  18.92600 52.11800 21.25700
C  18.81600 51.81800 22.76000
C  16.73000 52.15500 20.02600
C  20.25400 52.85300 20.84800
C  21.15600 52.23100 19.75100
N  18.82900 51.17500 25.60900
C  19.75800 50.62700 24.71400
C  20.78700 49.79700 25.42600
C  20.46500 50.00400 26.75400
C  19.34500 50.86700 26.86900
C  21.94100 48.97100 24.87600
C  20.89400 49.83400 28.10500
O  21.83400 49.21300 28.57100
C  19.89300 50.57800 29.09700
C  19.44500 49.47100 30.01200
O  18.80600 48.45700 29.67000
O  19.84600 49.87700 31.26200
C  19.45600 49.12200 32.49300
H  13.89700 54.02100 27.97100
H  15.41800 54.08200 21.63900
H  20.42400 50.51400 22.63200
H  16.91300 51.37100 30.52700
H  15.50000 53.71300 30.01200
H  15.06900 50.68400 30.04600
H  13.81000 51.68400 29.17800
H  14.05700 51.91700 30.88600
H  17.91000 54.22600 30.18000
H  19.12900 53.02000 30.28500
H  17.80900 54.56300 32.29500
H  18.89500 53.20200 32.57900
H  11.53000 54.41800 26.31600
H  12.09600 56.02900 25.63500
H  12.70300 55.56800 27.05400
H  11.05600 55.60400 22.18900
H  11.74800 56.55000 23.46500
H  11.02300 54.90700 23.76000
H  18.00200 53.90800 20.58100
H  18.91600 51.19200 20.68200
H  16.52500 52.67600 19.09100
H  15.75900 52.01500 20.50100
H  17.09800 51.15200 19.81300
H  20.84300 52.83800 21.76500
H  20.10100 53.89600 20.57200
H  21.80000 51.43400 20.11900
H  21.73000 52.98200 19.20800
H  20.49000 51.83200 18.98600
H  22.90300 49.47100 24.99100
H  21.83700 48.97100 23.79100
H  21.92200 47.93000 25.19800
H  20.40200 51.37200 29.64300
H  18.85900 48.23700 32.27500
H  18.73400 49.75400 33.01000
H  20.22900 48.88500 33.22300

