158

Mg 36.01300 3.24400 30.30500
C  33.36200 3.93700 32.64100
C  38.12500 2.98200 32.85700
C  38.27200 2.68800 28.05300
C  33.50500 3.34100 27.72300
N  35.72700 3.42300 32.52000
C  34.59300 3.68300 33.21200
C  34.90700 3.51400 34.69500
C  36.45400 3.44600 34.77400
C  36.80100 3.24100 33.30900
C  37.13400 4.65000 35.46900
C  34.25900 2.22500 35.30900
C  34.07300 2.34100 36.78800
H  34.89100 3.29000 37.68000
N  37.96600 2.97000 30.43600
C  38.67600 2.89400 31.56700
C  40.10100 2.65600 31.20700
C  40.10000 2.48800 29.77200
C  38.75000 2.74500 29.35600
C  41.15400 2.53300 32.28100
C  41.23000 1.98600 28.94400
O  41.20100 1.90200 27.71100
C  42.62700 1.68400 29.53200
N  35.88600 3.22700 28.16200
C  37.02500 2.96400 27.41300
C  36.68600 2.55200 25.96600
C  35.16400 2.56500 25.99400
C  34.80200 3.11300 27.34700
C  37.51000 3.42800 24.92000
C  34.51600 1.16000 25.65200
C  33.56500 0.93500 24.38200
N  33.87900 3.66000 30.14800
C  32.98700 3.69900 29.04400
C  31.64900 3.95700 29.51000
C  31.79500 4.06300 30.90700
C  33.13600 3.86400 31.25200
C  30.45000 4.16000 28.66100
C  31.01900 4.28500 32.09100
O  29.87500 4.58600 32.23700
C  32.02700 4.12500 33.31500
C  32.07600 5.41500 33.99800
O  32.29900 6.52400 33.52500
O  31.79800 5.19600 35.35000
C  31.88700 6.43300 36.18400
H  38.81300 2.71300 33.66000
H  39.13000 2.49000 27.40700
H  32.69900 3.24100 26.99300
H  34.65500 4.43700 35.21700
H  36.79300 2.50500 35.20800
H  36.56200 5.55400 35.26100
H  38.04300 4.92100 34.93000
H  37.23800 4.45600 36.53600
H  35.02800 1.47500 35.12800
H  33.32500 1.94800 34.82100
H  34.30100 1.35800 37.20000
H  33.02700 2.63300 36.87800
H  42.18200 2.44500 31.93100
H  41.04200 1.57500 32.78900
H  40.99900 3.28500 33.05500
H  43.34800 1.41600 28.75900
H  42.57100 0.84000 30.21900
H  43.05000 2.61500 29.91000
H  37.08400 1.53700 25.98700
H  34.75600 3.26600 25.26500
H  36.85200 3.99700 24.26300
H  38.04600 2.75600 24.25000
H  38.19200 4.12800 25.40200
H  34.22800 0.75200 26.62100
H  35.21400 0.39700 25.30800
H  33.97400 0.08600 23.83400
H  33.54900 1.77500 23.68700
H  32.53400 0.66600 24.61100
H  29.86500 3.25400 28.82300
H  30.53000 4.23300 27.57700
H  29.88200 5.04600 28.94500
H  31.81300 3.35100 34.05200
H  32.73900 7.02500 35.85100
H  32.02600 6.11700 37.21800
H  31.00300 7.06500 36.09400
Mg 16.78500 52.05000 26.25500
C  18.83900 51.07100 28.98300
C  14.28500 52.84200 28.51800
C  14.74100 52.99600 23.80200
C  19.09300 50.69600 24.10500
N  16.68200 52.04900 28.52400
C  17.65800 51.73300 29.42200
C  17.21400 52.22100 30.81000
C  15.64700 52.45000 30.65700
C  15.52800 52.47900 29.14500
C  14.86700 51.24500 31.21400
C  18.02700 53.46300 31.25500
C  18.19400 53.60400 32.78200
H  17.12300 53.20900 33.74500
N  14.81000 52.89900 26.18700
C  13.96900 53.16600 27.19800
C  12.70800 53.57300 26.63600
C  12.80200 53.69600 25.23100
C  14.13900 53.25900 25.00000
C  11.51300 53.82300 27.47200
C  11.79100 54.11900 24.11900
O  12.03400 54.20600 22.92000
C  10.39400 54.40200 24.35300
N  16.84300 51.80100 24.31900
C  15.98900 52.45700 23.40700
C  16.51800 52.32400 21.98800
C  17.85800 51.62000 22.12200
C  17.96300 51.31200 23.63700
C  15.53100 51.61200 21.04100
C  19.04500 52.55600 21.70000
C  20.14200 51.88800 20.86200
N  18.60900 51.04000 26.46600
C  19.46400 50.47600 25.44800
C  20.61600 49.87400 26.07900
C  20.48700 50.07500 27.44500
C  19.25500 50.76600 27.59700
C  21.57100 48.97200 25.43700
C  20.99200 49.79600 28.77900
O  21.89800 49.04400 29.18100
C  20.03400 50.59800 29.84700
C  19.56500 49.67300 30.85400
O  18.93600 48.64200 30.50700
O  19.89300 50.12200 32.10500
C  19.43900 49.34700 33.22600
H  13.54000 53.09000 29.27700
H  14.26500 53.26400 22.85600
H  19.87200 50.37900 23.40900
H  17.45100 51.47300 31.56600
H  15.38200 53.44300 31.02100
H  14.50900 50.57700 30.43100
H  13.94000 51.43900 31.75400
H  15.49300 50.57600 31.80400
H  17.53400 54.40100 31.00200
H  19.01200 53.41100 30.79100
H  18.51800 54.63300 32.93600
H  19.01500 52.96100 33.09800
H  11.16500 54.76600 27.05200
H  11.77300 54.00900 28.51400
H  10.69000 53.11900 27.34500
H  9.89000 54.77300 23.46100
H  10.28700 55.19000 25.09900
H  9.89300 53.54300 24.79900
H  16.70200 53.35300 21.67900
H  18.04000 50.64400 21.67300
H  16.09000 50.83700 20.51600
H  15.18600 52.27400 20.24600
H  14.70200 51.06700 21.49200
H  19.54800 53.02900 22.54300
H  18.66600 53.32500 21.02700
H  21.10800 52.01300 21.35100
H  20.32600 52.36600 19.90000
H  19.91500 50.83400 20.70600
H  22.18500 48.65200 26.27900
H  22.08000 49.52000 24.64400
H  21.15400 48.12900 24.88600
H  20.39300 51.50300 30.33800
H  18.50700 48.81200 33.04200
H  19.26600 50.08200 34.01200
H  20.27700 48.73300 33.55700

