158

Mg 48.15300 44.46500 42.39500
C  44.71500 43.97200 42.15700
C  48.50900 41.06000 41.86000
C  51.47200 44.91900 42.09700
C  47.66100 47.81900 41.76900
N  46.75000 42.72800 42.10000
C  45.41200 42.75900 42.22400
C  44.73900 41.36500 42.20600
C  46.05600 40.42500 42.12400
C  47.17900 41.46600 42.00500
C  46.40900 39.45800 43.36800
C  43.75000 41.15800 41.01800
C  43.92600 41.92700 39.70100
H  44.45500 41.06000 38.48100
N  49.72600 43.17500 42.16200
C  49.65800 41.78600 41.93200
C  50.98500 41.33000 41.84200
C  51.90800 42.41400 42.01900
C  51.04500 43.59000 42.15800
C  51.29100 39.91700 41.43000
C  53.41500 42.37300 42.01200
O  53.95500 41.34700 41.72100
C  54.35000 43.59300 42.25500
N  49.32100 46.17000 42.17800
C  50.71300 46.04400 42.20600
C  51.44100 47.42100 41.97000
C  50.18100 48.33700 41.87400
C  48.98500 47.39700 41.94800
C  52.48000 47.75400 42.96700
C  50.20200 49.20600 40.55800
C  49.44900 50.50400 40.68200
N  46.53000 45.74900 42.12000
C  46.47100 47.13700 41.84300
C  45.08500 47.54400 41.67200
C  44.32500 46.31200 41.87000
C  45.26100 45.24600 42.11300
C  44.52900 48.96900 41.51200
C  42.96800 45.70400 41.73400
O  41.86700 46.18500 41.46200
C  43.20700 44.19900 41.96600
C  42.46100 43.80300 43.12500
O  41.31500 43.43300 43.06300
O  43.11400 44.17700 44.25100
C  42.50000 43.51900 45.44100
H  48.57600 39.97800 41.72700
H  52.53700 45.12600 41.97100
H  47.38000 48.86500 41.62400
H  44.31000 41.30600 43.20700
H  46.07500 39.89200 41.17300
H  45.54000 39.44900 44.02500
H  47.20900 39.84100 44.00000
H  46.49200 38.39700 43.13000
H  42.78100 41.36300 41.47500
H  43.74200 40.11700 40.69400
H  44.71400 42.66400 39.85600
H  43.03300 42.45700 39.36900
H  51.36400 39.80400 40.34800
H  50.48700 39.32700 41.87000
H  52.24400 39.55200 41.81200
H  54.43000 44.29200 41.42300
H  55.31100 43.09400 42.38200
H  54.02800 44.11000 43.15900
H  51.85700 47.43200 40.96300
H  50.08100 49.03900 42.70100
H  52.20300 47.16300 43.84000
H  52.52000 48.82100 43.18800
H  53.49100 47.45700 42.68600
H  49.68700 48.69700 39.74300
H  51.20100 49.45200 40.19800
H  48.99600 50.58600 41.67000
H  48.64200 50.49400 39.95000
H  50.14300 51.32400 40.49200
H  43.61600 49.05200 40.92300
H  45.15600 49.73700 41.06000
H  44.24900 49.37500 42.48400
H  42.70400 43.69100 41.14300
H  41.97000 44.26100 46.03900
H  43.32900 43.20400 46.07500
H  41.85600 42.67600 45.19400
Mg -0.88200 34.91300 25.71600
C  -2.54500 33.02000 28.20800
C  0.30600 36.92400 28.17200
C  0.27800 36.87200 23.35400
C  -2.51600 32.98800 23.36100
N  -1.16800 34.96200 27.92900
C  -1.80400 34.12300 28.72700
C  -1.62400 34.39500 30.25400
C  -0.85500 35.75700 30.12900
C  -0.46100 35.89000 28.63300
C  -1.56000 37.01000 30.74200
C  -0.80400 33.27200 31.04200
C  -1.39800 32.75700 32.29200
H  -0.44500 32.38200 33.43400
N  0.15500 36.69400 25.77800
C  0.62100 37.33700 26.83900
C  1.45300 38.38000 26.42300
C  1.55700 38.32900 25.03400
C  0.67200 37.24900 24.61500
C  2.12400 39.23600 27.41900
C  2.26900 39.19300 24.07400
O  2.27200 39.06500 22.84900
C  3.09900 40.33000 24.67300
N  -1.32700 35.10800 23.67500
C  -0.59600 35.89500 22.94500
C  -0.84600 35.72700 21.41500
C  -1.49500 34.34400 21.41500
C  -1.82300 34.12500 22.94800
C  -1.69300 36.84400 20.74200
C  -0.53000 33.13200 20.89200
C  0.62600 32.51600 21.71800
N  -2.38800 33.33100 25.74600
C  -3.00100 32.70700 24.69400
C  -3.91900 31.66900 25.18100
C  -3.63900 31.69600 26.62000
C  -2.82900 32.77300 26.87400
C  -4.56900 30.60800 24.47000
C  -3.93000 31.05400 27.95300
O  -4.60500 30.11500 28.30000
C  -3.32500 31.94500 28.97400
C  -4.46300 32.48400 29.73800
O  -5.07300 33.50200 29.48700
O  -4.61900 31.67600 30.81500
C  -5.40900 32.07900 31.94100
H  0.81800 37.41800 29.00100
H  0.88100 37.31800 22.56000
H  -2.91300 32.31700 22.59600
H  -2.67000 34.47800 30.55000
H  0.05000 35.73000 30.73700
H  -1.08800 37.20100 31.70600
H  -2.58500 36.67700 30.90800
H  -1.63100 37.91000 30.13100
H  0.15600 33.63000 31.41400
H  -0.72700 32.45400 30.32600
H  -1.84900 31.80400 32.01500
H  -2.09800 33.54800 32.56200
H  1.84400 40.25500 27.15200
H  3.19100 39.02100 27.35100
H  1.88400 39.03400 28.46300
H  3.67900 40.84300 23.90600
H  3.84200 40.08000 25.43000
H  2.46800 41.10000 25.11800
H  0.10600 35.72600 20.88500
H  -2.45600 34.31600 20.90200
H  -2.52000 36.55700 20.09200
H  -1.06800 37.42900 20.06800
H  -2.05700 37.52800 21.50800
H  -0.11500 33.58000 19.98900
H  -1.30900 32.43500 20.58300
H  0.40000 32.61300 22.77900
H  1.60900 32.92000 21.47600
H  0.67800 31.43100 21.61700
H  -4.08400 29.66000 24.70600
H  -4.52400 30.76500 23.39300
H  -5.63200 30.53800 24.69800
H  -2.71900 31.35300 29.66000
H  -6.28200 32.55600 31.49700
H  -4.83400 32.79500 32.52900
H  -5.65200 31.18800 32.52000

