158

Mg -0.12700 7.52500 26.59600
C  0.56200 9.54300 29.43800
C  -0.32100 4.80200 28.72900
C  -0.58600 5.55100 23.94600
C  0.53400 10.21900 24.55100
N  -0.09400 7.29400 28.82500
C  0.14700 8.21200 29.81000
C  0.06900 7.70600 31.16900
C  -0.10300 6.11200 30.92100
C  -0.28200 6.07600 29.35600
C  0.95900 5.13000 31.48700
C  -1.00000 8.41200 32.02700
C  -0.76900 8.57000 33.53300
H  0.43000 8.07100 34.26000
N  -0.39000 5.45000 26.33200
C  -0.37300 4.49500 27.30100
C  -0.49700 3.20000 26.65500
C  -0.66900 3.40800 25.27400
C  -0.59900 4.89700 25.13300
C  -0.41100 1.97800 27.43900
C  -1.04000 2.35500 24.18600
O  -1.23500 2.79400 23.05700
C  -1.28200 0.87600 24.51000
N  -0.06400 7.87600 24.55400
C  -0.35900 6.88900 23.58400
C  -0.28500 7.40900 22.10600
C  -0.19900 8.94000 22.42200
C  0.14700 9.03700 23.94600
C  0.80200 6.66100 21.30600
C  -1.46300 9.77300 22.08300
C  -1.29400 10.76500 20.87600
N  0.49200 9.47000 26.89400
C  0.69000 10.42200 25.90600
C  1.23300 11.57200 26.58100
C  1.29700 11.27200 27.95000
C  0.74200 9.98700 28.10100
C  1.70500 12.75300 25.93700
C  1.63700 11.78100 29.23000
O  2.20200 12.85000 29.57500
C  1.16200 10.67000 30.27700
C  2.31400 10.21900 31.15600
O  3.07700 9.36900 30.82900
O  2.53300 11.00300 32.20500
C  3.63600 10.80000 33.14800
H  -0.47500 3.88200 29.29700
H  -0.83200 4.98100 23.04800
H  0.77200 11.09200 23.94100
H  1.02000 7.83900 31.68500
H  -1.09800 5.84800 31.28100
H  0.42200 4.31800 31.97800
H  1.54700 5.69600 32.20900
H  1.60800 4.87200 30.65000
H  -1.95600 7.94900 31.78200
H  -1.04600 9.39800 31.56400
H  -1.67700 8.19400 34.00300
H  -0.74600 9.64100 33.73300
H  -0.15700 1.08900 26.86200
H  -1.36100 1.78700 27.93700
H  0.41200 2.17400 28.12700
H  -1.68400 0.39100 23.62100
H  -1.98400 0.76300 25.33600
H  -0.39100 0.32800 24.81900
H  -1.19900 7.19400 21.55200
H  0.63000 9.37900 21.86700
H  1.11500 5.74600 21.81000
H  1.71900 7.24800 21.24900
H  0.58200 6.31700 20.29600
H  -1.53200 10.47200 22.91700
H  -2.42800 9.27600 21.98700
H  -0.79300 10.23300 20.06700
H  -0.75400 11.69700 21.04400
H  -2.29800 11.03900 20.55400
H  1.02300 13.05600 25.14300
H  2.72700 12.62200 25.58100
H  1.70300 13.62700 26.58900
H  0.31800 11.04400 30.85600
H  4.10000 11.78700 33.14700
H  4.34600 10.11100 32.69200
H  3.32300 10.51700 34.15300
Mg 24.19800 -5.12600 46.60300
C  26.42100 -2.92500 45.00900
C  21.74200 -4.10700 44.50100
C  22.49000 -7.69300 47.70500
C  27.11700 -6.41600 48.31400
N  24.12300 -3.66900 44.86500
C  25.13600 -2.88500 44.40500
C  24.60800 -2.00500 43.23600
C  23.06200 -2.36500 43.15500
C  22.92700 -3.40600 44.25500
C  22.09000 -1.08100 43.38600
C  25.34100 -2.24600 41.92000
C  26.10300 -1.05400 41.25600
H  25.87000 -0.92400 39.71400
N  22.34300 -5.83900 46.09300
C  21.45800 -5.28500 45.28400
C  20.17100 -6.03000 45.38400
C  20.35900 -7.11900 46.35300
C  21.76700 -6.91900 46.76300
C  18.94500 -5.62000 44.59500
C  19.31000 -8.15200 46.77300
O  18.15600 -8.10500 46.32100
C  19.60400 -9.28200 47.72800
N  24.78100 -6.91900 47.73500
C  23.82300 -7.80100 48.09700
C  24.48600 -9.01300 48.81400
C  25.91100 -8.46200 49.17800
C  25.95300 -7.16100 48.35300
C  23.68000 -9.69500 49.99800
C  27.11300 -9.39000 48.87500
C  27.60600 -9.54800 47.43500
N  26.33000 -4.75300 46.74700
C  27.34000 -5.32100 47.49400
C  28.54900 -4.59700 47.28000
C  28.28400 -3.56700 46.32300
C  26.91700 -3.79500 45.99200
C  29.76800 -4.92700 48.00200
C  28.77300 -2.40400 45.64900
O  29.84400 -1.80400 45.73800
C  27.57400 -1.98900 44.71700
C  27.16400 -0.56200 44.95200
O  26.54000 -0.14500 45.92400
O  27.50700 0.20200 43.84700
C  27.20200 1.62900 43.80200
H  20.90400 -3.59300 44.02500
H  21.99300 -8.61400 48.01700
H  28.08100 -6.71500 48.72900
H  24.78300 -1.00100 43.62200
H  22.70000 -2.79300 42.22000
H  21.48000 -1.21000 44.28000
H  21.42700 -0.88600 42.54300
H  22.86800 -0.33100 43.52800
H  24.59400 -2.61500 41.21600
H  26.14600 -2.95900 42.09500
H  27.16300 -1.26400 41.40100
H  25.76700 -0.17300 41.80100
H  19.18900 -4.89700 43.81700
H  18.22500 -5.12600 45.24800
H  18.51300 -6.48100 44.08400
H  19.69100 -8.96400 48.76700
H  20.47300 -9.76300 47.27800
H  18.84300 -10.05900 47.65500
H  24.68800 -9.75500 48.04100
H  25.94100 -8.11300 50.21000
H  24.16800 -9.68200 50.97300
H  23.68800 -10.75200 49.73100
H  22.69600 -9.23100 50.05900
H  26.81900 -10.37900 49.22500
H  27.90400 -9.17500 49.59400
H  27.74500 -10.61500 47.26000
H  28.61800 -9.14300 47.43200
H  26.99100 -9.05600 46.68300
H  30.40900 -5.75700 47.70600
H  29.56100 -5.17000 49.04500
H  30.45600 -4.08300 48.03300
H  27.90700 -2.15700 43.69300
H  27.52000 2.11600 44.72400
H  26.16700 1.81400 43.51600
H  27.69100 2.14500 42.97600

