158

Mg 2.34500 -1.94200 44.07200
C  5.83300 -0.98300 43.90400
C  1.77600 0.91500 42.00600
C  -0.73500 -2.92300 43.70300
C  3.47100 -5.08500 45.30300
N  3.71600 -0.27200 42.96400
C  5.10000 -0.04900 43.16200
C  5.53300 1.19600 42.34200
C  4.20100 1.89700 41.90100
C  3.17200 0.76700 42.23600
C  3.83100 3.22800 42.67400
C  6.50400 0.97200 41.13600
C  6.04900 -0.03400 40.10700
H  5.46800 0.44400 38.72000
N  0.69300 -1.17500 42.95000
C  0.64300 0.01100 42.27900
C  -0.69900 0.16000 41.81500
C  -1.52200 -0.90400 42.32100
C  -0.52400 -1.77300 43.05200
C  -1.07000 1.42400 41.14600
C  -2.97200 -1.10300 42.26600
O  -3.62200 -0.30900 41.60600
C  -3.73000 -2.16300 43.03900
N  1.51800 -3.83800 44.43500
C  0.12300 -3.89800 44.32500
C  -0.28600 -5.35300 44.76200
C  1.00700 -6.00100 45.34900
C  2.04500 -4.94000 45.01900
C  -1.49100 -5.57300 45.65200
C  1.31700 -7.32500 44.66700
C  0.79400 -8.56400 45.16900
N  4.20700 -2.88300 44.60200
C  4.44500 -4.12000 45.11100
C  5.89400 -4.28000 45.39900
C  6.46900 -3.00200 45.03500
C  5.43100 -2.25700 44.48700
C  6.53600 -5.52800 45.93800
C  7.67400 -2.30600 44.88300
O  8.81800 -2.66300 45.09600
C  7.34700 -0.96600 44.10200
C  7.76800 0.24100 44.86000
O  7.34500 0.49600 45.97800
O  8.69500 0.89200 44.17400
C  9.06000 2.19800 44.72600
H  1.73100 1.82900 41.41000
H  -1.72900 -3.34300 43.53300
H  3.88800 -5.94800 45.82400
H  6.08500 1.85800 43.00900
H  4.26100 2.12900 40.83800
H  2.84800 3.19300 43.14400
H  3.86300 4.11100 42.03600
H  4.63700 3.32200 43.40200
H  7.45100 0.67100 41.58400
H  6.58700 1.94600 40.65400
H  5.31900 -0.76500 40.45500
H  6.89900 -0.64500 39.80400
H  -2.12600 1.33300 40.88900
H  -0.66600 1.39000 40.13400
H  -0.81000 2.27900 41.76900
H  -4.78500 -1.91400 43.14500
H  -3.31700 -2.01000 44.03600
H  -3.53600 -3.13300 42.58000
H  -0.45400 -5.77500 43.77100
H  0.90300 -6.06100 46.43200
H  -1.48400 -6.54200 46.15000
H  -2.38000 -5.53500 45.02300
H  -1.61800 -4.70100 46.29300
H  2.36200 -7.62700 44.74800
H  1.06900 -7.33300 43.60600
H  1.60900 -9.11600 45.63700
H  0.29100 -9.09600 44.36200
H  0.05800 -8.53900 45.97300
H  6.22300 -6.44000 45.42900
H  6.10400 -5.74100 46.91600
H  7.62400 -5.57500 46.00200
H  7.94500 -0.98100 43.19100
H  8.33100 2.77100 45.29800
H  9.40400 2.83000 43.90800
H  9.89300 2.03900 45.41200
Mg -12.66400 17.00000 40.84200
C  -9.59600 15.20700 40.72400
C  -11.19400 19.73600 39.31600
C  -15.72900 18.57900 40.94400
C  -14.07700 14.05000 41.85500
N  -10.66900 17.40900 40.14200
C  -9.56000 16.55700 40.14300
C  -8.35900 17.32000 39.53500
C  -8.84800 18.73800 39.19100
C  -10.33800 18.68700 39.58400
C  -8.03700 19.86200 39.95800
C  -7.74500 16.64700 38.37800
C  -6.34600 17.07600 38.05300
H  -6.09700 17.73500 36.70600
N  -13.35800 18.86600 40.28600
C  -12.55700 19.89100 39.71100
C  -13.34900 21.06800 39.54700
C  -14.64900 20.82100 40.00000
C  -14.64000 19.35900 40.42500
C  -12.78800 22.35600 39.00600
C  -15.78800 21.85200 40.09300
O  -15.75200 22.99900 39.62100
C  -17.06600 21.36200 40.80700
N  -14.61200 16.42300 41.24100
C  -15.65200 17.27600 41.33500
C  -16.93700 16.51800 41.74400
C  -16.44600 15.12400 42.08700
C  -14.94500 15.16400 41.68800
C  -17.68600 17.35600 42.88300
C  -17.27500 14.01800 41.41100
C  -17.66500 12.94100 42.42800
N  -12.07600 14.98100 41.14800
C  -12.69000 13.92700 41.70300
C  -11.86200 12.76300 41.90900
C  -10.58600 13.17700 41.50100
C  -10.77300 14.54500 41.10800
C  -12.34600 11.42900 42.28400
C  -9.19800 12.79100 41.27100
O  -8.64600 11.68000 41.34900
C  -8.50500 14.08900 40.70500
C  -7.32600 14.37400 41.53500
O  -7.28700 14.64200 42.77000
O  -6.19300 14.36500 40.68900
C  -4.85800 14.69200 41.29000
H  -10.78900 20.55600 38.72000
H  -16.74800 18.96100 41.03300
H  -14.70000 13.20500 42.15400
H  -7.64000 17.30800 40.35400
H  -8.80300 18.93800 38.12000
H  -7.66700 20.57600 39.22100
H  -7.14800 19.41800 40.40500
H  -8.78000 20.25100 40.65400
H  -8.47700 16.89200 37.60900
H  -7.83800 15.56300 38.44700
H  -5.82700 16.12500 38.16900
H  -5.77100 17.67600 38.75800
H  -13.32100 23.20200 39.44100
H  -12.80500 22.37400 37.91600
H  -11.74900 22.49200 39.30500
H  -17.59300 20.72600 40.09500
H  -17.66500 22.23500 41.06600
H  -16.78400 20.85400 41.72900
H  -17.51600 16.43300 40.82500
H  -16.71200 14.97300 43.13300
H  -18.64800 17.80300 42.63100
H  -17.03300 18.20300 43.09100
H  -17.89100 16.78800 43.79100
H  -16.60500 13.52400 40.70800
H  -18.14900 14.40700 40.88900
H  -18.73100 13.01200 42.64300
H  -17.17900 12.99500 43.40200
H  -17.56100 11.95200 41.98200
H  -11.62700 10.64300 42.05300
H  -13.33200 11.19600 41.88100
H  -12.47800 11.31300 43.36000
H  -8.11400 13.88800 39.70700
H  -4.50300 15.70600 41.10600
H  -4.12400 14.04000 40.81700
H  -4.75300 14.57600 42.36800

