158

Mg 26.26800 0.68400 28.89800
C  28.09000 0.61300 31.96100
C  23.46300 1.14300 30.72500
C  24.64500 1.09400 26.00200
C  29.21500 -0.16200 27.24900
N  25.85800 0.71400 31.15000
C  26.78300 0.91200 32.14200
C  26.04000 1.22700 33.46700
C  24.51800 1.38400 33.02500
C  24.62200 1.08900 31.51700
C  23.56200 0.49900 33.84600
C  26.65500 2.57500 34.03700
C  27.32000 2.47500 35.41500
H  26.87500 3.38500 36.50500
N  24.26200 0.97100 28.39800
C  23.20900 1.04400 29.32200
C  21.93700 1.18900 28.60200
C  22.34600 1.38800 27.21000
C  23.83700 1.21200 27.09800
C  20.66000 1.20500 29.31400
C  21.47300 1.68800 25.98500
O  21.94100 1.78300 24.84400
C  19.99200 1.79700 26.13000
N  26.86000 0.46200 26.92400
C  25.99400 0.76600 25.85000
C  26.69300 0.45500 24.44500
C  28.16500 0.11000 24.89100
C  28.12200 0.11200 26.44500
C  25.99300 -0.57900 23.63000
C  29.37200 0.89000 24.23500
C  29.78600 2.17300 24.98500
N  28.24900 0.22600 29.43500
C  29.31700 -0.03200 28.65100
C  30.50300 -0.30000 29.41900
C  30.05000 -0.01100 30.71900
C  28.67400 0.27400 30.71600
C  31.81600 -0.65400 28.84000
C  30.50800 0.25500 32.14000
O  31.62300 0.24500 32.55000
C  29.26000 0.62600 32.97300
C  29.09800 -0.52000 33.99900
O  28.92400 -1.68500 33.72200
O  29.20300 -0.09200 35.30600
C  29.01700 -1.11200 36.38300
H  22.47100 1.24900 31.16800
H  24.14000 1.19800 25.03900
H  30.11000 -0.48500 26.71400
H  26.12600 0.28100 34.00000
H  24.17000 2.40500 33.18000
H  23.32000 -0.43000 33.33100
H  22.64100 1.06400 33.98800
H  23.92600 0.16600 34.81800
H  25.81700 3.26900 34.09800
H  27.30500 2.96700 33.25500
H  28.39000 2.58600 35.24200
H  27.15700 1.45200 35.75300
H  20.38700 2.16900 29.74400
H  20.69000 0.42200 30.07100
H  19.82800 1.00000 28.63900
H  19.65800 2.52000 26.87500
H  19.63300 0.81300 26.43000
H  19.42500 2.07400 25.24200
H  26.65600 1.38900 23.88400
H  28.27900 -0.95600 24.69600
H  26.58200 -1.47600 23.43800
H  25.64400 -0.16500 22.68400
H  25.08600 -0.84100 24.17600
H  29.06400 1.10100 23.21200
H  30.16900 0.17900 24.45300
H  30.08200 2.84200 24.17700
H  30.71400 2.02300 25.53700
H  28.96000 2.52800 25.60200
H  31.82300 -1.47000 28.11700
H  32.44500 -1.05500 29.63500
H  32.29800 0.22900 28.42200
H  29.38500 1.60300 33.43900
H  29.66300 -0.84100 37.21900
H  29.09200 -2.13900 36.02500
H  27.99200 -1.06200 36.75000
Mg 47.97400 16.64400 28.80300
C  45.90500 16.17600 31.65100
C  50.02600 18.63600 30.83800
C  49.81300 17.32000 26.07400
C  45.66600 14.97900 26.86400
N  47.94400 17.34300 30.99000
C  47.09200 16.84900 31.97100
C  47.48300 17.39700 33.38900
C  48.74800 18.27600 32.99600
C  48.93700 18.14000 31.49600
C  48.71700 19.77800 33.34500
C  47.79400 16.28800 34.46400
C  47.24900 16.40900 35.86800
H  47.10400 17.86500 36.41100
N  49.63800 17.90800 28.45500
C  50.38800 18.57900 29.45300
C  51.59700 19.08500 28.87000
C  51.61400 18.69400 27.50200
C  50.33300 17.90400 27.30100
C  52.62100 19.88200 29.64000
C  52.65300 18.97400 26.48600
O  52.50200 18.65700 25.31100
C  53.94300 19.69100 26.81400
N  47.72500 16.24400 26.67800
C  48.64800 16.62600 25.78300
C  48.28700 16.10600 24.39700
C  47.13600 15.00500 24.68400
C  46.76500 15.44500 26.15000
C  47.99600 17.15600 23.23200
C  47.56400 13.54800 24.63800
C  46.47700 12.65800 24.04000
N  46.18700 15.71300 29.15500
C  45.37000 15.03600 28.23300
C  44.17900 14.56900 28.91700
C  44.33500 14.98000 30.22800
C  45.60700 15.61200 30.32800
C  43.10700 13.82000 28.32000
C  43.71500 14.95300 31.56700
O  42.69800 14.44700 31.97800
C  44.79800 15.65700 32.54700
C  44.05200 16.62300 33.36000
O  43.74300 17.75700 33.02800
O  43.94300 16.11500 34.57800
C  43.01300 16.96300 35.44700
H  50.74300 19.19800 31.44000
H  50.47200 17.50700 25.22300
H  44.95100 14.37700 26.29800
H  46.54000 17.89400 33.61400
H  49.62900 17.85300 33.47800
H  47.88600 19.90100 34.04000
H  48.46500 20.39000 32.47900
H  49.65400 20.08000 33.81400
H  48.86900 16.26700 34.64700
H  47.37200 15.40800 33.98000
H  47.91200 15.84500 36.52500
H  46.25100 15.97200 35.89600
H  52.92200 20.67500 28.95600
H  53.47600 19.23800 29.85000
H  52.13000 20.42200 30.45000
H  53.73900 20.76100 26.78900
H  54.60000 19.61500 25.94800
H  54.50100 19.39900 27.70400
H  49.13300 15.44500 24.20700
H  46.19000 15.26900 24.21300
H  46.98100 17.02500 22.85700
H  48.72000 17.07500 22.42000
H  48.09100 18.14300 23.68600
H  47.75600 13.19500 25.65100
H  48.44600 13.38800 24.01800
H  46.91900 11.69300 23.79200
H  46.04400 13.05600 23.12200
H  45.68800 12.51900 24.77900
H  42.31800 13.63700 29.04900
H  43.46000 12.89700 27.85900
H  42.49900 14.31800 27.56600
H  45.06500 14.75700 33.10100
H  42.04200 17.14900 34.98800
H  43.41200 17.96200 35.62600
H  42.89900 16.48500 36.42000

