158

Mg 1.25000 -2.60900 44.84400
C  4.39400 -1.47400 43.76300
C  -0.24300 -0.06900 43.02600
C  -1.75700 -4.02800 45.43800
C  2.77200 -5.32300 46.08900
N  2.04900 -1.03000 43.48700
C  3.39600 -0.71000 43.20600
C  3.49600 0.58900 42.41300
C  1.96400 1.03100 42.32600
C  1.18500 -0.11000 43.04400
C  1.72800 2.45700 42.79300
C  4.24900 0.37200 41.04700
C  5.48300 1.31800 40.85600
H  6.47200 1.21000 39.64400
N  -0.73300 -2.10300 44.28500
C  -1.13700 -1.01700 43.57800
C  -2.56100 -0.87800 43.56600
C  -2.99100 -2.01200 44.34000
C  -1.82800 -2.75900 44.72000
C  -3.36200 0.08900 42.78200
C  -4.47500 -2.34400 44.66800
O  -5.27600 -1.56500 44.20300
C  -4.95400 -3.57900 45.41900
N  0.55700 -4.43300 45.64500
C  -0.70600 -4.79700 45.85000
C  -0.87700 -6.28500 46.36500
C  0.58500 -6.61900 46.70100
C  1.35900 -5.40500 46.13000
C  -1.97800 -6.46300 47.50200
C  1.13700 -7.95000 46.06800
C  1.70100 -8.96000 47.15500
N  3.14200 -3.29100 45.00300
C  3.61700 -4.38500 45.56800
C  5.05900 -4.32400 45.61500
C  5.41200 -3.19400 44.93900
C  4.19700 -2.67000 44.51300
C  6.05600 -5.26200 46.34100
C  6.51500 -2.42500 44.48700
O  7.73500 -2.67000 44.74400
C  5.89900 -1.17400 43.69800
C  6.13000 0.11600 44.38000
O  5.27400 0.77900 44.96000
O  7.42800 0.41700 44.34900
C  7.89400 1.56200 45.16200
H  -0.72200 0.77000 42.51600
H  -2.71000 -4.52500 45.62900
H  3.26500 -6.23100 46.44100
H  4.05200 1.34600 42.96600
H  1.61000 1.07400 41.29600
H  2.65100 2.97700 43.04900
H  1.04600 2.40000 43.64200
H  1.22400 3.02400 42.01000
H  3.55600 0.62100 40.24300
H  4.53100 -0.68000 41.02000
H  6.12200 1.12400 41.71800
H  5.06300 2.31400 40.98900
H  -3.67800 -0.59600 41.99600
H  -2.74000 0.95400 42.54900
H  -4.25300 0.50600 43.25100
H  -4.75900 -4.53500 44.93300
H  -6.04200 -3.55600 45.46700
H  -4.66800 -3.62100 46.47000
H  -1.22800 -6.91800 45.55000
H  0.73200 -6.64400 47.78100
H  -2.13300 -5.51800 48.02200
H  -1.60000 -7.13700 48.27100
H  -2.88000 -6.92900 47.10400
H  1.97900 -7.84600 45.38400
H  0.30900 -8.42000 45.53700
H  2.76100 -9.08000 46.92900
H  1.20900 -9.92700 47.25200
H  1.65800 -8.63300 48.19400
H  5.66200 -6.26900 46.20300
H  6.01600 -5.02000 47.40300
H  7.03800 -5.28400 45.86800
H  6.24200 -1.18600 42.66400
H  8.93800 1.28500 45.30500
H  7.45000 1.57400 46.15800
H  7.90400 2.53100 44.66300
Mg 16.43500 -2.11900 28.26200
C  15.45900 0.06000 30.73900
C  18.21900 -4.01100 30.59800
C  17.74000 -4.00000 25.73100
C  15.02400 0.01600 25.84900
N  16.86200 -2.00100 30.34300
C  16.29300 -1.01400 31.13100
C  16.82300 -1.13500 32.57900
C  17.84200 -2.32300 32.47200
C  17.62800 -2.82000 31.00600
C  19.32300 -1.97300 32.65000
C  15.67800 -1.42700 33.57100
C  15.88800 -0.76900 34.96300
H  17.31500 -0.20900 35.34000
N  17.72100 -3.83800 28.22900
C  18.27800 -4.54500 29.26700
C  18.97600 -5.76700 28.82200
C  18.86900 -5.64500 27.36600
C  18.10100 -4.44500 27.01400
C  19.45500 -6.82000 29.77600
C  19.40500 -6.66100 26.37200
O  19.31900 -6.52300 25.14900
C  20.27800 -7.78900 26.83500
N  16.44600 -1.93700 26.08500
C  17.03800 -2.83600 25.35500
C  16.71100 -2.58300 23.83500
C  15.82300 -1.31000 23.85300
C  15.71500 -1.05000 25.32200
C  18.11700 -2.40400 23.13200
C  14.42100 -1.58000 23.11800
C  14.60900 -2.00600 21.66900
N  15.23500 -0.38100 28.24800
C  14.74100 0.38700 27.21600
C  14.11500 1.54700 27.83200
C  14.30600 1.41200 29.15900
C  15.05500 0.25800 29.37600
C  13.55400 2.70700 27.09200
C  14.04600 1.99600 30.50600
O  13.27000 2.91400 30.88500
C  14.84100 1.15400 31.60100
C  15.82500 2.07100 32.40400
O  16.86500 2.58800 32.00200
O  15.25800 2.44100 33.55600
C  15.93900 3.50200 34.27900
H  18.83700 -4.60400 31.27500
H  18.04400 -4.51300 24.81700
H  14.50700 0.53100 25.03600
H  17.36800 -0.24700 32.89700
H  17.55400 -3.14900 33.12300
H  19.92600 -2.22200 31.77700
H  19.71000 -2.45000 33.55000
H  19.48400 -0.92900 32.91900
H  15.53600 -2.50600 33.62500
H  14.77400 -1.00200 33.13600
H  15.53600 -1.47700 35.71300
H  15.25200 0.08500 35.19700
H  19.97200 -7.68800 29.36500
H  18.60100 -7.08000 30.40100
H  20.06800 -6.35600 30.54900
H  20.75400 -8.31000 26.00400
H  19.61000 -8.50900 27.30700
H  21.12400 -7.48500 27.45200
H  16.28900 -3.48900 23.40000
H  16.35000 -0.56000 23.26400
H  18.23800 -3.19000 22.38700
H  18.89100 -2.31400 23.89500
H  18.14400 -1.41600 22.67200
H  13.87200 -0.63900 23.16300
H  13.82100 -2.31400 23.65700
H  13.88500 -1.44100 21.08100
H  14.58000 -3.08400 21.51000
H  15.64600 -1.73600 21.47000
H  13.90500 3.64000 27.53200
H  12.47400 2.83100 27.00500
H  14.04000 2.85700 26.12800
H  14.02700 0.77800 32.22100
H  16.02700 4.30300 33.54500
H  16.88700 3.21200 34.73400
H  15.24900 3.78200 35.07500

