158

Mg 54.61900 23.94300 45.03400
C  52.11100 26.26500 44.20900
C  52.67700 21.45000 43.80600
C  57.48800 22.01800 45.08800
C  56.64400 26.80000 46.09400
N  52.72300 23.95500 43.96500
C  51.82700 24.91800 43.75400
C  50.58900 24.46400 42.94500
C  50.71500 22.94100 43.37500
C  52.13800 22.74700 43.74700
C  49.83700 22.60900 44.61800
C  50.64200 24.81100 41.44400
C  49.27300 25.26800 40.88900
H  48.94500 24.70500 39.48100
N  55.00100 22.00100 44.55800
C  54.02100 21.13300 44.10400
C  54.71100 19.79400 43.91600
C  56.08200 19.94400 44.31700
C  56.29600 21.37300 44.69800
C  54.05500 18.53800 43.36900
C  57.12600 18.87200 44.11100
O  56.82800 17.75100 43.65100
C  58.58100 19.02100 44.58700
N  56.77400 24.32200 45.68700
C  57.70700 23.34500 45.54200
C  59.09100 23.94500 45.75800
C  58.86400 25.36100 46.33700
C  57.36300 25.57800 45.98400
C  60.02000 23.14700 46.69600
C  59.94500 26.40600 45.98300
C  60.90500 26.97400 47.01900
N  54.35800 26.09900 45.24400
C  55.24500 27.09200 45.71000
C  54.59500 28.35900 45.71000
C  53.36100 28.08700 45.10300
C  53.28900 26.70000 44.83000
C  55.08100 29.62100 46.27100
C  52.10200 28.67900 44.71600
O  51.71900 29.85100 44.83100
C  51.35300 27.56300 43.97600
C  51.49100 27.90400 42.49900
O  52.60900 27.91200 41.95500
O  50.31100 28.38000 41.98700
C  50.36300 29.17500 40.81400
H  52.03400 20.60900 43.53600
H  58.38000 21.41900 44.89100
H  57.20900 27.64300 46.49500
H  49.75400 25.02900 43.35800
H  50.43700 22.22600 42.59900
H  49.14500 23.39200 44.92900
H  50.58500 22.49600 45.40300
H  49.39500 21.62800 44.44500
H  51.03100 23.92200 40.94900
H  51.40500 25.58700 41.38700
H  49.20900 26.35500 40.84100
H  48.49400 24.98500 41.59700
H  54.20800 17.80600 44.16200
H  54.52400 17.94800 42.58200
H  52.98200 18.64400 43.21100
H  59.18700 19.65300 43.93800
H  59.02800 18.02700 44.61100
H  58.75100 19.42700 45.58400
H  59.46400 23.94400 44.73400
H  58.72800 25.37300 47.41800
H  60.54200 23.85300 47.34200
H  60.69000 22.44200 46.20400
H  59.40600 22.54400 47.36600
H  59.54800 27.26900 45.44700
H  60.66300 25.95300 45.29900
H  61.83000 26.48500 47.32400
H  60.23500 27.06300 47.87500
H  61.24700 27.96800 46.73100
H  54.19300 30.24800 46.34900
H  55.81800 30.14300 45.66100
H  55.64800 29.66400 47.20100
H  50.35400 27.56200 44.41300
H  51.36500 29.58400 40.68800
H  49.78700 30.06700 41.05800
H  49.89800 28.62500 39.99600
Mg 47.26900 25.21100 28.60900
C  48.34200 27.23600 31.07800
C  46.39100 22.83900 31.04500
C  46.42500 23.07900 26.14800
C  48.34600 27.49600 26.25000
N  47.30300 25.07400 30.74600
C  47.68800 26.08300 31.63200
C  47.38100 25.82600 33.08600
C  46.85500 24.36100 33.06900
C  46.88200 24.00500 31.56800
C  47.65700 23.28900 33.87600
C  46.36200 26.83200 33.67100
C  46.72000 27.61500 34.97800
H  45.95100 27.46300 36.26800
N  46.58300 23.24100 28.54400
C  46.31300 22.42100 29.66600
C  45.95100 21.11900 29.24800
C  45.82000 21.17000 27.77900
C  46.30900 22.53300 27.45300
C  45.64900 19.96300 30.15300
C  45.31200 20.07400 26.77900
O  45.40100 20.16500 25.54300
C  44.69000 18.79800 27.27300
N  47.39000 25.21300 26.45000
C  47.00900 24.24200 25.68900
C  47.05700 24.68400 24.22700
C  47.88500 25.96700 24.27800
C  47.84000 26.30800 25.72300
C  47.73000 23.65200 23.25900
C  47.29100 27.08200 23.33300
C  48.34000 27.69100 22.41200
N  48.09900 27.03400 28.61000
C  48.54100 27.88000 27.60000
C  49.20800 29.03100 28.17400
C  49.15700 28.90400 29.58100
C  48.51200 27.64800 29.77600
C  49.90400 30.03500 27.29200
C  49.41900 29.47100 30.87700
O  50.05700 30.48700 31.16500
C  48.99200 28.35000 31.90600
C  50.05300 27.98400 32.87600
O  50.76300 26.96500 32.79300
O  50.02800 28.94100 33.89600
C  50.92500 28.61600 34.99800
H  46.15400 22.12200 31.83300
H  46.16500 22.54200 25.23300
H  48.67100 28.23100 25.51100
H  48.34300 25.91900 33.58900
H  45.82900 24.28800 33.43000
H  47.97200 22.42200 33.29500
H  47.21500 22.88800 34.78800
H  48.63600 23.74100 34.03100
H  45.43400 26.28600 33.83900
H  46.04300 27.54900 32.91400
H  46.64700 28.67600 34.73800
H  47.74300 27.28000 35.15100
H  44.57400 19.78100 30.15700
H  46.07000 20.08700 31.15000
H  46.16900 19.13400 29.67200
H  44.18600 18.92900 28.23100
H  45.59400 18.20000 27.39000
H  44.11900 18.20100 26.56100
H  46.03800 24.82500 23.86900
H  48.93700 25.84100 24.02100
H  48.31200 22.92100 23.82100
H  48.34700 24.24600 22.58600
H  47.05400 23.29600 22.48200
H  46.73900 27.82700 23.90700
H  46.62800 26.64400 22.58800
H  48.46500 27.38900 21.37200
H  49.33700 27.36600 22.70900
H  48.26000 28.75900 22.61500
H  49.62900 29.88900 26.24800
H  50.98900 29.92600 27.28100
H  49.65900 31.05300 27.59700
H  48.14400 28.76400 32.45200
H  50.96800 27.55900 35.25700
H  50.75500 29.21600 35.89200
H  51.93200 28.89300 34.68600

