158

Mg -3.00500 17.42600 27.77200
C  -3.63800 15.17000 30.42600
C  -3.42500 20.04200 29.86600
C  -2.85400 19.41900 25.14600
C  -3.11600 14.62500 25.59200
N  -3.39400 17.53500 29.89100
C  -3.44000 16.48000 30.84000
C  -3.65200 17.12500 32.24800
C  -3.89400 18.65700 31.92200
C  -3.55200 18.78400 30.43000
C  -5.27200 19.30200 32.28200
C  -2.39700 16.82200 33.16200
C  -2.28300 17.56300 34.55600
H  -2.25900 16.76000 35.82000
N  -2.93400 19.48400 27.57300
C  -3.20300 20.39600 28.51300
C  -2.93900 21.69400 27.95700
C  -2.62800 21.53200 26.57400
C  -2.86300 20.08000 26.34300
C  -3.02800 22.87500 28.79400
C  -2.10200 22.49800 25.61400
O  -1.91100 22.24000 24.40900
C  -1.62900 23.77800 26.00200
N  -2.99300 17.07600 25.65500
C  -2.91300 18.07400 24.79300
C  -2.88000 17.64400 23.34500
C  -2.92800 16.09300 23.45700
C  -3.00500 15.89900 24.99100
C  -4.05500 18.16800 22.45900
C  -1.81500 15.29800 22.72800
C  -0.46700 15.24500 23.42100
N  -3.33200 15.32000 27.87400
C  -3.40000 14.35100 26.94600
C  -3.86300 13.12200 27.59900
C  -3.96000 13.37500 28.91900
C  -3.57800 14.70400 29.06900
C  -4.10300 11.80500 26.83600
C  -4.30600 12.77000 30.21800
O  -4.70100 11.65200 30.50900
C  -4.04800 13.92700 31.27800
C  -3.01200 13.32000 32.19500
O  -1.74700 13.36700 32.04200
O  -3.62000 12.69600 33.28200
C  -2.79100 12.12100 34.29500
H  -3.43500 20.91300 30.52400
H  -2.83500 20.05800 24.26000
H  -3.09300 13.74600 24.94400
H  -4.55800 16.73900 32.71500
H  -3.13200 19.29000 32.37800
H  -5.17500 20.00200 33.11200
H  -6.08400 18.62900 32.55900
H  -5.67800 20.02500 31.57400
H  -1.47700 16.91900 32.58600
H  -2.51100 15.74800 33.31200
H  -3.09100 18.28900 34.65400
H  -1.41800 18.22500 34.55600
H  -2.97900 23.75500 28.15200
H  -2.18300 22.82400 29.48000
H  -3.94200 22.94500 29.38500
H  -0.90000 23.50600 26.76500
H  -2.37800 24.54400 26.20400
H  -0.98800 24.20300 25.23000
H  -1.93900 18.00100 22.92500
H  -3.94900 15.82500 23.18500
H  -4.88300 18.53000 23.06800
H  -4.37000 17.44500 21.70700
H  -3.54400 19.00300 21.97700
H  -1.70800 15.73900 21.73600
H  -2.09700 14.27500 22.47600
H  -0.44500 15.65200 24.43300
H  0.26700 15.81200 22.84800
H  -0.09100 14.22500 23.50200
H  -3.19700 11.22300 27.00600
H  -4.25400 12.11900 25.80300
H  -5.01700 11.33600 27.20000
H  -4.98100 14.09500 31.81500
H  -3.21900 11.17900 34.64000
H  -2.80500 12.82200 35.13000
H  -1.77300 11.89900 33.97700
Mg 1.48000 -1.75400 44.79600
C  4.77900 -0.88200 44.30600
C  0.45000 1.35400 43.82300
C  -1.66600 -3.04300 44.55900
C  2.65200 -5.07200 45.40700
N  2.50700 0.06900 44.34200
C  3.85500 0.16200 44.11900
C  4.17300 1.57700 43.52000
C  2.79600 2.36100 43.73900
C  1.83500 1.18400 43.94900
C  2.69100 3.28000 44.93200
C  4.59300 1.41500 42.03600
C  5.97900 1.98500 41.68500
H  6.52000 1.64800 40.27500
N  -0.30300 -0.96700 44.17500
C  -0.55400 0.37800 43.89700
C  -2.01700 0.54200 43.76800
C  -2.59700 -0.74500 43.88600
C  -1.47400 -1.70000 44.16200
C  -2.69100 1.88600 43.33500
C  -4.11200 -1.00900 43.87100
O  -4.89900 -0.07100 43.77400
C  -4.73300 -2.45000 43.87600
N  0.58100 -3.77300 44.99600
C  -0.73700 -4.04900 44.92800
C  -1.10000 -5.50700 45.39400
C  0.33900 -6.06300 45.74100
C  1.27500 -4.88600 45.32800
C  -2.17300 -5.67600 46.51500
C  0.74400 -7.42000 45.11700
C  1.16800 -8.52500 46.12100
N  3.30000 -2.81100 44.96400
C  3.62400 -4.11300 45.28800
C  5.07700 -4.20800 45.40800
C  5.54900 -2.97200 45.00500
C  4.45000 -2.14800 44.72400
C  5.76200 -5.43100 45.86500
C  6.75400 -2.21100 44.86100
O  7.90500 -2.54700 45.05500
C  6.27500 -0.75600 44.30100
C  6.57600 0.36200 45.28800
O  6.01300 0.43800 46.37900
O  7.52500 1.24800 44.87000
C  7.66700 2.49500 45.74000
H  0.05000 2.33800 43.56700
H  -2.70500 -3.37700 44.51500
H  3.02000 -6.07800 45.61700
H  4.88300 2.19400 44.07200
H  2.45800 2.90200 42.85500
H  2.56100 2.69800 45.84400
H  1.94200 4.06400 44.82200
H  3.62300 3.80100 45.15000
H  3.87500 1.93600 41.40300
H  4.52800 0.39000 41.67100
H  6.75100 1.68000 42.39200
H  5.99200 3.07400 41.74200
H  -3.22900 1.82600 42.38900
H  -1.88900 2.62300 43.37500
H  -3.40000 2.12800 44.12700
H  -5.79200 -2.39200 43.62500
H  -4.60800 -2.78800 44.90500
H  -4.19800 -3.00300 43.10400
H  -1.48900 -5.99900 44.50300
H  0.37200 -6.07000 46.83100
H  -3.00200 -6.27200 46.13300
H  -2.67800 -4.74000 46.75400
H  -1.76400 -6.29200 47.31500
H  1.46300 -7.31100 44.30500
H  -0.19300 -7.75900 44.67400
H  2.23500 -8.71900 46.01000
H  0.72000 -9.51500 46.04100
H  1.09600 -8.23800 47.17000
H  5.58000 -5.59600 46.92700
H  6.83600 -5.29500 45.73800
H  5.43700 -6.34800 45.37300
H  6.70800 -0.52500 43.32700
H  8.37400 3.23900 45.37400
H  7.92500 2.29000 46.77900
H  6.66900 2.92900 45.79800

