158

Mg -1.95500 17.22400 25.33300
C  -2.59800 15.10400 28.15200
C  -3.04000 19.83200 27.19200
C  -2.30700 19.00200 22.46000
C  -1.37100 14.41200 23.35600
N  -2.77600 17.33400 27.41500
C  -2.84100 16.46300 28.42800
C  -3.19100 17.19000 29.74300
C  -3.66700 18.62300 29.28700
C  -3.11000 18.60500 27.86000
C  -5.19500 18.89100 29.34300
C  -2.10900 17.29900 30.92400
C  -2.77500 17.35000 32.30900
H  -2.42800 16.22200 33.31500
N  -2.29000 19.13200 24.86500
C  -2.66500 20.09500 25.80200
C  -2.51300 21.41400 25.18400
C  -2.36200 21.16200 23.84600
C  -2.34500 19.71700 23.66000
C  -2.59900 22.66300 26.00700
C  -2.18100 22.18900 22.68500
O  -2.17600 21.87000 21.50500
C  -2.06300 23.64400 23.03500
N  -1.93400 16.73800 23.21100
C  -2.22400 17.60600 22.23700
C  -2.04800 16.97200 20.85300
C  -1.33600 15.63400 21.18200
C  -1.46200 15.57200 22.70700
C  -3.39200 16.96500 20.06900
C  0.12100 15.32400 20.72800
C  1.26300 15.46600 21.75300
N  -2.03400 15.22200 25.63400
C  -1.62200 14.19200 24.75400
C  -1.57500 12.96000 25.52400
C  -1.97700 13.30400 26.75300
C  -2.21100 14.67900 26.86200
C  -1.37000 11.59100 25.05000
C  -2.21400 12.71400 28.02300
O  -2.18500 11.54300 28.38800
C  -2.74300 13.85600 28.94900
C  -1.82200 13.65600 30.13900
O  -0.61500 14.04800 30.24700
O  -2.47400 12.93400 31.08000
C  -1.77200 12.67400 32.37300
H  -3.46600 20.69200 27.71300
H  -2.24800 19.43000 21.45700
H  -1.16300 13.67600 22.57700
H  -4.07400 16.66700 30.10800
H  -3.24000 19.32800 30.00000
H  -5.32800 19.63900 30.12400
H  -5.62600 17.94800 29.68000
H  -5.57900 19.23400 28.38200
H  -1.57300 18.24600 30.98700
H  -1.41000 16.46300 30.89400
H  -3.85900 17.33800 32.19500
H  -2.47100 18.28500 32.77800
H  -2.64300 22.49200 27.08300
H  -3.40200 23.28600 25.61400
H  -1.64600 23.16200 25.82800
H  -1.13700 23.71900 23.60500
H  -2.86400 23.98500 23.69100
H  -1.85200 24.33700 22.22000
H  -1.35200 17.59100 20.28700
H  -1.93600 14.81200 20.79100
H  -4.01200 17.72400 20.54600
H  -3.85600 15.97900 20.04400
H  -3.13100 17.24800 19.04900
H  0.35200 16.07000 19.96700
H  0.20500 14.31300 20.33100
H  0.93300 16.12900 22.55300
H  2.11900 16.00000 21.34200
H  1.42900 14.52400 22.27600
H  -1.41400 11.66700 23.96400
H  -2.27000 11.15400 25.48400
H  -0.41900 11.14500 25.34100
H  -3.72800 13.45800 29.19200
H  -1.27500 11.71700 32.20900
H  -2.54600 12.63300 33.13900
H  -0.92200 13.29000 32.66600
Mg 41.17600 40.34400 26.86700
C  40.53100 42.96000 29.18200
C  42.01900 38.29600 29.66300
C  42.06900 38.16300 24.61200
C  40.92600 42.87200 24.24900
N  41.17400 40.55100 29.13300
C  40.83400 41.70400 29.84300
C  40.76500 41.35800 31.39000
C  41.34000 39.87800 31.53700
C  41.54800 39.51900 30.05400
C  42.51600 39.65900 32.46500
C  39.28400 41.51900 32.08400
C  39.01000 40.89400 33.48200
H  38.72000 42.00300 34.59300
N  41.95900 38.43300 27.12900
C  42.16600 37.74800 28.32900
C  42.53700 36.40500 27.94300
C  42.51300 36.34500 26.47300
C  42.19300 37.70600 26.00600
C  42.95600 35.35700 29.00800
C  42.94900 35.28700 25.53900
O  43.02200 35.31100 24.31500
C  43.09700 33.89200 26.11400
N  41.52700 40.55100 24.74200
C  41.73800 39.36900 24.03400
C  41.56700 39.56700 22.49000
C  41.01500 41.03300 22.47500
C  41.18800 41.52100 23.89000
C  42.84700 39.38900 21.61900
C  39.56600 41.21500 21.87600
C  38.28800 41.24600 22.76700
N  40.85100 42.50000 26.74500
C  40.70700 43.31900 25.60200
C  40.40100 44.67600 26.04000
C  40.34700 44.58900 27.44500
C  40.68600 43.25900 27.81700
C  40.23000 45.86100 25.14300
C  40.00400 45.31700 28.64500
O  39.63200 46.42200 28.80600
C  40.14900 44.28100 29.87400
C  41.19500 44.74400 30.83400
O  42.30700 44.99300 30.44900
O  40.73300 44.65900 32.15200
C  41.84300 44.50300 33.07600
H  42.22100 37.62600 30.50200
H  42.31100 37.53100 23.75500
H  40.83000 43.52100 23.37600
H  41.42100 42.05500 31.91000
H  40.52600 39.21800 31.83500
H  43.38300 39.26300 31.93600
H  42.19800 38.99200 33.26700
H  42.87700 40.64900 32.74300
H  38.58500 41.05700 31.38600
H  39.01800 42.57100 31.98400
H  39.89700 40.33000 33.77000
H  38.15700 40.22100 33.39500
H  43.88100 34.83000 28.77300
H  42.16300 34.63800 29.21300
H  43.30100 35.93000 29.86900
H  43.91100 33.93900 26.83700
H  43.24100 33.12400 25.35400
H  42.13500 33.80900 26.62100
H  40.79600 38.87000 22.16100
H  41.69100 41.69000 21.92600
H  43.11600 40.30400 21.09100
H  42.74100 38.66200 20.81300
H  43.70400 39.02000 22.18200
H  39.37200 40.38400 21.19700
H  39.55200 42.02900 21.15200
H  37.60800 40.43200 22.51400
H  37.92200 42.25900 22.60000
H  38.57500 41.12000 23.81100
H  39.81000 46.69800 25.70000
H  39.51100 45.69300 24.34100
H  41.18100 46.21700 24.74600
H  39.15700 44.26600 30.32600
H  42.76700 44.19900 32.58400
H  41.66300 43.78700 33.87800
H  42.02200 45.45000 33.58400

