158

Mg 25.30000 1.51500 29.63000
C  27.61100 1.42900 32.27200
C  22.87500 1.50000 31.83400
C  23.21100 1.27500 27.00100
C  28.00500 0.73100 27.47500
N  25.29900 1.29900 31.91600
C  26.31400 1.60100 32.73500
C  25.82100 1.95200 34.16300
C  24.32500 2.06600 33.92900
C  24.10500 1.51600 32.50600
C  23.44200 1.36600 34.99000
C  26.31600 3.26000 34.86700
C  26.61400 3.18300 36.37200
H  26.04300 4.18200 37.36700
N  23.27700 1.30600 29.44100
C  22.39400 1.39600 30.48000
C  21.05100 1.44600 29.92400
C  21.15000 1.50300 28.56700
C  22.60400 1.36800 28.27300
C  19.82600 1.40800 30.89100
C  20.07400 1.56600 27.55400
O  20.35000 1.41200 26.34300
C  18.64000 1.73900 27.98300
N  25.58000 0.99500 27.54500
C  24.59300 1.13100 26.66500
C  25.06600 1.13500 25.26300
C  26.60800 1.09900 25.40200
C  26.75900 0.97400 26.91500
C  24.40900 0.03700 24.37600
C  27.30800 2.38700 24.79900
C  27.11000 3.64800 25.67100
N  27.40500 1.12500 29.80200
C  28.36300 0.78800 28.88300
C  29.67400 0.66000 29.42200
C  29.44000 0.93500 30.78400
C  28.04400 1.16700 30.94700
C  30.96800 0.30900 28.76000
C  30.03000 1.06200 32.12000
O  31.21300 0.94400 32.52200
C  28.85700 1.51300 33.13600
C  28.86700 0.59400 34.22700
O  28.72400 -0.62500 34.20000
O  29.14600 1.33200 35.38000
C  29.35000 0.59100 36.61200
H  22.11200 1.75900 32.57100
H  22.60000 1.34200 26.09900
H  28.87100 0.68000 26.81100
H  25.97200 1.07400 34.79100
H  24.08800 3.13000 33.91400
H  23.97600 1.38700 35.94000
H  23.15000 0.33500 34.79200
H  22.51900 1.90000 35.21600
H  25.65300 4.11400 34.73200
H  27.20400 3.57500 34.31900
H  27.68100 3.31100 36.55900
H  26.42000 2.20000 36.80200
H  19.10300 2.20400 30.71000
H  20.07100 1.37700 31.95200
H  19.43700 0.42500 30.62500
H  18.43800 0.81700 28.52700
H  18.06200 1.91400 27.07500
H  18.56000 2.55300 28.70300
H  24.83800 2.07500 24.76200
H  26.99200 0.18300 24.95200
H  23.59200 -0.42700 24.92800
H  25.13200 -0.75200 24.17000
H  23.98200 0.47000 23.47200
H  26.79500 2.49600 23.84300
H  28.36000 2.12900 24.67600
H  28.06300 4.06200 25.99900
H  26.51400 3.54800 26.57800
H  26.59100 4.45100 25.14800
H  31.01800 0.44900 27.68000
H  31.12200 -0.73900 29.01900
H  31.74200 0.88800 29.26400
H  29.08500 2.49700 33.54600
H  30.07800 1.21400 37.13200
H  29.49200 -0.48200 36.48300
H  28.40200 0.74100 37.13000
Mg 29.28300 57.77600 39.87700
C  26.52300 55.91300 38.91700
C  31.34800 55.52800 38.36400
C  31.86900 60.03100 39.94800
C  27.12700 60.29100 40.80200
N  28.94600 55.96400 38.55100
C  27.71900 55.30700 38.50200
C  27.88600 53.88100 37.89300
C  29.47000 53.65900 38.05200
C  29.96600 55.15200 38.34900
C  29.83000 52.78000 39.22900
C  27.26000 53.67400 36.50100
C  26.75800 54.92500 35.65500
H  26.87700 54.72500 34.11200
N  31.42800 57.69800 39.34400
C  32.03100 56.64600 38.72100
C  33.36300 56.92900 38.48800
C  33.59900 58.26600 38.95200
C  32.26600 58.80200 39.43900
C  34.31600 55.94200 37.93200
C  34.91400 59.09400 38.85300
O  35.95800 58.59700 38.42300
C  35.21800 60.51400 39.17000
N  29.55000 59.81700 40.38000
C  30.68400 60.52300 40.42400
C  30.57700 61.90700 40.99000
C  29.02500 61.91200 41.44000
C  28.52800 60.56800 40.89800
C  31.45700 62.31200 42.20800
C  28.29200 63.23700 41.05700
C  27.39100 63.96200 42.14800
N  27.24800 58.11700 39.81800
C  26.54400 59.12600 40.31200
C  25.11400 58.78000 40.32800
C  25.07200 57.51500 39.82400
C  26.40100 57.15400 39.43700
C  23.89900 59.52700 40.87200
C  24.19200 56.42000 39.31700
O  22.97000 56.38200 39.27900
C  25.09600 55.27700 38.86200
C  24.88700 54.09700 39.61100
O  25.47400 53.68800 40.63500
O  23.92200 53.33700 38.91200
C  23.33900 52.18400 39.53800
H  32.02700 54.69000 38.19500
H  32.66000 60.78000 39.87400
H  26.44500 61.10700 41.05000
H  27.35700 53.19700 38.55700
H  29.97700 53.30900 37.15300
H  28.91400 52.30600 39.58400
H  30.19700 53.42200 40.02900
H  30.54500 52.07200 38.80900
H  26.38600 53.03300 36.61600
H  27.88300 53.05700 35.85300
H  27.34200 55.78200 35.99100
H  25.68700 55.03300 35.82500
H  33.98600 54.93500 38.18900
H  35.26400 56.07600 38.45300
H  34.44900 55.91200 36.85000
H  36.29600 60.66200 39.24200
H  34.80300 60.64400 40.17000
H  34.86200 61.24800 38.44800
H  30.80300 62.58100 40.16400
H  29.08400 61.83000 42.52500
H  32.03000 61.49400 42.64600
H  30.88400 62.87200 42.94700
H  32.19900 63.07300 41.96600
H  27.64400 63.06000 40.19900
H  29.18600 63.83300 40.87300
H  27.28200 63.27700 42.98800
H  26.39800 64.17000 41.74700
H  27.86300 64.84800 42.57300
H  23.95100 59.73100 41.94200
H  23.01900 58.93800 40.61200
H  23.82900 60.50500 40.39700
H  24.79000 55.00600 37.85100
H  22.32600 51.99900 39.17900
H  23.22000 52.49500 40.57600
H  23.89700 51.25900 39.39500

