158

Mg 41.40700 8.15400 29.17900
C  43.32600 9.66500 31.67800
C  39.38700 6.80700 31.64300
C  39.58300 6.61800 26.73800
C  43.94200 8.99600 26.81900
N  41.40600 8.07500 31.36900
C  42.12300 8.95600 32.14600
C  41.63700 9.01300 33.57600
C  40.62900 7.89600 33.57700
C  40.41900 7.58800 32.08000
C  40.88300 6.67600 34.38200
C  41.13000 10.37200 34.06000
C  40.38800 10.31800 35.46900
H  41.00300 10.99000 36.66200
N  39.68100 7.06400 29.16900
C  38.99200 6.55400 30.28100
C  37.69000 6.02300 29.84500
C  37.67400 6.09300 28.45100
C  39.01700 6.65300 28.00900
C  36.70700 5.43400 30.80000
C  36.51600 5.77700 27.44600
O  36.62200 5.71300 26.22800
C  35.14500 5.60000 28.04900
N  41.83600 7.56400 27.14100
C  40.86100 7.05700 26.31700
C  41.43500 6.84500 24.89500
C  42.54700 7.94900 24.89400
C  42.84000 8.22100 26.40100
C  41.92900 5.40100 24.64200
C  42.11100 9.24600 24.11000
C  41.28400 10.35800 24.84400
N  43.24700 9.16300 29.16800
C  44.17400 9.46500 28.13400
C  45.13900 10.29500 28.66700
C  44.84100 10.42500 30.02800
C  43.69400 9.72300 30.31200
C  46.31000 10.87000 27.86900
C  45.31300 11.02200 31.25700
O  46.18600 11.82300 31.51000
C  44.31900 10.47200 32.38900
C  45.00200 9.76200 33.47300
O  45.40300 8.60300 33.46800
O  45.12100 10.62700 34.46300
C  45.41500 9.93800 35.73300
H  38.72700 6.54200 32.47200
H  39.00000 6.07200 25.99300
H  44.54100 9.32800 25.96900
H  42.45500 8.79700 34.26400
H  39.67800 8.27900 33.94800
H  40.59300 5.75400 33.87700
H  40.23300 6.70000 35.25600
H  41.86200 6.55100 34.84500
H  40.52100 10.84500 33.29000
H  41.97800 11.01000 34.30900
H  39.94700 9.35700 35.73500
H  39.55700 11.00900 35.32800
H  35.96600 6.09100 31.25700
H  37.37300 5.04600 31.57100
H  36.22400 4.53800 30.41100
H  35.13100 4.59600 28.47400
H  34.43900 5.49500 27.22500
H  34.73400 6.37400 28.69700
H  40.73000 7.21900 24.15300
H  43.47800 7.57200 24.47200
H  41.98300 5.30400 23.55800
H  41.23300 4.62600 24.96500
H  42.92200 5.21100 25.04900
H  41.64000 9.00200 23.15800
H  43.05600 9.74000 23.88500
H  40.46200 10.66600 24.19800
H  41.93900 11.21100 25.02200
H  40.97700 9.89800 25.78300
H  46.41400 11.94800 27.99700
H  46.15900 10.65300 26.81200
H  47.19300 10.32600 28.20500
H  43.71500 11.26600 32.82900
H  46.12300 9.11100 35.69200
H  44.46400 9.64100 36.17600
H  45.75300 10.65300 36.48200
Mg 9.05600 47.02000 25.04100
C  6.99600 47.07100 27.90000
C  11.62400 48.28000 26.92700
C  10.87000 47.42500 22.25500
C  6.04900 47.02000 23.01400
N  9.26500 47.62000 27.18300
C  8.34800 47.40900 28.15600
C  8.95700 47.80200 29.51300
C  10.18500 48.62000 29.07500
C  10.43600 48.09100 27.67300
C  9.89300 50.13800 29.06100
C  9.25800 46.53200 30.37300
C  9.59500 46.76100 31.83000
H  9.00200 45.69400 32.78400
N  11.08800 47.48200 24.70900
C  11.97700 47.96000 25.60900
C  13.27900 48.02000 24.94400
C  13.13000 47.59300 23.55900
C  11.63600 47.47300 23.42200
C  14.63000 48.40600 25.65400
C  14.14200 47.42500 22.54400
O  13.85600 47.16400 21.38900
C  15.63900 47.69500 22.76600
N  8.48600 47.23100 22.92900
C  9.48700 47.44000 22.04700
C  8.88800 47.68100 20.68100
C  7.36200 47.35900 20.88000
C  7.25400 47.21200 22.38600
C  9.06500 49.18900 20.29500
C  6.76800 46.15400 20.20500
C  5.66700 46.42900 19.19700
N  6.93800 46.98300 25.35400
C  5.87300 46.95500 24.46600
C  4.65100 46.73200 25.27100
C  4.98500 46.77000 26.63600
C  6.42700 46.83400 26.64400
C  3.25000 46.87600 24.68400
C  4.51200 46.75800 28.06200
O  3.40100 46.95600 28.56500
C  5.90000 46.94600 28.89300
C  5.97900 45.69700 29.70000
O  6.33600 44.58300 29.26000
O  5.34700 45.91300 30.91600
C  5.27900 44.75000 31.74700
H  12.34800 48.74000 27.60300
H  11.43600 47.56600 21.33300
H  5.10400 47.21700 22.50300
H  8.23900 48.41400 30.06000
H  11.08200 48.35600 29.63500
H  10.13000 50.67700 29.97800
H  8.84200 50.35800 28.87300
H  10.57300 50.61500 28.35500
H  10.20600 46.21800 29.93800
H  8.47900 45.80600 30.13500
H  9.33600 47.73600 32.24300
H  10.67400 46.65800 31.93900
H  14.39800 48.50900 26.71400
H  14.79900 49.42900 25.31700
H  15.41800 47.68800 25.42800
H  15.93900 48.53700 23.38900
H  16.10300 47.84300 21.79000
H  15.87700 46.74100 23.23800
H  9.39500 47.09200 19.91600
H  6.71600 48.21600 20.69000
H  9.37200 49.65600 21.23100
H  8.23100 49.78100 19.91900
H  9.91900 49.29100 19.62600
H  6.25000 45.50000 20.90600
H  7.55500 45.64100 19.65200
H  5.44600 47.47900 19.00700
H  4.76200 45.91000 19.51200
H  6.02300 46.17000 18.20000
H  2.74800 47.82200 24.89000
H  2.66400 46.13900 25.23300
H  3.22700 46.55500 23.64300
H  5.68800 47.81900 29.51100
H  6.20400 44.18100 31.84800
H  4.46700 44.13700 31.35600
H  4.95900 45.00900 32.75600

