158

Mg 17.30200 -2.02700 28.60400
C  16.40100 0.25100 30.98900
C  19.29900 -3.60700 30.91800
C  18.48500 -4.09200 26.09400
C  15.80900 -0.09700 26.17900
N  17.94600 -1.66600 30.65600
C  17.22700 -0.76100 31.49900
C  17.69100 -0.86700 32.94400
C  18.90200 -1.85400 32.81600
C  18.70500 -2.41400 31.37500
C  20.32700 -1.35500 33.10100
C  16.45600 -1.33900 33.78100
C  16.24100 -0.68200 35.11900
H  17.54300 -0.29700 35.85500
N  18.54300 -3.72500 28.59600
C  19.27800 -4.24600 29.65800
C  20.02100 -5.48000 29.23800
C  19.66600 -5.58200 27.81900
C  18.88600 -4.42600 27.46000
C  20.79400 -6.38800 30.10000
C  20.08000 -6.68100 26.80700
O  19.65800 -6.71300 25.68000
C  20.96000 -7.82900 27.41700
N  16.90500 -2.27800 26.46400
C  17.64800 -3.09200 25.65300
C  17.35500 -2.65600 24.20800
C  16.40100 -1.44900 24.26300
C  16.39900 -1.27300 25.73100
C  18.71600 -2.14800 23.49900
C  14.92400 -1.79400 23.64000
C  13.88500 -2.38900 24.63600
N  16.32200 -0.29100 28.53300
C  15.69500 0.29800 27.48700
C  14.97700 1.51700 27.95100
C  15.23500 1.53600 29.30600
C  16.05000 0.38900 29.61200
C  14.21300 2.42700 27.08900
C  14.99500 2.22300 30.59400
O  14.32600 3.20000 30.85400
C  15.80500 1.45800 31.69500
C  16.54100 2.44000 32.61800
O  17.38500 3.17100 32.19600
O  16.01200 2.46200 33.87700
C  16.59100 3.58200 34.64500
H  19.96300 -4.16500 31.58200
H  18.93700 -4.61600 25.24900
H  15.35100 0.48400 25.37600
H  18.01400 0.11200 33.30000
H  18.76300 -2.63700 33.56100
H  20.60100 -2.01400 33.92500
H  20.22900 -0.33000 33.45700
H  21.00500 -1.38500 32.24800
H  16.69800 -2.38800 33.95100
H  15.49300 -1.32400 33.27100
H  15.81900 -1.47300 35.73900
H  15.49100 0.10800 35.08500
H  21.76200 -6.47200 29.60500
H  20.19400 -7.27800 30.29000
H  21.08900 -6.03200 31.08700
H  21.90800 -7.33900 27.63900
H  21.07900 -8.57700 26.63200
H  20.70900 -8.26900 28.38200
H  17.05600 -3.49300 23.57800
H  16.82100 -0.59300 23.73500
H  19.49000 -1.94200 24.23800
H  18.53800 -1.22100 22.95500
H  19.25600 -2.91300 22.94100
H  14.94700 -2.63500 22.94800
H  14.40000 -0.96200 23.16900
H  13.13200 -1.61000 24.75700
H  14.34500 -2.65200 25.58900
H  13.41000 -3.31500 24.31100
H  13.78900 1.86100 26.26000
H  14.80900 3.18200 26.57600
H  13.49000 2.99900 27.67100
H  15.05400 1.06800 32.38200
H  16.78500 4.47900 34.05600
H  17.48300 3.22800 35.16200
H  15.87200 3.75800 35.44400
Mg 54.06900 23.99500 44.06600
C  51.38400 26.18100 43.25600
C  52.15000 21.39500 42.82900
C  56.77000 22.15800 43.90300
C  55.69400 26.71700 45.45400
N  52.17400 23.92400 42.88000
C  51.25900 24.86700 42.69800
C  50.05100 24.31100 41.92300
C  50.08100 22.77500 42.27700
C  51.53400 22.67500 42.75400
C  49.00700 22.07300 43.10000
C  50.01100 24.67800 40.39500
C  51.35300 24.89500 39.57400
H  51.22900 25.85600 38.42500
N  54.35000 21.99100 43.67700
C  53.43000 21.09100 43.20000
C  54.00200 19.76800 43.21500
C  55.36400 19.94400 43.58500
C  55.57900 21.38800 43.69400
C  53.31200 18.59900 42.63500
C  56.37300 18.83400 43.72200
O  56.06000 17.69700 43.44100
C  57.81700 19.08400 44.20100
N  56.00000 24.42700 44.31900
C  57.08000 23.50900 44.26000
C  58.36000 24.05900 44.89200
C  57.91600 25.39500 45.47200
C  56.42300 25.53200 45.16500
C  59.00400 23.20000 46.02800
C  58.65700 26.70400 44.97000
C  58.13600 27.41500 43.72900
N  53.78600 26.12100 44.23900
C  54.43900 27.05700 44.91600
C  53.65400 28.29300 45.05000
C  52.48000 28.01000 44.36100
C  52.54200 26.68400 43.88700
C  54.07400 29.58000 45.68500
C  51.22700 28.58300 43.92300
O  50.74600 29.66400 44.13200
C  50.46000 27.40300 43.32100
C  49.88800 27.82400 42.03000
O  50.47000 27.78800 40.99100
O  48.65200 28.15600 42.17100
C  47.94200 28.34100 40.92000
H  51.42800 20.59800 42.63800
H  57.71500 21.61700 43.97700
H  56.29400 27.45400 45.99200
H  49.25400 24.91900 42.35100
H  50.09100 22.26400 41.31400
H  48.09200 22.40200 42.61000
H  49.03900 22.46800 44.11600
H  48.99900 20.98400 43.14400
H  49.34900 25.53400 40.26300
H  49.48600 23.88800 39.85800
H  51.83300 23.96300 39.27500
H  52.04300 25.41600 40.23800
H  53.99700 18.11000 41.94200
H  52.51300 18.84200 41.93500
H  52.83000 17.92300 43.34100
H  57.67200 19.55000 45.17600
H  58.34900 19.76800 43.54000
H  58.41200 18.17900 44.32400
H  59.13800 24.18900 44.14000
H  58.02200 25.50200 46.55100
H  58.41600 22.32700 46.31100
H  59.24900 23.78900 46.91200
H  59.89100 22.71800 45.61700
H  59.71000 26.51500 44.76500
H  58.69300 27.43600 45.77700
H  57.94600 28.47400 43.90300
H  57.37200 26.88300 43.16200
H  58.89100 27.48900 42.94600
H  55.03800 29.33100 46.12900
H  53.31500 29.82300 46.42800
H  54.27100 30.37800 44.96900
H  49.70400 27.14900 44.06400
H  48.04900 27.53100 40.19900
H  48.21500 29.30500 40.49200
H  46.88700 28.33500 41.19500

