158

Mg 16.98200 51.68900 26.13000
C  19.20000 50.25100 28.57200
C  15.11900 52.93300 28.79600
C  15.01600 52.97200 23.88700
C  19.07300 50.23700 23.72800
N  17.08000 51.46900 28.42600
C  18.11700 50.91200 29.11700
C  17.92000 51.15100 30.64300
C  16.30800 51.57600 30.64600
C  16.13900 52.03600 29.17000
C  15.38900 50.44100 31.15800
C  18.79700 52.17200 31.26200
C  18.85800 52.22000 32.77400
H  17.59500 51.80800 33.64500
N  15.25500 52.77400 26.28500
C  14.68200 53.22100 27.46000
C  13.47500 53.99900 27.10900
C  13.37500 54.03400 25.67300
C  14.54600 53.23500 25.20000
C  12.62300 54.56400 28.23300
C  12.35100 54.70500 24.76800
O  12.36000 54.65400 23.53700
C  11.30300 55.58600 25.47600
N  16.96200 51.51800 24.07700
C  16.19100 52.30300 23.34600
C  16.39700 52.08600 21.83500
C  17.68000 51.29100 21.83600
C  17.94400 51.02700 23.29600
C  15.22700 51.36200 21.15000
C  18.90100 51.88200 21.10900
C  19.86300 50.90000 20.38700
N  18.86200 50.54300 26.11700
C  19.50600 49.98400 25.04200
C  20.60600 49.11900 25.51800
C  20.59400 49.31300 26.89300
C  19.46500 50.10600 27.18800
C  21.62000 48.37200 24.67700
C  21.24900 48.94200 28.10400
O  22.23400 48.22500 28.25500
C  20.42000 49.61900 29.27500
C  20.10900 48.53200 30.24800
O  19.30900 47.61900 30.02700
O  20.79500 48.79800 31.45700
C  20.33300 48.02100 32.61400
H  14.54500 53.30200 29.64900
H  14.51900 53.58700 23.13300
H  19.65300 49.68600 22.98400
H  17.99700 50.18300 31.13800
H  16.11700 52.43400 31.29000
H  14.61900 50.10300 30.46500
H  14.86500 50.82900 32.03100
H  15.94500 49.60900 31.59100
H  18.27400 53.10900 31.07200
H  19.74900 52.00300 30.75900
H  19.21200 53.18400 33.14000
H  19.56200 51.42000 33.00400
H  12.16500 55.51700 27.96500
H  13.03000 54.70800 29.23400
H  11.79700 53.85500 28.28100
H  10.75400 56.11900 24.69900
H  11.76600 56.39100 26.04600
H  10.60900 54.96700 26.04400
H  16.52300 53.09700 21.44900
H  17.55800 50.26000 21.50300
H  15.39800 50.38900 20.68900
H  14.96500 52.13000 20.42300
H  14.35800 51.25700 21.80000
H  19.48700 52.50400 21.78600
H  18.56300 52.55600 20.32200
H  19.58300 49.90900 20.74300
H  20.86700 51.20700 20.68000
H  19.72600 50.96800 19.30700
H  21.62200 48.69400 23.63600
H  21.61400 47.28200 24.65400
H  22.60500 48.59900 25.08600
H  21.05700 50.38700 29.71400
H  19.24900 48.02200 32.71900
H  20.81700 48.25900 33.56200
H  20.49900 46.95700 32.44500
Mg -12.12500 16.63200 42.15300
C  -8.75000 15.30800 41.72200
C  -10.95500 19.53000 40.35200
C  -15.22000 17.43100 41.64300
C  -13.11700 13.21800 42.64500
N  -10.04600 17.31300 41.14100
C  -8.79500 16.63300 41.19900
C  -7.68900 17.47200 40.68600
C  -8.36200 18.91800 40.41700
C  -9.88700 18.61600 40.63600
C  -7.77800 20.21000 41.19000
C  -7.00700 16.91300 39.40300
C  -5.60000 16.47500 39.60300
H  -5.23500 15.16300 38.86100
N  -12.93300 18.35000 41.32900
C  -12.35400 19.36000 40.64600
C  -13.37600 20.31900 40.25200
C  -14.62500 19.85500 40.64200
C  -14.28900 18.49300 41.24900
C  -13.04400 21.70300 39.75500
C  -15.98900 20.52000 40.37600
O  -16.08000 21.59800 39.74700
C  -17.22700 19.81400 40.93900
N  -13.85000 15.48200 42.14200
C  -15.02200 16.09600 42.02700
C  -16.23900 15.18400 42.26400
C  -15.59800 13.81800 42.55100
C  -14.10400 14.15300 42.41200
C  -17.07800 15.71600 43.43300
C  -16.04300 12.71800 41.56100
C  -17.11800 11.86200 42.11300
N  -11.23000 14.71700 42.40000
C  -11.73400 13.42300 42.61300
C  -10.59800 12.53100 42.88100
C  -9.42500 13.24300 42.55300
C  -9.85500 14.54700 42.22800
C  -10.77000 11.09900 43.36700
C  -8.07200 13.12600 42.50000
O  -7.37300 12.17200 42.77300
C  -7.54300 14.51100 41.95700
C  -6.77200 15.06300 43.03700
O  -7.09300 16.03200 43.70800
O  -5.52700 14.45600 43.08000
C  -4.64000 14.86100 44.22500
H  -10.58700 20.46300 39.92000
H  -16.24900 17.78400 41.73500
H  -13.43500 12.17900 42.76300
H  -6.97900 17.53600 41.51100
H  -8.29900 19.17700 39.36000
H  -8.52500 20.56800 41.89800
H  -7.42900 21.00400 40.53000
H  -6.82000 19.88700 41.59700
H  -7.16400 17.57400 38.55000
H  -7.54700 16.03700 39.04400
H  -5.33800 16.28600 40.64400
H  -4.97000 17.20600 39.09500
H  -13.75800 22.18800 39.09000
H  -12.14100 21.77600 39.14900
H  -12.89800 22.37800 40.59900
H  -18.07400 20.47700 40.76600
H  -17.04200 19.77100 42.01200
H  -17.44700 18.85500 40.47100
H  -16.87300 15.15100 41.37800
H  -15.78600 13.68600 43.61700
H  -16.45000 16.43800 43.95400
H  -17.32600 14.91100 44.12500
H  -18.01600 16.12900 43.06200
H  -15.14500 12.10700 41.47400
H  -16.28800 13.11100 40.57400
H  -16.94100 10.82300 41.83700
H  -18.05900 12.09900 41.61600
H  -17.13200 11.95800 43.19900
H  -11.10000 10.49500 42.52200
H  -11.54900 11.16000 44.12700
H  -9.84100 10.71600 43.79100
H  -7.01900 14.42400 41.00500
H  -4.36700 15.90300 44.05900
H  -3.71600 14.30900 44.05500
H  -5.22200 14.69000 45.13100

