158

Mg -2.50700 17.25800 27.70700
C  -2.64600 15.37100 30.59400
C  -3.05300 20.09700 29.62900
C  -2.36100 19.18800 24.84300
C  -2.19300 14.37800 25.69200
N  -2.81500 17.67100 29.87400
C  -2.76300 16.77000 30.92900
C  -2.63500 17.45300 32.29900
C  -2.95100 18.93800 31.95700
C  -2.96300 18.91400 30.41000
C  -4.24200 19.59100 32.62300
C  -1.29700 17.18800 33.13200
C  -0.95800 18.03200 34.41200
H  -0.77300 17.40700 35.82800
N  -2.69800 19.31000 27.22600
C  -2.86200 20.29200 28.21300
C  -2.65700 21.60900 27.54100
C  -2.57000 21.40200 26.17800
C  -2.60000 19.86900 26.00900
C  -2.49300 22.92600 28.27100
C  -2.28600 22.41600 25.01000
O  -2.13200 22.13600 23.82500
C  -2.08500 23.76500 25.34800
N  -2.23500 16.80900 25.59700
C  -2.24700 17.80300 24.63100
C  -2.09900 17.16900 23.30200
C  -1.56400 15.73700 23.61400
C  -2.12400 15.59600 25.01800
C  -3.42500 17.21900 22.40800
C  -0.04300 15.40500 23.52200
C  0.97800 16.39100 24.10400
N  -2.51300 15.29700 28.05200
C  -2.37100 14.20400 27.14900
C  -2.43700 12.98500 27.94400
C  -2.40800 13.36100 29.23400
C  -2.49100 14.78900 29.26300
C  -2.38800 11.60600 27.43800
C  -2.44300 12.85800 30.60700
O  -2.68400 11.71300 30.97200
C  -2.50900 14.10200 31.54400
C  -1.24700 13.94600 32.34300
O  -0.10800 14.07400 31.92400
O  -1.58600 13.60700 33.66300
C  -0.45300 13.16700 34.41200
H  -3.19200 20.97400 30.26500
H  -2.30900 19.80100 23.94100
H  -2.11800 13.51000 25.03400
H  -3.38500 17.06200 32.98700
H  -2.15400 19.58600 32.32200
H  -4.61600 18.86100 33.34100
H  -5.05600 19.80800 31.93200
H  -4.00900 20.44100 33.26500
H  -0.53600 17.33600 32.36600
H  -1.08200 16.15800 33.42000
H  -1.77400 18.75500 34.42200
H  -0.07500 18.58900 34.10100
H  -3.26800 23.59100 27.89100
H  -1.56000 23.44500 28.05100
H  -2.55000 22.71700 29.33900
H  -1.86600 24.45900 24.53700
H  -1.23900 23.71000 26.03200
H  -2.99700 24.11500 25.83000
H  -1.35800 17.65600 22.66700
H  -2.13900 15.02600 23.02200
H  -4.09400 17.91300 22.91700
H  -3.93700 16.25800 22.46000
H  -3.19800 17.56200 21.39900
H  0.21300 15.43800 22.46300
H  0.17100 14.39100 23.85900
H  0.47500 17.20500 24.62600
H  1.54600 16.85000 23.29500
H  1.69800 15.85200 24.71900
H  -1.91900 11.62700 26.45400
H  -3.40600 11.24800 27.27900
H  -1.97800 11.02900 28.26600
H  -3.41900 13.93500 32.11900
H  -0.69500 12.54100 35.27100
H  -0.10100 14.11900 34.80900
H  0.37300 12.73400 33.84800
Mg 36.23100 49.22600 26.31300
C  36.45000 47.19000 29.06900
C  34.71300 51.63800 28.16400
C  35.40900 50.91700 23.46200
C  37.18100 46.57300 24.28400
N  35.58500 49.31400 28.33000
C  35.96100 48.43300 29.29100
C  35.45800 48.92300 30.71200
C  34.87100 50.29000 30.37900
C  34.99800 50.44100 28.86400
C  33.39800 50.55200 30.89600
C  36.56100 48.90400 31.79800
C  36.25500 48.47700 33.30400
H  34.98400 48.93200 34.03600
N  35.42900 51.13900 25.89800
C  34.82100 51.94800 26.85600
C  34.56200 53.19100 26.12800
C  34.82200 52.98600 24.73200
C  35.25200 51.64800 24.63900
C  33.96500 54.42800 26.80100
C  34.86900 53.88500 23.49400
O  35.28200 53.63400 22.34300
C  34.37800 55.30000 23.71000
N  36.37400 48.77100 24.21100
C  35.87600 49.61700 23.23000
C  36.15300 49.03900 21.79400
C  36.82000 47.67000 22.13600
C  36.87900 47.69300 23.66300
C  35.00400 48.91500 20.81300
C  38.15100 47.39600 21.46100
C  39.38700 48.02100 22.14500
N  36.74000 47.23100 26.56200
C  37.07300 46.24500 25.64800
C  37.37100 45.00800 26.31200
C  37.13100 45.31800 27.72900
C  36.69700 46.64000 27.72600
C  37.82500 43.70400 25.70200
C  37.20200 44.83400 29.00700
O  37.35000 43.67500 29.43000
C  36.72100 45.95300 29.98700
C  35.43600 45.42600 30.55000
O  34.35600 45.31300 29.96600
O  35.56200 45.20100 31.91300
C  34.47300 44.46100 32.47700
H  34.19400 52.35500 28.80400
H  35.12400 51.37900 22.51500
H  37.53700 45.76700 23.63900
H  34.72200 48.13000 30.84700
H  35.61500 50.91900 30.86700
H  33.20700 49.79600 31.65700
H  32.67000 50.37100 30.10600
H  33.31200 51.60000 31.18500
H  37.05200 49.85700 31.99700
H  37.34000 48.21800 31.46500
H  37.17200 48.73700 33.83200
H  36.21300 47.39000 33.24400
H  33.09100 54.89800 26.35000
H  34.77500 55.15000 26.69700
H  33.72600 54.11000 27.81600
H  35.08500 55.92000 24.26000
H  33.39100 55.30000 24.17300
H  34.29500 55.75300 22.72100
H  36.85200 49.70600 21.29000
H  36.13100 46.87900 21.84200
H  34.03900 49.15800 21.25800
H  34.86900 47.90600 20.42500
H  35.26400 49.42800 19.88700
H  38.16600 47.70900 20.41700
H  38.25100 46.31100 21.48100
H  39.78100 48.63800 21.33700
H  40.10400 47.21200 22.28200
H  39.11800 48.57400 23.04500
H  38.90500 43.57500 25.77500
H  37.49000 43.65400 24.66600
H  37.25900 42.97100 26.27600
H  37.54300 46.04100 30.69700
H  34.75400 43.84700 33.33200
H  34.08100 43.66300 31.84600
H  33.74600 45.17400 32.86700

