158

Mg 35.73000 2.15300 30.13600
C  33.18800 3.51000 32.19200
C  37.84800 2.00500 32.81700
C  38.26700 1.49300 28.04100
C  33.55500 2.62100 27.37600
N  35.59000 2.85400 32.27500
C  34.44000 3.28800 32.95500
C  34.70400 3.28500 34.38900
C  36.30500 3.19400 34.52900
C  36.62200 2.60400 33.13900
C  37.02400 4.56700 34.75100
C  33.98100 2.13600 35.08600
C  33.39900 2.38300 36.54900
H  33.99600 3.59000 37.39500
N  37.69700 1.59900 30.43100
C  38.34600 1.53800 31.63100
C  39.62500 1.02400 31.41200
C  39.89300 0.97100 30.01500
C  38.62400 1.39000 29.43800
C  40.55700 0.70600 32.52300
C  41.14700 0.56400 29.22300
O  41.25500 0.77700 27.98800
C  42.22600 -0.13700 29.96700
N  35.94100 2.19100 28.01300
C  37.07100 1.85200 27.40600
C  36.79800 1.68800 25.85600
C  35.31000 2.08400 25.70900
C  34.87300 2.24100 27.16600
C  37.77800 2.48000 24.96000
C  34.37600 1.06600 24.83000
C  33.67000 -0.08600 25.47300
N  33.76000 2.95800 29.78500
C  33.02500 2.97000 28.59200
C  31.65300 3.35100 28.90700
C  31.64200 3.57600 30.35300
C  32.91700 3.32800 30.80300
C  30.54600 3.44200 27.95600
C  30.82200 3.96700 31.52100
O  29.60800 4.26000 31.62500
C  31.82800 3.81700 32.78100
C  31.86200 5.10000 33.48100
O  32.07700 6.17400 32.99700
O  31.64700 4.92700 34.83100
C  31.71200 6.08300 35.68000
H  38.47000 1.79800 33.69100
H  39.09300 1.27500 27.36100
H  32.83900 2.42000 26.57600
H  34.36300 4.26800 34.71500
H  36.71800 2.49300 35.25400
H  37.67600 4.68100 33.88500
H  37.68700 4.49700 35.61300
H  36.32200 5.38000 34.93700
H  34.58700 1.26300 35.33000
H  33.13300 1.81100 34.48500
H  33.57100 1.47800 37.13300
H  32.33700 2.57700 36.40000
H  41.33200 1.47100 32.48800
H  41.00700 -0.28600 32.48800
H  39.99900 0.64100 33.45800
H  42.91100 -0.37100 29.15200
H  41.91200 -1.03300 30.50200
H  42.57700 0.69400 30.58000
H  36.87100 0.63300 25.59300
H  35.18400 3.08500 25.29900
H  38.36700 3.16900 25.56600
H  37.25200 3.12200 24.25300
H  38.42700 1.87800 24.32500
H  35.06400 0.56200 24.15000
H  33.62200 1.64400 24.29700
H  33.81100 -0.92900 24.79600
H  32.58300 -0.08500 25.55300
H  34.19600 -0.30500 26.40300
H  30.79200 3.40700 26.89500
H  29.95200 4.34400 28.10800
H  29.74200 2.74100 28.17900
H  31.44200 2.94800 33.31300
H  30.90200 6.75100 35.39000
H  32.68500 6.53700 35.49000
H  31.61400 5.79500 36.72700
Mg 9.62300 47.52700 26.49100
C  7.88100 47.54500 29.37300
C  12.33900 48.85300 28.14000
C  11.29000 47.37700 23.58100
C  6.62600 46.78200 24.78200
N  10.07800 48.10300 28.55200
C  9.19600 48.04900 29.53400
C  9.88000 48.33900 30.88500
C  11.02900 49.29800 30.42900
C  11.15900 48.78900 28.95500
C  10.70200 50.78900 30.36200
C  10.41900 47.13700 31.64300
C  10.54000 47.31300 33.13100
H  10.24500 46.22900 34.18000
N  11.55000 48.20700 25.90900
C  12.54800 48.57600 26.75900
C  13.73700 48.72000 25.92100
C  13.43900 48.16200 24.59900
C  12.04800 47.87100 24.65400
C  15.01400 49.33300 26.53300
C  14.42800 47.98400 23.44500
O  14.09300 47.55700 22.36000
C  15.98600 48.29500 23.60100
N  8.98600 47.29700 24.34600
C  9.89700 47.20400 23.38800
C  9.18400 46.79500 22.09900
C  7.78100 46.51400 22.51700
C  7.75000 46.90000 23.93400
C  9.41500 47.88100 21.01600
C  7.33000 45.00000 22.19000
C  7.90600 43.93800 23.15500
N  7.72400 47.03000 26.92200
C  6.54000 46.81100 26.19800
C  5.42200 46.70700 27.05600
C  5.88900 46.97000 28.28300
C  7.24900 47.15500 28.16300
C  3.93700 46.60900 26.74700
C  5.48200 47.14500 29.65100
O  4.31100 47.06100 30.05400
C  6.80400 47.40000 30.46400
C  6.93100 46.04000 31.21400
O  7.49900 45.07000 30.77900
O  6.30700 46.15300 32.37900
C  6.26500 44.94500 33.22200
H  13.17200 49.22700 28.73900
H  11.83500 47.07700 22.68400
H  5.68900 46.55500 24.27000
H  9.28200 48.97900 31.53400
H  11.94300 49.13300 30.99900
H  11.10700 51.30800 31.23000
H  9.64500 50.92800 30.59000
H  10.91500 51.29000 29.41700
H  11.36000 46.76400 31.23900
H  9.74500 46.28600 31.55600
H  9.81300 48.06900 33.43000
H  11.60300 47.52500 33.24600
H  14.73900 50.26900 27.01900
H  15.93200 49.44400 25.95600
H  15.43700 48.72400 27.33100
H  16.34000 47.78100 24.49500
H  16.07100 49.38200 23.59600
H  16.57100 47.90500 22.76900
H  9.58400 45.83000 21.78700
H  7.03100 47.12700 22.01800
H  9.68600 47.37000 20.09200
H  10.22600 48.51200 21.38000
H  8.57000 48.55200 20.86400
H  7.75500 44.71400 21.22800
H  6.24700 44.93000 22.08700
H  7.05100 43.52100 23.68600
H  8.56100 44.31600 23.94000
H  8.51100 43.18700 22.64600
H  3.59300 47.63000 26.91400
H  3.52600 45.95800 27.51900
H  3.68100 46.28900 25.73700
H  6.71000 48.32000 31.04200
H  6.59300 45.34300 34.18300
H  7.06400 44.23800 33.00000
H  5.26200 44.55000 33.37900

