158

Mg 1.83400 -1.31600 43.70400
C  5.31600 -0.70900 43.14200
C  1.15800 1.66100 42.11200
C  -1.31600 -2.40300 43.42700
C  2.73400 -4.41100 45.22100
N  3.07400 0.23800 42.53300
C  4.42700 0.32300 42.57400
C  4.89800 1.48000 41.73500
C  3.65000 2.35200 41.59500
C  2.51600 1.36500 42.08700
C  3.66500 3.54600 42.52800
C  5.54600 1.00100 40.45900
C  6.81800 1.75300 39.98000
H  6.67600 2.28800 38.52600
N  0.11700 -0.51000 42.92000
C  0.08100 0.74600 42.39700
C  -1.30000 1.02900 42.18200
C  -2.05400 -0.11900 42.42000
C  -1.10400 -1.09400 42.90900
C  -1.74400 2.37100 41.73200
C  -3.56500 -0.27500 42.32100
O  -4.21000 0.66900 41.80900
C  -4.49400 -1.50200 42.54200
N  0.86100 -3.20700 44.27100
C  -0.46400 -3.35500 44.05600
C  -0.97800 -4.69600 44.46100
C  0.31000 -5.24400 45.19000
C  1.40600 -4.29300 44.81200
C  -2.20800 -4.66200 45.28200
C  0.56200 -6.70300 44.80300
C  0.54800 -7.61700 46.07500
N  3.60000 -2.37900 44.15700
C  3.78700 -3.60500 44.79700
C  5.27400 -3.78300 45.03900
C  5.90900 -2.71200 44.34600
C  4.81900 -1.87900 43.77900
C  5.94500 -4.90800 45.67000
C  7.17700 -2.11000 43.96700
O  8.30000 -2.58100 44.17500
C  6.87000 -0.68000 43.31400
C  7.21500 0.38900 44.16500
O  6.50500 0.91300 45.01600
O  8.49900 0.73000 43.86800
C  8.77200 2.13800 44.16600
H  0.98400 2.60200 41.58500
H  -2.38200 -2.64000 43.43000
H  3.05900 -5.29000 45.78200
H  5.64600 1.94100 42.37900
H  3.54100 2.71100 40.57100
H  3.05900 3.48300 43.43200
H  3.47700 4.42000 41.90400
H  4.64800 3.65200 42.98800
H  4.73900 0.99000 39.72700
H  5.95800 0.00100 40.59000
H  7.61300 1.00700 39.95400
H  7.10600 2.67200 40.49200
H  -2.77800 2.59400 41.46800
H  -1.09500 2.71500 40.92700
H  -1.50700 2.96100 42.61600
H  -5.52700 -1.43300 42.20200
H  -4.63500 -1.82700 43.57400
H  -4.20000 -2.33500 41.90400
H  -1.18400 -5.23000 43.53400
H  0.29600 -4.98500 46.24900
H  -2.28100 -5.42700 46.05500
H  -3.11700 -4.66000 44.67900
H  -2.16400 -3.67000 45.73200
H  1.49500 -6.76600 44.24300
H  -0.21800 -7.08700 44.14500
H  1.55500 -8.03000 46.13800
H  -0.05400 -8.44800 45.70800
H  0.16800 -7.12600 46.97100
H  6.73900 -4.60800 46.35400
H  6.43700 -5.28400 44.77300
H  5.21200 -5.53500 46.17900
H  7.36800 -0.61600 42.34700
H  9.29600 2.57300 43.31500
H  9.55700 2.21800 44.91800
H  7.89100 2.74000 44.38700
Mg 16.23200 52.50200 24.33700
C  18.13700 51.52200 27.19100
C  13.56300 53.20300 26.54900
C  14.25200 52.83600 21.72500
C  18.60500 50.83200 22.35100
N  15.89500 52.45200 26.61300
C  16.81300 52.02400 27.50400
C  16.25400 52.26000 28.93500
C  14.75300 52.69000 28.68800
C  14.72900 52.68600 27.17700
C  13.71100 51.72600 29.31400
C  17.03400 53.22200 29.70800
C  17.40200 52.80400 31.19100
H  16.53900 51.75800 31.93200
N  14.27200 53.20600 24.12300
C  13.39500 53.42700 25.15500
C  12.16900 53.94900 24.55500
C  12.26700 53.73600 23.14900
C  13.64200 53.27400 22.93900
C  10.94600 54.28700 25.37700
C  11.20100 54.05700 22.02500
O  11.41700 53.84700 20.85300
C  9.73300 54.57100 22.45200
N  16.49200 52.01100 22.45300
C  15.54000 52.28300 21.48100
C  15.90200 51.75400 20.14500
C  17.48000 51.46600 20.23900
C  17.49800 51.36000 21.78000
C  15.14100 50.37100 19.77500
C  18.30700 52.64000 19.81900
C  19.60900 52.17900 19.20400
N  18.00400 51.34700 24.68200
C  18.88400 50.76100 23.74800
C  20.00400 50.17300 24.45200
C  19.65500 50.43900 25.82800
C  18.51000 51.16600 25.89200
C  21.24000 49.61300 23.79900
C  20.16700 50.33300 27.15300
O  21.26800 49.86500 27.46900
C  19.11700 50.84600 28.18400
C  18.59300 49.71100 28.91000
O  17.72700 48.90900 28.58300
O  19.05000 49.77000 30.17300
C  18.77600 48.60900 31.01500
H  12.72000 53.50600 27.17300
H  13.64000 52.79800 20.82100
H  19.38800 50.37000 21.74600
H  16.23000 51.29800 29.44700
H  14.44300 53.69500 28.97600
H  14.17800 51.03900 30.01900
H  13.23400 51.17600 28.50300
H  13.10200 52.45900 29.84200
H  16.42600 54.12500 29.65800
H  17.95900 53.42500 29.16800
H  17.41700 53.72900 31.76700
H  18.37400 52.33600 31.34400
H  11.17900 54.76800 26.32800
H  10.45300 53.35500 25.65200
H  10.25500 54.96100 24.87100
H  9.14700 54.32300 21.56700
H  9.72000 55.63000 22.70900
H  9.31900 53.96500 23.25800
H  15.71800 52.48100 19.35400
H  17.82600 50.53400 19.79400
H  14.55500 50.61700 18.89000
H  14.43200 50.22500 20.59100
H  15.72400 49.45800 19.66300
H  18.65000 53.21200 20.68100
H  17.77700 53.28200 19.11500
H  19.68500 51.25000 18.63900
H  20.44500 52.31500 19.89000
H  19.81100 52.83800 18.36000
H  22.04300 50.15600 24.29800
H  21.24900 49.95400 22.76300
H  21.33100 48.54400 23.99000
H  19.56200 51.58100 28.85400
H  19.27500 48.79500 31.96600
H  19.17700 47.73400 30.50400
H  17.73200 48.45800 31.29100

