158

Mg 25.42900 52.15800 26.91700
C  22.91700 52.83400 29.46200
C  27.51000 51.24900 29.56800
C  28.01300 52.17000 24.81600
C  23.33100 53.49900 24.63600
N  25.23500 52.17100 29.28400
C  24.10000 52.27600 30.07700
C  24.32400 51.94700 31.52200
C  25.89100 51.68100 31.55900
C  26.26600 51.69900 30.04700
C  26.74500 52.76400 32.39900
C  23.41400 50.76600 32.06900
C  23.01300 50.65600 33.52900
H  23.70300 51.44800 34.60800
N  27.38500 51.64300 27.15100
C  28.04300 51.21500 28.23500
C  29.44100 50.88100 27.95600
C  29.66100 51.23200 26.60300
C  28.34300 51.70800 26.14200
C  30.43100 50.41100 28.98200
C  30.85400 51.13200 25.73400
O  30.87200 51.49900 24.54200
C  32.11200 50.57600 26.33000
N  25.62900 52.69600 24.94500
C  26.77400 52.65800 24.25100
C  26.66600 53.18000 22.84900
C  25.17000 53.46500 22.79000
C  24.63700 53.21500 24.21600
C  27.58000 54.35500 22.44800
C  24.40600 52.63300 21.74100
C  23.62100 51.39400 22.17500
N  23.47000 52.91100 27.01600
C  22.70300 53.38600 25.93500
C  21.42400 53.79900 26.39700
C  21.52700 53.71500 27.82100
C  22.72800 53.07100 28.09100
C  20.20700 54.36000 25.72800
C  20.77400 53.95500 29.07300
O  19.66700 54.32700 29.22000
C  21.67000 53.33900 30.15700
C  22.02500 54.33000 31.21800
O  22.75700 55.27000 31.09400
O  21.16500 54.11500 32.28300
C  21.19600 55.25200 33.20000
H  28.18800 50.96500 30.37600
H  28.76300 52.25900 24.02700
H  22.67600 54.09900 24.00000
H  23.92900 52.80900 32.05800
H  26.06800 50.67400 31.93700
H  27.29600 53.52400 31.84500
H  27.41000 52.23400 33.08000
H  26.17100 53.41700 33.05800
H  23.93900 49.83900 31.84200
H  22.47700 50.78600 31.51300
H  23.07100 49.59000 33.74500
H  21.97900 50.93300 33.73500
H  30.09800 50.46300 30.01900
H  31.35900 50.97400 28.87900
H  30.61600 49.38100 28.67800
H  31.90100 49.62200 26.81300
H  32.29100 51.33000 27.09700
H  33.00300 50.52400 25.70500
H  26.94400 52.36400 22.18100
H  25.02400 54.54200 22.71800
H  28.36500 54.00400 21.77800
H  28.03800 54.89900 23.27400
H  26.96200 55.06100 21.89300
H  25.14600 52.28800 21.01800
H  23.70700 53.23500 21.16000
H  24.01800 51.07100 23.13800
H  23.87400 50.57700 21.49900
H  22.54100 51.50700 22.08200
H  20.64000 54.60800 24.75900
H  19.84400 55.28000 26.18700
H  19.32500 53.72300 25.66400
H  21.21600 52.50500 30.69100
H  21.25500 56.26700 32.80700
H  22.00000 55.10800 33.92200
H  20.20000 55.19300 33.64000
Mg 6.46500 56.95000 42.38700
C  5.67200 53.46100 42.16400
C  9.23600 56.37800 40.57000
C  6.88800 60.19800 42.34900
C  3.22100 57.38000 43.71700
N  7.19100 55.13400 41.28800
C  6.82100 53.83800 41.43100
C  7.77800 52.87800 40.60600
C  9.08400 53.79700 40.57900
C  8.51600 55.23800 40.78200
C  10.18400 53.56200 41.66800
C  7.30200 52.57700 39.17300
C  7.69900 51.19700 38.56200
H  6.85200 50.54600 37.53500
N  7.78300 58.23500 41.40700
C  8.94700 57.74800 40.77100
C  9.80000 58.83900 40.59900
C  9.16700 59.98600 41.08800
C  7.87600 59.55800 41.67100
C  11.05800 58.79700 39.72000
C  9.59900 61.47800 40.90800
O  10.57400 61.74000 40.25700
C  8.81900 62.63600 41.43000
N  5.11500 58.56300 42.72800
C  5.59400 59.79200 42.68300
C  4.57900 60.80500 43.03300
C  3.38100 59.92300 43.46400
C  3.87500 58.49700 43.21800
C  5.03800 61.77800 44.14400
C  2.10200 60.28400 42.74000
C  0.88500 60.49500 43.58800
N  4.83100 55.69100 43.05700
C  3.67700 56.03900 43.63600
C  3.07300 54.80900 44.15700
C  3.82100 53.70800 43.60400
C  4.89100 54.31400 42.90600
C  1.82800 54.71700 44.90600
C  3.92200 52.24900 43.45800
O  3.19100 51.39100 43.88400
C  5.19100 52.06500 42.58000
C  4.85400 51.18100 41.44300
O  4.13500 51.48800 40.53500
O  5.29300 49.90400 41.63500
C  4.94800 48.78800 40.81000
H  10.20300 56.20800 40.09100
H  7.16400 61.23700 42.54400
H  2.23000 57.38400 44.17500
H  7.98100 51.94900 41.14000
H  9.58600 53.77000 39.61200
H  11.08100 53.15800 41.19900
H  9.84800 52.82500 42.39700
H  10.55400 54.47800 42.12900
H  7.83600 53.25500 38.50700
H  6.23800 52.81500 39.15600
H  7.70300 50.57600 39.45800
H  8.75500 51.28600 38.30600
H  11.04700 59.57600 38.95700
H  11.13100 57.92500 39.07000
H  12.02000 58.90300 40.22200
H  8.76500 62.56700 42.51700
H  7.87300 62.42000 40.93400
H  9.30000 63.54300 41.06400
H  4.42600 61.23400 42.04300
H  3.15300 60.02200 44.52500
H  5.98700 61.58000 44.64100
H  4.27600 62.04900 44.87500
H  5.05200 62.71500 43.58700
H  1.68100 59.42600 42.21700
H  2.17000 61.15000 42.08100
H  0.46000 61.48600 43.42400
H  1.27900 60.46300 44.60400
H  0.07900 59.78100 43.41600
H  1.97800 53.97800 45.69200
H  1.04600 54.19800 44.35100
H  1.44300 55.60000 45.41700
H  5.90000 51.40600 43.08200
H  3.99500 48.28200 40.96300
H  5.64000 47.95300 40.91400
H  5.09600 49.07900 39.77000

