158

Mg 7.88000 3.77600 27.42400
C  9.36500 2.49700 30.28800
C  5.98400 5.84500 29.51400
C  6.52700 4.99200 24.70800
C  9.15500 1.11400 25.59300
N  7.62500 4.02700 29.70300
C  8.40300 3.48400 30.61700
C  8.31900 4.31000 31.88000
C  7.13500 5.29000 31.68100
C  6.85400 5.02600 30.17200
C  5.94400 5.19100 32.59600
C  9.59100 5.07000 32.35100
C  9.56100 5.62600 33.77500
H  10.49000 5.12300 34.92400
N  6.49800 5.20300 27.16400
C  5.81400 5.92400 28.11600
C  4.97300 6.91000 27.48300
C  5.09500 6.71600 26.04900
C  6.04900 5.56900 25.93300
C  4.10000 7.91800 28.26700
C  4.41400 7.35500 24.87700
O  4.59600 7.13800 23.66800
C  3.57500 8.57600 25.18300
N  7.80700 3.08500 25.44600
C  7.26900 3.77200 24.46700
C  7.61400 3.26100 23.02300
C  8.42100 2.05400 23.32800
C  8.46900 2.07500 24.88600
C  6.37500 3.16600 22.09900
C  9.80100 2.06900 22.64900
C  10.97000 2.88300 23.26700
N  9.12000 2.20700 27.78900
C  9.53600 1.16300 26.94200
C  10.45800 0.30400 27.69800
C  10.42500 0.80900 29.04700
C  9.59900 1.95000 28.99600
C  11.16600 -0.88900 27.20100
C  10.91900 0.58000 30.40000
O  11.73800 -0.27000 30.78400
C  10.27500 1.66200 31.24500
C  9.60800 1.10500 32.42600
O  8.44500 0.67700 32.37300
O  10.43100 1.14200 33.58900
C  9.88300 0.29900 34.66400
H  5.37800 6.49100 30.15300
H  6.06900 5.46200 23.83500
H  9.62500 0.31700 25.01200
H  8.05000 3.56400 32.62700
H  7.47200 6.32500 31.63900
H  5.46800 6.11600 32.92100
H  6.23600 4.71800 33.53400
H  5.18800 4.50700 32.21100
H  9.71700 5.80600 31.55800
H  10.48100 4.44200 32.31500
H  8.53200 5.59900 34.13300
H  9.94800 6.63500 33.63600
H  4.42500 8.95000 28.13800
H  4.17400 7.69200 29.33100
H  3.05900 7.83300 27.95600
H  3.14200 8.95300 24.25700
H  4.22300 9.33100 25.62800
H  2.75500 8.36300 25.86900
H  8.36300 3.93300 22.60400
H  7.86300 1.21400 22.91400
H  5.42000 3.38900 22.57500
H  6.34300 2.13700 21.74200
H  6.49500 3.86200 21.26900
H  9.76100 2.33600 21.59300
H  10.03200 1.00400 22.65800
H  11.85400 2.37500 23.65300
H  10.60700 3.70600 23.88300
H  11.40900 3.47300 22.46300
H  10.63100 -1.33100 26.36100
H  11.34900 -1.63800 27.97100
H  12.09100 -0.46900 26.80500
H  11.14300 2.21800 31.60000
H  9.12500 -0.41300 34.33900
H  9.62100 0.98100 35.47300
H  10.68900 -0.37100 34.96400
Mg 16.59700 -1.35400 27.70800
C  15.90400 0.58400 30.58800
C  19.08900 -2.95800 29.43900
C  17.70900 -2.79600 24.75200
C  14.65000 0.89300 25.82100
N  17.40700 -1.28700 29.91700
C  16.95200 -0.41400 30.89500
C  17.69100 -0.77600 32.21400
C  18.83000 -1.86400 31.72800
C  18.39000 -2.10300 30.30000
C  20.26300 -1.34100 31.93400
C  16.78000 -1.17100 33.49900
C  16.82000 -0.23700 34.69800
H  18.15900 -0.14300 35.37400
N  17.99700 -2.88200 27.24700
C  18.87000 -3.38300 28.12400
C  19.59800 -4.54600 27.47400
C  19.20200 -4.52100 26.08500
C  18.25800 -3.37200 25.97100
C  20.39400 -5.57400 28.15900
C  19.46800 -5.47700 24.93900
O  18.93600 -5.40600 23.84700
C  20.34400 -6.68500 25.18700
N  16.29700 -0.93300 25.63600
C  16.83000 -1.68900 24.65900
C  16.21300 -1.36300 23.32300
C  15.01600 -0.42600 23.72000
C  15.26600 -0.15400 25.19100
C  17.29600 -0.71900 22.36500
C  13.57100 -0.98600 23.42700
C  12.75600 -0.34500 22.30700
N  15.45800 0.38400 28.05500
C  14.66700 1.12700 27.15800
C  13.93000 2.07200 27.94900
C  14.32700 1.84100 29.24800
C  15.27400 0.85600 29.28400
C  12.82800 3.07900 27.52200
C  14.07500 2.29200 30.56700
O  13.26300 3.08300 30.98800
C  15.10300 1.55100 31.58300
C  15.99400 2.60600 32.19900
O  17.07300 2.95100 31.74000
O  15.39600 3.07300 33.32500
C  16.15400 4.01000 34.17800
H  19.93500 -3.45200 29.92100
H  17.95500 -3.33800 23.83600
H  13.98100 1.55600 25.26900
H  18.14500 0.16100 32.53800
H  18.79500 -2.82300 32.24500
H  20.21800 -0.41100 32.50000
H  20.55900 -1.09500 30.91400
H  20.96100 -2.10900 32.27000
H  17.09100 -2.18700 33.74200
H  15.72000 -1.06600 33.26400
H  15.98100 -0.50500 35.34200
H  16.63600 0.77700 34.34300
H  21.37800 -5.68800 27.70400
H  20.02500 -6.57200 27.92400
H  20.42200 -5.60100 29.24800
H  20.44600 -7.37500 24.34900
H  19.86200 -7.23800 25.99300
H  21.36700 -6.47600 25.49800
H  15.91600 -2.30300 22.85800
H  15.06300 0.46400 23.09200
H  18.27900 -0.94100 22.78100
H  17.17800 0.35800 22.47700
H  17.23200 -1.15600 21.36800
H  12.96000 -0.93500 24.32800
H  13.50900 -2.05900 23.24500
H  11.97500 -0.96600 21.86800
H  13.49300 -0.05600 21.55800
H  12.37600 0.61700 22.65100
H  13.03800 3.59900 26.58800
H  12.61200 3.76400 28.34200
H  11.89900 2.53400 27.35500
H  14.54000 1.05600 32.37400
H  15.70900 3.91700 35.16900
H  16.08600 5.03700 33.82100
H  17.21300 3.78000 34.29300

