158

Mg 25.03800 1.62400 30.29400
C  27.25800 1.36400 33.03200
C  22.40300 2.03000 32.54800
C  22.91500 1.69300 27.70500
C  27.60800 1.11800 28.09900
N  24.89100 1.68600 32.55100
C  25.92900 1.73400 33.45900
C  25.46900 1.95000 34.89100
C  23.94900 2.13400 34.69300
C  23.67400 1.82900 33.16600
C  23.11000 1.29300 35.67600
C  26.11900 3.19700 35.57300
C  26.89700 2.93400 36.87700
H  26.77500 3.98100 38.07600
N  22.95100 1.72100 30.16500
C  22.04600 1.91400 31.18400
C  20.74500 1.97000 30.67100
C  20.85800 1.89600 29.23800
C  22.33300 1.70800 29.01400
C  19.46700 2.11300 31.58800
C  19.72900 2.00600 28.21300
O  19.91900 1.93000 27.01400
C  18.30300 2.33800 28.68400
N  25.16400 1.41600 28.20200
C  24.26100 1.62000 27.29600
C  24.71400 1.62800 25.81800
C  26.28000 1.41900 25.93000
C  26.36000 1.35900 27.52400
C  24.01500 0.53600 25.01800
C  27.08100 2.66300 25.42800
C  26.85200 4.04600 26.21100
N  26.96600 1.27000 30.46300
C  27.96500 1.02800 29.46500
C  29.27400 0.88100 30.14800
C  29.00400 1.03000 31.50600
C  27.58400 1.20500 31.69000
C  30.58100 0.66600 29.35500
C  29.65200 0.99700 32.81300
O  30.81600 0.87100 33.11200
C  28.57700 1.34300 33.87300
C  28.55200 0.38100 34.89900
O  27.92200 -0.66400 34.85600
O  29.20400 0.79600 36.02800
C  29.26900 -0.16700 37.10600
H  21.62500 2.31600 33.25900
H  22.13900 1.72700 26.93800
H  28.33400 0.91300 27.31000
H  25.63300 1.02700 35.44600
H  23.64900 3.17100 34.83800
H  22.43800 2.08300 36.01100
H  23.75600 0.78700 36.39400
H  22.44500 0.57700 35.19300
H  25.36200 3.96100 35.74800
H  26.68900 3.67800 34.77800
H  27.96000 3.04000 36.65900
H  26.71200 1.97800 37.36700
H  18.87500 2.98600 31.31600
H  19.68400 1.96900 32.64700
H  18.85800 1.23700 31.36500
H  18.39200 3.23000 29.30300
H  17.99500 1.51300 29.32700
H  17.76600 2.50100 27.74900
H  24.46700 2.57200 25.33200
H  26.55500 0.51400 25.38800
H  23.50900 -0.17600 25.67100
H  24.67800 -0.12100 24.45500
H  23.35500 0.96000 24.26100
H  26.76600 2.77800 24.39000
H  28.12900 2.37700 25.33700
H  27.67400 4.21100 26.90700
H  25.86200 3.97600 26.66300
H  26.76500 4.75800 25.39100
H  30.70900 1.40800 28.56700
H  30.50400 -0.31300 28.88200
H  31.39500 0.62800 30.08000
H  28.65100 2.29800 34.39400
H  29.94500 0.14000 37.90400
H  29.53000 -1.20800 36.91400
H  28.30200 -0.14600 37.60800
Mg 10.22300 46.58800 25.27500
C  7.90200 46.74400 27.83800
C  12.54300 47.93000 27.34600
C  12.37500 46.87000 22.67800
C  7.57000 46.26700 22.91100
N  10.20500 47.21700 27.36100
C  9.16200 47.07800 28.24000
C  9.60300 47.54800 29.61400
C  10.94500 48.35500 29.32500
C  11.30500 47.75200 27.96100
C  10.77800 49.86400 29.28900
C  9.47200 46.48600 30.82300
C  10.35700 46.70000 31.98200
H  10.29400 45.77300 33.16100
N  12.20500 47.18200 25.07400
C  13.04900 47.65300 26.07200
C  14.42300 47.65600 25.66600
C  14.37500 47.20600 24.26600
C  12.94000 47.13700 23.93800
C  15.55600 48.11700 26.48600
C  15.51200 46.92900 23.33800
O  15.37200 46.60500 22.14200
C  17.00400 47.07800 23.79100
N  9.99000 46.59200 23.04500
C  11.09300 46.60800 22.22900
C  10.62800 46.45000 20.79200
C  9.05500 46.27300 20.87100
C  8.83900 46.27300 22.37500
C  11.13300 47.56000 19.82300
C  8.47900 45.01300 20.08000
C  7.54000 45.40700 18.89300
N  8.13500 46.45000 25.27200
C  7.17900 46.41900 24.26600
C  5.78200 46.34400 24.86400
C  6.06400 46.44200 26.25700
C  7.50400 46.57400 26.47100
C  4.43400 46.22500 24.22900
C  5.42400 46.50000 27.59400
O  4.24900 46.39600 27.98200
C  6.57400 46.64500 28.64900
C  6.49000 45.67300 29.81000
O  7.06400 44.61700 29.89700
O  5.75600 46.16700 30.79000
C  5.77400 45.43500 32.05600
H  13.22300 48.35800 28.08500
H  13.11500 46.77000 21.88100
H  6.73200 46.11100 22.22900
H  8.86200 48.27300 29.95000
H  11.71800 47.96600 29.98800
H  11.50600 50.26700 29.99400
H  9.82300 50.26600 29.62500
H  11.16200 50.31800 28.37600
H  9.66600 45.44800 30.55300
H  8.45000 46.62800 31.17400
H  10.18000 47.69800 32.38400
H  11.38300 46.60400 31.62700
H  15.17400 48.22600 27.50100
H  15.86600 49.09900 26.12800
H  16.47000 47.52400 26.45400
H  17.61500 46.68400 22.97900
H  17.32000 46.57300 24.70400
H  17.16900 48.15500 23.76100
H  11.14400 45.52900 20.52000
H  8.59300 47.17700 20.47500
H  10.28900 48.15400 19.47000
H  11.59800 46.98000 19.02600
H  11.91500 48.26500 20.10300
H  8.06200 44.29900 20.79000
H  9.34500 44.56500 19.59300
H  6.92800 44.57300 18.55000
H  8.22900 45.58500 18.06700
H  6.95500 46.29300 19.14100
H  3.66300 46.71500 24.82400
H  4.14300 45.17500 24.22200
H  4.50700 46.49200 23.17400
H  6.45500 47.59400 29.17400
H  5.06000 44.62500 31.90800
H  5.47600 46.05700 32.90000
H  6.76500 45.07200 32.33000

