158

Mg 2.26800 -1.94200 44.71100
C  5.47000 -1.00200 43.69900
C  0.88700 0.46100 42.73300
C  -0.76600 -3.35200 45.10700
C  3.68900 -4.84700 46.19000
N  3.14700 -0.33800 43.43300
C  4.46700 -0.26700 43.03100
C  4.68800 0.97000 42.14900
C  3.21100 1.44900 41.81500
C  2.29000 0.42800 42.69900
C  2.93800 2.93100 41.93800
C  5.54300 0.69700 40.85000
C  6.56100 1.72900 40.44000
H  6.28500 2.27800 38.95400
N  0.29100 -1.41500 44.04800
C  -0.03800 -0.30900 43.37300
C  -1.56000 -0.28300 43.34000
C  -2.04400 -1.39400 44.06900
C  -0.82500 -2.13400 44.47200
C  -2.29200 0.76500 42.49600
C  -3.49400 -1.60900 44.46500
O  -4.37000 -0.88500 44.03300
C  -3.88600 -2.64200 45.52000
N  1.53200 -3.91900 45.46900
C  0.27000 -4.18900 45.62400
C  0.05800 -5.59100 46.23300
C  1.50400 -6.12700 46.52400
C  2.30300 -4.91900 46.02100
C  -0.88800 -5.72100 47.46800
C  1.96400 -7.38800 45.74200
C  2.28900 -8.55100 46.62500
N  4.14100 -2.85200 44.89800
C  4.59400 -3.93200 45.65300
C  6.03600 -3.90900 45.71200
C  6.39200 -2.73300 45.02400
C  5.25900 -2.20500 44.49600
C  6.96300 -4.86300 46.40700
C  7.54300 -1.90300 44.61800
O  8.72400 -1.99300 45.00800
C  6.91100 -0.77700 43.72400
C  7.16500 0.56300 44.48000
O  6.71400 0.98400 45.55900
O  8.02500 1.38500 43.69600
C  8.21700 2.74000 44.14900
H  0.58900 1.26900 42.06300
H  -1.74000 -3.84700 45.12400
H  4.11200 -5.71500 46.70000
H  4.98900 1.80600 42.78000
H  3.18500 1.34500 40.73000
H  3.85500 3.51200 41.84100
H  2.55200 2.93700 42.95800
H  2.17200 3.23200 41.22300
H  4.90300 0.42100 40.01200
H  6.14200 -0.19700 41.02000
H  7.61300 1.44700 40.47600
H  6.51200 2.59200 41.10500
H  -3.10900 0.20600 42.04100
H  -1.69100 1.23600 41.71800
H  -2.90600 1.46000 43.06700
H  -4.86900 -2.40500 45.92700
H  -3.14000 -2.75400 46.30800
H  -3.90400 -3.62000 45.03800
H  -0.40500 -6.10800 45.39300
H  1.58800 -6.18600 47.60900
H  -0.23400 -5.76000 48.34000
H  -1.42300 -6.66400 47.35300
H  -1.48400 -4.80900 47.50400
H  2.82900 -7.14000 45.12700
H  1.18200 -7.66800 45.03600
H  1.54900 -8.62600 47.42200
H  3.27100 -8.37800 47.06700
H  2.26400 -9.49200 46.07600
H  7.85800 -4.78400 45.79000
H  6.60900 -5.88300 46.55100
H  7.16500 -4.39500 47.37100
H  7.42400 -0.81200 42.76200
H  7.58100 3.47400 43.65400
H  9.17000 3.09500 43.75600
H  8.17900 2.79700 45.23600
Mg 30.12000 58.38000 40.80200
C  27.41800 56.55700 39.64700
C  32.27100 56.02500 39.32500
C  32.73800 60.51400 41.36800
C  27.84100 61.06400 41.51800
N  29.89000 56.52600 39.71000
C  28.67300 55.99700 39.29000
C  28.88700 54.80900 38.43900
C  30.39700 54.46700 38.51000
C  30.91800 55.73600 39.28700
C  30.87200 53.18000 39.16600
C  28.41000 55.14900 37.01400
C  27.35500 54.17800 36.36400
H  26.51300 54.84200 35.30000
N  32.26900 58.29200 40.40900
C  32.97100 57.18000 39.87300
C  34.36500 57.47400 39.88500
C  34.47500 58.79900 40.50500
C  33.18400 59.25700 40.80700
C  35.42300 56.67200 39.28300
C  35.80700 59.47400 41.00000
O  36.83400 58.90200 40.70000
C  35.89500 60.75100 41.86300
N  30.27100 60.46900 41.25100
C  31.50900 61.07400 41.53500
C  31.35500 62.58600 41.76100
C  29.75900 62.74500 41.82600
C  29.22600 61.32400 41.62900
C  32.19600 63.09300 42.98800
C  29.16300 63.84500 40.88700
C  27.92800 64.57900 41.41800
N  28.00500 58.72200 40.87900
C  27.24800 59.87600 41.09100
C  25.88800 59.54700 40.87300
C  25.91500 58.24000 40.36600
C  27.22900 57.77600 40.28300
C  24.63700 60.30400 41.07300
C  25.01200 57.13600 39.94600
O  23.82000 56.98500 39.95200
C  26.01000 56.05700 39.32300
C  25.69400 54.74200 39.98400
O  26.18500 54.44600 41.05500
O  24.78700 54.10200 39.28900
C  24.35300 52.80800 39.89500
H  32.85500 55.18700 38.93800
H  33.44700 61.33400 41.50400
H  27.22100 61.92000 41.79200
H  28.31000 53.96100 38.80900
H  30.76700 54.41900 37.48600
H  31.44800 53.29200 40.08400
H  31.46700 52.69300 38.39300
H  30.14000 52.41500 39.42200
H  29.19900 55.03600 36.27000
H  27.97200 56.14200 36.91900
H  26.82200 53.42000 36.93900
H  27.88200 53.48900 35.70400
H  36.15000 56.35000 40.02900
H  35.92200 57.27900 38.52900
H  35.02000 55.82200 38.73200
H  35.26200 60.56000 42.72900
H  35.56300 61.65400 41.35000
H  36.93600 60.81700 42.18100
H  31.67900 63.09200 40.85200
H  29.45500 62.95600 42.85100
H  32.39400 62.20300 43.58500
H  31.67600 63.86300 43.55700
H  33.13700 63.59600 42.76500
H  28.88200 63.39900 39.93300
H  29.91300 64.60900 40.68200
H  28.14400 65.64600 41.47000
H  27.63400 64.23700 42.41000
H  27.02800 64.49100 40.81000
H  24.67100 61.29100 41.53500
H  23.87600 59.74200 41.61400
H  24.14100 60.41400 40.10900
H  25.72000 56.00400 38.27400
H  25.25500 52.20300 39.98300
H  23.67400 52.33600 39.18600
H  23.93400 52.86500 40.89900

