158

Mg 24.83200 2.06200 30.00700
C  26.81200 1.63300 32.82100
C  22.09000 2.35700 31.96000
C  22.92000 2.05400 27.14200
C  27.74500 1.62600 28.03500
N  24.57300 2.22200 32.11400
C  25.46000 1.84600 33.06000
C  24.92400 2.20100 34.39200
C  23.40300 2.04700 34.15200
C  23.32800 2.22900 32.64400
C  22.76400 0.66600 34.56800
C  25.31500 3.66000 34.92300
C  26.05300 3.69600 36.21800
H  25.37200 4.48600 37.36800
N  22.83000 2.20700 29.67000
C  21.86100 2.28200 30.62800
C  20.51700 2.22700 29.97300
C  20.72700 2.26900 28.59400
C  22.23200 2.29000 28.40700
C  19.24800 2.22600 30.78400
C  19.67500 1.92200 27.53400
O  20.01600 1.92200 26.34900
C  18.21200 1.57100 27.79400
N  25.23800 1.68600 27.92500
C  24.27500 1.85000 26.92900
C  24.88700 1.84800 25.52000
C  26.47900 1.86700 25.76800
C  26.53200 1.77200 27.32800
C  24.34100 0.75100 24.58300
C  27.16400 3.05800 25.09400
C  27.02500 4.47700 25.74700
N  26.89900 1.61000 30.30900
C  27.91100 1.51300 29.41700
C  29.11400 1.21600 30.08300
C  28.75900 1.35000 31.51100
C  27.37700 1.56400 31.56000
C  30.44400 0.91400 29.51500
C  29.21500 1.34200 32.80900
O  30.33500 1.26100 33.25800
C  27.98400 1.50100 33.75200
C  27.86900 0.31400 34.66200
O  27.32500 -0.77900 34.42900
O  28.46400 0.70200 35.75700
C  28.31000 -0.13400 36.96800
H  21.25000 2.36300 32.65700
H  22.24800 2.15200 26.28700
H  28.70700 1.72000 27.52600
H  25.26300 1.44600 35.10200
H  22.83300 2.92300 34.46200
H  23.44600 0.09300 35.19600
H  22.46100 0.11600 33.67700
H  21.90900 0.80400 35.23100
H  24.49700 4.37500 35.00800
H  25.99000 4.06500 34.16900
H  26.99100 4.21500 36.02100
H  26.34400 2.70900 36.57800
H  19.49500 2.48700 31.81200
H  18.82800 1.22600 30.89000
H  18.57900 2.98400 30.37600
H  18.06900 0.93900 28.67100
H  17.81100 1.02500 26.94000
H  17.64200 2.50000 27.76900
H  24.51900 2.79700 25.13000
H  26.85100 0.90800 25.41000
H  23.84400 1.19500 23.72100
H  23.55600 0.13000 25.01600
H  25.13800 0.11500 24.19900
H  26.59200 3.22200 24.18100
H  28.15500 2.74500 24.76400
H  26.26400 4.94500 25.12200
H  28.01800 4.92500 25.75600
H  26.64500 4.47100 26.76800
H  30.42100 -0.17500 29.49400
H  31.24100 1.31900 30.13900
H  30.53200 1.40200 28.54400
H  28.10900 2.42400 34.31900
H  27.78800 0.36800 37.78200
H  29.31600 -0.39700 37.29600
H  27.76100 -1.06800 36.84300
Mg -4.89500 25.65200 25.92500
C  -3.27600 27.01500 28.77200
C  -6.92300 23.82300 27.99100
C  -5.93700 24.00800 23.15800
C  -2.54700 27.39600 23.96600
N  -4.96400 25.34400 27.99500
C  -4.29600 26.06300 29.00800
C  -4.84800 25.69800 30.40500
C  -5.84000 24.49800 30.13100
C  -5.97000 24.58200 28.60900
C  -5.35000 23.09600 30.65800
C  -5.43900 26.95900 31.15400
C  -4.95300 27.25100 32.58400
H  -4.67300 26.02100 33.55800
N  -6.29600 24.20100 25.60400
C  -7.06700 23.61000 26.58100
C  -7.98000 22.66800 25.94600
C  -7.68500 22.67800 24.52000
C  -6.60100 23.63400 24.36900
C  -8.98300 21.82200 26.72000
C  -8.24500 21.75700 23.44300
O  -7.96300 21.79700 22.23100
C  -9.26900 20.73700 23.83400
N  -4.17200 25.51100 23.91600
C  -4.84800 24.81200 22.95300
C  -4.44500 25.23400 21.53700
C  -3.29900 26.32500 21.78600
C  -3.41100 26.49200 23.34300
C  -4.13000 24.02200 20.57100
C  -3.43500 27.54600 20.82300
C  -2.50100 27.59600 19.60300
N  -3.20400 26.94800 26.27200
C  -2.32900 27.55800 25.39400
C  -1.46300 28.54600 26.02000
C  -1.67800 28.26100 27.42400
C  -2.75000 27.24900 27.48200
C  -0.42600 29.47100 25.41200
C  -1.29200 28.53700 28.84500
O  -0.46700 29.33800 29.29900
C  -2.35600 27.79300 29.73300
C  -1.68300 26.94600 30.81900
O  -1.63700 25.77200 30.85200
O  -1.11700 27.82400 31.75300
C  -0.75400 27.34200 33.03700
H  -7.62700 23.39900 28.71000
H  -6.35200 23.65400 22.21200
H  -1.89600 28.07500 23.41300
H  -4.11000 25.28400 31.09200
H  -6.84600 24.71300 30.49100
H  -6.13700 22.81600 31.35800
H  -4.39500 23.16400 31.17900
H  -5.33300 22.28700 29.92700
H  -6.52500 26.85900 31.15900
H  -5.36500 27.79300 30.45500
H  -5.71700 27.73100 33.19600
H  -3.99200 27.75700 32.48600
H  -8.72700 20.76700 26.61900
H  -10.00600 21.98000 26.38000
H  -8.86800 22.14200 27.75600
H  -9.74000 20.34500 22.93300
H  -10.10000 21.24000 24.32900
H  -8.79700 19.92400 24.38600
H  -5.28700 25.78700 21.12200
H  -2.29400 25.93600 21.61900
H  -4.13100 23.11800 21.18000
H  -3.15000 24.03100 20.09400
H  -4.98400 23.81100 19.92700
H  -3.43800 28.39800 21.50200
H  -4.42200 27.43400 20.37500
H  -3.22900 27.72800 18.80300
H  -2.03300 26.61600 19.51100
H  -1.87300 28.48700 19.58900
H  -0.87600 30.35300 24.95600
H  0.13700 29.08200 24.56400
H  0.32800 29.70800 26.16300
H  -2.96900 28.54800 30.22500
H  -1.38100 27.68600 33.86000
H  0.17400 27.83500 33.32500
H  -0.65800 26.25700 33.08000

