158

Mg 2.20800 -0.96100 43.82300
C  5.62300 -0.54600 43.28200
C  1.72300 1.90000 41.73100
C  -1.08400 -1.56600 43.75600
C  2.77800 -4.03000 45.36400
N  3.56400 0.52300 42.64000
C  4.91000 0.38100 42.47900
C  5.46800 1.41300 41.46800
C  4.18600 2.25600 41.07800
C  3.07800 1.60500 41.87700
C  4.27900 3.81600 41.41300
C  6.12800 0.82400 40.25500
C  7.59800 1.19700 40.17900
H  8.12500 1.85200 38.81300
N  0.54500 0.06100 42.99700
C  0.57600 1.26600 42.29000
C  -0.78400 1.70000 42.06600
C  -1.60900 0.70200 42.64800
C  -0.73200 -0.38500 43.10200
C  -1.04400 3.09600 41.37500
C  -3.16600 0.69100 42.71100
O  -3.73400 1.52700 42.04500
C  -3.98300 -0.26200 43.62900
N  1.01900 -2.61000 44.50000
C  -0.33600 -2.58200 44.36800
C  -0.97200 -3.87900 44.96300
C  0.30100 -4.51400 45.70700
C  1.42000 -3.73700 45.08700
C  -2.21200 -3.73600 45.86300
C  0.41900 -6.09100 45.36300
C  0.64800 -7.01800 46.59200
N  3.82000 -2.07800 44.25500
C  3.90500 -3.26800 44.90600
C  5.28500 -3.67700 44.96100
C  6.00400 -2.59400 44.45200
C  5.03600 -1.57600 44.02600
C  5.83500 -5.02700 45.51000
C  7.31300 -2.10600 44.27200
O  8.37800 -2.59700 44.63300
C  7.14000 -0.67700 43.54700
C  7.59800 0.55100 44.34300
O  7.28800 0.85900 45.47600
O  8.56900 1.24400 43.58300
C  9.08700 2.36400 44.22100
H  1.36300 2.66500 41.04000
H  -2.14000 -1.84100 43.76300
H  2.95600 -5.02400 45.78100
H  6.14000 2.08900 41.99800
H  3.94800 2.16500 40.01800
H  5.28700 4.01200 41.77800
H  3.61100 4.13000 42.21500
H  4.09200 4.30600 40.45800
H  5.74600 1.07500 39.26600
H  6.14800 -0.22700 40.54700
H  8.21100 0.30700 40.32000
H  7.83500 1.92800 40.95300
H  -2.13200 3.14400 41.42900
H  -0.85600 3.16000 40.30400
H  -0.49300 3.87100 41.90900
H  -4.96400 0.16200 43.84400
H  -3.64800 -0.45600 44.64800
H  -4.28200 -1.19000 43.14200
H  -1.38100 -4.49700 44.16400
H  0.36100 -4.32600 46.77900
H  -3.02300 -4.44800 45.70700
H  -2.61900 -2.73400 45.72900
H  -1.98900 -3.83500 46.92600
H  1.16900 -6.21100 44.58100
H  -0.52100 -6.43900 44.93600
H  -0.07100 -7.83400 46.64700
H  0.60500 -6.42400 47.50500
H  1.53200 -7.63700 46.43900
H  5.50400 -5.81500 44.83400
H  5.41000 -5.05900 46.51400
H  6.90600 -4.97900 45.70500
H  7.64500 -0.71200 42.58100
H  10.09500 2.23700 44.61600
H  8.43900 2.75600 45.00600
H  9.10400 3.13300 43.44800
Mg 47.41100 15.81500 28.31200
C  45.46600 15.21200 31.11000
C  49.57700 17.67300 30.10200
C  49.03100 16.74500 25.39400
C  44.85900 14.44500 26.37300
N  47.46200 16.38200 30.34500
C  46.62200 16.00900 31.35300
C  47.08700 16.55900 32.76500
C  48.26700 17.51900 32.27400
C  48.42300 17.26000 30.76200
C  48.10900 19.05500 32.57600
C  47.72000 15.31800 33.68400
C  47.67600 15.53400 35.22900
H  47.26400 16.88800 35.74000
N  49.17100 17.02400 27.88600
C  49.94800 17.66700 28.77800
C  51.09400 18.30300 28.11400
C  50.88200 18.02700 26.73900
C  49.66700 17.23300 26.59100
C  52.26500 18.93500 28.84400
C  51.76100 18.43800 25.58200
O  51.53300 18.13500 24.40300
C  52.95200 19.34500 25.86100
N  47.02200 15.55800 26.25600
C  47.81700 16.04100 25.22500
C  47.24700 15.76000 23.87100
C  45.92400 15.00900 24.20500
C  45.90700 15.04100 25.76000
C  47.01100 16.97600 22.88000
C  45.97600 13.58000 23.59200
C  46.57300 12.44300 24.46600
N  45.63400 14.86100 28.64000
C  44.63900 14.31600 27.75100
C  43.50300 13.77000 28.47400
C  43.83000 14.10000 29.81200
C  45.08400 14.75100 29.84800
C  42.22400 13.01700 27.89300
C  43.36900 14.03000 31.13900
O  42.26300 13.60600 31.57400
C  44.44000 14.69600 32.09100
C  43.67400 15.82600 32.64600
O  43.20200 16.77200 32.02300
O  43.47500 15.55100 33.94700
C  42.71800 16.57700 34.74700
H  50.18000 18.33700 30.72500
H  49.48900 16.93300 24.42000
H  44.01400 14.05000 25.80600
H  46.25900 17.08400 33.24100
H  49.19800 17.29100 32.79300
H  47.21000 19.02500 33.19200
H  47.94300 19.61400 31.65500
H  48.93600 19.54800 33.08600
H  48.80200 15.22300 33.59100
H  47.28900 14.36500 33.37900
H  48.67500 15.48100 35.66100
H  47.04500 14.78300 35.70400
H  52.16700 18.77000 29.91700
H  52.15900 20.01300 28.72000
H  53.23500 18.50600 28.59400
H  53.74600 18.68100 26.20500
H  52.68800 20.19900 26.48400
H  53.23400 19.71200 24.87400
H  48.07700 15.20100 23.43900
H  45.02100 15.57100 23.96500
H  45.97100 17.06500 22.56800
H  47.72400 16.82700 22.06900
H  47.32300 17.87500 23.41200
H  46.55500 13.55700 22.66800
H  45.00300 13.16000 23.33600
H  45.81900 12.01000 25.12400
H  47.42400 12.88900 24.98000
H  46.88700 11.59600 23.85600
H  42.45300 12.72300 26.86800
H  41.46000 13.79000 27.81600
H  41.94600 12.18900 28.54500
H  44.83200 13.98900 32.82200
H  42.78900 17.61000 34.40600
H  43.04400 16.51100 35.78500
H  41.66600 16.29400 34.75800

