158

Mg 47.72200 16.63700 29.31900
C  45.87200 16.36300 32.28200
C  49.96300 18.51900 31.02600
C  49.34000 17.28500 26.43000
C  45.04100 15.32900 27.49400
N  47.81700 17.50000 31.37900
C  47.00300 17.13100 32.38100
C  47.58700 17.66400 33.73700
C  48.77700 18.59300 33.29600
C  48.86100 18.26600 31.81300
C  48.60700 20.09100 33.49300
C  48.05700 16.42100 34.65800
C  47.87800 16.73200 36.14300
H  47.53800 18.17300 36.57300
N  49.49500 17.58700 28.85400
C  50.28600 18.27400 29.70800
C  51.57100 18.64700 29.05900
C  51.44900 18.21300 27.67100
C  50.04500 17.67300 27.56700
C  52.79600 19.26900 29.77500
C  52.42200 18.28200 26.51600
O  52.04100 18.08400 25.36500
C  53.87400 18.59700 26.76600
N  47.23400 16.28000 27.23500
C  48.07900 16.67100 26.19900
C  47.37100 16.51500 24.84800
C  46.05800 15.69700 25.25100
C  46.09000 15.82200 26.73900
C  46.94700 17.84100 24.10000
C  45.98700 14.25600 24.64800
C  45.27400 14.00100 23.29300
N  45.81000 16.02700 29.69000
C  44.81500 15.47800 28.88000
C  43.74500 14.94300 29.67900
C  44.13500 15.21000 31.10500
C  45.39200 15.95300 30.98300
C  42.56800 14.14900 29.14900
C  43.73500 15.12000 32.48200
O  42.73100 14.73000 33.01600
C  44.80300 15.86100 33.30100
C  44.12900 16.91000 34.10000
O  43.72400 18.03300 33.70200
O  44.05900 16.50400 35.39900
C  43.01500 17.27000 36.10800
H  50.74300 19.09500 31.52700
H  49.81500 17.48900 25.46800
H  44.24100 15.05000 26.80500
H  46.69600 18.15700 34.12800
H  49.68200 18.28000 33.81700
H  47.90600 20.14700 34.32600
H  48.18100 20.58600 32.62000
H  49.53500 20.62200 33.70200
H  49.11000 16.23900 34.44300
H  47.43900 15.57200 34.36500
H  48.85600 16.48700 36.55700
H  47.18900 15.96200 36.49300
H  52.51000 19.59700 30.77400
H  53.25200 20.02300 29.13300
H  53.48800 18.44200 29.93300
H  54.09500 18.09400 27.70700
H  54.06400 19.65800 26.92800
H  54.41900 18.20200 25.90800
H  47.98300 16.01400 24.09800
H  45.17900 16.24000 24.90400
H  47.13500 18.66600 24.78700
H  45.94500 17.84100 23.67000
H  47.58700 17.95900 23.22600
H  45.34400 13.76400 25.37900
H  47.01100 13.88700 24.60800
H  45.94800 13.40700 22.67600
H  45.09500 14.93300 22.75600
H  44.25600 13.63600 23.43000
H  42.77100 13.62600 28.21500
H  41.86900 14.97800 29.04200
H  42.14100 13.42500 29.84400
H  45.21400 15.15800 34.02600
H  43.33000 18.23000 36.51500
H  42.80700 16.70900 37.01900
H  42.09600 17.18100 35.52900
Mg 42.77500 41.65000 26.15300
C  41.69500 43.91700 28.60800
C  43.93400 39.64200 28.69800
C  43.65500 39.43800 23.87000
C  41.81600 43.91800 23.73000
N  42.65000 41.77300 28.38000
C  42.24000 42.75300 29.19500
C  42.09600 42.26200 30.64100
C  42.83200 40.89600 30.63300
C  43.22500 40.80100 29.13400
C  44.01400 40.83600 31.58900
C  40.62800 42.12100 31.20400
C  40.45000 41.66200 32.67800
H  39.70200 42.63800 33.60400
N  43.70600 39.81700 26.28500
C  44.08700 39.13300 27.42900
C  44.74200 37.88300 27.00900
C  44.53900 37.78300 25.61500
C  43.95900 39.04900 25.20800
C  45.13700 36.86500 28.04900
C  44.85300 36.60100 24.75500
O  44.78400 36.57400 23.51700
C  45.07200 35.32300 25.45700
N  42.61500 41.62000 24.08800
C  43.07300 40.59900 23.32900
C  42.92100 40.85400 21.78700
C  42.03900 42.15800 21.87100
C  42.16700 42.63800 23.27300
C  44.20500 41.08100 21.16300
C  40.56600 41.94600 21.44500
C  40.22700 42.24900 19.97500
N  42.10100 43.63300 26.08200
C  41.81000 44.44700 25.02600
C  41.31900 45.74400 25.48400
C  41.29500 45.58500 26.92300
C  41.83800 44.28300 27.19000
C  40.82500 46.77600 24.64700
C  40.80300 46.13700 28.17400
O  40.33900 47.24500 28.49900
C  41.05200 45.01400 29.29200
C  41.98700 45.59800 30.34400
O  43.08300 46.03000 30.23200
O  41.27200 45.54400 31.53200
C  42.00000 45.96300 32.75100
H  44.34000 39.01800 29.49700
H  43.78000 38.68300 23.09100
H  41.48000 44.50800 22.87400
H  42.60700 42.96300 31.30200
H  42.14800 40.07900 30.86400
H  43.96100 39.91900 32.17500
H  43.96000 41.67600 32.28200
H  44.95500 40.82600 31.03900
H  40.05000 41.46600 30.55200
H  40.08800 43.02900 30.93300
H  41.43200 41.55500 33.13800
H  39.97800 40.68900 32.53500
H  45.13400 37.17300 29.09400
H  46.15400 36.60000 27.76000
H  44.51300 35.97800 27.93600
H  45.97900 35.41000 26.05600
H  45.05300 34.56500 24.67400
H  44.19900 35.10200 26.07000
H  42.30000 40.06400 21.36500
H  42.42200 42.82600 21.10000
H  44.97500 40.66600 21.81400
H  44.54000 42.09600 20.94900
H  44.19400 40.51200 20.23400
H  39.97500 42.60200 22.08600
H  40.20500 40.91900 21.48800
H  39.85900 41.31300 19.55600
H  41.10000 42.66200 19.46800
H  39.45600 43.01800 19.91700
H  40.25400 46.43400 23.78300
H  41.54900 47.50300 24.28100
H  40.08900 47.33500 25.22500
H  40.01600 44.88900 29.60500
H  41.58400 45.53900 33.66500
H  41.82800 47.02300 32.94200
H  43.08300 45.86500 32.66800

