158

Mg 25.66100 0.56400 28.77700
C  27.53700 0.16400 31.64300
C  22.78600 0.92800 30.77500
C  23.78300 0.70500 26.06700
C  28.44400 -0.42700 26.92000
N  25.21400 0.30600 30.94000
C  26.18500 0.45300 31.91700
C  25.57100 0.82300 33.30500
C  24.05300 0.90100 32.98600
C  23.93700 0.67300 31.45200
C  23.35500 -0.16800 33.84100
C  26.17000 2.06000 33.95500
C  26.31300 1.88400 35.51400
H  25.75500 2.94900 36.49500
N  23.61900 0.89600 28.45900
C  22.63700 1.02800 29.38200
C  21.37000 1.20100 28.73900
C  21.62800 1.17900 27.29800
C  23.07100 0.85100 27.23900
C  20.04900 1.39300 29.44200
C  20.62800 1.37900 26.20200
O  20.85300 1.20200 25.06100
C  19.20700 1.84100 26.53200
N  26.00500 0.08500 26.81300
C  25.14300 0.46300 25.79800
C  25.76100 0.12900 24.37400
C  27.21800 -0.13100 24.71700
C  27.23500 -0.17100 26.18400
C  24.98100 -1.01100 23.69100
C  28.25200 0.96600 24.27600
C  28.47800 1.17000 22.73400
N  27.66900 0.06700 29.19300
C  28.71600 -0.24000 28.33200
C  29.83700 -0.36600 29.13100
C  29.45600 -0.13900 30.47900
C  28.12100 0.06000 30.44500
C  31.30100 -0.71000 28.75400
C  29.97200 -0.12100 31.78700
O  31.08400 -0.44300 32.15700
C  28.68500 0.07600 32.63900
C  28.53400 -0.99300 33.74100
O  27.88500 -1.95100 33.60500
O  29.04500 -0.47400 34.87800
C  28.79600 -1.18500 36.13000
H  21.91400 0.94600 31.43200
H  23.19100 0.67500 25.15000
H  29.30900 -0.65000 26.29200
H  25.80500 0.03400 34.01900
H  23.68900 1.88400 33.28400
H  22.60100 0.42500 34.35800
H  24.00000 -0.64300 34.58000
H  22.85200 -0.91200 33.22400
H  25.56100 2.92000 33.67300
H  27.17500 2.28200 33.59700
H  27.38800 1.86000 35.68900
H  25.82500 0.94800 35.78500
H  20.13100 1.35400 30.52800
H  19.36100 0.56300 29.28200
H  19.75100 2.42300 29.24500
H  19.16400 2.81100 27.02800
H  18.78900 1.08200 27.19300
H  18.56200 1.80600 25.65400
H  25.77500 0.93700 23.64200
H  27.56800 -1.08900 24.33300
H  24.47200 -1.65800 24.40500
H  25.66500 -1.51900 23.01200
H  24.29400 -0.64700 22.92600
H  29.24100 0.57800 24.52000
H  28.20200 1.90000 24.83600
H  28.51700 2.24600 22.56700
H  27.68100 0.70000 22.15800
H  29.39000 0.82700 22.24600
H  31.40200 -0.84200 27.67600
H  31.50700 -1.67200 29.22300
H  31.93000 0.14500 28.99800
H  28.86800 1.03500 33.12200
H  28.38400 -2.17400 35.92700
H  28.04100 -0.58700 36.64200
H  29.69300 -1.23100 36.74700
Mg 46.38300 25.37400 28.89900
C  47.20200 27.68200 31.34500
C  45.02900 23.31900 31.33400
C  46.06500 22.96200 26.55100
C  47.65200 27.47400 26.33500
N  46.14200 25.53700 31.00700
C  46.36800 26.64600 31.78100
C  45.99700 26.37800 33.26700
C  45.48100 24.89000 33.18100
C  45.59200 24.50900 31.74100
C  46.31100 23.85600 34.04600
C  44.93200 27.38400 33.88400
C  45.41300 28.12400 35.15500
H  45.75600 27.33800 36.42000
N  45.79100 23.36600 29.00400
C  45.20100 22.69300 30.07900
C  44.80600 21.37000 29.67200
C  45.13500 21.27200 28.31200
C  45.75300 22.53800 27.90500
C  44.15600 20.35100 30.63800
C  44.89700 20.06400 27.41200
O  45.16800 20.05200 26.25500
C  44.22900 18.86600 28.01900
N  46.71000 25.27400 26.75200
C  46.47300 24.15600 26.00300
C  46.47900 24.37900 24.48300
C  47.11700 25.80200 24.46700
C  47.16500 26.21700 25.93000
C  47.44800 23.41200 23.65100
C  46.51500 26.88100 23.54600
C  47.47200 27.45600 22.55600
N  47.22900 27.22500 28.83100
C  47.70600 27.93800 27.70700
C  48.41700 29.13700 28.28400
C  48.23300 29.08900 29.66700
C  47.48000 27.95700 29.97700
C  49.33700 29.99700 27.48000
C  48.47500 29.80800 31.01100
O  49.04200 30.82300 31.32100
C  47.87700 28.79200 32.11500
C  49.00500 28.44500 33.00200
O  50.11500 27.97100 32.66600
O  48.71300 28.78700 34.27800
C  49.62100 28.18600 35.32600
H  44.64200 22.70600 32.15000
H  46.01200 22.17700 25.79300
H  48.11000 28.02600 25.51100
H  46.94100 26.53300 33.79000
H  44.48300 24.78900 33.60700
H  45.68400 23.46300 34.84600
H  47.12800 24.44400 34.46400
H  46.68700 22.99900 33.48600
H  44.00600 26.85700 34.11200
H  44.72900 28.06300 33.05500
H  44.61400 28.81900 35.41600
H  46.26000 28.76800 34.92000
H  43.10100 20.28300 30.37400
H  44.20400 20.54100 31.71000
H  44.59700 19.35500 30.60000
H  43.23900 19.20200 28.32900
H  44.87600 18.45800 28.79500
H  44.20200 18.03700 27.31200
H  45.42700 24.35000 24.19900
H  48.16200 25.63600 24.20400
H  48.25200 23.06100 24.29800
H  47.88100 23.87100 22.76300
H  46.83300 22.60700 23.25100
H  46.03200 27.59600 24.21300
H  45.63500 26.49600 23.03100
H  47.56500 28.48600 22.90100
H  47.02800 27.43300 21.56100
H  48.43600 26.94700 22.54600
H  50.15000 29.33900 27.17400
H  49.81900 30.68700 28.17300
H  48.94300 30.48500 26.58900
H  47.10500 29.28400 32.70600
H  49.18300 27.21800 35.56800
H  49.65500 28.87200 36.17200
H  50.64000 27.97700 35.00100

