158

Mg 29.97000 59.00800 39.88900
C  27.41600 56.95900 38.55600
C  32.20000 56.40300 38.78200
C  32.67200 61.22600 40.01400
C  27.74300 61.65400 40.22600
N  29.87600 56.85800 38.89400
C  28.69900 56.30400 38.37400
C  29.00900 54.97200 37.59600
C  30.52000 54.74700 38.00900
C  30.85800 56.08400 38.57200
C  30.81800 53.45300 38.86700
C  28.78400 55.16900 36.06200
C  28.12300 53.95600 35.35100
H  26.92400 54.24900 34.41400
N  32.14500 58.74300 39.69400
C  32.81600 57.58600 39.28300
C  34.23100 57.77800 39.39900
C  34.45700 59.19200 39.74200
C  33.06900 59.81400 39.81800
C  35.21700 56.65700 39.15700
C  35.71600 59.82800 39.96600
O  36.81800 59.25100 39.78000
C  35.78700 61.26400 40.36700
N  30.15900 61.14000 40.09400
C  31.39700 61.79900 40.21000
C  31.28900 63.30200 40.27400
C  29.70900 63.33700 40.62900
C  29.11900 61.98100 40.26900
C  32.22000 63.88300 41.37900
C  28.99700 64.59300 40.03600
C  28.42900 65.63000 41.00100
N  27.97000 59.21400 39.69200
C  27.18900 60.32800 39.84200
C  25.85300 59.99000 39.60500
C  25.84100 58.65400 39.11900
C  27.22600 58.26500 39.06500
C  24.68100 60.86300 39.64900
C  25.03700 57.49300 38.63100
O  23.81000 57.37700 38.53600
C  26.05200 56.33900 38.29700
C  25.65500 55.18400 39.21600
O  25.55200 55.18200 40.41200
O  25.42300 54.06400 38.46000
C  24.87700 52.93500 39.23900
H  32.86100 55.60300 38.44000
H  33.46700 61.96900 39.92900
H  27.08300 62.49600 40.44700
H  28.36800 54.15300 37.92100
H  31.22900 54.59700 37.19600
H  29.84700 52.96300 38.94800
H  31.20400 53.72500 39.84900
H  31.62900 52.81900 38.50900
H  29.70900 55.33600 35.51100
H  28.18300 56.05300 35.84700
H  27.83800 53.22700 36.11000
H  28.98400 53.57800 34.80000
H  34.99900 55.66000 39.53800
H  36.18900 56.90900 39.58100
H  35.34700 56.47000 38.09100
H  36.79900 61.55400 40.64800
H  35.04500 61.47600 41.13600
H  35.53000 61.94100 39.55200
H  31.57600 63.57700 39.25900
H  29.55600 63.47200 41.70000
H  32.71000 63.06100 41.90100
H  31.70900 64.48300 42.13200
H  32.97500 64.54100 40.94700
H  28.27500 64.22100 39.30900
H  29.62600 65.11700 39.31800
H  28.56100 66.57700 40.47700
H  29.05600 65.57500 41.89100
H  27.45000 65.23700 41.27500
H  24.90400 61.84900 40.05600
H  23.85300 60.41700 40.20000
H  24.37200 60.97000 38.60900
H  25.88000 56.11500 37.24400
H  24.56700 52.19200 38.50400
H  23.90200 53.22000 39.63400
H  25.61400 52.59600 39.96700
Mg 8.29100 47.28600 28.42000
C  6.89100 46.89800 31.71200
C  11.28100 47.81700 29.94000
C  9.53300 48.16900 25.44700
C  5.02200 47.89900 27.25100
N  8.90100 47.41900 30.54300
C  8.23900 47.14500 31.76200
C  9.15500 47.45800 32.95500
C  10.45100 48.10900 32.38400
C  10.19300 47.75400 30.82200
C  10.63600 49.63600 32.57800
C  9.47500 46.19100 33.82200
C  9.23200 46.34800 35.29000
H  9.84700 45.23900 36.19200
N  10.22900 47.82500 27.80300
C  11.36300 47.72200 28.54800
C  12.52700 47.91100 27.64900
C  11.99400 48.02900 26.30500
C  10.50700 48.00800 26.46600
C  14.01600 47.74700 28.06500
C  12.75700 48.16700 24.99400
O  12.18700 48.21900 23.93400
C  14.28000 48.24100 24.95900
N  7.45600 48.02100 26.74300
C  8.12400 48.08500 25.54600
C  7.23600 48.03700 24.31200
C  5.84400 48.25500 24.96500
C  6.14600 48.08800 26.43500
C  7.40900 48.99000 23.13000
C  4.75500 47.26500 24.37600
C  3.43500 47.92000 24.07800
N  6.26900 47.19100 29.23500
C  5.08000 47.40500 28.57200
C  3.99600 47.14300 29.48100
C  4.67000 46.90000 30.71200
C  6.07800 47.03200 30.55100
C  2.54300 47.13000 29.24000
C  4.52700 46.51300 32.11400
O  3.53600 46.23700 32.73600
C  5.93300 46.48700 32.83700
C  6.24500 45.07600 33.18100
O  6.72100 44.20300 32.44900
O  5.71300 44.75700 34.42700
C  6.08700 43.40200 34.88300
H  12.28000 47.94800 30.36200
H  9.92400 48.37800 24.45000
H  4.04800 47.92800 26.75900
H  8.64600 48.19900 33.57200
H  11.37700 47.62400 32.69300
H  10.13300 50.03000 33.46100
H  10.28300 50.20300 31.71600
H  11.71600 49.76600 32.63900
H  10.49300 45.82000 33.70700
H  8.91500 45.37000 33.37200
H  8.17200 46.32400 35.54400
H  9.55100 47.34500 35.59500
H  14.53600 48.67300 27.82000
H  14.47000 46.82600 27.70100
H  14.20800 47.76800 29.13800
H  14.72500 48.91300 25.69300
H  14.45600 48.53500 23.92400
H  14.48800 47.19200 25.16900
H  7.37300 47.03000 23.91900
H  5.52900 49.29800 24.96500
H  6.53000 49.63200 23.06700
H  7.43600 48.51800 22.14800
H  8.38100 49.47700 23.21600
H  4.54100 46.42100 25.03100
H  4.98300 46.85400 23.39200
H  3.18400 47.91800 23.01700
H  3.44900 49.00500 24.17800
H  2.63300 47.54300 24.71200
H  2.25000 48.13400 28.93100
H  2.00900 46.75300 30.11200
H  2.25100 46.54000 28.37100
H  5.95500 47.13100 33.71700
H  5.91200 43.32400 35.95600
H  7.14000 43.23300 34.65600
H  5.37700 42.70900 34.43200

