158

Mg 6.98100 53.63600 41.58400
C  6.74400 50.14600 41.52900
C  10.26700 53.19500 40.16700
C  7.15700 56.86200 40.61600
C  3.77800 53.85000 42.50100
N  8.32900 51.89100 41.12100
C  7.96500 50.61700 41.08200
C  9.15800 49.70000 40.74300
C  10.39700 50.71700 40.81100
C  9.64100 52.05700 40.73700
C  11.31200 50.44700 42.13400
C  9.17100 48.84700 39.44100
C  8.96500 49.66600 38.20400
H  7.76600 49.27600 37.24000
N  8.49700 54.82200 40.54700
C  9.73000 54.45200 40.02600
C  10.47700 55.65500 39.69400
C  9.66800 56.79600 39.92400
C  8.37500 56.18000 40.37800
C  11.93500 55.63200 39.28100
C  10.09300 58.24600 39.80900
O  11.15600 58.65300 39.36500
C  9.22600 59.33700 40.32900
N  5.64700 55.02900 41.55000
C  5.99000 56.28900 41.13500
C  4.72200 57.13100 41.17300
C  3.65200 56.27800 41.95500
C  4.41300 54.92400 42.03800
C  4.64100 58.56100 41.81200
C  2.30500 56.14800 41.29100
C  1.10800 56.07100 42.28200
N  5.52200 52.31200 42.12400
C  4.26900 52.52800 42.60800
C  3.68300 51.24800 42.93700
C  4.57800 50.25100 42.57100
C  5.68800 51.01100 41.99300
C  2.36000 50.98500 43.55000
C  4.75500 48.87900 42.52400
O  4.03700 47.94500 42.77700
C  6.18000 48.76500 41.68200
C  5.72800 48.14100 40.34300
O  4.97000 48.66500 39.49300
O  6.04800 46.79100 40.36500
C  5.43400 45.94700 39.38200
H  11.29200 52.99100 39.85200
H  7.05400 57.92800 40.40300
H  2.75300 53.85100 42.87800
H  9.19200 48.92000 41.50400
H  11.06800 50.59000 39.96100
H  12.36400 50.57500 41.87900
H  11.18900 49.41800 42.47400
H  11.13600 51.20200 42.90000
H  8.43600 48.04200 39.46400
H  10.18400 48.47500 39.28800
H  9.83800 49.48700 37.57600
H  8.88000 50.73400 38.40100
H  12.13600 54.66700 38.81600
H  12.63500 55.81500 40.09600
H  12.13100 56.39700 38.53000
H  8.45700 59.63200 39.61500
H  9.78800 60.25700 40.48800
H  8.88900 58.99600 41.30800
H  4.49800 57.25600 40.11400
H  3.59000 56.54000 43.01100
H  5.66500 58.81800 42.08700
H  3.96400 58.89200 42.60000
H  4.36900 59.15900 40.94200
H  2.37800 55.21000 40.74100
H  2.14700 56.88900 40.50700
H  0.54600 57.00400 42.26000
H  1.51600 55.95800 43.28700
H  0.40200 55.26500 42.08200
H  1.57200 51.72600 43.41000
H  2.39000 50.69200 44.60000
H  1.99200 50.13600 42.97500
H  6.85100 48.06400 42.18000
H  6.22000 45.54100 38.74500
H  4.66700 46.30700 38.69600
H  4.99300 45.03600 39.78600
Mg 10.00600 47.67000 26.70500
C  7.90800 47.72800 29.51100
C  12.53200 49.04600 28.59500
C  11.86400 47.78900 23.99400
C  7.09600 47.49300 24.68600
N  10.18600 48.15300 28.83400
C  9.25300 48.10100 29.88700
C  9.88300 48.45700 31.20400
C  11.10600 49.29600 30.69000
C  11.36600 48.71900 29.29800
C  10.87400 50.78400 30.59600
C  10.23700 47.16600 32.05700
C  10.23800 47.21700 33.62300
H  9.70200 46.03400 34.54000
N  11.99000 48.12100 26.34500
C  12.86900 48.70300 27.29000
C  14.17000 48.70300 26.54200
C  14.00300 48.04100 25.26800
C  12.59300 47.98600 25.12700
C  15.46600 49.17100 27.24000
C  14.97700 47.49900 24.20000
O  14.65800 46.78500 23.26300
C  16.46000 47.73500 24.36800
N  9.51900 47.49900 24.59600
C  10.46600 47.71100 23.67800
C  10.00200 47.31300 22.26900
C  8.48300 47.19800 22.45400
C  8.32000 47.41300 23.97800
C  10.49300 48.21100 21.09100
C  7.92400 45.81000 22.06300
C  6.95500 45.87100 20.90100
N  7.91600 47.62700 26.98700
C  6.87700 47.54800 26.10100
C  5.61400 47.44600 26.77600
C  5.96200 47.53400 28.14100
C  7.40200 47.63700 28.20700
C  4.27600 47.41700 26.16200
C  5.45200 47.58600 29.51500
O  4.35700 47.59900 30.00100
C  6.69300 47.70400 30.44600
C  6.90000 46.43300 31.21000
O  7.16700 45.31800 30.79400
O  6.66900 46.71800 32.54000
C  6.64800 45.46000 33.35600
H  13.28000 49.55600 29.20600
H  12.37200 47.48500 23.07600
H  6.28300 47.35500 23.97000
H  9.09600 48.92400 31.79600
H  12.00800 49.17200 31.28800
H  10.89300 51.07900 29.54700
H  11.70000 51.36100 31.01100
H  9.89700 51.04300 31.00500
H  11.25800 46.88800 31.79400
H  9.64700 46.34100 31.65800
H  9.72200 48.11600 33.96000
H  11.25600 47.41000 33.95900
H  15.16700 49.47800 28.24300
H  15.84900 50.07000 26.75700
H  16.25700 48.42300 27.30300
H  16.73600 48.33300 25.23600
H  16.96300 48.03100 23.44700
H  16.92000 46.77300 24.59400
H  10.33100 46.29500 22.05900
H  7.89500 47.98700 21.98700
H  11.07100 49.06900 21.43600
H  9.69800 48.53800 20.42100
H  11.13300 47.64900 20.41100
H  7.31500 45.46900 22.90000
H  8.68100 45.07300 21.79600
H  6.01600 45.35600 21.10000
H  7.39400 45.58300 19.94500
H  6.58700 46.88500 20.74100
H  4.02600 46.44100 25.74600
H  4.16200 48.14600 25.35900
H  3.48300 47.58600 26.89100
H  6.80900 48.55600 31.11700
H  6.65900 45.72800 34.41300
H  7.54600 44.87500 33.16000
H  5.74600 44.86200 33.23000

