158

Mg 25.73600 0.11700 28.43600
C  27.45800 -0.32300 31.56600
C  22.74400 0.23500 30.25700
C  24.14500 0.21700 25.55500
C  28.58500 -0.92500 26.81900
N  25.15400 -0.08900 30.67400
C  26.08800 -0.12000 31.75900
C  25.31300 0.15800 33.05100
C  23.78900 0.29000 32.64600
C  23.85000 0.16900 31.10900
C  22.65900 -0.66500 33.35400
C  25.80800 1.41000 33.91100
C  26.37600 1.05000 35.29000
H  25.70300 1.77400 36.49500
N  23.75600 0.25100 28.00000
C  22.68300 0.33700 28.82700
C  21.52900 0.46800 28.05100
C  21.88400 0.52200 26.71300
C  23.28700 0.31500 26.71500
C  20.13600 0.58400 28.67900
C  20.99300 0.70700 25.56900
O  21.27100 0.38300 24.43600
C  19.54000 1.01400 25.78000
N  26.32500 -0.39500 26.45200
C  25.47900 -0.06100 25.44200
C  26.16400 -0.09500 24.03600
C  27.66000 -0.28400 24.50100
C  27.55400 -0.53600 25.99500
C  25.63300 -1.24300 23.16500
C  28.73100 0.79000 24.13800
C  29.44800 0.83300 22.72500
N  27.55000 -0.52100 29.02700
C  28.67700 -0.82800 28.24200
C  29.83100 -1.02100 29.01800
C  29.36800 -0.87500 30.34600
C  28.01700 -0.58400 30.30800
C  31.27200 -1.11900 28.57800
C  29.79900 -0.87600 31.71400
O  30.93600 -1.08000 32.08400
C  28.61400 -0.43000 32.58000
C  28.46700 -1.37000 33.67300
O  27.93800 -2.45700 33.68800
O  28.83900 -0.76100 34.79400
C  28.73900 -1.54600 36.01000
H  21.81200 0.32400 30.81800
H  23.65700 0.47000 24.61200
H  29.44800 -1.19400 26.20600
H  25.31900 -0.76000 33.63900
H  23.40100 1.25900 32.96100
H  23.14200 -1.42000 33.97400
H  22.30400 -1.30000 32.54300
H  21.82000 -0.16700 33.84000
H  24.92600 2.03600 34.05300
H  26.52200 2.00100 33.33800
H  27.45700 1.15100 35.38900
H  26.23000 0.00100 35.54700
H  19.61300 1.54100 28.69400
H  20.14400 0.19800 29.69800
H  19.57000 -0.12500 28.07500
H  19.06700 0.12900 26.20500
H  19.03200 1.26400 24.84800
H  19.58200 1.82500 26.50800
H  25.94700 0.84000 23.51900
H  28.07600 -1.18400 24.04800
H  24.89300 -1.72500 23.80400
H  26.36400 -2.04000 23.02400
H  25.13700 -0.99600 22.22600
H  29.44800 0.98100 24.93600
H  28.14400 1.70400 24.05400
H  30.47100 1.16300 22.91000
H  28.91500 1.50200 22.05000
H  29.38300 -0.13900 22.23600
H  31.26700 -0.78300 27.54100
H  31.66100 -2.13700 28.58500
H  31.90000 -0.47200 29.19200
H  28.74600 0.57600 32.97700
H  29.24500 -2.50600 35.91000
H  27.74800 -1.86200 36.33600
H  29.19900 -0.98500 36.82300
Mg -6.09700 25.44500 25.85600
C  -4.41600 26.87400 28.60600
C  -7.19600 22.99400 28.00900
C  -6.82100 23.48500 23.16300
C  -4.25100 27.65200 23.80200
N  -5.77300 25.03500 28.09000
C  -5.28800 25.89000 29.02600
C  -5.62100 25.50900 30.43700
C  -6.27300 24.06800 30.18800
C  -6.41200 24.00800 28.63900
C  -5.41700 22.85300 30.81500
C  -6.67500 26.44800 31.09900
C  -6.64900 26.72000 32.62500
H  -5.84400 25.78400 33.53700
N  -6.95200 23.58900 25.65200
C  -7.46000 22.79300 26.65000
C  -8.21000 21.69500 26.10000
C  -8.03700 21.75200 24.69400
C  -7.20800 22.98200 24.48100
C  -8.94000 20.63200 26.90400
C  -8.44800 20.80500 23.59300
O  -8.19500 21.01200 22.44900
C  -9.26200 19.46000 23.86800
N  -5.52400 25.49600 23.74600
C  -6.04100 24.64800 22.84000
C  -5.58700 24.98000 21.45300
C  -4.99100 26.45500 21.60300
C  -4.88500 26.54800 23.14400
C  -4.55300 23.89500 20.87100
C  -5.81500 27.66500 21.01300
C  -5.01200 28.50700 19.92400
N  -4.67500 27.00300 26.10700
C  -4.04200 27.80000 25.17300
C  -3.27600 28.83600 25.83600
C  -3.42700 28.53300 27.16400
C  -4.17700 27.37700 27.28800
C  -2.43500 29.97000 25.20300
C  -2.92200 28.95600 28.54000
O  -2.17700 29.82700 28.92100
C  -3.58500 27.82800 29.47900
C  -2.44700 27.06000 30.01800
O  -1.64300 26.42100 29.39000
O  -2.38200 27.07100 31.41700
C  -1.27600 26.47400 32.18300
H  -7.53700 22.20100 28.67800
H  -6.95200 22.89300 22.25500
H  -3.78200 28.33200 23.08700
H  -4.69500 25.42500 31.00600
H  -7.30400 24.06900 30.54000
H  -4.78100 22.26000 30.15800
H  -6.18600 22.21300 31.24800
H  -4.87000 23.33300 31.62700
H  -7.71900 26.31600 30.81300
H  -6.50000 27.42800 30.65500
H  -7.65800 26.89500 32.99700
H  -6.18700 27.69700 32.76800
H  -8.26700 19.79400 27.08900
H  -9.84600 20.22100 26.45800
H  -9.21900 21.09900 27.84900
H  -8.69400 18.80600 24.53000
H  -9.37600 18.76900 23.03200
H  -10.21000 19.65700 24.36800
H  -6.38200 25.07300 20.71400
H  -3.97600 26.49800 21.20600
H  -4.22400 23.46400 21.81700
H  -3.73400 24.29700 20.27500
H  -5.05500 23.14000 20.26700
H  -6.12100 28.22700 21.89500
H  -6.60700 27.22600 20.40600
H  -5.66400 29.24800 19.46100
H  -4.40900 27.85400 19.29300
H  -4.28900 29.11800 20.46500
H  -1.96500 29.55800 24.31000
H  -1.85200 30.62400 25.85000
H  -3.24400 30.60100 24.83300
H  -4.22800 28.17900 30.28600
H  -0.99900 25.51400 31.74500
H  -1.76800 26.23500 33.12600
H  -0.46600 27.14500 32.46400

