158

Mg 35.36900 0.61300 29.45700
C  33.10200 1.83200 31.89000
C  37.82600 0.44700 31.77400
C  37.45000 -0.02900 26.89300
C  32.80100 1.31000 27.07100
N  35.45900 1.25500 31.52600
C  34.41400 1.45500 32.34900
C  34.95600 1.52700 33.82800
C  36.49400 1.51300 33.60900
C  36.62600 1.01900 32.18300
C  37.14800 2.83300 33.89900
C  34.48200 0.30400 34.75400
C  34.18300 0.66400 36.23100
H  34.87600 1.96200 36.81900
N  37.43000 0.15000 29.33600
C  38.25200 0.04800 30.40800
C  39.56000 -0.27600 29.96900
C  39.44400 -0.42200 28.50900
C  38.06600 -0.12600 28.15600
C  40.73500 -0.47700 30.88700
C  40.48900 -0.67600 27.52700
O  40.22600 -0.70600 26.33500
C  41.92400 -1.20700 28.05900
N  35.20900 0.79200 27.27700
C  36.19100 0.36200 26.48200
C  35.77100 0.32600 25.02500
C  34.23900 0.57100 25.09300
C  34.09000 0.93300 26.61000
C  36.62000 1.26800 24.15300
C  33.31200 -0.62200 24.71500
C  32.12300 -0.43100 23.71700
N  33.33800 1.28400 29.46600
C  32.44900 1.50800 28.45700
C  31.21600 2.09600 28.91300
C  31.34000 2.17000 30.33200
C  32.69200 1.70900 30.61000
C  30.09200 2.53000 28.06500
C  30.75100 2.49700 31.56300
O  29.64700 2.88100 31.77600
C  31.83000 2.20900 32.65800
C  31.98000 3.40900 33.50800
O  32.68700 4.43500 33.30400
O  31.10700 3.24500 34.54000
C  30.81700 4.33400 35.49400
H  38.65400 0.37800 32.48300
H  37.97400 -0.44400 26.03000
H  31.97800 1.38600 26.35700
H  34.62900 2.45500 34.29800
H  36.94100 0.76600 34.26500
H  37.64400 3.14500 32.98000
H  37.96000 2.88200 34.62500
H  36.40700 3.57900 34.18500
H  35.22100 -0.49200 34.84100
H  33.57500 -0.03500 34.25200
H  34.41300 -0.22400 36.82100
H  33.10600 0.76400 36.36400
H  40.99100 -1.53400 30.80700
H  40.36600 -0.28700 31.89500
H  41.57300 0.16600 30.61800
H  42.63300 -1.61300 27.33700
H  41.71700 -2.01000 28.76600
H  42.50400 -0.46300 28.60500
H  36.01500 -0.58500 24.47700
H  34.01200 1.33800 24.35200
H  36.00100 1.80200 23.43200
H  37.35600 0.66700 23.61900
H  37.04800 2.03400 24.79900
H  33.01300 -1.09200 25.65200
H  34.02600 -1.28100 24.22200
H  31.86600 0.61300 23.53800
H  31.19500 -0.76800 24.17800
H  32.32800 -0.92900 22.77000
H  29.60000 3.43500 28.42100
H  29.43500 1.67100 27.93000
H  30.42900 2.83700 27.07500
H  31.50000 1.40800 33.32000
H  29.81600 4.35400 35.92600
H  30.97000 5.33200 35.08500
H  31.48800 4.14600 36.33200
Mg 47.17000 44.43000 42.78800
C  43.75200 43.89600 42.17000
C  47.65200 41.10600 42.45800
C  50.40000 45.18300 43.01400
C  46.47100 47.95600 42.68100
N  45.85100 42.74400 42.14800
C  44.51700 42.70700 42.12400
C  43.86500 41.29000 42.09100
C  45.14300 40.47800 42.24900
C  46.29000 41.47400 42.25100
C  45.00600 39.46700 43.44900
C  43.09400 40.94600 40.72100
C  43.52800 41.57200 39.33100
H  43.20000 40.98200 37.94400
N  48.79300 43.27600 42.72800
C  48.78900 41.91200 42.67200
C  50.17100 41.46200 42.81000
C  50.98400 42.64100 42.78600
C  50.06600 43.79400 42.82600
C  50.61000 39.95700 42.84000
C  52.52800 42.64300 42.67900
O  53.22300 41.56100 42.70300
C  53.30800 43.89300 42.61500
N  48.26100 46.26200 42.69700
C  49.57300 46.26400 42.96900
C  49.98900 47.66800 43.38600
C  48.73300 48.52500 43.51200
C  47.73700 47.55200 43.03000
C  50.94800 47.61300 44.61900
C  48.81200 49.85400 42.69300
C  48.32700 51.08200 43.43700
N  45.45000 45.75500 42.48800
C  45.34300 47.11800 42.49300
C  43.97900 47.51200 42.17100
C  43.30900 46.27400 42.21000
C  44.21100 45.21000 42.34300
C  43.42400 48.92500 42.03000
C  41.97800 45.63500 42.11900
O  40.84500 46.13400 41.93700
C  42.17800 44.05900 42.15200
C  41.41000 43.69900 43.39900
O  40.31300 43.11900 43.44800
O  42.26400 43.77600 44.47500
C  41.90600 43.02600 45.70000
H  47.88400 40.04000 42.49600
H  51.43200 45.50200 43.17600
H  46.15200 48.99700 42.77000
H  43.16300 41.38700 42.91900
H  45.29300 39.87800 41.35100
H  45.06200 38.48500 42.97900
H  44.13900 39.67200 44.07700
H  45.83400 39.56800 44.15000
H  42.04800 41.24900 40.75800
H  43.07500 39.87000 40.55200
H  44.61600 41.58500 39.38500
H  43.30700 42.63200 39.20800
H  50.72200 39.37500 41.92500
H  49.84400 39.45400 43.43000
H  51.37300 39.70300 43.57500
H  52.70800 44.52600 41.96100
H  54.32700 43.82000 42.23300
H  53.39500 44.34900 43.60100
H  50.57000 48.13300 42.58900
H  48.47000 48.51600 44.56900
H  51.92800 47.25600 44.30300
H  50.62700 46.93500 45.41000
H  51.01800 48.60400 45.06600
H  48.17000 49.71900 41.82200
H  49.73900 50.20800 42.24200
H  47.53800 51.65500 42.95000
H  49.09900 51.80100 43.71100
H  47.84900 50.62800 44.30500
H  43.64300 49.12900 40.98200
H  43.98000 49.57800 42.70200
H  42.33900 48.96300 42.12200
H  41.62200 43.68900 41.29100
H  41.30300 43.67700 46.33300
H  42.70500 42.65600 46.34200
H  41.43500 42.07900 45.43600

