158

Mg 48.19600 33.87400 27.35100
C  46.18000 32.77600 30.00600
C  48.60800 36.89100 29.10800
C  49.28200 35.26500 24.55700
C  46.93500 31.12600 25.48000
N  47.64700 34.65200 29.40300
C  46.84100 33.99800 30.33900
C  46.81900 34.72900 31.60700
C  47.28600 36.19300 31.23300
C  47.90500 35.95700 29.81400
C  46.20700 37.30500 31.24800
C  47.88800 34.06500 32.51500
C  47.56700 34.13800 34.06400
H  48.49800 35.03800 34.97900
N  49.09600 35.78800 26.96000
C  49.20100 36.83600 27.84200
C  50.02900 37.80200 27.22800
C  50.20400 37.39200 25.85300
C  49.54600 36.09600 25.72100
C  50.63900 39.02700 27.84200
C  50.91100 38.07000 24.70000
O  50.93400 37.56000 23.56100
C  51.48300 39.47000 24.81600
N  47.95100 33.45800 25.27300
C  48.61600 34.10800 24.30800
C  48.55800 33.35300 22.99100
C  47.72500 32.09200 23.29200
C  47.57200 32.18300 24.80800
C  47.94100 34.24200 21.82800
C  48.42500 30.72700 22.81700
C  49.60400 30.35600 23.62600
N  47.12700 32.16200 27.73000
C  46.75300 31.07200 26.89800
C  46.00500 30.12300 27.54100
C  45.74900 30.81800 28.77200
C  46.42000 32.02500 28.81800
C  45.44500 28.78000 27.05800
C  44.89900 30.76500 29.92400
O  44.10600 29.88000 30.31200
C  45.15000 32.03700 30.76400
C  45.45200 31.70500 32.17400
O  46.40700 31.10100 32.63500
O  44.43400 32.23200 33.02000
C  44.41100 31.70700 34.44300
H  48.93200 37.77400 29.66300
H  49.85700 35.44500 23.64700
H  46.51500 30.30200 24.90000
H  45.83200 34.77100 32.06800
H  48.10100 36.36800 31.93600
H  45.18200 37.00900 31.47100
H  46.15700 37.71700 30.24000
H  46.46400 38.10200 31.94600
H  48.91300 34.41900 32.40900
H  48.14700 33.04900 32.21800
H  47.56700 33.11400 34.43800
H  46.57600 34.55500 34.23900
H  50.18800 39.96400 27.51500
H  51.70100 39.10600 27.61100
H  50.72000 38.88700 28.92000
H  50.81400 40.18200 25.30000
H  51.68600 39.93100 23.84900
H  52.43200 39.41500 25.35000
H  49.54400 33.07700 22.61600
H  46.74500 32.03600 22.81900
H  47.71100 35.23400 22.21600
H  46.97400 33.82500 21.54800
H  48.60600 34.37500 20.97500
H  48.84400 30.81100 21.81400
H  47.82300 29.82500 22.70800
H  50.39800 30.23200 22.89000
H  49.44600 29.40100 24.12700
H  49.87700 31.07300 24.39900
H  45.41000 28.76800 25.96800
H  44.38200 28.84300 27.29000
H  45.92700 27.92300 27.52800
H  44.15000 32.47100 30.74000
H  44.80700 30.69600 34.54000
H  43.44100 31.70700 34.93900
H  44.99300 32.34300 35.11000
Mg 8.73100 48.06900 26.54200
C  6.82200 47.75400 29.38900
C  11.49200 48.93200 28.53100
C  10.70800 48.43300 23.75200
C  5.98200 47.81400 24.52400
N  8.95900 48.64600 28.72100
C  8.12700 48.25800 29.69100
C  8.77800 48.45000 31.05200
C  10.15200 49.18700 30.74900
C  10.26700 48.84100 29.26900
C  10.04900 50.70000 30.98500
C  8.94100 47.19600 31.99600
C  8.54400 47.52100 33.45900
H  8.78900 46.38300 34.50400
N  10.91000 48.49000 26.23900
C  11.83400 48.79400 27.22400
C  13.09400 48.81200 26.59700
C  12.88500 48.61900 25.20000
C  11.44600 48.56900 24.98500
C  14.38500 48.93100 27.32100
C  13.89400 48.57900 24.12000
O  13.60100 48.55600 22.94700
C  15.39600 48.46600 24.47900
N  8.40600 48.26200 24.39800
C  9.32700 48.36900 23.43300
C  8.70700 47.91900 22.03300
C  7.20800 47.80600 22.34600
C  7.18100 47.97200 23.83600
C  9.06200 48.90700 20.92000
C  6.62100 46.44100 21.85100
C  5.49700 46.47800 20.79900
N  6.82900 47.88600 26.87900
C  5.83700 47.68200 25.93400
C  4.56800 47.31300 26.63100
C  4.95200 47.28000 27.95500
C  6.31100 47.67200 28.09200
C  3.23600 47.10600 25.97200
C  4.47300 46.99100 29.33400
O  3.40000 46.53000 29.66800
C  5.72800 47.22700 30.27300
C  5.97300 45.98800 30.99500
O  6.47000 44.97500 30.50500
O  5.50600 46.13300 32.29100
C  5.66000 44.94400 33.13900
H  12.37200 49.06500 29.16400
H  11.30100 48.41600 22.83500
H  5.12700 47.63500 23.87000
H  8.17800 49.16200 31.61800
H  11.00100 48.80500 31.31600
H  9.03000 51.07700 31.07300
H  10.54800 51.34500 30.26200
H  10.55300 50.81500 31.94500
H  10.01500 47.00800 32.02600
H  8.52800 46.21500 31.76200
H  7.45900 47.59100 33.38000
H  8.91300 48.46900 33.85100
H  15.05800 48.08700 27.17200
H  14.24900 49.10500 28.38900
H  15.04900 49.70200 26.92900
H  15.48300 47.60400 25.14000
H  15.81000 49.29400 25.05400
H  15.96100 48.33300 23.55600
H  9.13400 46.95400 21.76100
H  6.62500 48.61500 21.90400
H  8.17300 49.14200 20.33400
H  9.71800 48.44400 20.18300
H  9.52000 49.77600 21.39100
H  6.11000 45.98600 22.70000
H  7.37000 45.70600 21.55600
H  4.61400 45.99500 21.21800
H  5.83200 45.80500 20.00900
H  5.17600 47.42400 20.36400
H  3.22100 46.73700 24.94600
H  2.87800 48.12900 25.86400
H  2.55700 46.55100 26.62000
H  5.54600 48.00600 31.01300
H  6.61400 44.65400 33.57900
H  5.32200 44.08900 32.55300
H  4.97700 44.99900 33.98800

