158

Mg 9.39000 3.69800 26.68300
C  10.41200 1.81100 29.57100
C  7.76000 5.69900 28.78900
C  8.12300 5.02300 24.09700
C  10.87000 1.05500 24.82900
N  9.20800 3.71200 28.98500
C  9.72000 2.97500 29.96600
C  9.41300 3.48000 31.35400
C  8.37400 4.63700 30.99000
C  8.45100 4.69000 29.51000
C  6.93100 4.40900 31.55900
C  10.64000 3.96900 32.28400
C  10.71000 3.23300 33.65500
H  11.40100 4.01800 34.78700
N  7.98000 5.14500 26.51100
C  7.46200 5.94900 27.47200
C  6.80500 7.01700 26.78400
C  6.99300 6.90400 25.45800
C  7.67400 5.62700 25.32400
C  6.11800 8.11200 27.53000
C  6.59700 7.84600 24.24800
O  6.80100 7.50000 23.06400
C  5.94900 9.13600 24.57800
N  9.40900 3.05000 24.83700
C  8.85600 3.82000 23.89200
C  9.16800 3.35800 22.44200
C  10.08300 2.13600 22.70600
C  10.12500 2.04400 24.19500
C  7.81300 3.02100 21.69200
C  11.48900 2.36300 22.02700
C  11.90900 1.48700 20.84800
N  10.42100 1.82000 27.07700
C  10.93200 0.82600 26.21100
C  11.47000 -0.28100 26.87400
C  11.39400 0.14900 28.21000
C  10.68700 1.34900 28.29700
C  12.02700 -1.51100 26.35600
C  11.74900 -0.23800 29.55300
O  12.40800 -1.08300 30.00500
C  11.06800 0.84400 30.49700
C  10.22000 0.09100 31.43200
O  9.09400 -0.30000 31.23900
O  10.94200 -0.08300 32.58800
C  10.38800 -0.98300 33.56600
H  7.16300 6.37800 29.40200
H  7.84800 5.51400 23.16100
H  11.32100 0.37300 24.10500
H  8.93400 2.66300 31.89400
H  8.74900 5.59800 31.34300
H  6.22900 4.12500 30.77500
H  6.62000 5.34600 32.01900
H  6.99000 3.66400 32.35300
H  10.61400 5.03600 32.50400
H  11.61400 3.88400 31.80200
H  11.44700 2.47900 33.37800
H  9.77700 2.74400 33.93300
H  5.20800 8.41300 27.01200
H  6.78200 8.97600 27.54600
H  5.97100 7.89000 28.58700
H  6.54700 9.71800 25.27900
H  4.92300 8.94900 24.89600
H  6.00200 9.80700 23.72000
H  9.65800 4.12700 21.84500
H  9.61600 1.25700 22.26100
H  6.94900 2.89000 22.34400
H  7.90400 2.10700 21.10700
H  7.59800 3.89500 21.07700
H  12.20100 2.13600 22.82000
H  11.58000 3.40400 21.71800
H  12.52100 1.99900 20.10500
H  10.98300 1.27800 20.31200
H  12.56800 0.69000 21.19500
H  12.10200 -1.56400 25.27000
H  11.53400 -2.39400 26.76200
H  13.04400 -1.45700 26.74300
H  11.94500 1.28000 30.97500
H  10.03300 -1.82700 32.97500
H  9.54700 -0.41700 33.96700
H  11.23800 -1.21900 34.20500
Mg 16.80700 -2.04000 27.54900
C  16.03600 0.29300 30.00300
C  18.32100 -3.99400 30.02500
C  18.35500 -3.78000 25.18900
C  15.98800 0.38300 25.09400
N  17.19600 -1.83600 29.75600
C  16.63100 -0.88700 30.57700
C  16.83600 -1.19400 32.08600
C  17.59600 -2.57900 32.01100
C  17.80000 -2.81300 30.49400
C  18.91100 -2.59600 32.81200
C  15.52400 -1.31000 32.87800
C  15.33600 -0.29000 34.01700
H  16.61400 0.09100 34.78500
N  17.82100 -3.78500 27.56200
C  18.29600 -4.48400 28.66800
C  19.09700 -5.62100 28.30000
C  19.29200 -5.52800 26.85000
C  18.51800 -4.29300 26.51800
C  19.64200 -6.61300 29.33200
C  20.06300 -6.41400 25.99800
O  20.15600 -6.11500 24.81000
C  20.69300 -7.66300 26.45900
N  17.05400 -1.73700 25.43700
C  17.77800 -2.57500 24.74400
C  17.87000 -2.20400 23.24000
C  17.05600 -0.93100 23.16300
C  16.59500 -0.75700 24.61700
C  19.32100 -2.02600 22.69800
C  15.88300 -0.95000 22.11400
C  15.99700 0.13000 21.03100
N  16.06400 -0.11700 27.52000
C  15.68800 0.74700 26.50000
C  15.11900 1.99400 27.03100
C  15.13500 1.78200 28.40000
C  15.80700 0.57900 28.66000
C  14.81100 3.24400 26.35100
C  14.83400 2.47000 29.70400
O  14.25600 3.56800 29.92700
C  15.45300 1.49200 30.77900
C  16.57000 2.34000 31.48900
O  17.76900 2.36800 31.10900
O  16.09500 2.92400 32.61000
C  16.86300 4.06100 33.06300
H  18.77900 -4.63300 30.78300
H  18.91800 -4.41700 24.50300
H  15.81400 1.22300 24.41900
H  17.52100 -0.41000 32.40800
H  16.90900 -3.30100 32.45300
H  18.93600 -1.68300 33.40600
H  19.73900 -2.60000 32.10300
H  18.88200 -3.48800 33.43800
H  15.42300 -2.21800 33.47200
H  14.70100 -1.14600 32.18300
H  14.67700 -0.75700 34.74800
H  14.81800 0.56000 33.57200
H  20.72700 -6.57400 29.23600
H  19.28500 -7.58400 28.98900
H  19.35300 -6.54600 30.38000
H  20.05300 -8.28700 27.08400
H  21.54200 -7.41300 27.09600
H  21.20200 -8.01200 25.56000
H  17.52700 -3.02000 22.60300
H  17.75600 -0.11500 22.98300
H  19.50000 -1.24000 21.96400
H  19.58700 -3.00900 22.30900
H  19.92200 -1.86100 23.59200
H  14.89200 -0.80300 22.54500
H  15.93300 -1.93800 21.65700
H  16.22600 1.03600 21.59400
H  15.03400 0.29300 20.54800
H  16.76100 -0.04900 20.27400
H  15.35800 3.24800 25.40800
H  15.09900 4.06000 27.01400
H  13.75900 3.22900 26.06800
H  14.76000 1.19600 31.56700
H  17.10400 4.72300 32.23100
H  17.80200 3.84400 33.57200
H  16.27700 4.59800 33.80800

