158

Mg 16.45400 -2.83800 27.04600
C  15.66100 -0.43700 29.49900
C  18.36800 -4.48200 29.42100
C  17.62900 -4.75400 24.57300
C  14.90900 -0.66400 24.54600
N  17.22200 -2.20700 29.14600
C  16.57800 -1.37400 30.00600
C  17.08100 -1.48200 31.54000
C  18.07300 -2.77700 31.37900
C  17.93800 -3.17200 29.83600
C  19.52400 -2.54000 31.74400
C  15.97000 -1.62900 32.57500
C  15.81100 -0.66500 33.65100
H  17.12200 -0.07800 34.25000
N  17.64000 -4.55500 27.08900
C  18.30300 -5.14100 28.13900
C  18.88900 -6.35200 27.66400
C  18.73000 -6.38300 26.26000
C  17.94600 -5.24300 25.88200
C  19.82300 -7.06800 28.50100
C  19.32400 -7.38500 25.30100
O  19.07700 -7.37300 24.06800
C  20.14100 -8.70100 25.86000
N  16.21700 -2.76100 24.91700
C  16.95100 -3.65400 24.14600
C  16.90100 -3.30300 22.62200
C  15.78700 -2.17400 22.64800
C  15.63600 -1.83300 24.10400
C  18.26300 -2.78700 22.02600
C  14.53300 -2.41400 21.83700
C  13.26100 -2.54500 22.59500
N  15.51600 -0.97800 26.95000
C  14.83800 -0.27000 25.95600
C  14.09000 0.89800 26.60900
C  14.40400 0.84800 27.97100
C  15.30600 -0.30600 28.13400
C  13.16000 1.83500 25.95800
C  14.11700 1.58100 29.25200
O  13.43700 2.55200 29.49600
C  14.87600 0.65200 30.22600
C  15.90500 1.61100 30.91500
O  16.99500 1.85500 30.40900
O  15.50000 2.23400 32.06900
C  16.43600 3.34100 32.51800
H  18.91600 -5.06000 30.16800
H  18.01100 -5.19300 23.64900
H  14.39100 -0.02000 23.83300
H  17.58300 -0.54500 31.78200
H  17.86200 -3.60700 32.05200
H  19.85700 -3.20300 32.54300
H  19.63300 -1.49600 32.04000
H  20.17100 -2.71700 30.88500
H  15.92900 -2.59900 33.07200
H  15.08100 -1.58700 31.94500
H  15.51100 -1.29000 34.49200
H  15.10300 0.14000 33.45400
H  20.83900 -7.00700 28.11200
H  19.64100 -8.13900 28.59000
H  19.78500 -6.74500 29.54100
H  19.53300 -9.36500 26.47500
H  21.04500 -8.30100 26.31800
H  20.63600 -9.28100 25.08100
H  16.56700 -4.14300 22.01200
H  16.17700 -1.25500 22.20900
H  19.10800 -3.21300 22.56700
H  18.41600 -1.71000 22.10100
H  18.35500 -3.07800 20.98000
H  14.74900 -3.25000 21.17200
H  14.42900 -1.48000 21.28400
H  13.40700 -3.04000 23.55500
H  12.60100 -3.19800 22.02300
H  12.77800 -1.58300 22.76500
H  12.74600 1.19500 25.17900
H  13.63400 2.72000 25.53200
H  12.52200 2.11900 26.79500
H  14.15500 0.33000 30.97800
H  16.29300 4.29000 32.00200
H  17.50000 3.10400 32.51600
H  16.24100 3.54700 33.57100
Mg 41.16300 41.76000 26.92400
C  40.38100 44.01800 29.67000
C  41.83200 39.41000 29.34500
C  41.84000 39.82500 24.51600
C  40.41000 44.42600 24.81300
N  41.27200 41.83700 29.32100
C  40.86400 42.82200 30.18400
C  40.93000 42.33000 31.66300
C  41.58500 40.89000 31.46400
C  41.56900 40.67800 29.96300
C  43.00200 40.61100 32.08000
C  39.64300 42.28100 32.49300
C  39.84100 42.32100 33.98500
H  38.83400 42.99700 34.85900
N  41.78100 39.83400 26.91200
C  41.98300 39.01900 27.96700
C  42.38400 37.68200 27.42000
C  42.35100 37.77400 26.02800
C  42.00800 39.16900 25.76200
C  42.72800 36.50600 28.33600
C  42.62700 36.74500 24.94600
O  42.68700 36.90400 23.73100
C  42.77400 35.28800 25.38100
N  41.41200 42.19200 24.84000
C  41.55900 41.13900 24.05300
C  41.38900 41.58900 22.62400
C  40.72300 43.02200 22.75000
C  40.82700 43.23600 24.20100
C  42.67200 41.36600 21.72300
C  39.27300 43.24900 22.19900
C  38.31000 42.04700 22.55400
N  40.77400 43.88700 27.13700
C  40.43400 44.81200 26.16300
C  40.16700 46.03700 26.77600
C  39.96800 45.68000 28.13100
C  40.44000 44.39300 28.31300
C  39.93400 47.29400 26.04600
C  39.46600 46.24300 29.39000
O  38.92900 47.28300 29.67700
C  39.65700 45.11800 30.45400
C  40.56300 45.71700 31.44400
O  41.74100 46.05300 31.25800
O  39.84000 45.85300 32.63200
C  40.64400 46.40100 33.76100
H  41.96600 38.60300 30.06800
H  41.81000 39.13200 23.67300
H  40.02800 45.19900 24.14300
H  41.64300 42.95100 32.20500
H  40.97600 40.11300 31.92600
H  43.35300 41.57000 32.46100
H  43.79200 40.25600 31.41900
H  42.90700 39.88600 32.88800
H  39.21500 41.28000 32.44600
H  38.81900 42.93800 32.21400
H  40.82200 42.76900 34.14800
H  40.00200 41.30300 34.34100
H  42.01800 35.68600 28.23000
H  42.77900 36.77600 29.39100
H  43.68400 36.10000 28.00700
H  42.88600 34.64400 24.50900
H  41.84700 35.00700 25.88100
H  43.64900 35.32400 26.03100
H  40.64100 40.96100 22.14000
H  41.37700 43.80400 22.36600
H  43.55100 41.50200 22.35300
H  42.43700 42.10900 20.96000
H  42.61800 40.34800 21.33700
H  39.25800 43.19400 21.11100
H  38.74000 44.06000 22.69500
H  38.55000 41.25100 21.84900
H  37.27100 42.34900 22.42300
H  38.49700 41.70900 23.57300
H  40.40600 47.39400 25.06800
H  40.25400 48.07600 26.73500
H  38.85200 47.29900 25.91300
H  38.73800 44.73000 30.89400
H  41.39200 45.70500 34.14100
H  39.95300 46.78200 34.51300
H  41.15800 47.27700 33.36500

