158

Mg 47.52100 24.76900 27.97500
C  48.41100 27.05900 30.60400
C  47.03900 22.36000 30.50500
C  46.91300 22.49300 25.56400
C  48.66100 26.96900 25.81700
N  47.64500 24.77200 30.28900
C  47.81200 25.89100 31.11200
C  47.82700 25.53400 32.64700
C  47.54800 23.97800 32.52300
C  47.36400 23.65500 31.01400
C  48.68400 23.16900 33.25500
C  46.76900 26.27400 33.51200
C  47.06700 26.25700 34.99900
H  45.89500 26.41800 35.96700
N  46.94500 22.76700 28.07900
C  46.85600 21.92300 29.15200
C  46.32900 20.61400 28.76700
C  46.34000 20.62800 27.27900
C  46.72800 22.03000 26.91600
C  45.99700 19.53400 29.69900
C  46.10600 19.55200 26.27500
O  46.39600 19.66600 25.09200
C  45.65400 18.20300 26.79100
N  48.04400 24.57800 25.91500
C  47.49300 23.66700 25.07200
C  47.45100 24.12400 23.60700
C  48.01400 25.59900 23.71900
C  48.18900 25.76100 25.26100
C  48.27200 23.17500 22.67400
C  47.15100 26.74700 23.13800
C  47.75800 27.55300 21.96200
N  48.29600 26.73600 28.15100
C  48.72200 27.45200 27.09600
C  49.20800 28.68300 27.50000
C  49.15100 28.61800 28.94600
C  48.58100 27.34200 29.26700
C  49.94000 29.70900 26.70600
C  49.46300 29.27000 30.21400
O  50.11600 30.31300 30.49100
C  48.79000 28.40200 31.23300
C  49.61800 28.38200 32.52100
O  50.72300 27.81900 32.61100
O  48.99000 29.01100 33.52100
C  49.60000 29.16500 34.85700
H  46.81300 21.62000 31.27500
H  46.48500 21.89300 24.75900
H  48.91800 27.66800 25.01800
H  48.79200 25.75300 33.10600
H  46.58600 23.68400 32.94300
H  49.26600 23.81400 33.91400
H  49.45200 22.76900 32.59300
H  48.24900 22.37500 33.86200
H  45.84800 25.69500 33.44100
H  46.68400 27.26000 33.05400
H  47.79800 27.04700 35.16800
H  47.39200 25.23300 35.18400
H  45.00600 19.09000 29.60900
H  46.12800 19.76400 30.75600
H  46.80900 18.82500 29.53500
H  46.46600 17.79900 27.39600
H  45.54100 17.48400 25.97900
H  44.67300 18.27900 27.26000
H  46.45300 24.23900 23.18500
H  49.01900 25.62900 23.29700
H  48.57200 22.23400 23.13500
H  49.18000 23.75000 22.49300
H  47.79800 23.06100 21.69900
H  47.03700 27.51400 23.90400
H  46.16700 26.38200 22.84300
H  48.67500 27.10500 21.57700
H  47.82400 28.63700 22.05000
H  46.96200 27.59600 21.21800
H  49.78900 29.57200 25.63500
H  51.02600 29.70400 26.80600
H  49.50800 30.67700 26.95900
H  47.83700 28.88800 31.44200
H  50.53100 28.60200 34.92900
H  48.98100 28.76300 35.65900
H  49.72800 30.21200 35.13000
Mg -2.09300 35.07500 26.52900
C  -3.41700 33.66500 29.39300
C  -0.73400 37.58200 28.53700
C  -1.16200 36.79200 23.79600
C  -3.71600 32.80100 24.57900
N  -2.20200 35.66800 28.68100
C  -2.66400 34.75100 29.70800
C  -2.27400 35.39500 31.01500
C  -1.51700 36.66900 30.76900
C  -1.44400 36.62700 29.25300
C  -2.25700 37.97000 31.31100
C  -1.56000 34.35200 31.95900
C  -1.67600 34.61600 33.49900
H  -2.51600 33.70000 34.41700
N  -1.04500 36.97500 26.18800
C  -0.58300 37.84200 27.13600
C  0.19700 38.86800 26.45300
C  -0.02300 38.75900 25.06800
C  -0.70900 37.45600 24.93400
C  0.96400 39.85900 27.30500
C  0.48600 39.61700 23.96000
O  0.39800 39.18400 22.77800
C  1.20900 40.91200 24.24000
N  -2.31300 34.76300 24.48400
C  -1.83400 35.62300 23.53400
C  -2.01900 35.01300 22.11200
C  -2.53800 33.57800 22.40400
C  -2.94300 33.72500 23.84500
C  -2.70200 35.82600 21.06300
C  -1.58600 32.37400 22.16600
C  -0.14500 32.30800 22.77000
N  -3.34100 33.54600 26.85400
C  -3.91800 32.70200 25.94300
C  -4.71500 31.74000 26.72000
C  -4.56200 32.12400 28.03100
C  -3.74800 33.23100 28.05800
C  -5.37100 30.56600 26.23200
C  -4.92600 31.71700 29.36000
O  -5.60200 30.79300 29.78200
C  -4.41000 32.83700 30.26000
C  -5.52900 33.61800 30.78200
O  -5.97000 34.65300 30.30600
O  -5.99500 33.00600 31.85900
C  -7.25300 33.40800 32.44700
H  -0.28100 38.32300 29.19900
H  -0.90200 37.33100 22.88300
H  -4.10700 31.95700 24.00600
H  -3.16900 35.61400 31.59800
H  -0.53600 36.67500 31.24400
H  -2.55300 38.65600 30.51700
H  -1.56400 38.44000 32.00900
H  -3.15400 37.75800 31.89200
H  -0.50900 34.28600 31.67600
H  -1.83900 33.31100 31.79900
H  -2.18000 35.58000 33.57000
H  -0.63700 34.66500 33.82200
H  0.98500 39.78700 28.39200
H  0.55200 40.86200 27.19100
H  1.99300 39.80200 26.95100
H  0.53200 41.68400 24.60500
H  1.75800 41.31300 23.38800
H  1.94800 40.59400 24.97600
H  -0.97400 34.95700 21.80600
H  -3.42000 33.39600 21.78900
H  -2.85300 36.83100 21.45800
H  -3.59300 35.37100 20.62900
H  -1.98300 35.92100 20.25000
H  -1.55400 32.22900 21.08600
H  -2.02600 31.42100 22.46000
H  -0.17700 31.77800 23.72200
H  0.17700 33.33700 22.93100
H  0.49700 31.86900 22.00600
H  -6.39500 30.58300 26.60500
H  -4.83600 29.69300 26.60600
H  -5.28900 30.58100 25.14500
H  -4.00000 32.21900 31.05800
H  -7.13700 34.26700 33.10700
H  -7.65700 32.54900 32.98200
H  -8.06600 33.55000 31.73400

