158

Mg 0.29000 7.66900 26.21800
C  0.87100 9.23600 29.16300
C  0.44600 4.70300 27.85600
C  0.01200 6.00500 23.22100
C  0.36400 10.63500 24.40300
N  0.56000 7.07900 28.22000
C  0.68500 7.83700 29.32800
C  0.79300 7.06900 30.70400
C  0.90900 5.63500 30.10200
C  0.57700 5.82000 28.63200
C  2.36200 5.00900 30.37000
C  -0.55200 7.23200 31.53100
C  -0.34400 7.57600 33.01700
H  0.88300 6.92800 33.74000
N  0.31400 5.55900 25.56800
C  0.33100 4.51400 26.43500
C  0.14700 3.35000 25.74200
C  0.06000 3.70200 24.30500
C  0.12700 5.15500 24.31900
C  0.08800 2.00600 26.47200
C  0.03800 2.73500 23.10000
O  0.00200 3.28800 21.98500
C  0.04000 1.22200 23.22600
N  0.39100 8.25200 24.05900
C  0.15700 7.38000 23.05700
C  -0.01000 8.04000 21.61700
C  -0.20400 9.50400 22.12100
C  0.23200 9.47500 23.58000
C  1.14800 7.79500 20.53600
C  -1.64400 10.00500 21.96800
C  -1.98500 10.69200 20.65600
N  0.63200 9.56200 26.66800
C  0.62400 10.67300 25.85000
C  0.96000 11.84500 26.66100
C  1.06200 11.34700 28.01300
C  0.76400 9.97200 27.90500
C  1.10400 13.22300 26.17700
C  1.33900 11.69300 29.38200
O  1.70500 12.69900 29.84700
C  1.11500 10.30500 30.21000
C  2.31600 10.15300 31.05000
O  3.42000 9.86700 30.71900
O  1.87600 10.51700 32.31400
C  2.90100 11.02600 33.20400
H  0.63200 3.78600 28.42000
H  -0.26500 5.50800 22.28800
H  0.41800 11.51200 23.75500
H  1.69400 7.41700 31.20700
H  0.18200 4.92500 30.49500
H  2.23500 3.94900 30.59200
H  2.85000 5.55700 31.17700
H  3.02000 4.99800 29.50100
H  -1.16900 6.33500 31.58300
H  -1.19300 7.97600 31.05800
H  -1.25500 7.20900 33.49000
H  -0.15400 8.63800 33.16900
H  1.13000 1.83600 26.74300
H  -0.20600 1.25400 25.73900
H  -0.62200 2.00600 27.29900
H  0.92000 0.91600 23.79100
H  0.24400 0.80000 22.24200
H  -0.85800 0.80700 23.68400
H  -0.91800 7.70100 21.11800
H  0.55900 10.09200 21.61100
H  1.62500 6.81800 20.61200
H  1.86500 8.60900 20.64200
H  0.68500 7.89700 19.55500
H  -1.92500 10.68900 22.76800
H  -2.22500 9.09900 22.14200
H  -2.84200 10.14000 20.27200
H  -1.18700 10.54700 19.92800
H  -2.31900 11.72400 20.76900
H  0.79900 13.20800 25.13100
H  2.11300 13.59000 26.36500
H  0.38800 13.89700 26.64900
H  0.21400 10.47200 30.80000
H  2.41800 11.83600 33.75100
H  3.78100 11.38600 32.67000
H  3.13700 10.32400 34.00400
Mg 35.98100 49.33100 25.87600
C  35.85900 48.00400 29.01200
C  34.90800 52.43300 27.14400
C  35.83000 50.53300 22.75000
C  36.45700 46.08300 24.55300
N  35.43000 50.10400 27.85800
C  35.63900 49.40900 28.99300
C  35.59200 50.29000 30.28800
C  35.18500 51.71900 29.65600
C  35.12000 51.42600 28.15400
C  34.04800 52.56600 30.29600
C  36.90800 50.38100 31.07500
C  36.62300 50.25900 32.60200
H  35.23900 50.57800 33.23100
N  35.40500 51.21400 25.06200
C  34.97800 52.30800 25.72300
C  34.73000 53.38700 24.80300
C  34.98600 52.81700 23.53100
C  35.46300 51.48200 23.72700
C  34.29000 54.79800 25.22300
C  34.79400 53.47100 22.22600
O  35.05800 52.94600 21.13700
C  34.30100 54.91500 22.10000
N  36.01100 48.39900 23.92800
C  35.93800 49.15400 22.77600
C  36.21000 48.32900 21.55100
C  36.28700 46.86400 22.17800
C  36.29600 47.13600 23.65400
C  35.23100 48.43600 20.37200
C  37.56500 46.02600 21.73700
C  39.00300 46.59800 21.97500
N  36.13600 47.44400 26.59800
C  36.40100 46.22800 25.98500
C  36.63700 45.19200 26.92800
C  36.39800 45.83400 28.18800
C  36.09700 47.18900 27.92300
C  37.00800 43.74700 26.60600
C  36.52600 45.72600 29.67800
O  36.67000 44.78600 30.45400
C  36.12300 47.12700 30.20500
C  34.90500 46.92800 31.05200
O  33.81800 46.58200 30.65300
O  35.27000 46.90900 32.36200
C  34.21300 46.62400 33.33200
H  34.56100 53.43400 27.40900
H  35.96000 50.89200 21.72700
H  36.64200 45.06900 24.19100
H  34.79900 49.88300 30.91600
H  35.92700 52.50400 29.80300
H  33.79600 52.19300 31.28900
H  33.17400 52.57900 29.64500
H  34.30300 53.61500 30.44900
H  37.46600 51.29100 30.85600
H  37.53300 49.55600 30.73300
H  37.35700 50.94100 33.03200
H  36.99800 49.28100 32.90400
H  34.72900 55.58400 24.60800
H  34.59800 55.07700 26.23000
H  33.21000 54.84900 25.08200
H  33.47600 55.10000 22.78800
H  34.04200 55.00500 21.04500
H  35.04400 55.62900 22.45400
H  37.15100 48.70700 21.15100
H  35.45400 46.19100 21.97400
H  34.39500 49.09700 20.60100
H  34.80700 47.51200 19.97600
H  35.68500 49.05800 19.60000
H  37.40300 45.83300 20.67600
H  37.51200 45.07800 22.27200
H  38.95800 47.39300 22.72000
H  39.49500 46.87100 21.04100
H  39.67100 45.75800 22.16400
H  37.39200 43.62600 25.59300
H  36.29100 42.94200 26.77000
H  37.81900 43.42900 27.26000
H  36.86100 47.63700 30.82400
H  33.47800 47.42800 33.29000
H  34.59500 46.61300 34.35200
H  33.64100 45.70600 33.20200

