158

Mg 7.06600 57.13100 41.37700
C  6.32600 53.80000 41.12600
C  10.23200 56.48200 40.31600
C  7.74900 60.51800 41.09800
C  3.77300 57.83000 42.09800
N  8.06900 55.36900 40.65000
C  7.56900 54.08200 40.60800
C  8.54300 53.11400 39.91300
C  9.89000 53.85100 40.07300
C  9.37700 55.35800 40.39400
C  10.84100 53.24000 41.06400
C  8.11800 52.86100 38.44000
C  8.39600 51.45300 37.78200
H  9.41000 51.14500 36.71800
N  8.78300 58.32100 40.84900
C  10.02000 57.84000 40.55200
C  10.96700 58.96500 40.36200
C  10.23900 60.18900 40.61300
C  8.90100 59.72100 40.85900
C  12.41700 58.83900 40.11000
C  10.80400 61.60600 40.56400
O  12.01200 61.86700 40.36400
C  9.90600 62.89700 40.71700
N  5.90000 58.93700 41.39100
C  6.40900 60.17600 41.38400
C  5.34700 61.24600 41.72000
C  4.07100 60.39300 42.07600
C  4.58600 58.96200 41.81000
C  5.73600 62.28200 42.83000
C  2.85400 60.82600 41.21900
C  1.40100 60.77100 41.85600
N  5.29500 56.04500 41.57700
C  4.02600 56.46200 41.93100
C  3.31100 55.22500 42.33400
C  4.19100 54.16500 42.02100
C  5.28900 54.73800 41.54500
C  1.99900 55.10500 43.11700
C  4.35200 52.72200 41.97100
O  3.73400 51.74200 42.40400
C  5.72800 52.44500 41.24400
C  5.40900 51.76400 39.98800
O  4.69700 52.22000 39.11400
O  6.02400 50.51900 39.87400
C  5.54800 49.73100 38.74500
H  11.26600 56.28800 40.02300
H  7.83400 61.60100 40.98400
H  2.77300 57.99800 42.50100
H  8.50600 52.17200 40.45900
H  10.54300 53.77700 39.20300
H  10.23100 52.78400 41.84400
H  11.43100 53.98700 41.59300
H  11.53700 52.49800 40.67300
H  8.57900 53.65300 37.85100
H  7.03500 52.85100 38.31900
H  7.42900 51.17700 37.36100
H  8.51900 50.63300 38.49100
H  12.58100 59.06400 39.05600
H  12.96100 57.95000 40.43200
H  12.79600 59.63400 40.75300
H  9.44800 62.82900 41.70400
H  9.16100 63.09500 39.94700
H  10.51800 63.79500 40.62900
H  5.29900 61.70400 40.73200
H  3.78800 60.46400 43.12600
H  5.80800 63.31800 42.49900
H  6.70600 61.97400 43.22000
H  4.98500 62.14900 43.60800
H  2.79700 60.21800 40.31600
H  2.89500 61.86100 40.87800
H  0.94100 61.66700 41.44000
H  1.40200 60.77600 42.94600
H  0.83500 59.89600 41.53600
H  1.96000 55.70400 44.02700
H  1.72100 54.08300 43.37800
H  1.20900 55.51300 42.48700
H  6.33100 51.77200 41.85300
H  4.64200 49.19900 39.03600
H  6.22700 48.95600 38.38800
H  5.22400 50.14400 37.79100
Mg -2.37600 34.13500 26.71600
C  -3.49700 32.38900 29.71600
C  -0.79600 36.32000 28.73400
C  -2.22200 36.12400 24.06000
C  -4.26700 31.75600 24.94400
N  -2.25900 34.36300 29.01000
C  -2.59000 33.46600 29.98000
C  -2.01100 33.86300 31.38200
C  -1.35800 35.23900 31.07600
C  -1.39700 35.29900 29.51400
C  -1.81100 36.52000 31.80600
C  -1.06700 32.79900 32.03800
C  -1.54000 32.23100 33.38400
H  -0.62400 32.41800 34.60300
N  -1.51200 35.92100 26.39900
C  -0.89400 36.63800 27.35100
C  -0.43200 37.86900 26.74800
C  -0.86200 37.94000 25.38600
C  -1.59500 36.62900 25.23000
C  0.44600 38.89700 27.46800
C  -0.59500 39.10600 24.33000
O  -1.05200 39.06200 23.17200
C  0.19100 40.33800 24.71700
N  -3.11400 33.95700 24.78600
C  -2.85800 34.91700 23.81700
C  -3.34500 34.49400 22.43900
C  -3.89700 33.02600 22.79200
C  -3.75800 32.86100 24.31000
C  -4.32500 35.52300 21.91200
C  -3.16400 31.83300 22.08300
C  -3.89000 31.08400 20.97900
N  -3.67500 32.46600 27.17300
C  -4.31900 31.55200 26.31100
C  -5.01900 30.52300 27.06600
C  -4.73500 30.81400 28.40700
C  -3.94200 32.00600 28.41500
C  -5.67100 29.31300 26.49500
C  -4.91200 30.35000 29.68100
O  -5.46600 29.36700 30.15500
C  -4.08200 31.30000 30.62500
C  -5.06600 31.79600 31.67700
O  -6.00300 32.58500 31.45200
O  -4.86700 31.23700 32.91000
C  -5.69700 31.60200 34.03800
H  -0.15600 36.93300 29.37100
H  -2.16400 36.89200 23.28700
H  -4.77800 30.96200 24.39600
H  -2.93200 34.05900 31.93100
H  -0.31200 35.20400 31.37900
H  -2.59400 36.17900 32.48400
H  -2.15300 37.20800 31.03300
H  -1.09200 37.02900 32.44800
H  -0.06300 33.17800 32.22800
H  -1.02200 32.02300 31.27400
H  -1.69900 31.15600 33.29900
H  -2.53600 32.65400 33.51800
H  1.50900 38.89000 27.22600
H  0.37000 38.82500 28.55300
H  0.02400 39.88600 27.28500
H  -0.42800 41.02500 25.29400
H  0.56100 40.71200 23.76200
H  1.05700 40.19000 25.36200
H  -2.51900 34.37800 21.73700
H  -4.97000 32.97800 22.61100
H  -5.33300 35.19300 22.16600
H  -4.15500 35.64600 20.84200
H  -4.18500 36.52500 22.31600
H  -3.04800 31.05200 22.83500
H  -2.15000 32.10400 21.79100
H  -4.20000 30.12800 21.40000
H  -3.18900 30.88700 20.16700
H  -4.80700 31.58300 20.66800
H  -5.38300 29.03000 25.48200
H  -6.74800 29.47000 26.44900
H  -5.46000 28.62500 27.31400
H  -3.25800 30.81200 31.14500
H  -5.23900 32.50000 34.45200
H  -5.68400 30.78300 34.75700
H  -6.71500 31.89600 33.78200

