158

Mg 1.71500 -1.43900 43.52000
C  4.98700 -0.68900 42.89900
C  0.77300 1.29300 41.37900
C  -1.50000 -2.58400 43.22400
C  2.65400 -4.53300 44.99300
N  2.77200 0.16000 42.30700
C  4.13300 0.24900 42.21100
C  4.56200 1.37100 41.29500
C  3.21200 2.19700 41.03900
C  2.18400 1.19200 41.62900
C  3.03500 3.52700 41.57800
C  5.33700 0.87800 40.05300
C  6.59700 1.72100 39.58500
H  6.53700 2.37100 38.26000
N  -0.12200 -0.65700 42.62500
C  -0.29400 0.49600 41.85500
C  -1.68900 0.60200 41.61800
C  -2.42300 -0.53600 42.02000
C  -1.31800 -1.29600 42.64300
C  -2.30800 1.84000 40.92600
C  -3.93300 -0.69800 41.98100
O  -4.64700 0.15700 41.41900
C  -4.61600 -1.76700 42.74000
N  0.65200 -3.29000 44.12600
C  -0.65800 -3.50200 43.86600
C  -1.00600 -4.92900 44.33300
C  0.25700 -5.42900 45.07200
C  1.28100 -4.35900 44.71700
C  -2.33800 -5.08200 45.11400
C  0.71700 -6.89400 44.93600
C  0.84500 -7.77000 46.21400
N  3.40000 -2.41200 44.00600
C  3.66900 -3.60100 44.58600
C  5.13000 -3.75000 44.73900
C  5.68700 -2.59200 44.19400
C  4.59600 -1.83700 43.68600
C  5.79300 -5.00100 45.34500
C  6.91500 -1.97400 43.78900
O  8.07300 -2.29200 43.90100
C  6.52300 -0.68800 43.03700
C  7.15500 0.41600 43.81400
O  7.18000 0.64400 45.01200
O  7.70300 1.26600 42.87800
C  8.42400 2.41700 43.42200
H  0.51000 2.03800 40.62500
H  -2.53000 -2.92000 43.36000
H  3.10000 -5.43300 45.42200
H  5.19800 2.02100 41.89600
H  3.13100 2.30900 39.95800
H  3.85400 3.63000 42.28900
H  2.08300 3.65900 42.09300
H  3.07800 4.33700 40.85000
H  4.71000 0.80700 39.16500
H  5.73700 -0.08800 40.36000
H  7.43500 1.03000 39.49300
H  6.74400 2.56400 40.26000
H  -2.90100 1.55700 40.05600
H  -1.53400 2.50700 40.54500
H  -2.99200 2.27600 41.65400
H  -5.70200 -1.69300 42.79800
H  -4.22100 -1.58300 43.73900
H  -4.32400 -2.73900 42.34300
H  -1.10800 -5.48200 43.40000
H  -0.02400 -5.42500 46.12500
H  -3.10300 -5.46100 44.43600
H  -2.70200 -4.11900 45.47200
H  -2.34000 -5.88900 45.84600
H  1.70000 -6.80000 44.47300
H  0.13700 -7.40300 44.16700
H  1.88700 -7.76300 46.53500
H  0.62600 -8.77600 45.85700
H  0.26000 -7.34600 47.03000
H  5.38100 -5.89900 44.88400
H  5.46300 -5.04700 46.38300
H  6.84200 -5.09700 45.06700
H  7.03000 -0.61000 42.07600
H  7.77300 3.08600 43.98300
H  8.80200 2.96600 42.55900
H  9.21000 1.98300 44.04100
Mg 46.93500 34.17900 27.25100
C  45.36100 32.58500 29.96200
C  46.96900 37.14900 29.01500
C  47.72900 35.78100 24.46400
C  45.93800 31.38800 25.28300
N  46.20000 34.74400 29.29100
C  45.87000 33.89700 30.32000
C  46.07400 34.55700 31.64700
C  46.16600 36.11400 31.26800
C  46.45700 36.03300 29.75400
C  44.85500 36.93300 31.62400
C  47.32500 33.99400 32.39200
C  47.37100 34.13000 33.91000
H  46.54900 35.26900 34.63300
N  47.39800 36.18200 26.84100
C  47.41500 37.24700 27.66700
C  47.90800 38.45900 27.01000
C  48.27100 38.06100 25.71300
C  47.86000 36.60900 25.62400
C  48.01300 39.75400 27.77100
C  48.77400 38.87800 24.54100
O  49.10500 38.44500 23.51100
C  48.91700 40.38400 24.77800
N  46.77900 33.68000 25.21400
C  47.26300 34.51300 24.23400
C  47.26800 33.90800 22.83100
C  46.86400 32.48100 23.19000
C  46.48400 32.53700 24.63500
C  46.40000 34.47200 21.63300
C  47.91100 31.45100 22.83200
C  47.55500 30.83200 21.52200
N  46.03500 32.26000 27.56100
C  45.63800 31.29500 26.64700
C  45.15900 30.15600 27.39500
C  45.01500 30.63800 28.69600
C  45.47100 31.95600 28.73000
C  44.80700 28.77600 26.86500
C  44.56400 30.27300 29.94200
O  44.26300 29.18400 30.40500
C  44.51300 31.56000 30.84100
C  44.79400 31.53100 32.29400
O  45.75200 30.98100 32.80800
O  43.80800 32.10300 33.01500
C  43.94800 32.01800 34.47800
H  46.98000 38.02700 29.66400
H  47.90600 36.34300 23.54500
H  45.58100 30.52700 24.71500
H  45.21600 34.39500 32.30100
H  47.05700 36.52500 31.74300
H  43.99600 36.35200 31.96300
H  44.47900 37.45900 30.74600
H  45.07800 37.66500 32.39900
H  48.28600 34.41600 32.10000
H  47.22000 32.95000 32.09600
H  48.37600 34.29200 34.30100
H  46.97700 33.14800 34.17300
H  49.08800 39.91300 27.68900
H  47.78000 39.74500 28.83600
H  47.34100 40.44700 27.26500
H  49.24600 40.66100 23.77600
H  49.77200 40.56000 25.43100
H  47.93500 40.81200 24.97800
H  48.31700 33.89600 22.53600
H  45.87700 32.35400 22.74400
H  45.86100 33.71300 21.06500
H  47.13200 35.02300 21.04400
H  45.71300 35.27900 21.88700
H  48.00300 30.67500 23.59200
H  48.87900 31.92500 22.66700
H  47.34200 31.59700 20.77600
H  46.64900 30.22600 21.54200
H  48.37300 30.26600 21.07500
H  45.62400 28.08200 26.66700
H  44.23800 29.03100 25.97000
H  44.11500 28.37500 27.60600
H  43.48600 31.92500 30.83000
H  44.69100 32.76300 34.76300
H  44.36400 31.04600 34.74000
H  42.99400 32.23000 34.96200

