158

Mg 43.30000 3.83100 47.98800
C  41.53800 6.63300 47.45700
C  40.43300 2.04600 47.34600
C  45.16200 1.01900 47.38400
C  46.32100 5.79300 47.72500
N  41.19100 4.31200 47.18800
C  40.72700 5.53300 47.24200
C  39.17500 5.53600 47.15300
C  38.74600 4.04900 47.31000
C  40.20100 3.42200 47.35500
C  38.08100 3.67700 48.65000
C  38.60900 6.17800 45.84500
C  37.01900 6.14700 45.70100
H  36.54800 6.01600 44.24600
N  42.86900 1.74200 47.68000
C  41.63300 1.30500 47.42200
C  41.76700 -0.13900 47.23500
C  43.13600 -0.54100 47.48200
C  43.83600 0.80100 47.54800
C  40.52000 -1.01300 47.00600
C  43.62700 -1.99400 47.50000
O  42.90300 -2.92100 47.30500
C  45.04200 -2.29100 47.77300
N  45.51800 3.49600 47.34100
C  45.91700 2.16600 47.41700
C  47.46000 2.13800 47.39300
C  47.81300 3.67800 47.50400
C  46.49500 4.42700 47.51500
C  48.19500 1.24600 48.46500
C  48.72500 4.22300 46.37300
C  49.91500 5.12400 46.89900
N  43.93800 5.77400 47.90800
C  45.11300 6.46600 47.80500
C  44.86200 7.83800 47.77400
C  43.47000 7.94600 47.66900
C  42.93400 6.67900 47.75200
C  45.80600 8.82700 47.70000
C  42.40300 8.95700 47.48500
O  42.54300 10.17800 47.31600
C  41.08400 8.18300 47.41100
C  40.16800 8.56100 48.53000
O  39.89000 7.78000 49.46600
O  39.63600 9.86200 48.33900
C  38.75300 10.36400 49.43000
H  39.51500 1.45500 47.34100
H  45.74000 0.10300 47.24300
H  47.26100 6.31500 47.91800
H  38.68800 6.05900 47.97600
H  38.08800 3.66500 46.53100
H  38.81400 3.17900 49.28300
H  37.27300 2.95800 48.51600
H  37.76800 4.56700 49.19600
H  39.08500 5.71900 44.97800
H  38.87400 7.23400 45.89000
H  36.57800 7.06000 46.10200
H  36.57200 5.33500 46.27300
H  40.64200 -1.85700 46.32700
H  39.76000 -0.49900 46.41700
H  40.15400 -1.41000 47.95400
H  45.62200 -2.19000 46.85600
H  45.02100 -3.21600 48.34800
H  45.36300 -1.52300 48.47800
H  47.84100 1.88300 46.40400
H  48.33200 3.92500 48.43000
H  47.50300 0.71200 49.11700
H  48.89600 1.92400 48.95200
H  48.80300 0.46100 48.01700
H  48.12600 4.77300 45.64700
H  49.28700 3.47000 45.82100
H  50.86700 4.81500 46.46800
H  49.98000 5.07200 47.98600
H  49.71400 6.16300 46.63600
H  46.16200 8.84200 46.67000
H  46.68500 8.55400 48.28500
H  45.37300 9.80600 47.90400
H  40.45100 8.36500 46.54200
H  38.86100 9.77600 50.34200
H  37.71400 10.48900 49.12600
H  39.14200 11.35400 49.66900
Mg 35.20800 1.44400 29.70000
C  32.67900 2.30600 32.00600
C  37.59600 1.65900 32.14700
C  37.40600 0.81700 27.25100
C  32.56300 1.39100 27.12800
N  35.10900 2.05700 31.77300
C  34.03100 2.31600 32.55900
C  34.41600 2.50700 34.03500
C  36.00800 2.52800 34.03700
C  36.31500 2.02900 32.60900
C  36.74000 3.85300 34.28800
C  33.88500 1.26600 34.91200
C  33.36700 1.60500 36.36800
H  34.09100 2.67500 37.23300
N  37.26200 1.20000 29.75300
C  38.06300 1.25500 30.86700
C  39.40400 1.13100 30.42300
C  39.40800 1.05300 28.92500
C  38.00500 1.08800 28.59000
C  40.57200 1.05900 31.30400
C  40.58500 1.03700 27.95000
O  40.53700 1.13700 26.75000
C  41.99500 0.90200 28.41200
N  34.97400 1.34200 27.48200
C  36.09900 1.00800 26.78600
C  35.70100 0.83400 25.27000
C  34.15900 0.58300 25.35100
C  33.82300 1.15100 26.75300
C  36.10400 2.12200 24.52500
C  33.74100 -0.88300 25.16600
C  32.88500 -1.15200 23.88400
N  33.03900 1.70700 29.52800
C  32.17700 1.72300 28.47300
C  30.87000 2.18200 28.94600
C  31.09200 2.42400 30.31600
C  32.34100 2.09900 30.63500
C  29.65500 2.37200 28.11000
C  30.40000 2.85000 31.51300
O  29.19100 3.07900 31.75800
C  31.42700 2.72500 32.71300
C  31.48000 4.07300 33.45100
O  31.95800 5.12100 32.98700
O  31.02400 3.84800 34.73700
C  30.77600 4.98900 35.63000
H  38.46900 1.83300 32.78100
H  38.19700 0.61700 26.52500
H  31.81600 1.22100 26.35000
H  33.95800 3.43500 34.37600
H  36.38300 1.73200 34.68100
H  37.16100 4.24200 33.36100
H  37.59800 3.65900 34.93200
H  36.13600 4.65800 34.70700
H  34.71200 0.57700 35.08300
H  33.15200 0.61500 34.43500
H  33.43100 0.71800 36.99800
H  32.35300 2.00600 36.37700
H  41.46900 0.54600 30.95600
H  40.27900 0.67000 32.27900
H  40.89700 2.08800 31.45700
H  42.18200 -0.09800 28.80200
H  42.13200 1.74200 29.09300
H  42.63100 0.90900 27.52700
H  36.20300 -0.05000 24.87600
H  33.67100 1.21200 24.60700
H  36.70600 2.81600 25.11200
H  35.27700 2.73900 24.17300
H  36.70700 1.72700 23.70700
H  33.19300 -1.19400 26.05500
H  34.66400 -1.46300 25.15400
H  33.04600 -0.43500 23.08000
H  31.82800 -1.24800 24.13500
H  33.20300 -2.14700 23.57300
H  29.75400 1.99900 27.09100
H  29.18800 3.35500 28.05500
H  28.91200 1.67000 28.48900
H  31.02500 1.92200 33.33000
H  30.56100 4.73200 36.66700
H  30.03200 5.64400 35.17600
H  31.70800 5.54300 35.74300

