158

Mg -2.60900 16.74800 27.29800
C  -3.13800 14.49400 30.10100
C  -3.18300 19.35800 29.58800
C  -2.27000 18.81600 24.78800
C  -2.55500 13.96300 25.22800
N  -3.20700 16.78900 29.62400
C  -3.35500 15.81000 30.54700
C  -3.38800 16.44100 31.97100
C  -3.64100 17.97500 31.70800
C  -3.35200 18.06100 30.18900
C  -5.00000 18.50100 32.08100
C  -2.32200 16.13300 33.09700
C  -2.90800 15.83100 34.47100
H  -2.00200 16.06200 35.68800
N  -2.66100 18.87400 27.12600
C  -2.91000 19.70000 28.22100
C  -2.76200 21.09700 27.69600
C  -2.49200 21.01600 26.28600
C  -2.52900 19.51600 26.00700
C  -2.86400 22.34100 28.56100
C  -2.22300 22.13300 25.31500
O  -2.09700 21.98900 24.10100
C  -1.93900 23.46500 25.86300
N  -2.64300 16.37700 25.30600
C  -2.25000 17.41200 24.48800
C  -2.16800 16.96100 23.05600
C  -2.04000 15.41400 23.23700
C  -2.33900 15.19600 24.68100
C  -3.37500 17.41800 22.19900
C  -0.65000 14.84800 22.81100
C  0.63000 15.35000 23.53800
N  -2.78300 14.69900 27.59400
C  -2.81700 13.73200 26.55800
C  -2.91500 12.40000 27.23100
C  -3.02600 12.64300 28.54300
C  -2.99300 14.06600 28.73500
C  -3.01900 11.06000 26.49800
C  -3.30400 12.04200 29.76800
O  -3.49800 10.87600 30.05400
C  -3.26200 13.22400 30.89300
C  -1.99600 12.95900 31.67300
O  -0.85700 13.13300 31.25900
O  -2.34200 12.53800 32.91000
C  -1.27000 12.54500 33.85400
H  -3.38800 20.10600 30.35600
H  -1.95700 19.59000 24.08400
H  -2.46300 13.05800 24.62400
H  -4.35100 16.01300 32.25200
H  -2.91500 18.43300 32.37900
H  -4.95700 19.23600 32.88400
H  -5.72500 17.69600 32.19500
H  -5.20800 19.16700 31.24400
H  -1.69300 16.99600 33.31800
H  -1.57600 15.39400 32.80600
H  -3.25300 14.81000 34.63700
H  -3.84800 16.37500 34.56800
H  -2.84100 22.19800 29.64100
H  -3.65700 23.04100 28.30000
H  -1.92800 22.89600 28.60300
H  -2.86600 23.93300 26.19500
H  -1.56500 24.08700 25.05000
H  -1.17000 23.55300 26.63000
H  -1.21100 17.36400 22.72300
H  -2.79800 14.94800 22.60700
H  -4.12900 17.69300 22.93600
H  -3.84200 16.70500 21.51900
H  -3.21000 18.35900 21.67400
H  -0.57400 14.84600 21.72300
H  -0.55400 13.76600 22.89800
H  0.40900 16.14000 24.25600
H  1.38700 15.83900 22.92500
H  1.06700 14.49900 24.06100
H  -2.49700 11.05100 25.54100
H  -4.01500 10.61800 26.47000
H  -2.46100 10.31300 27.06300
H  -4.16100 13.14300 31.50400
H  -0.53300 13.34700 33.81200
H  -0.71900 11.60400 33.83900
H  -1.70300 12.44800 34.85000
Mg 48.04900 25.66300 28.04700
C  49.00600 27.89400 30.55100
C  46.75500 23.62100 30.59400
C  47.40100 23.32600 25.81500
C  49.56000 27.72700 25.71700
N  47.76800 25.82500 30.29900
C  48.20200 26.84500 31.09900
C  47.69800 26.76200 32.50100
C  47.00800 25.30900 32.53800
C  47.27000 24.82300 31.02500
C  47.50800 24.36000 33.65800
C  46.80700 27.93300 32.93900
C  47.13900 28.58200 34.32200
H  45.92000 28.94300 35.19800
N  47.18300 23.74100 28.18600
C  46.70600 23.06300 29.29200
C  46.07500 21.89100 28.83800
C  46.30300 21.74100 27.47600
C  47.01900 22.98200 27.09500
C  45.35600 21.01800 29.77700
C  46.08800 20.55700 26.52400
O  46.44700 20.47600 25.35100
C  45.34400 19.32400 27.05600
N  48.52500 25.48700 26.06500
C  48.10400 24.40900 25.29300
C  48.35300 24.68600 23.75600
C  48.76200 26.21800 23.79500
C  48.89700 26.56600 25.28300
C  49.41200 23.74300 23.13600
C  47.82300 27.14500 22.92900
C  48.69900 27.99800 21.93800
N  49.14700 27.37600 28.07100
C  49.70100 28.11100 27.02800
C  50.31900 29.32800 27.57800
C  50.10800 29.20400 28.92300
C  49.43000 28.03700 29.22700
C  51.00600 30.43900 26.83100
C  50.35800 29.90100 30.19300
O  51.01100 30.90400 30.48900
C  49.60700 29.07400 31.21800
C  50.37600 28.65800 32.47300
O  51.23200 27.77800 32.49600
O  50.12500 29.49200 33.48800
C  50.90200 29.32400 34.74700
H  46.22800 23.03200 31.34800
H  47.27800 22.52000 25.08800
H  49.93700 28.39900 24.94400
H  48.55700 26.82100 33.17000
H  45.94000 25.44300 32.71600
H  47.78300 23.37600 33.27700
H  46.87000 24.26900 34.53700
H  48.44800 24.76800 34.02800
H  45.81200 27.52900 33.12800
H  46.55500 28.64000 32.14800
H  47.68900 29.52200 34.28400
H  47.77700 27.95200 34.94200
H  45.09900 21.32100 30.79200
H  45.89400 20.07600 29.88500
H  44.37400 20.82900 29.34500
H  45.32800 18.52200 26.31800
H  44.33800 19.62800 27.34500
H  45.66000 18.94500 28.02700
H  47.37000 24.49700 23.32200
H  49.79600 26.23100 23.45100
H  49.49500 22.99300 23.92400
H  50.29600 24.33100 22.88900
H  48.91300 23.33200 22.25900
H  47.26300 27.93200 23.43500
H  47.13300 26.52400 22.35700
H  48.09400 28.86200 21.66500
H  48.77000 27.36700 21.05100
H  49.67100 28.28000 22.34200
H  51.75200 30.65600 27.59500
H  50.32000 31.20000 26.46000
H  51.48700 30.06500 25.92700
H  48.81200 29.70900 31.60700
H  51.13000 30.30300 35.16900
H  51.81100 28.74300 34.59400
H  50.29800 28.69300 35.40000

