158

Mg 0.27800 7.22000 26.36700
C  0.77000 9.66900 28.90700
C  0.42300 4.93500 28.93700
C  -0.04400 5.04700 24.04600
C  0.49900 9.81700 24.06300
N  0.68400 7.29000 28.65600
C  0.61900 8.41100 29.50400
C  0.42000 7.96700 31.08500
C  0.53300 6.43400 31.00200
C  0.50500 6.24300 29.43900
C  1.79000 5.76100 31.69900
C  -0.99400 8.45900 31.65100
C  -1.10900 8.66400 33.12500
H  -0.01300 8.00400 34.04100
N  0.04700 5.27200 26.43800
C  0.21200 4.45300 27.58500
C  -0.05100 3.07900 27.17400
C  -0.15500 3.06400 25.67900
C  0.00000 4.47700 25.33600
C  -0.30600 1.91800 28.09700
C  -0.46400 1.90900 24.77800
O  -0.58600 2.02800 23.56700
C  -0.42200 0.52800 25.32500
N  0.06100 7.40700 24.36800
C  -0.11700 6.36300 23.59800
C  -0.14800 6.75000 22.10900
C  -0.11400 8.28400 22.19000
C  0.09500 8.55400 23.60300
C  0.85300 6.05500 21.14300
C  -1.24600 9.06900 21.55200
C  -2.50500 9.44100 22.32100
N  0.70100 9.32700 26.41900
C  0.67600 10.27200 25.37500
C  1.04400 11.52900 25.89700
C  1.02900 11.36900 27.26000
C  0.89500 9.97600 27.55900
C  0.99500 12.75900 25.05500
C  1.08100 12.07200 28.43700
O  1.34000 13.28400 28.60400
C  0.84500 11.03200 29.62300
C  2.03500 11.10100 30.48700
O  3.20100 10.95200 30.08300
O  1.74000 11.26800 31.84200
C  2.83200 11.28300 32.85300
H  0.49800 4.15800 29.70000
H  0.04000 4.29300 23.26200
H  0.48700 10.68800 23.40500
H  1.22800 8.45100 31.63400
H  -0.33400 5.96400 31.46600
H  2.35500 6.46800 32.30600
H  2.47700 5.28600 30.99800
H  1.50300 4.95300 32.37200
H  -1.76200 7.71200 31.44900
H  -1.31000 9.38600 31.17300
H  -2.00100 8.14000 33.46700
H  -1.20900 9.74300 33.24700
H  -0.38600 2.17100 29.15400
H  0.57700 1.28300 28.01600
H  -1.17400 1.31100 27.83900
H  -1.39700 0.35600 25.78200
H  0.40000 0.43100 26.03400
H  -0.35000 -0.13800 24.46500
H  -1.14500 6.39200 21.85400
H  0.80100 8.72500 21.79300
H  0.29700 5.17500 20.82200
H  1.81800 5.95200 21.64100
H  1.12000 6.65100 20.27000
H  -1.46400 8.54800 20.62000
H  -0.84900 10.03200 21.22900
H  -3.33400 9.22700 21.64600
H  -2.42400 10.51800 22.46200
H  -2.60500 8.90900 23.26700
H  1.19400 13.71200 25.54500
H  -0.03300 12.85900 24.70600
H  1.71400 12.67100 24.24100
H  -0.00600 11.27000 30.26100
H  3.36300 12.23400 32.82300
H  3.48800 10.43700 32.64500
H  2.42200 11.22000 33.86000
Mg 24.82600 1.64900 30.15100
C  26.95200 1.04900 32.79300
C  22.10800 1.53400 32.26700
C  22.79800 1.71700 27.33500
C  27.49000 1.00400 27.86300
N  24.54600 1.29100 32.36800
C  25.57300 1.30100 33.23600
C  25.08900 1.64800 34.61500
C  23.53600 1.55700 34.48800
C  23.35600 1.49600 32.96400
C  22.78500 0.32100 35.12500
C  25.60500 3.03400 35.05400
C  26.76100 2.99900 36.09100
H  26.42500 3.94300 37.29900
N  22.70700 1.58400 29.86200
C  21.79900 1.47500 30.81900
C  20.46400 1.47100 30.24800
C  20.63500 1.58700 28.84000
C  22.09700 1.71400 28.63900
C  19.22300 1.28200 31.09700
C  19.50100 1.77700 27.74200
O  19.65500 2.23600 26.59600
C  18.11500 1.25900 28.08700
N  25.10200 1.56700 27.91800
C  24.14000 1.64900 27.02000
C  24.63700 1.74900 25.62200
C  26.18400 1.64800 25.81500
C  26.26900 1.43800 27.29200
C  24.05000 0.81500 24.56100
C  26.93800 2.86900 25.15500
C  26.96500 4.14600 26.05200
N  26.89700 1.07600 30.23700
C  27.78700 0.93600 29.23800
C  29.10100 0.71700 29.88100
C  28.81000 0.68800 31.26700
C  27.40000 0.88000 31.46000
C  30.45700 0.62000 29.18000
C  29.36900 0.61200 32.65300
O  30.55700 0.59200 32.98800
C  28.17200 0.91800 33.66100
C  28.05500 -0.23000 34.57900
O  27.54700 -1.26700 34.36000
O  28.64400 0.04500 35.77200
C  28.36100 -0.93800 36.88600
H  21.26700 1.67400 32.94900
H  22.19800 1.74600 26.42400
H  28.29400 0.91300 27.12900
H  25.34300 0.89100 35.35800
H  22.97400 2.44600 34.77400
H  23.37400 -0.35000 35.75000
H  22.30500 -0.31600 34.38100
H  22.04800 0.78400 35.78100
H  24.76600 3.65500 35.36800
H  25.92800 3.64700 34.21200
H  27.66200 3.42400 35.64900
H  27.00300 1.97800 36.38500
H  18.47800 2.00000 30.75600
H  19.42000 1.56200 32.13200
H  18.81400 0.27500 31.18300
H  18.06400 0.28700 28.57900
H  17.59600 1.28800 27.12900
H  17.70700 2.04700 28.72000
H  24.51900 2.76300 25.23800
H  26.42200 0.67500 25.38400
H  23.53300 1.28800 23.72700
H  23.45500 0.10900 25.14000
H  24.86300 0.21600 24.15000
H  26.61000 3.13200 24.14900
H  27.96900 2.54100 25.02700
H  26.33800 4.08000 26.94200
H  26.60000 4.92500 25.38300
H  27.99000 4.42700 26.29600
H  30.54200 1.32900 28.35600
H  30.57800 -0.38200 28.76800
H  31.17800 0.88300 29.95400
H  28.40800 1.82300 34.22100
H  27.44800 -0.56200 37.34800
H  29.24900 -0.92200 37.51900
H  28.15600 -1.93700 36.50100

