158

Mg 48.49400 44.44600 41.93800
C  45.11000 43.62800 41.61200
C  49.26800 41.24500 41.90300
C  51.64500 45.42400 41.43000
C  47.56000 47.94300 41.53300
N  47.33100 42.68600 41.55400
C  45.99500 42.55300 41.64900
C  45.54000 41.05200 41.78900
C  46.91500 40.33300 41.97700
C  47.92100 41.48800 41.84600
C  47.11300 39.52900 43.37400
C  44.58100 40.47700 40.65300
C  44.74800 41.04300 39.26000
H  44.95800 40.05300 38.09300
N  50.20800 43.44100 41.71800
C  50.37300 42.10500 41.80000
C  51.79300 41.77600 41.81500
C  52.54600 42.99500 41.79500
C  51.44500 44.00200 41.67500
C  52.23200 40.32600 41.84800
C  54.10200 43.23300 41.87100
O  54.91100 42.28900 41.85700
C  54.75800 44.61400 41.77700
N  49.43800 46.42400 41.47500
C  50.77800 46.53700 41.49000
C  51.26700 48.02600 41.31600
C  49.85400 48.78300 41.25700
C  48.88400 47.65400 41.45100
C  52.13400 48.36800 42.58900
C  49.59400 49.77300 40.02500
C  49.06600 51.22800 40.40000
N  46.69600 45.63400 41.74900
C  46.47300 46.97800 41.63500
C  44.98500 47.17200 41.55800
C  44.39200 45.88500 41.52800
C  45.45800 44.99500 41.67200
C  44.26600 48.51200 41.57300
C  43.14600 45.11700 41.40600
O  41.97200 45.50200 41.25800
C  43.57800 43.61100 41.60800
C  42.91000 43.11700 42.89400
O  42.20200 42.09500 42.93300
O  43.24400 43.91300 43.90500
C  42.81000 43.47600 45.20500
H  49.44500 40.17900 42.05600
H  52.67600 45.77700 41.49800
H  47.23900 48.98700 41.50300
H  44.96200 40.97000 42.71000
H  47.00400 39.76100 41.05400
H  46.47000 38.65000 43.41600
H  46.73400 40.18400 44.15800
H  48.18000 39.33500 43.49000
H  43.55900 40.48900 41.03000
H  44.85700 39.42300 40.63200
H  45.56800 41.75700 39.18100
H  43.81700 41.59700 39.14400
H  51.87800 39.76500 40.98300
H  51.58700 39.84100 42.58000
H  53.28800 40.12400 42.02800
H  54.49800 44.98700 40.78600
H  55.81100 44.34100 41.83900
H  54.37700 45.22600 42.59400
H  51.79400 48.13200 40.36800
H  49.85300 49.46500 42.10700
H  51.66400 49.16200 43.16900
H  53.13000 48.60600 42.21700
H  52.27300 47.52400 43.26600
H  48.83600 49.30400 39.39800
H  50.51800 49.73800 39.44700
H  49.32500 51.39200 41.44600
H  47.99300 51.34500 40.25200
H  49.66200 52.01600 39.93900
H  43.40200 48.61700 40.91600
H  45.04700 49.19500 41.23800
H  43.94500 48.79700 42.57500
H  43.15800 42.93300 40.86500
H  42.85200 44.29700 45.92000
H  43.45300 42.70800 45.63400
H  41.82000 43.01900 45.19300
Mg 48.19600 33.87400 27.35100
C  46.18000 32.77600 30.00600
C  48.60800 36.89100 29.10800
C  49.28200 35.26500 24.55700
C  46.93500 31.12600 25.48000
N  47.64700 34.65200 29.40300
C  46.84100 33.99800 30.33900
C  46.81900 34.72900 31.60700
C  47.28600 36.19300 31.23300
C  47.90500 35.95700 29.81400
C  46.20700 37.30500 31.24800
C  47.88800 34.06500 32.51500
C  47.56700 34.13800 34.06400
H  48.49800 35.03800 34.97900
N  49.09600 35.78800 26.96000
C  49.20100 36.83600 27.84200
C  50.02900 37.80200 27.22800
C  50.20400 37.39200 25.85300
C  49.54600 36.09600 25.72100
C  50.63900 39.02700 27.84200
C  50.91100 38.07000 24.70000
O  50.93400 37.56000 23.56100
C  51.48300 39.47000 24.81600
N  47.95100 33.45800 25.27300
C  48.61600 34.10800 24.30800
C  48.55800 33.35300 22.99100
C  47.72500 32.09200 23.29200
C  47.57200 32.18300 24.80800
C  47.94100 34.24200 21.82800
C  48.42500 30.72700 22.81700
C  49.60400 30.35600 23.62600
N  47.12700 32.16200 27.73000
C  46.75300 31.07200 26.89800
C  46.00500 30.12300 27.54100
C  45.74900 30.81800 28.77200
C  46.42000 32.02500 28.81800
C  45.44500 28.78000 27.05800
C  44.89900 30.76500 29.92400
O  44.10600 29.88000 30.31200
C  45.15000 32.03700 30.76400
C  45.45200 31.70500 32.17400
O  46.40700 31.10100 32.63500
O  44.43400 32.23200 33.02000
C  44.41100 31.70700 34.44300
H  48.93200 37.77400 29.66300
H  49.85700 35.44500 23.64700
H  46.51500 30.30200 24.90000
H  45.83200 34.77100 32.06800
H  48.10100 36.36800 31.93600
H  45.18200 37.00900 31.47100
H  46.15700 37.71700 30.24000
H  46.46400 38.10200 31.94600
H  48.91300 34.41900 32.40900
H  48.14700 33.04900 32.21800
H  47.56700 33.11400 34.43800
H  46.57600 34.55500 34.23900
H  50.18800 39.96400 27.51500
H  51.70100 39.10600 27.61100
H  50.72000 38.88700 28.92000
H  50.81400 40.18200 25.30000
H  51.68600 39.93100 23.84900
H  52.43200 39.41500 25.35000
H  49.54400 33.07700 22.61600
H  46.74500 32.03600 22.81900
H  47.71100 35.23400 22.21600
H  46.97400 33.82500 21.54800
H  48.60600 34.37500 20.97500
H  48.84400 30.81100 21.81400
H  47.82300 29.82500 22.70800
H  50.39800 30.23200 22.89000
H  49.44600 29.40100 24.12700
H  49.87700 31.07300 24.39900
H  45.41000 28.76800 25.96800
H  44.38200 28.84300 27.29000
H  45.92700 27.92300 27.52800
H  44.15000 32.47100 30.74000
H  44.80700 30.69600 34.54000
H  43.44100 31.70700 34.93900
H  44.99300 32.34300 35.11000

