158

Mg 2.20800 -1.18800 43.93800
C  5.35300 -0.19000 43.44300
C  0.98000 1.43200 42.02700
C  -1.02000 -2.64000 44.14300
C  3.49500 -4.42900 44.93300
N  3.12300 0.26900 42.68600
C  4.42300 0.62100 42.76100
C  4.77900 1.81600 41.82800
C  3.32200 2.50400 41.85700
C  2.36100 1.35800 42.22500
C  3.18800 3.69100 42.81800
C  5.27500 1.36200 40.40100
C  6.42800 2.15800 39.80100
H  6.25400 2.87400 38.47300
N  0.26600 -0.66600 43.23400
C  -0.01300 0.46700 42.47500
C  -1.43900 0.53100 42.21700
C  -1.99600 -0.65600 42.78300
C  -0.89700 -1.41800 43.47200
C  -2.13300 1.57200 41.42500
C  -3.50000 -0.94800 42.68100
O  -4.33800 -0.10000 42.29700
C  -4.04200 -2.21300 43.20400
N  1.40800 -3.18100 44.22300
C  0.04800 -3.41600 44.49100
C  -0.12100 -4.80400 45.30100
C  1.23100 -5.49300 45.03600
C  2.10400 -4.28200 44.63200
C  -0.58600 -4.48900 46.76100
C  1.20500 -6.66100 43.91900
C  1.49500 -8.04900 44.50500
N  4.08800 -2.17400 44.24600
C  4.46300 -3.40600 44.76400
C  5.89400 -3.41500 44.96300
C  6.28000 -2.08600 44.48300
C  5.13800 -1.42600 44.07000
C  6.79400 -4.41500 45.54700
C  7.45900 -1.26100 44.29200
O  8.63400 -1.47700 44.64000
C  6.86800 0.02300 43.60500
C  7.07800 1.23600 44.46400
O  6.21700 1.79500 45.15000
O  8.43900 1.56700 44.41000
C  8.80300 2.71900 45.22500
H  0.66600 2.33000 41.49100
H  -1.98900 -3.09900 44.35400
H  3.86500 -5.41300 45.23000
H  5.39900 2.40100 42.50600
H  3.07900 2.83900 40.84800
H  3.96800 3.63400 43.57700
H  2.18900 3.73100 43.25400
H  3.39600 4.62400 42.29600
H  4.43900 1.24100 39.71100
H  5.63000 0.33200 40.42000
H  7.32000 1.53400 39.74500
H  6.67300 2.93200 40.52800
H  -3.07600 1.17200 41.05200
H  -1.47300 1.66000 40.56300
H  -2.27900 2.54700 41.89100
H  -3.38900 -3.04000 42.92600
H  -5.03500 -2.36200 42.77800
H  -4.16300 -2.15300 44.28500
H  -0.93500 -5.21600 44.70500
H  1.68900 -5.88500 45.94400
H  -1.63800 -4.74300 46.89300
H  -0.57000 -3.42100 46.97400
H  0.08500 -5.03600 47.42300
H  1.90900 -6.48100 43.10700
H  0.21800 -6.70000 43.45800
H  1.30200 -8.13400 45.57400
H  2.47400 -8.42900 44.21400
H  0.84000 -8.67600 43.90100
H  6.98900 -5.35500 45.03100
H  6.44900 -4.67300 46.54900
H  7.71900 -3.86600 45.72600
H  7.46600 0.03600 42.69300
H  8.40200 3.61200 44.74700
H  9.87900 2.89000 45.26600
H  8.44700 2.55100 46.24100
Mg 25.87700 50.95200 25.87700
C  23.49400 52.01300 28.24100
C  28.03600 50.22000 28.38400
C  28.09400 50.32900 23.49800
C  23.65000 52.28700 23.31700
N  25.75000 51.16900 27.98900
C  24.67600 51.39000 28.75500
C  24.98600 51.09600 30.23800
C  26.45700 50.79200 30.25900
C  26.80300 50.77400 28.76600
C  27.35800 51.65500 31.20200
C  23.98900 50.12800 30.85500
C  23.46200 50.52800 32.24600
H  23.98000 49.77900 33.46400
N  27.83100 50.33900 25.98400
C  28.57700 50.05000 27.07400
C  29.87700 49.64900 26.64600
C  29.96000 49.65400 25.25700
C  28.55900 50.05800 24.85800
C  31.00100 49.32500 27.54000
C  31.15900 49.46100 24.23300
O  30.99100 49.34100 23.01500
C  32.55200 49.32100 24.79700
N  25.88100 51.41800 23.76000
C  26.97400 50.95300 23.01700
C  26.79300 51.21300 21.52300
C  25.34900 51.83700 21.47000
C  24.93800 51.94500 22.96900
C  27.86000 52.18200 20.87900
C  24.32000 51.18400 20.50000
C  23.98200 52.11900 19.26000
N  24.04900 51.98200 25.74900
C  23.31000 52.41100 24.65100
C  22.14000 53.00900 25.13800
C  22.11500 52.93000 26.58000
C  23.32600 52.27600 26.84200
C  21.11000 53.58800 24.23200
C  21.40300 53.27500 27.76800
O  20.34600 53.89400 27.94600
C  22.23900 52.54800 28.92700
C  22.53500 53.50100 30.04200
O  23.50000 54.25400 30.10200
O  21.50300 53.48800 30.98100
C  21.78700 54.50800 32.07600
H  28.60100 49.81600 29.22600
H  28.81800 49.98000 22.75900
H  22.89000 52.55600 22.58100
H  24.86000 52.01900 30.80500
H  26.55700 49.75000 30.56100
H  27.94400 52.37100 30.62600
H  28.04800 51.10500 31.84200
H  26.74400 52.19900 31.92000
H  24.41900 49.12700 30.87100
H  23.09000 50.03100 30.24600
H  22.40400 50.27700 32.31400
H  23.58600 51.60600 32.34700
H  30.77700 49.48900 28.59400
H  31.86500 49.96700 27.36700
H  31.20600 48.27700 27.32500
H  32.43000 48.40600 25.37700
H  32.71600 50.21800 25.39400
H  33.27100 49.44700 23.98700
H  26.82700 50.22000 21.07500
H  25.33500 52.88300 21.16300
H  28.63800 52.41600 21.60500
H  27.28500 53.02200 20.49100
H  28.26400 51.69400 19.99200
H  23.33700 50.99500 20.93300
H  24.62600 50.18400 20.19400
H  24.87600 52.43600 18.72400
H  23.42500 52.99000 19.60800
H  23.42700 51.47900 18.57400
H  20.26400 53.86300 24.86100
H  20.64100 52.93300 23.49800
H  21.58200 54.49600 23.85600
H  21.62800 51.79100 29.42100
H  21.79400 55.52400 31.68100
H  22.66400 54.20800 32.65000
H  20.90600 54.52000 32.71700

