158

Mg 26.58800 49.79500 26.68000
C  24.34600 50.86700 29.13500
C  28.63600 48.72200 29.15900
C  28.72300 48.91200 24.34100
C  24.54400 51.41500 24.33300
N  26.28900 49.45300 28.90500
C  25.35700 50.03800 29.68000
C  25.54000 49.68100 31.17300
C  26.99900 49.05000 31.23000
C  27.37200 49.02200 29.70000
C  28.07400 49.77900 32.03100
C  24.41900 48.74000 31.71200
C  23.79900 49.27700 33.11200
H  24.82400 49.89100 34.18000
N  28.38400 48.90200 26.76600
C  29.08400 48.54200 27.83200
C  30.32800 47.87500 27.47200
C  30.44800 47.94800 26.04100
C  29.15500 48.66700 25.63600
C  31.37300 47.29400 28.38500
C  31.61800 47.48000 25.07300
O  31.55000 47.78500 23.86600
C  32.86900 46.82100 25.60000
N  26.63300 50.15400 24.62300
C  27.61400 49.57000 23.89400
C  27.25600 49.61900 22.42000
C  25.85400 50.34000 22.35100
C  25.60800 50.63600 23.83700
C  28.27900 50.23600 21.42400
C  24.69000 49.55100 21.60200
C  23.61000 50.54400 21.07000
N  24.76000 50.85400 26.63700
C  24.20500 51.61500 25.67000
C  23.07100 52.27200 26.16900
C  23.10000 52.06500 27.53000
C  24.17900 51.25700 27.77300
C  22.10200 53.17700 25.48300
C  22.44000 52.41900 28.77400
O  21.42100 53.09700 28.99900
C  23.33200 51.70800 29.82800
C  23.89600 52.85100 30.61400
O  24.91800 53.44900 30.30100
O  23.08300 53.07300 31.75900
C  23.50900 54.24000 32.43000
H  29.28900 48.28200 29.91600
H  29.45200 48.65500 23.56900
H  23.89300 51.89500 23.59900
H  25.55300 50.66900 31.63300
H  26.92100 47.98600 31.45400
H  28.60800 50.58200 31.52200
H  28.80300 48.99400 32.23500
H  27.65400 50.13600 32.97100
H  24.86900 47.75600 31.84900
H  23.66100 48.62500 30.93800
H  23.39500 48.32700 33.46000
H  22.99600 49.95600 32.82400
H  31.58200 46.25800 28.11800
H  31.07700 47.18900 29.42900
H  32.24100 47.94200 28.26400
H  33.26200 47.51300 26.34400
H  33.62800 46.63400 24.84000
H  32.30200 45.97700 25.99300
H  27.09900 48.65300 21.94000
H  25.98500 51.37100 22.02100
H  28.01000 51.28300 21.28300
H  28.19800 49.77000 20.44200
H  29.29100 50.19600 21.82800
H  24.24400 49.03100 22.45000
H  25.05300 48.71700 21.00100
H  24.04200 51.53000 20.89800
H  22.73700 50.65300 21.71400
H  23.17500 50.16600 20.14600
H  22.68300 53.56000 24.64500
H  21.76500 54.01500 26.09300
H  21.32000 52.52200 25.09800
H  22.79200 51.06400 30.52300
H  22.67500 54.56300 33.05400
H  23.84300 54.98800 31.71100
H  24.39800 53.90700 32.96600
Mg -2.31800 33.74400 26.32600
C  -3.99900 32.13200 29.02100
C  -0.87200 35.81700 28.57600
C  -1.45900 35.60700 23.73800
C  -4.27400 31.73200 24.15400
N  -2.46700 34.04800 28.60400
C  -3.23000 33.25300 29.40500
C  -2.92000 33.62000 30.86500
C  -1.97600 34.87900 30.73700
C  -1.68100 34.86500 29.23100
C  -2.59900 36.22600 31.37100
C  -2.25500 32.34800 31.59800
C  -2.96100 31.92300 32.89500
H  -2.16800 31.82300 34.27400
N  -1.23300 35.42200 26.16100
C  -0.65200 36.15800 27.20300
C  0.12200 37.15400 26.67400
C  0.15300 37.01100 25.27200
C  -0.98300 36.06200 24.98400
C  0.82000 38.21500 27.57000
C  0.96700 37.58800 24.19900
O  0.87800 37.32500 23.02800
C  2.18100 38.44600 24.52200
N  -2.87000 33.72400 24.26100
C  -2.20200 34.49900 23.35800
C  -2.71300 34.12600 21.93700
C  -3.23600 32.74300 22.08400
C  -3.45800 32.67300 23.59400
C  -3.75800 35.19800 21.33200
C  -2.37900 31.68100 21.35100
C  -1.08000 31.23600 21.97600
N  -3.78300 32.34500 26.50700
C  -4.47700 31.58300 25.55700
C  -5.24500 30.51300 26.19200
C  -5.03300 30.78500 27.51500
C  -4.22900 31.91900 27.68000
C  -5.99200 29.44200 25.54100
C  -5.47000 30.19400 28.83400
O  -6.14800 29.21500 29.04700
C  -4.76200 31.14500 29.88700
C  -5.86300 31.77900 30.77600
O  -6.84500 32.41700 30.38400
O  -5.88300 31.21800 32.01500
C  -6.99800 31.57800 32.95500
H  -0.40400 36.51100 29.27800
H  -1.16700 36.26900 22.92000
H  -4.59800 30.86700 23.57000
H  -3.79400 33.98700 31.40300
H  -1.09200 34.76500 31.36400
H  -3.51600 35.95500 31.89400
H  -2.93100 36.88700 30.57000
H  -1.95100 36.77200 32.05600
H  -1.24800 32.64500 31.89200
H  -2.13100 31.54200 30.87400
H  -3.40100 30.96900 32.60500
H  -3.74300 32.62400 33.18700
H  1.69500 37.76200 28.03700
H  0.10900 38.55800 28.32200
H  1.23600 39.10100 27.09000
H  2.83900 38.52000 23.65700
H  2.71200 37.94600 25.33200
H  1.91500 39.46300 24.81000
H  -1.93900 34.17900 21.17100
H  -4.24600 32.59400 21.70000
H  -4.00900 35.93700 22.09300
H  -4.73100 34.72600 21.19300
H  -3.43000 35.70000 20.42200
H  -2.17800 31.93500 20.31000
H  -3.09000 30.85500 21.34400
H  -1.13400 30.16700 22.18100
H  -1.11600 31.72000 22.95200
H  -0.18300 31.37600 21.37200
H  -5.88300 29.37100 24.45900
H  -7.02700 29.64000 25.81800
H  -5.71400 28.47000 25.94800
H  -4.09600 30.49200 30.45100
H  -7.70800 32.27300 32.50800
H  -6.45300 32.07300 33.75900
H  -7.48700 30.66700 33.30100

