158

Mg 54.33100 23.64600 45.07100
C  51.91200 25.85600 43.95700
C  52.46400 21.00300 44.00200
C  57.19400 21.65600 45.18700
C  56.24900 26.34200 46.03000
N  52.43300 23.48500 44.11400
C  51.62500 24.51700 43.82000
C  50.25400 23.95600 43.26800
C  50.33500 22.44700 43.74300
C  51.83600 22.26700 43.90900
C  49.52900 22.22100 45.07100
C  50.19400 24.13800 41.67300
C  48.93200 24.64000 40.95700
H  48.68100 24.01400 39.51800
N  54.69200 21.60600 44.76900
C  53.81400 20.68200 44.27200
C  54.41000 19.40300 44.29000
C  55.79200 19.54200 44.65100
C  55.97100 21.01800 44.84200
C  53.72500 18.15300 43.76500
C  56.82600 18.38700 44.60300
O  56.46400 17.25500 44.23900
C  58.34900 18.54300 44.88900
N  56.42600 23.95200 45.42100
C  57.34900 23.02600 45.42700
C  58.68700 23.51300 46.11800
C  58.31600 24.99800 46.47900
C  56.90500 25.12300 45.92200
C  59.05900 22.69500 47.39300
C  59.35500 26.09600 46.19100
C  59.99700 26.74900 47.41400
N  54.11700 25.75600 45.20400
C  54.97700 26.72000 45.60700
C  54.30800 28.05100 45.53500
C  53.04000 27.76600 44.91900
C  53.10000 26.37200 44.58700
C  54.86800 29.45900 46.02200
C  51.77200 28.34500 44.41200
O  51.44800 29.53400 44.36200
C  51.04000 27.18700 43.68000
C  51.14100 27.55800 42.22900
O  52.19200 27.52900 41.60400
O  49.90800 27.94000 41.74700
C  49.90400 28.54200 40.41600
H  51.84300 20.12200 43.82600
H  58.15300 21.13700 45.25000
H  56.80400 27.14300 46.52400
H  49.41600 24.49400 43.71200
H  49.93400 21.73600 43.02200
H  50.20600 21.94000 45.87700
H  48.95700 21.32700 44.82600
H  48.82500 23.03900 45.22500
H  50.36300 23.15900 41.22500
H  51.06300 24.71300 41.35300
H  48.84400 25.71500 40.80300
H  48.05100 24.29100 41.49600
H  54.02300 18.20300 42.71800
H  52.63900 18.18000 43.85200
H  54.10800 17.29800 44.32200
H  58.83600 19.08700 44.07900
H  58.79000 17.55500 45.02000
H  58.49900 19.11300 45.80600
H  59.44100 23.47100 45.33100
H  58.24000 25.02800 47.56600
H  58.45900 21.78600 47.44100
H  59.02500 23.31800 48.28700
H  60.10500 22.39600 47.32700
H  58.95900 26.80700 45.46500
H  60.08900 25.52900 45.61900
H  61.03400 26.42500 47.32700
H  59.67000 26.38800 48.38900
H  59.81200 27.82200 47.36300
H  54.33700 29.81500 46.90500
H  54.70600 30.19800 45.23700
H  55.94500 29.45500 46.19200
H  50.03800 26.97500 44.05400
H  50.02800 27.81900 39.61000
H  50.68000 29.30600 40.40300
H  48.93600 29.00800 40.22900
Mg 47.45300 24.84600 28.19100
C  48.10500 27.25000 30.78700
C  46.53300 22.60500 30.54800
C  46.84400 22.76000 25.66400
C  48.66100 27.29300 25.85700
N  47.30100 25.01700 30.37000
C  47.67700 26.02100 31.24500
C  47.38300 25.54400 32.67700
C  46.95600 24.08100 32.54000
C  46.98000 23.83700 31.03700
C  47.81000 23.07600 33.35000
C  46.47200 26.51000 33.40700
C  45.89300 25.87700 34.76400
H  46.35400 26.49700 36.12300
N  46.72800 23.00400 28.14900
C  46.35900 22.21200 29.17900
C  45.75600 21.03200 28.67400
C  45.88600 20.99500 27.28100
C  46.52100 22.29300 26.95400
C  45.28400 19.85300 29.60300
C  45.38800 19.98900 26.21700
O  45.68200 20.15000 25.04500
C  44.68200 18.77400 26.73700
N  47.96200 24.88700 26.00400
C  47.47200 23.93300 25.22000
C  47.59700 24.34500 23.78300
C  48.02000 25.82200 23.86300
C  48.24600 26.03500 25.33800
C  48.43100 23.32100 22.94900
C  46.93700 26.71800 23.22200
C  47.40900 28.07900 22.67300
N  48.21700 26.77500 28.24600
C  48.66000 27.66700 27.20600
C  48.88900 28.95200 27.69400
C  48.73600 28.87100 29.10500
C  48.36600 27.51200 29.37500
C  49.37700 30.11300 26.88200
C  48.82400 29.55800 30.33500
O  49.17600 30.69100 30.54400
C  48.30600 28.51900 31.49600
C  49.35500 28.47800 32.59700
O  50.49900 28.05200 32.53800
O  48.88300 29.04400 33.69600
C  49.85900 29.45400 34.72600
H  46.20400 21.91200 31.32500
H  46.55900 22.17800 24.78500
H  48.84200 28.16900 25.23100
H  48.28900 25.56100 33.28300
H  45.96400 23.82200 32.91100
H  48.45900 23.58300 34.06400
H  48.42100 22.47900 32.67200
H  47.12800 22.42800 33.90000
H  45.80000 26.94000 32.66400
H  47.19100 27.26200 33.73100
H  45.94400 24.79400 34.87500
H  44.83100 26.11700 34.70200
H  45.39300 20.10900 30.65700
H  45.67400 18.90200 29.24000
H  44.19700 19.86200 29.51800
H  43.91100 19.00600 27.47100
H  45.48400 18.10300 27.04600
H  44.14400 18.33900 25.89500
H  46.58000 24.42300 23.39800
H  49.02400 25.87800 23.44300
H  48.73300 22.55000 23.65700
H  49.21600 23.80300 22.36700
H  47.68100 22.92500 22.26400
H  46.07800 26.79700 23.88800
H  46.54700 26.28400 22.30200
H  47.08200 28.71400 23.49600
H  46.93500 28.18100 21.69600
H  48.47300 28.18800 22.46100
H  50.25700 29.83200 26.30300
H  49.56600 30.96100 27.54000
H  48.61400 30.41200 26.16300
H  47.39000 28.89800 31.94900
H  50.91300 29.28000 34.51300
H  49.60700 28.89300 35.62700
H  49.73400 30.51400 34.94500

