158

Mg 23.60300 -5.23300 45.80900
C  25.75100 -2.85900 44.36400
C  21.20000 -4.21600 43.48800
C  21.79700 -8.18400 46.21800
C  26.33300 -6.60000 47.30700
N  23.50100 -3.63700 44.23100
C  24.46400 -2.84700 43.75900
C  24.08200 -1.94000 42.56900
C  22.58900 -2.32600 42.51000
C  22.37500 -3.41700 43.49400
C  21.65600 -1.07200 42.79800
C  24.75800 -2.35700 41.26200
C  24.95200 -1.23000 40.20900
H  25.47600 -1.60100 38.72400
N  21.66800 -5.99000 45.15700
C  20.82500 -5.38700 44.25500
C  19.60900 -6.08800 44.18100
C  19.77100 -7.25700 44.95300
C  21.11400 -7.19800 45.51100
C  18.50600 -5.53300 43.29400
C  18.67800 -8.31000 45.13800
O  17.59600 -8.28700 44.52600
C  18.84500 -9.57600 45.89200
N  23.96800 -7.11300 46.52800
C  23.15300 -8.16200 46.66100
C  23.78700 -9.24800 47.47200
C  25.24400 -8.85700 47.61500
C  25.19600 -7.38900 47.16400
C  23.06600 -9.69500 48.74400
C  26.17300 -9.67400 46.66800
C  26.79100 -10.91100 47.28300
N  25.60400 -4.70300 46.12100
C  26.56300 -5.30400 46.80700
C  27.80700 -4.63700 46.71900
C  27.55500 -3.55800 45.78000
C  26.15500 -3.70800 45.45700
C  29.06100 -5.07900 47.34300
C  28.14300 -2.48200 45.02800
O  29.20900 -1.92200 45.05300
C  26.96500 -2.02100 44.05500
C  26.83700 -0.54700 44.29600
O  26.15400 -0.01700 45.18900
O  27.78000 0.18900 43.50700
C  27.85300 1.65300 43.62300
H  20.47200 -3.91400 42.73100
H  21.29300 -9.09200 46.55300
H  27.15300 -7.15600 47.76600
H  24.15600 -0.87800 42.80600
H  22.32100 -2.69500 41.52100
H  20.73500 -1.39600 43.28300
H  21.38400 -0.63900 41.83500
H  22.05800 -0.27700 43.42700
H  24.26100 -3.20500 40.79100
H  25.78600 -2.65100 41.47100
H  25.70600 -0.58500 40.66200
H  24.00900 -0.68700 40.13600
H  18.82800 -5.02300 42.38600
H  17.74000 -4.95500 43.80900
H  17.86300 -6.30600 42.87400
H  17.96900 -10.22400 45.93800
H  19.01100 -9.32500 46.93900
H  19.60100 -10.17700 45.38600
H  23.68300 -10.17000 46.90000
H  25.50100 -8.93800 48.67100
H  23.61400 -9.38900 49.63600
H  22.93000 -10.77500 48.79800
H  22.12400 -9.14700 48.73100
H  26.92800 -9.02800 46.22000
H  25.56400 -9.96300 45.81200
H  27.85300 -11.04100 47.07700
H  26.26900 -11.79600 46.91800
H  26.65200 -11.05100 48.35500
H  29.12000 -4.96900 48.42600
H  29.85600 -4.55300 46.81500
H  29.20600 -6.13600 47.11900
H  27.30800 -2.09500 43.02300
H  27.07900 2.13500 43.02600
H  28.82400 1.99800 43.26800
H  27.65700 2.02200 44.62900
Mg 48.18900 35.60400 28.06600
C  46.40000 34.13700 30.46200
C  48.59400 38.44800 29.94700
C  49.82600 37.11100 25.35800
C  48.00600 32.70900 26.01700
N  47.39600 36.24800 29.92900
C  46.91500 35.35800 30.84900
C  47.16400 35.84000 32.29400
C  47.53900 37.35800 31.97300
C  47.89600 37.34900 30.56500
C  46.44200 38.39300 32.22700
C  48.42200 35.16100 32.90900
C  48.83500 35.43500 34.29400
H  47.91600 36.34700 35.19800
N  49.10800 37.44300 27.72400
C  49.25200 38.45700 28.69200
C  50.18900 39.53500 28.14700
C  50.46200 39.14200 26.79500
C  49.81500 37.81400 26.55900
C  50.55900 40.74200 28.97800
C  51.23900 40.01100 25.81100
O  51.35400 39.66000 24.66700
C  51.76600 41.27600 26.22500
N  48.80000 34.94900 25.95900
C  49.43100 35.79700 25.08400
C  49.60900 35.03200 23.68200
C  49.17500 33.56900 23.94600
C  48.66400 33.74300 25.41800
C  48.95400 35.81400 22.56300
C  50.27700 32.47600 23.74000
C  51.14400 32.70400 22.47300
N  47.29300 33.76600 28.11400
C  47.28500 32.65700 27.29400
C  46.50500 31.59000 27.85100
C  46.13800 32.14900 29.08100
C  46.64400 33.45800 29.21700
C  45.96100 30.36200 27.21700
C  45.35900 31.91000 30.29800
O  44.56600 30.98600 30.51000
C  45.47900 33.19400 31.25300
C  45.84900 32.74800 32.64200
O  46.78900 32.02700 32.93100
O  44.94800 33.25900 33.54200
C  45.09500 32.63500 34.84900
H  48.74200 39.29700 30.61700
H  50.23900 37.59500 24.47000
H  48.21800 31.77400 25.49300
H  46.30400 35.92100 32.95900
H  48.41800 37.70300 32.51700
H  46.69000 39.40800 31.91600
H  46.29600 38.47900 33.30400
H  45.43800 38.28700 31.81500
H  49.30200 35.22400 32.27000
H  48.19700 34.09800 33.00400
H  49.85300 35.82300 34.31400
H  48.94300 34.45800 34.76400
H  50.04800 41.67500 28.73800
H  51.64100 40.85500 28.90800
H  50.18400 40.60900 29.99300
H  52.31300 41.72300 25.39500
H  52.52100 41.21600 27.00900
H  50.99300 41.95200 26.59000
H  50.65300 35.11100 23.37700
H  48.28400 33.30600 23.37500
H  49.42700 36.78100 22.39300
H  47.88100 35.93400 22.70900
H  49.12900 35.32900 21.60300
H  49.79600 31.50300 23.64300
H  50.98700 32.43000 24.56600
H  50.57200 33.34900 21.80600
H  51.48200 31.77500 22.01400
H  52.05700 33.26700 22.67000
H  46.45300 30.08500 26.28400
H  44.92100 30.46200 26.90800
H  46.08000 29.59400 27.98200
H  44.59000 33.82400 31.29000
H  45.06900 31.54600 34.83800
H  44.22700 32.89600 35.45500
H  45.96600 33.03700 35.36600

