158

Mg 16.67700 -2.31200 28.89000
C  15.70200 -0.14400 31.48000
C  18.97600 -3.69900 31.00100
C  17.75800 -4.02000 26.26300
C  14.59700 -0.42600 26.64700
N  17.17600 -1.98700 31.05200
C  16.55100 -1.14800 31.92700
C  16.97400 -1.36800 33.32500
C  18.05300 -2.50200 33.19500
C  18.18300 -2.70700 31.65500
C  19.38900 -2.27700 33.96400
C  15.82900 -1.81800 34.36200
C  15.69500 -1.17200 35.72300
H  17.04000 -0.65800 36.24000
N  18.13000 -3.69600 28.67600
C  19.01300 -4.17300 29.61500
C  19.81500 -5.24000 29.06100
C  19.52600 -5.23600 27.68300
C  18.42200 -4.35000 27.46200
C  20.74100 -6.10000 29.91200
C  20.11400 -6.18000 26.58800
O  19.73800 -6.15200 25.41100
C  21.07500 -7.25300 26.98100
N  16.18200 -2.37600 26.79400
C  16.75800 -3.14200 25.91900
C  16.28000 -2.93600 24.49400
C  15.04600 -2.05600 24.73400
C  15.32000 -1.53100 26.15600
C  17.46300 -2.24500 23.63900
C  13.70100 -2.73600 24.63200
C  12.96500 -2.47300 23.25300
N  15.38000 -0.62700 28.98400
C  14.69800 0.03800 27.95500
C  13.91400 1.09800 28.54200
C  14.32900 1.09000 29.93500
C  15.21400 0.05800 30.14300
C  12.93400 2.04300 27.93700
C  14.20400 1.75000 31.20600
O  13.59800 2.73700 31.57100
C  14.93500 0.90700 32.23800
C  15.69100 1.77600 33.26700
O  16.70100 2.42000 33.04500
O  14.91200 1.91400 34.40800
C  15.23400 3.01300 35.25600
H  19.61600 -4.18900 31.73700
H  18.05700 -4.68500 25.45000
H  13.95400 0.00700 25.87800
H  17.45900 -0.46300 33.68800
H  17.64900 -3.42900 33.60200
H  20.14000 -1.93900 33.25100
H  19.58000 -3.20800 34.49900
H  19.38700 -1.53100 34.75900
H  15.94600 -2.89000 34.52300
H  14.87400 -1.76600 33.84100
H  15.44100 -1.95000 36.44400
H  14.96800 -0.36400 35.64300
H  20.87100 -5.64100 30.89200
H  21.69100 -6.26600 29.40500
H  20.29200 -7.06700 30.13900
H  20.63700 -7.68300 27.88200
H  22.07400 -6.90300 27.24200
H  21.15600 -7.96600 26.16100
H  15.96400 -3.83400 23.96200
H  15.05700 -1.26500 23.98400
H  17.25900 -1.17500 23.60400
H  17.28400 -2.68200 22.65600
H  18.42000 -2.55500 24.05800
H  12.99700 -2.47000 25.42000
H  13.87300 -3.81000 24.69800
H  12.21300 -1.69000 23.34600
H  12.47800 -3.37300 22.87700
H  13.55500 -2.15800 22.39300
H  13.30500 2.50400 27.02200
H  12.61800 2.73600 28.71700
H  12.09800 1.42500 27.61100
H  14.32400 0.24500 32.85100
H  15.73700 3.77400 34.66000
H  15.89500 2.59800 36.01600
H  14.32400 3.43200 35.68600
Mg 48.92800 34.93300 27.41400
C  46.93800 33.14700 29.92400
C  49.36300 37.35600 29.70300
C  50.25300 36.65900 24.96900
C  48.21200 32.25900 25.18200
N  48.18800 35.18900 29.54800
C  47.56700 34.32800 30.39800
C  47.67100 34.89500 31.80700
C  47.88900 36.41100 31.59700
C  48.50100 36.33400 30.22900
C  46.52000 37.28500 31.63200
C  48.68500 34.10600 32.60700
C  48.74500 33.90900 34.09300
H  47.73200 34.80300 34.83200
N  49.70500 36.68200 27.39200
C  49.96100 37.52800 28.51300
C  50.69700 38.67800 28.07500
C  50.79300 38.60500 26.67100
C  50.24600 37.26600 26.30900
C  51.26100 39.81900 29.01100
C  51.40900 39.49000 25.65500
O  51.29900 39.22400 24.48500
C  52.19700 40.61800 26.07000
N  49.14900 34.52300 25.34400
C  49.78100 35.41300 24.58500
C  50.26000 34.79900 23.27300
C  49.77600 33.30200 23.40900
C  48.97900 33.34000 24.65100
C  49.86700 35.46800 21.95300
C  50.86600 32.19200 23.47000
C  50.49200 30.81100 22.82000
N  47.84000 33.12200 27.48500
C  47.67500 32.19500 26.49400
C  46.84900 31.08700 27.03800
C  46.54100 31.41600 28.37800
C  47.12500 32.64500 28.59100
C  46.34800 29.89500 26.34400
C  45.90000 30.94900 29.50700
O  45.41900 29.83800 29.73700
C  46.05500 32.10500 30.56000
C  46.52900 31.53000 31.81800
O  47.55800 30.93100 31.96700
O  45.62400 31.76800 32.76100
C  45.81700 31.28300 34.10200
H  49.68400 38.06600 30.46800
H  50.83000 37.13100 24.17100
H  48.04000 31.44500 24.47400
H  46.73000 34.66500 32.30700
H  48.48600 36.75800 32.44000
H  46.25800 37.49900 30.59500
H  46.73100 38.18100 32.21500
H  45.68800 36.68100 31.99200
H  49.59200 34.68700 32.44400
H  48.85700 33.14900 32.11500
H  49.78600 34.09300 34.35800
H  48.55500 32.84000 34.19800
H  50.56400 40.05400 29.81500
H  51.23800 40.79900 28.53400
H  52.28700 39.65200 29.33900
H  52.77900 40.27700 26.92600
H  51.47600 41.42800 26.17800
H  52.88300 40.93100 25.28200
H  51.34800 34.75000 23.22200
H  49.14300 33.05100 22.55800
H  50.64300 35.34100 21.19900
H  49.81700 36.55000 22.08000
H  48.88100 35.23300 21.55300
H  50.92500 31.95700 24.53200
H  51.86900 32.51000 23.18500
H  49.84100 31.01900 21.97200
H  50.04000 30.18900 23.59300
H  51.37800 30.37800 22.35600
H  45.69300 30.46500 25.68600
H  45.81900 29.18300 26.97700
H  47.10300 29.39300 25.73800
H  45.09100 32.57900 30.74200
H  45.91500 30.19700 34.12000
H  45.00500 31.59200 34.76100
H  46.74400 31.67200 34.52300

