158

Mg 25.95700 0.66000 29.21100
C  27.73400 0.59600 32.15100
C  23.15000 0.81600 31.05200
C  24.21600 0.60700 26.38600
C  28.96300 -0.03300 27.42300
N  25.50300 0.58600 31.42900
C  26.39500 0.74400 32.46100
C  25.73400 0.91500 33.78900
C  24.17000 0.94200 33.37600
C  24.27900 0.83800 31.85200
C  23.25100 -0.15300 34.10800
C  26.23600 2.24800 34.42200
C  26.84000 2.08600 35.84300
H  26.26900 2.93500 36.95800
N  23.97300 0.78400 28.80500
C  22.93700 0.76000 29.71300
C  21.68000 0.83400 28.96700
C  21.96200 0.76100 27.57600
C  23.40000 0.74000 27.53700
C  20.39800 1.09300 29.71500
C  21.01200 0.84600 26.40600
O  21.37500 0.95900 25.23400
C  19.56600 0.76100 26.63000
N  26.46300 0.22800 27.14800
C  25.53800 0.38300 26.16500
C  26.24800 0.36900 24.85600
C  27.79000 0.36600 25.16700
C  27.74100 0.15500 26.64600
C  25.82200 -0.81000 23.91400
C  28.56800 1.68700 24.79800
C  28.69700 2.04600 23.23300
N  27.98500 0.28200 29.60700
C  29.04800 -0.02600 28.86100
C  30.14100 -0.35700 29.71100
C  29.77000 -0.05500 31.05700
C  28.41900 0.30100 30.91700
C  31.48200 -0.61100 29.26000
C  30.19300 0.09500 32.41600
O  31.30300 -0.03700 32.99900
C  28.86200 0.45900 33.25700
C  28.49900 -0.65100 34.05600
O  27.93200 -1.67800 33.69600
O  29.01900 -0.41700 35.32400
C  29.16400 -1.55500 36.26200
H  22.32600 0.95600 31.75500
H  23.73100 0.62000 25.40700
H  29.91900 -0.16700 26.91400
H  25.81000 0.02300 34.41100
H  23.68100 1.86100 33.70000
H  22.31600 0.24400 34.50200
H  23.77100 -0.53700 34.98600
H  22.98400 -1.03900 33.53200
H  25.40700 2.95400 34.37900
H  27.06400 2.67600 33.85800
H  27.89200 2.35800 35.76300
H  26.77200 1.09900 36.30200
H  19.64200 0.30800 29.67800
H  19.97700 2.01400 29.31300
H  20.49600 1.25700 30.78800
H  19.07500 0.50100 25.69200
H  19.16800 1.69000 27.03700
H  19.35000 -0.10200 27.26000
H  25.97600 1.29600 24.35100
H  28.30600 -0.51400 24.78300
H  26.66200 -1.43100 23.60000
H  25.43600 -0.41700 22.97400
H  24.93600 -1.27900 24.34200
H  29.57300 1.75500 25.21400
H  28.03100 2.48300 25.31400
H  28.01200 1.46600 22.61500
H  29.72900 1.89900 22.91200
H  28.32200 3.06500 23.13800
H  31.53600 -0.69300 28.17500
H  31.96900 -1.42000 29.80500
H  32.08600 0.27400 29.46000
H  28.95700 1.33400 33.89900
H  29.18300 -2.54800 35.81400
H  28.33000 -1.64100 36.95900
H  30.12000 -1.33400 36.73700
Mg 0.87000 43.04100 26.03400
C  3.14500 43.38200 28.68800
C  -1.65600 42.46400 28.20400
C  -0.93800 42.06200 23.38700
C  3.65100 43.46900 23.78500
N  0.82000 42.78800 28.22200
C  1.84700 43.13000 29.10300
C  1.34000 43.00500 30.56300
C  -0.16500 42.58900 30.35100
C  -0.39000 42.69700 28.86500
C  -0.48100 41.24200 30.96000
C  1.48500 44.35100 31.33600
C  1.41000 44.28600 32.88900
H  1.32000 42.97400 33.72100
N  -1.05700 42.32800 25.82700
C  -2.02000 42.26300 26.86400
C  -3.28800 41.87600 26.29000
C  -3.08200 41.83300 24.86600
C  -1.65300 42.05400 24.63300
C  -4.51800 41.55900 27.15900
C  -4.12200 41.43400 23.77500
O  -3.83200 41.38900 22.58800
C  -5.56200 41.12600 24.12700
N  1.22700 42.88100 23.92400
C  0.38000 42.46500 23.04400
C  0.88900 42.45700 21.56100
C  2.24900 43.23900 21.79700
C  2.38300 43.27500 23.29100
C  0.94800 41.07600 20.81300
C  2.22500 44.65300 21.07000
C  1.74000 45.84700 22.02700
N  2.92800 43.52400 26.08700
C  3.90600 43.60900 25.10300
C  5.16900 43.84600 25.76000
C  4.92800 43.65800 27.13700
C  3.54000 43.51400 27.33400
C  6.48800 43.96800 25.04300
C  5.53200 43.57700 28.47600
O  6.70700 43.55800 28.70900
C  4.34800 43.50900 29.57400
C  4.55000 42.40300 30.53500
O  4.17800 41.29800 30.41100
O  5.14200 42.88500 31.62400
C  5.28900 41.97300 32.80300
H  -2.47300 42.38400 28.92400
H  -1.55500 41.89600 22.50100
H  4.47000 43.56700 23.06900
H  1.85800 42.19100 31.07100
H  -0.89600 43.22000 30.85700
H  -1.29100 40.79400 30.38500
H  -0.74100 41.30300 32.01700
H  0.39700 40.59700 30.94100
H  0.64700 44.97200 31.02100
H  2.35000 44.85300 30.90300
H  0.55200 44.91500 33.12900
H  2.33300 44.76200 33.21900
H  -4.72600 40.49400 27.25600
H  -5.42100 42.05400 26.80200
H  -4.34100 42.05700 28.11300
H  -6.18900 41.00300 23.24400
H  -5.97300 41.96400 24.69000
H  -5.65800 40.18000 24.66000
H  0.19500 42.98200 20.90500
H  3.02100 42.60100 21.36800
H  0.59200 40.30300 21.49300
H  2.00400 40.84500 20.67200
H  0.35100 40.99800 19.90500
H  1.71400 44.59700 20.10900
H  3.22800 45.05300 20.92000
H  2.57200 45.97500 22.72000
H  0.87900 45.62500 22.65700
H  1.46600 46.76300 21.50300
H  6.32700 44.08300 23.97100
H  7.10000 43.06800 25.10400
H  7.02800 44.88500 25.28100
H  4.43600 44.43300 30.14600
H  4.74100 41.03100 32.79800
H  4.94300 42.54600 33.66300
H  6.35300 41.74700 32.88100

