158

Mg 49.27500 46.26100 42.55200
C  45.85600 46.89800 41.91300
C  48.88100 43.26200 40.95100
C  52.51400 46.00900 42.69700
C  49.49400 49.70300 43.66400
N  47.46900 45.27600 41.34800
C  46.19200 45.66700 41.31800
C  45.40900 44.61700 40.39400
C  46.45700 43.46900 40.15600
C  47.69400 43.96400 40.92600
C  45.99000 42.03000 40.57200
C  44.89900 45.36000 39.01800
C  43.45300 45.25900 38.57300
H  43.24500 45.07600 37.01800
N  50.54700 44.83000 41.91900
C  50.14700 43.65700 41.37200
C  51.32200 42.81000 41.16100
C  52.41400 43.54500 41.70700
C  51.86900 44.85300 42.15700
C  51.23100 41.39700 40.66900
C  53.87500 43.10200 41.80400
O  54.14300 42.01700 41.26600
C  54.97400 43.80100 42.49100
N  50.74400 47.72200 43.13700
C  52.09500 47.26600 43.13600
C  53.04200 48.36600 43.63000
C  52.04500 49.53300 43.99100
C  50.70000 49.02200 43.56800
C  53.90200 47.84400 44.79300
C  52.46600 50.89200 43.53300
C  52.51100 51.16600 42.02500
N  47.96300 47.93300 42.85300
C  48.18700 49.17900 43.42200
C  46.88500 49.82600 43.71800
C  45.98500 49.00900 43.05100
C  46.68100 47.90200 42.49100
C  46.63100 51.13700 44.45500
C  44.60300 48.86000 42.84600
O  43.69600 49.51000 43.22100
C  44.43500 47.53600 41.96900
C  43.52900 46.66400 42.71300
O  43.80800 46.28300 43.86100
O  42.49700 46.13600 41.95400
C  41.83500 45.00800 42.59300
H  48.85900 42.24800 40.54400
H  53.59000 45.84800 42.79300
H  49.62100 50.71900 44.04500
H  44.57700 44.27200 41.00800
H  46.75000 43.46300 39.10700
H  45.91100 41.25400 39.81200
H  45.14900 42.06500 41.26500
H  46.81500 41.54300 41.09100
H  45.37700 44.82100 38.19900
H  45.17500 46.41400 39.00100
H  43.04100 46.23300 38.83600
H  42.96100 44.43700 39.09200
H  51.31300 41.45100 39.58400
H  50.28300 40.89900 40.87300
H  52.09100 40.81200 40.99400
H  54.78600 43.93600 43.55600
H  55.13100 44.65800 41.83500
H  55.87800 43.19700 42.40600
H  53.73600 48.67900 42.85000
H  52.06900 49.57300 45.08000
H  53.45200 46.96700 45.25800
H  54.00600 48.57100 45.59700
H  54.91500 47.61000 44.46600
H  53.43200 51.05100 44.01100
H  51.89400 51.72200 43.94900
H  52.45300 50.22400 41.48100
H  53.51600 51.50600 41.77300
H  51.71600 51.82400 41.67400
H  47.33100 51.45100 45.22900
H  45.68900 51.02100 44.99100
H  46.42500 52.00800 43.83300
H  43.94600 47.69400 41.00700
H  41.87300 44.29400 41.77100
H  40.76500 45.07000 42.79000
H  42.37000 44.50700 43.40000
Mg 17.38600 52.33900 26.34200
C  19.33900 50.68200 28.82500
C  15.01200 52.85100 28.89600
C  15.39500 53.57900 24.11500
C  19.68300 51.43500 23.93700
N  17.17400 51.78500 28.56100
C  18.09700 51.10900 29.36900
C  17.74100 51.38900 30.83800
C  16.20200 51.63000 30.70400
C  16.06300 52.08100 29.26100
C  15.32600 50.41200 31.06200
C  18.56200 52.55000 31.43200
C  18.80700 52.39200 32.96100
H  17.92600 51.46800 33.79400
N  15.40400 53.09800 26.47600
C  14.67600 53.30200 27.60800
C  13.53000 54.16100 27.33600
C  13.62900 54.39200 25.93100
C  14.82700 53.74900 25.39300
C  12.52700 54.70000 28.51200
C  12.70000 55.21400 25.13100
O  12.92600 55.44800 23.95400
C  11.40200 55.82200 25.69700
N  17.32500 52.14900 24.23400
C  16.49500 52.89300 23.55400
C  16.87400 53.08400 22.05200
C  18.35900 52.48900 22.01400
C  18.46300 51.96200 23.51100
C  15.80900 52.39400 21.13900
C  19.35900 53.54400 21.44200
C  20.12700 54.52500 22.27300
N  19.10500 51.26000 26.32500
C  19.95200 51.01900 25.27100
C  21.15300 50.34900 25.70100
C  20.98200 50.15700 27.07900
C  19.70500 50.72500 27.41200
C  22.27900 49.84500 24.84400
C  21.55500 49.62000 28.32000
O  22.59200 48.94200 28.43700
C  20.54200 50.00100 29.51900
C  20.15800 48.76700 30.25200
O  19.45200 47.85400 29.80400
O  20.58800 48.98600 31.56200
C  20.05600 47.89200 32.44200
H  14.26900 52.99500 29.68400
H  14.80100 54.07700 23.34500
H  20.42300 51.38200 23.13600
H  17.98200 50.45000 31.33600
H  15.84900 52.52100 31.22300
H  15.09500 49.82500 30.17400
H  14.45600 50.82300 31.57400
H  15.84500 49.81600 31.81400
H  18.09400 53.50400 31.18800
H  19.49700 52.47400 30.87700
H  18.79000 53.34100 33.49700
H  19.83600 52.07600 33.13400
H  12.76500 54.40600 29.53400
H  11.58500 54.19200 28.30300
H  12.46300 55.78700 28.47300
H  10.84100 56.22200 24.85200
H  11.70400 56.67100 26.30900
H  10.79800 55.19600 26.35400
H  16.85100 54.17000 21.96600
H  18.50000 51.66700 21.31200
H  16.37000 51.89100 20.35200
H  15.09900 53.13600 20.77400
H  15.30800 51.55300 21.61900
H  18.87000 54.14100 20.67200
H  20.15900 53.05200 20.89000
H  20.40400 55.45400 21.77300
H  21.05000 54.11600 22.68300
H  19.52600 54.78700 23.14400
H  22.30600 50.35100 23.87900
H  21.96300 48.82900 24.60700
H  23.20600 49.94800 25.40800
H  20.90500 50.76900 30.20200
H  18.97200 47.96100 32.35000
H  20.31000 48.18300 33.46100
H  20.49800 46.94700 32.12800

