158

Mg 2.31000 -0.58500 44.25900
C  5.53300 0.34900 43.74900
C  1.27300 2.18400 42.50900
C  -0.87200 -1.95400 44.20200
C  3.52100 -3.72600 45.46500
N  3.29200 1.08400 43.15500
C  4.67100 1.20300 43.03100
C  4.95700 2.55400 42.25400
C  3.59700 3.21700 42.08100
C  2.63100 2.09800 42.56100
C  3.40100 4.57400 42.76900
C  5.62200 2.30400 40.79100
C  6.57000 3.35600 40.20200
H  6.08200 4.01700 38.90300
N  0.49700 0.11600 43.66400
C  0.27100 1.32200 42.98100
C  -1.16000 1.55600 42.92300
C  -1.82400 0.37000 43.29600
C  -0.74000 -0.58600 43.73100
C  -1.67300 2.92300 42.45500
C  -3.32100 0.19000 43.23400
O  -4.11400 1.06600 42.83500
C  -3.90500 -1.15600 43.63100
N  1.47600 -2.61700 44.61700
C  0.14800 -2.83600 44.65100
C  -0.19200 -4.16400 45.39500
C  1.23300 -4.74400 45.63600
C  2.16600 -3.72400 45.09800
C  -1.14800 -4.15500 46.67800
C  1.49000 -6.15500 44.93900
C  0.91500 -7.32800 45.72100
N  4.15800 -1.50600 44.64800
C  4.48900 -2.74200 45.15000
C  5.86800 -2.81400 45.29900
C  6.37600 -1.60100 44.80900
C  5.28700 -0.88800 44.33300
C  6.64000 -3.97300 45.80900
C  7.58100 -0.84200 44.50400
O  8.76600 -1.08200 44.79200
C  7.08700 0.44300 43.76900
C  7.52800 1.71500 44.47700
O  7.15300 2.16400 45.56900
O  8.48700 2.40000 43.76000
C  9.17000 3.58300 44.39900
H  0.96600 3.12000 42.03800
H  -1.84700 -2.24500 44.60100
H  3.99300 -4.59900 45.92100
H  5.65100 3.17900 42.81600
H  3.53100 3.37900 41.00500
H  3.59800 5.46700 42.17600
H  4.06900 4.55600 43.63100
H  2.52800 4.80800 43.37800
H  4.82900 2.02700 40.09600
H  6.20800 1.38600 40.76000
H  7.56500 2.93800 40.04700
H  6.66500 4.07700 41.01400
H  -0.98800 3.74700 42.65800
H  -2.72400 3.12700 42.66300
H  -1.71100 2.92500 41.36500
H  -4.97400 -1.17000 43.41900
H  -3.84100 -1.22900 44.71700
H  -3.45400 -2.03600 43.17300
H  -0.74800 -4.77900 44.68800
H  1.38000 -4.93500 46.69900
H  -1.42900 -3.12300 46.88900
H  -0.79800 -4.60700 47.60600
H  -2.10100 -4.63500 46.45200
H  2.56100 -6.22800 44.75100
H  0.94000 -6.19700 43.99900
H  1.60400 -8.06800 46.12800
H  0.21000 -7.82100 45.05100
H  0.29500 -7.02000 46.56200
H  7.08000 -4.50400 44.96500
H  5.97500 -4.70900 46.26100
H  7.35900 -3.72500 46.58900
H  7.49300 0.38500 42.75900
H  9.35700 3.34100 45.44500
H  8.53700 4.47000 44.37500
H  10.17600 3.63200 43.98300
Mg 46.94400 24.37600 27.75700
C  47.76400 26.75400 30.31900
C  46.38700 22.06600 30.28400
C  46.49600 22.08000 25.35000
C  47.90600 26.76700 25.42400
N  47.00400 24.45600 30.05000
C  47.22700 25.58900 30.88600
C  47.15500 25.16300 32.38200
C  46.67800 23.65400 32.31400
C  46.73300 23.37000 30.77100
C  47.52900 22.67700 33.06400
C  46.21200 26.09700 33.20300
C  46.65700 26.43200 34.66400
H  45.59400 26.35500 35.73500
N  46.48000 22.28200 27.78400
C  46.29500 21.56000 28.94800
C  45.92600 20.24300 28.46400
C  46.07400 20.17900 27.08400
C  46.35100 21.52800 26.63400
C  45.64000 19.03300 29.41300
C  45.87900 19.02800 26.17000
O  46.16600 19.02600 24.94400
C  45.20300 17.75000 26.58800
N  47.29000 24.38700 25.74600
C  46.84400 23.44400 24.94400
C  46.79200 23.85500 23.45000
C  47.27400 25.41500 23.49100
C  47.56900 25.50300 24.97900
C  47.76200 23.07900 22.50700
C  46.23200 26.47400 23.08900
C  44.86000 26.61500 23.86100
N  47.77100 26.26700 27.81000
C  48.12900 27.13100 26.75300
C  48.62000 28.35200 27.28500
C  48.57700 28.25200 28.68600
C  47.93200 27.02400 28.91300
C  49.16900 29.56400 26.58000
C  48.69300 28.90200 29.90900
O  48.99800 30.03600 30.21700
C  48.24200 28.02900 31.00300
C  49.28100 27.81400 32.15600
O  50.23600 27.07600 32.07700
O  49.02500 28.59100 33.26300
C  50.07500 28.33400 34.26000
H  45.99300 21.48100 31.11800
H  46.32500 21.37000 24.53900
H  48.12000 27.59800 24.74800
H  48.18500 25.29100 32.71400
H  45.67600 23.61800 32.74200
H  46.90500 22.16200 33.79500
H  48.36800 23.21200 33.50900
H  47.96900 21.84500 32.51400
H  45.29200 25.51500 33.26400
H  46.00400 27.06400 32.74700
H  47.15500 27.39400 34.77700
H  47.47400 25.74600 34.88600
H  46.23500 18.16800 29.11800
H  44.59000 18.74800 29.35800
H  45.85300 19.14700 30.47600
H  45.78300 17.18500 27.31700
H  45.19900 17.11100 25.70400
H  44.19600 18.02200 26.90600
H  45.73400 23.80000 23.19200
H  48.20200 25.66200 22.97500
H  47.35300 23.12800 21.49800
H  47.71000 22.03700 22.82200
H  48.78400 23.45600 22.48300
H  45.96400 26.19200 22.07100
H  46.75500 27.41000 22.89300
H  44.75100 25.98600 24.74400
H  44.01300 26.50700 23.18300
H  44.66800 27.58000 24.32800
H  48.62400 30.49600 26.72900
H  49.31700 29.45200 25.50600
H  50.18100 29.70800 26.95700
H  47.46700 28.69500 31.38400
H  50.13000 27.30400 34.61100
H  49.78200 28.89000 35.15100
H  51.07700 28.67500 33.99900

