158

Mg 8.08800 2.53800 27.04500
C  9.33400 1.03400 29.94900
C  6.41800 4.80300 28.95200
C  7.05900 4.12800 24.22500
C  9.76600 0.13300 25.10200
N  7.79500 2.76400 29.24500
C  8.57100 2.23900 30.19100
C  8.32500 2.85700 31.56300
C  7.21600 3.93700 31.23900
C  7.14900 3.83300 29.70900
C  5.94100 3.87400 32.06700
C  9.71500 3.23200 32.24900
C  10.14300 2.53500 33.62000
H  10.84800 3.41200 34.69100
N  6.87200 4.19500 26.65400
C  6.19800 4.92700 27.53400
C  5.39200 5.95500 26.89100
C  5.62400 5.81600 25.49900
C  6.52600 4.65600 25.38200
C  4.46200 6.93700 27.61700
C  4.99800 6.65900 24.32900
O  5.18500 6.45000 23.13700
C  4.18200 7.96200 24.64400
N  8.22900 2.10300 24.93500
C  7.75700 2.95400 23.97600
C  8.18600 2.40000 22.58400
C  9.04800 1.15300 22.85100
C  9.05100 1.11000 24.36700
C  7.18500 2.26900 21.41300
C  10.49400 1.21000 22.19800
C  11.00700 -0.10500 21.55500
N  9.10500 0.82600 27.39400
C  9.80600 -0.05900 26.53900
C  10.60500 -0.98500 27.29300
C  10.43200 -0.60000 28.64600
C  9.52400 0.49000 28.66300
C  11.36600 -2.21800 26.77000
C  10.77800 -0.92400 30.03800
O  11.42500 -1.87700 30.51800
C  10.04400 0.09200 30.89200
C  9.18100 -0.61100 31.86800
O  8.11500 -1.06400 31.65800
O  9.91000 -0.79100 33.08000
C  9.23600 -1.43700 34.21300
H  5.93200 5.52700 29.61000
H  6.78400 4.75200 23.37300
H  10.33900 -0.61800 24.55400
H  7.76100 2.14100 32.16100
H  7.65900 4.91700 31.42000
H  6.11200 3.25100 32.94500
H  5.23900 3.30200 31.46200
H  5.60300 4.89500 32.24600
H  9.78200 4.31800 32.30600
H  10.52400 2.94400 31.57700
H  10.89100 1.74700 33.53100
H  9.25700 2.05400 34.03600
H  4.71400 7.92800 27.24000
H  4.63400 7.01800 28.69000
H  3.38500 6.86500 27.46100
H  3.82800 8.48300 23.75500
H  4.95700 8.53900 25.14900
H  3.35100 7.83000 25.33800
H  8.88500 3.13500 22.18500
H  8.51100 0.29300 22.45000
H  6.19700 1.98700 21.77700
H  7.56000 1.44100 20.81000
H  7.17700 3.14600 20.76600
H  11.27100 1.62400 22.84200
H  10.35400 1.80700 21.29700
H  10.38400 -0.96000 21.81900
H  12.03000 -0.29600 21.88000
H  10.99200 0.06800 20.47900
H  11.55200 -3.00700 27.49800
H  12.37100 -1.92800 26.46300
H  10.76700 -2.63700 25.96100
H  10.86200 0.54900 31.44800
H  8.74600 -0.69100 34.83900
H  9.96000 -1.90400 34.88100
H  8.53200 -2.17600 33.83000
Mg 42.09100 41.77100 26.53400
C  41.01100 44.03100 28.95400
C  43.26800 39.73000 28.96400
C  43.19400 39.74200 24.07800
C  41.37700 44.23900 24.11400
N  42.12500 41.95200 28.65700
C  41.54100 42.86800 29.45000
C  41.58600 42.50800 30.92200
C  42.31200 41.12500 30.86500
C  42.66300 40.92800 29.42100
C  43.57900 40.93800 31.78300
C  40.18400 42.42400 31.71200
C  40.24600 42.98800 33.21000
H  39.39700 42.29400 34.33600
N  43.13800 39.96400 26.55100
C  43.50300 39.21400 27.66200
C  44.00800 37.97500 27.20600
C  44.03800 37.97500 25.77300
C  43.50400 39.24400 25.35800
C  44.45600 36.97800 28.14800
C  44.54100 37.00500 24.67700
O  44.90100 37.23300 23.49200
C  44.92500 35.62400 25.21600
N  42.28300 42.01900 24.41000
C  42.63100 40.95400 23.66700
C  42.25100 41.20300 22.20300
C  41.92700 42.76300 22.12500
C  41.84300 43.05200 23.67200
C  43.22700 40.67700 21.13300
C  40.67300 43.09300 21.26800
C  40.45400 44.44000 20.66100
N  41.34000 43.67400 26.48100
C  41.20500 44.59400 25.44900
C  40.73600 45.88200 25.96400
C  40.53400 45.62500 27.32600
C  40.95100 44.32000 27.59400
C  40.53800 47.06500 25.14400
C  40.05500 46.16500 28.51500
O  39.52800 47.25800 28.75200
C  40.27300 45.14600 29.63500
C  41.24900 45.82100 30.57400
O  42.42400 46.03500 30.39000
O  40.66500 45.83100 31.83400
C  41.49200 46.33100 32.90000
H  43.29100 38.96400 29.74100
H  43.52800 38.94500 23.41000
H  41.08000 45.00600 23.39600
H  42.23800 43.25700 31.37200
H  41.68500 40.29100 31.18000
H  43.44700 41.46400 32.72800
H  44.41200 41.49800 31.35900
H  43.90900 39.91300 31.95300
H  39.93100 41.36300 31.71300
H  39.42700 43.05900 31.25300
H  39.91300 44.02500 33.22400
H  41.28000 42.94400 33.55400
H  44.49600 37.33900 29.17500
H  45.41500 36.55100 27.85300
H  43.70700 36.18700 28.19000
H  44.84400 34.93100 24.37900
H  44.13900 35.36200 25.92400
H  45.84700 35.60700 25.79700
H  41.27700 40.71300 22.18600
H  42.84000 43.22700 21.75200
H  44.19800 40.34600 21.50100
H  43.49400 41.49300 20.46100
H  42.88300 39.81900 20.55600
H  39.77200 42.96100 21.86800
H  40.51200 42.28700 20.55300
H  40.72200 44.23900 19.62400
H  41.05700 45.19900 21.15800
H  39.41100 44.74500 20.75500
H  39.49000 47.36200 25.16300
H  40.79400 46.91900 24.09400
H  40.91100 47.96600 25.63100
H  39.32200 44.96300 30.13400
H  41.82400 45.39600 33.35000
H  40.90800 46.90700 33.61800
H  42.27100 47.04800 32.64100

