158

Mg 47.68200 24.70400 28.15800
C  48.67500 27.03000 30.73600
C  47.03600 22.48500 30.73200
C  46.88800 22.49000 25.88300
C  49.00700 26.79400 25.86000
N  47.81200 24.81900 30.49100
C  48.08500 25.90300 31.31200
C  47.88600 25.51000 32.75200
C  47.57300 24.00000 32.74500
C  47.57500 23.72300 31.20100
C  48.64600 23.12000 33.46000
C  46.76600 26.37600 33.46100
C  47.30800 27.39600 34.49000
H  46.63400 27.64300 35.85700
N  46.97700 22.77900 28.28500
C  46.82900 22.00600 29.45300
C  46.22800 20.68900 29.01600
C  46.16400 20.68400 27.61000
C  46.65700 22.03500 27.19200
C  45.79300 19.53400 29.99700
C  45.82800 19.62200 26.55600
O  45.96000 19.72100 25.35900
C  45.24100 18.34100 27.09500
N  48.08100 24.60700 26.06800
C  47.44300 23.67600 25.33700
C  47.52300 24.05900 23.82300
C  47.96600 25.54000 23.87600
C  48.28200 25.67200 25.38600
C  48.47700 23.07800 23.06500
C  46.92000 26.56800 23.38200
C  47.31000 27.66900 22.35500
N  48.72600 26.53000 28.24600
C  49.23600 27.20600 27.18500
C  49.66900 28.47200 27.71300
C  49.44700 28.45700 29.07700
C  48.90000 27.24300 29.35000
C  50.19800 29.68600 27.02000
C  49.72900 29.19200 30.34100
O  50.24600 30.28400 30.51500
C  49.12100 28.22900 31.48900
C  50.31000 27.97700 32.35900
O  51.21100 27.24500 32.18200
O  50.20200 28.72200 33.41700
C  51.11200 28.53300 34.52400
H  46.88800 21.84400 31.60300
H  46.59300 21.88200 25.02500
H  49.31800 27.51600 25.10300
H  48.78300 25.73600 33.32800
H  46.59000 23.70300 33.11100
H  48.99000 22.36600 32.75200
H  48.08300 22.58200 34.22300
H  49.47900 23.72200 33.82400
H  45.97700 25.81600 33.96300
H  46.35000 26.90300 32.60100
H  47.36700 28.37000 34.00400
H  48.35700 27.22600 34.73200
H  46.20300 18.55600 29.74600
H  44.71100 19.42800 30.08500
H  46.14200 19.85100 30.98000
H  45.93300 17.76400 27.70800
H  44.91700 17.72700 26.25400
H  44.41000 18.58600 27.75700
H  46.54300 23.89000 23.37600
H  48.90300 25.73300 23.35300
H  48.86500 22.43600 23.85600
H  49.34600 23.56000 22.61700
H  47.92800 22.60800 22.24800
H  46.43200 26.93700 24.28400
H  46.16100 26.06800 22.78100
H  48.37100 27.81400 22.15100
H  46.97200 28.64700 22.69700
H  46.82100 27.45100 21.40500
H  50.47800 29.43500 25.99700
H  51.01700 30.07900 27.62300
H  49.43400 30.46100 26.96100
H  48.32100 28.78600 31.97600
H  51.98800 29.17500 34.42400
H  51.51100 27.52000 34.58000
H  50.55400 28.81100 35.41700
Mg 26.41100 50.38400 26.41600
C  24.15400 51.70300 28.91400
C  28.40200 49.44500 29.01100
C  28.43500 49.48900 24.12100
C  24.21200 51.80700 24.02600
N  26.36800 50.79900 28.63600
C  25.36300 51.16800 29.43200
C  25.61900 50.89200 30.93400
C  26.99100 50.12400 30.96400
C  27.28400 50.04800 29.42000
C  28.19300 50.69200 31.67500
C  24.53000 50.01000 31.67900
C  24.37300 50.45300 33.14800
H  23.70800 49.44700 34.11600
N  28.23500 49.58800 26.52400
C  28.90800 49.22100 27.65500
C  30.10100 48.43500 27.29800
C  30.18000 48.53800 25.82800
C  28.99700 49.26400 25.41800
C  31.09400 47.84100 28.29000
C  31.25200 48.09000 24.82900
O  31.19900 48.32200 23.60900
C  32.43700 47.21000 25.30800
N  26.37200 50.60000 24.37900
C  27.31800 50.08800 23.58100
C  26.92300 50.06300 22.11900
C  25.47600 50.68400 22.09600
C  25.32600 51.10700 23.60400
C  27.94600 50.72200 21.18000
C  24.30800 49.71500 21.55600
C  24.31200 48.26900 21.93200
N  24.56200 51.56700 26.43700
C  23.80600 52.06600 25.40100
C  22.61500 52.71700 25.87100
C  22.66500 52.60100 27.26500
C  23.85700 51.89400 27.55600
C  21.58300 53.38700 24.94900
C  22.04800 52.86200 28.45900
O  20.94400 53.34600 28.62100
C  22.96100 52.29300 29.63900
C  23.37100 53.44200 30.60900
O  24.45700 53.99800 30.54900
O  22.37600 53.71700 31.50800
C  22.85200 54.58700 32.60100
H  29.06200 48.97400 29.74200
H  29.02400 49.00200 23.34100
H  23.59700 52.19200 23.20900
H  25.64800 51.87900 31.39600
H  26.80900 49.10400 31.30000
H  28.67400 51.36300 30.96400
H  28.92500 49.97000 32.03500
H  27.85700 51.22400 32.56600
H  24.83300 48.96400 31.72200
H  23.58200 50.07700 31.14400
H  23.71100 51.31700 33.07900
H  25.29200 50.87700 33.55400
H  31.00400 48.29000 29.27900
H  32.13500 48.01500 28.01800
H  30.96700 46.76100 28.35300
H  32.05100 46.33400 25.82800
H  33.14300 47.80600 25.88600
H  32.99400 46.89300 24.42600
H  26.96700 48.98800 21.94400
H  25.49000 51.64400 21.57900
H  28.86300 51.08400 21.64400
H  27.64700 51.57600 20.57200
H  28.33100 49.90200 20.57300
H  24.33800 49.77500 20.46800
H  23.45500 50.25400 21.96700
H  23.40800 48.03700 22.49600
H  25.19200 47.91000 22.46600
H  24.29300 47.71800 20.99100
H  20.83300 52.61400 24.78400
H  21.95400 53.58200 23.94300
H  21.17200 54.32400 25.32600
H  22.46800 51.55500 30.27300
H  23.34400 55.47100 32.19500
H  23.50000 53.99100 33.24400
H  22.15200 55.02700 33.31200

