158

Mg 3.67700 0.40500 44.14900
C  6.33500 2.54100 44.10300
C  1.75300 2.89800 42.48800
C  1.32900 -2.03300 43.31200
C  5.55100 -1.95900 45.66200
N  4.01600 2.43600 43.36600
C  5.20700 3.12200 43.41100
C  5.13600 4.55600 42.75200
C  3.61800 4.61200 42.43600
C  3.06200 3.21900 42.75900
C  2.88800 5.69200 43.22900
C  6.11800 4.77900 41.61200
C  6.52800 3.63600 40.67700
H  7.35800 3.92200 39.44600
N  1.73200 0.41300 43.06400
C  1.09700 1.60200 42.63100
C  -0.23100 1.24400 42.24600
C  -0.40800 -0.20500 42.52300
C  0.95200 -0.70400 42.97300
C  -1.21200 2.23300 41.70300
C  -1.69500 -0.91600 42.14700
O  -2.66000 -0.25400 41.75800
C  -1.94000 -2.40400 42.16000
N  3.57400 -1.75600 44.15900
C  2.50400 -2.49900 43.94600
C  2.74200 -3.99500 44.16400
C  4.09000 -3.91700 44.97100
C  4.41400 -2.42500 44.95500
C  1.65300 -4.70000 44.94600
C  5.18700 -4.82400 44.31900
C  5.94500 -5.61000 45.39700
N  5.55900 0.29900 44.76000
C  6.19200 -0.75200 45.40200
C  7.44600 -0.27000 45.83100
C  7.61200 1.01700 45.29800
C  6.38700 1.29100 44.67600
C  8.40000 -0.98900 46.73900
C  8.51900 2.18800 45.12700
O  9.69800 2.29000 45.45700
C  7.70800 3.26300 44.40700
C  7.46400 4.39300 45.44700
O  8.36000 5.03900 45.97200
O  6.15500 4.54500 45.77800
C  5.76500 5.70900 46.59600
H  1.18400 3.65000 41.93800
H  0.50100 -2.73400 43.18800
H  6.10600 -2.66700 46.28000
H  5.56900 5.23400 43.48800
H  3.42800 4.63800 41.36300
H  3.54800 6.52100 43.48200
H  2.29100 5.28900 44.04600
H  2.20800 6.07300 42.46700
H  6.96900 5.16400 42.17400
H  5.75100 5.59700 40.99300
H  5.63700 3.13500 40.29900
H  7.06100 2.97400 41.35900
H  -1.20100 2.02400 40.63400
H  -0.93100 3.27200 41.87600
H  -2.22300 2.13200 42.09900
H  -2.10500 -2.88200 43.12600
H  -1.07400 -2.92600 41.75200
H  -2.77000 -2.51900 41.46200
H  2.85100 -4.52700 43.21900
H  3.83600 -4.26600 45.97200
H  1.16600 -3.87200 45.46100
H  1.92800 -5.45300 45.68500
H  0.94400 -5.19300 44.28100
H  5.94100 -4.14300 43.92400
H  4.78600 -5.39300 43.48000
H  7.01600 -5.59100 45.19700
H  5.71000 -6.67000 45.30600
H  5.78200 -5.13700 46.36600
H  9.16400 -0.32500 47.14400
H  9.07000 -1.72400 46.29200
H  7.87900 -1.57000 47.50000
H  8.27900 3.53400 43.51900
H  4.70000 5.93800 46.55900
H  6.24200 6.66200 46.36800
H  5.94000 5.50400 47.65200
Mg 5.18400 57.09700 41.92600
C  5.24900 53.61200 41.46900
C  8.13200 57.33600 40.27000
C  4.65200 60.50000 41.75200
C  1.90200 56.67000 43.24100
N  6.38400 55.64600 40.89200
C  6.21500 54.27600 40.77600
C  7.36500 53.70500 39.90900
C  8.44500 54.75600 40.06600
C  7.63100 56.01100 40.42700
C  9.52200 54.42900 41.10600
C  6.84200 53.41700 38.46000
C  7.35800 52.08500 37.82600
H  6.50100 51.57200 36.68800
N  6.27300 58.76400 41.08700
C  7.50500 58.59200 40.52500
C  7.91200 59.89000 40.09000
C  6.87700 60.83600 40.41900
C  5.90400 60.06200 41.16200
C  9.30300 60.13500 39.49900
C  6.90200 62.34600 40.10600
O  7.96500 62.88100 39.72700
C  5.76600 63.27000 40.37500
N  3.49700 58.34500 42.39200
C  3.69600 59.72900 42.43900
C  2.42400 60.44900 42.98500
C  1.63500 59.23400 43.49900
C  2.40300 57.95700 43.04300
C  2.75700 61.52000 44.01300
C  0.08600 59.14600 43.16100
C  -1.03200 58.62300 44.10900
N  3.88500 55.52500 42.43000
C  2.57600 55.46800 42.94500
C  2.15300 54.09600 43.08300
C  3.21600 53.40000 42.56400
C  4.21900 54.26800 42.08600
C  1.00900 53.62600 43.82200
C  3.69600 52.06700 42.41500
O  3.30900 51.00700 42.72400
C  5.03300 52.16100 41.71300
C  5.01100 51.33300 40.47600
O  4.15400 51.34500 39.55800
O  5.97000 50.30400 40.58500
C  5.91400 49.25700 39.57800
H  9.09400 57.36100 39.75300
H  4.45900 61.57400 41.71300
H  1.03100 56.50800 43.88000
H  7.68400 52.73500 40.29000
H  9.01300 55.16600 39.23100
H  10.49200 54.54600 40.62300
H  9.42300 53.36700 41.33300
H  9.28000 55.06400 41.95800
H  7.39500 54.19200 37.93100
H  5.76500 53.57600 38.40100
H  7.37100 51.33000 38.61100
H  8.37700 52.16400 37.44600
H  9.06500 60.79800 38.66700
H  9.82100 59.24200 39.15100
H  9.93500 60.67500 40.20400
H  4.87700 62.80300 39.95100
H  6.04600 64.18200 39.84600
H  5.61000 63.42000 41.44300
H  1.78500 60.88600 42.21800
H  1.65700 59.09300 44.58000
H  3.84000 61.62500 43.95200
H  2.47000 61.22200 45.02200
H  2.16100 62.40500 43.78800
H  -0.05900 58.88000 42.11400
H  -0.19100 60.18200 42.97000
H  -1.66400 59.40800 44.52600
H  -0.45200 58.00200 44.79100
H  -1.69900 57.91200 43.62200
H  1.21200 53.58200 44.89200
H  0.53200 52.71400 43.46100
H  0.17800 54.32300 43.71800
H  5.84600 51.81100 42.34900
H  6.96000 48.98400 39.43300
H  5.40600 49.49500 38.64400
H  5.45400 48.39200 40.05600

