158

Mg 8.77000 3.33800 27.83000
C  10.11500 2.01300 30.66500
C  7.22100 5.75300 29.70200
C  7.04500 4.34100 25.05400
C  10.06300 0.65500 26.01800
N  8.79100 3.88100 29.93900
C  9.47100 3.25700 30.92400
C  9.26900 3.83400 32.35800
C  8.31900 5.01300 32.05900
C  8.10500 4.93800 30.49100
C  7.03200 5.13700 32.88700
C  10.63600 4.22400 33.07300
C  10.51100 5.26600 34.19400
H  11.22800 4.87700 35.50400
N  7.40800 4.92900 27.40200
C  6.88400 5.76200 28.34600
C  6.05400 6.74900 27.69600
C  5.98600 6.41900 26.32500
C  6.78400 5.16100 26.16000
C  5.43800 7.99800 28.28900
C  5.16700 7.03500 25.24500
O  5.34400 6.77200 24.06100
C  4.08500 8.15600 25.58000
N  8.53200 2.61300 25.84400
C  7.79900 3.21900 24.89500
C  7.89400 2.42300 23.59400
C  9.05300 1.50700 23.81700
C  9.24900 1.55700 25.34900
C  6.58300 1.62600 23.15800
C  10.36200 1.88700 23.02000
C  11.32600 0.72400 22.82500
N  10.04000 1.73800 28.17100
C  10.38300 0.71200 27.39300
C  11.16400 -0.24400 28.18400
C  11.07700 0.25900 29.43900
C  10.31200 1.41400 29.38000
C  11.75900 -1.56300 27.78100
C  11.57200 -0.02200 30.78700
O  12.40100 -0.81200 31.17400
C  10.94100 1.11600 31.60200
C  10.25900 0.51800 32.80300
O  9.21300 -0.12200 32.73200
O  11.09800 0.84200 33.89400
C  10.50000 0.23700 35.10100
H  6.80100 6.62800 30.20300
H  6.45200 4.65500 24.19200
H  10.44800 -0.24100 25.52700
H  8.74600 3.07300 32.93800
H  8.77800 5.99000 32.20900
H  6.14700 5.01200 32.26400
H  7.00600 6.13200 33.33100
H  6.87300 4.43300 33.70400
H  11.27400 4.59800 32.27100
H  11.08000 3.36300 33.57100
H  9.45500 5.33300 34.45700
H  10.78300 6.20800 33.71800
H  6.04400 8.34900 29.12400
H  4.41800 7.74900 28.58000
H  5.41900 8.90700 27.68900
H  3.62900 7.89400 26.53500
H  3.55700 8.31900 24.64000
H  4.70900 9.04300 25.68200
H  8.11200 3.19200 22.85200
H  8.88000 0.47400 23.51400
H  5.74700 2.25200 22.84500
H  6.26600 0.92900 23.93300
H  6.78100 0.96700 22.31200
H  10.92400 2.62400 23.59500
H  10.18200 2.38300 22.06600
H  12.00300 0.70800 23.67900
H  11.87700 0.95900 21.91400
H  10.73400 -0.19000 22.78600
H  11.43100 -1.97000 26.82500
H  11.58900 -2.37500 28.48900
H  12.83900 -1.42500 27.73500
H  11.73000 1.77100 31.97100
H  9.88800 -0.63300 34.86600
H  9.98300 0.98000 35.70800
H  11.26500 -0.20000 35.74400
Mg 25.97500 0.26000 29.63400
C  27.82800 -0.22200 32.60500
C  23.21800 0.39200 31.70100
C  24.18500 0.29300 26.85900
C  28.87200 -0.41500 27.84100
N  25.60800 0.28300 31.87100
C  26.53900 0.17200 32.91200
C  25.97000 0.23700 34.28600
C  24.47800 -0.01000 33.94100
C  24.40900 0.22000 32.42600
C  23.98200 -1.42000 34.33400
C  26.43700 1.44400 35.05200
C  26.89000 1.13200 36.48600
H  26.85600 2.21800 37.55700
N  24.01400 0.32700 29.32900
C  23.03700 0.44700 30.28800
C  21.72700 0.63500 29.67600
C  21.97200 0.41500 28.31000
C  23.42200 0.36000 28.06100
C  20.44100 0.76100 30.45700
C  20.96100 0.20600 27.14100
O  21.26400 0.10300 25.97100
C  19.50700 0.43100 27.45400
N  26.48100 -0.04000 27.63400
C  25.53800 0.20200 26.63400
C  26.18300 0.11200 25.30700
C  27.74900 -0.09200 25.59200
C  27.75700 -0.08000 27.12200
C  25.59400 -0.94200 24.39300
C  28.70800 0.94100 24.97300
C  29.93800 0.37200 24.21900
N  27.98400 -0.30900 30.06000
C  29.00200 -0.57000 29.24500
C  30.13600 -0.99000 29.99500
C  29.77500 -0.76400 31.32800
C  28.43200 -0.34600 31.34800
C  31.49700 -1.36400 29.42900
C  30.23000 -0.84100 32.64800
O  31.38800 -1.09700 33.06400
C  29.03700 -0.42700 33.59200
C  28.90300 -1.46300 34.63500
O  28.37300 -2.55900 34.51700
O  29.54500 -1.08900 35.79000
C  29.74700 -2.13000 36.82700
H  22.34500 0.49900 32.34800
H  23.71300 0.36900 25.87700
H  29.81100 -0.49000 27.28800
H  26.45700 -0.63600 34.72000
H  23.90600 0.71300 34.52200
H  23.65000 -1.21700 35.35200
H  24.65700 -2.27600 34.35200
H  23.13700 -1.65200 33.68600
H  25.59000 2.11200 35.20800
H  27.29100 1.85000 34.51100
H  27.91500 0.76200 36.48800
H  26.35300 0.28700 36.91800
H  19.98500 1.73700 30.29300
H  20.63600 0.42000 31.47400
H  19.78700 -0.03400 30.09900
H  19.32800 1.38900 27.94100
H  19.14000 -0.34600 28.12500
H  18.98300 0.25200 26.51500
H  25.92100 1.08900 24.90000
H  28.18400 -1.07600 25.41500
H  26.30300 -1.26100 23.62900
H  24.85000 -0.40900 23.80100
H  25.25100 -1.82300 24.93500
H  29.04200 1.55600 25.80900
H  28.11300 1.61000 24.35200
H  30.12300 0.99700 23.34500
H  29.75500 -0.66300 23.93100
H  30.80700 0.43700 24.87400
H  31.56800 -2.23800 28.78200
H  32.19900 -1.52600 30.24700
H  31.92900 -0.51300 28.90300
H  29.33600 0.50400 34.07200
H  30.57200 -2.04900 37.53500
H  29.92000 -3.12100 36.40800
H  28.91500 -2.33600 37.50100

