158

Mg -1.37300 18.21300 27.13100
C  -1.75600 15.92100 29.80600
C  -2.17500 20.71900 29.19500
C  -1.50400 20.10700 24.49300
C  -1.56300 15.35700 25.03700
N  -1.64700 18.33600 29.28600
C  -1.77100 17.30300 30.18000
C  -1.83200 17.77300 31.64400
C  -2.00500 19.35500 31.38400
C  -1.99200 19.48300 29.86300
C  -3.34000 19.84500 31.95100
C  -0.52800 17.46700 32.49100
C  -0.23900 18.35800 33.78500
H  0.16700 17.59200 35.04700
N  -1.65900 20.21100 26.87800
C  -2.03800 21.13600 27.82200
C  -2.12900 22.46900 27.20600
C  -1.74900 22.25600 25.84500
C  -1.67700 20.80700 25.69900
C  -2.40500 23.72600 28.03100
C  -1.52000 23.23600 24.72300
O  -1.19200 22.88000 23.60900
C  -1.71400 24.72700 24.99500
N  -1.42000 17.76100 25.09000
C  -1.37700 18.78900 24.14600
C  -1.37400 18.24600 22.70300
C  -1.23700 16.72100 22.96400
C  -1.44700 16.61400 24.43100
C  -2.46000 18.74200 21.70800
C  0.16100 16.21700 22.61900
C  0.31500 14.77200 22.05800
N  -1.58700 16.06800 27.34100
C  -1.58400 15.03500 26.42500
C  -1.61100 13.77200 27.02000
C  -1.65500 14.07700 28.34500
C  -1.72900 15.44400 28.53000
C  -1.73500 12.44600 26.35500
C  -1.75000 13.48000 29.58600
O  -1.79300 12.32100 29.92200
C  -1.74200 14.61900 30.64400
C  -0.55400 14.47200 31.44600
O  0.57400 14.88800 31.02800
O  -0.80900 13.88800 32.64800
C  0.28100 13.76400 33.64300
H  -2.45000 21.46700 29.94200
H  -1.32000 20.58700 23.53000
H  -1.30000 14.53600 24.36700
H  -2.73100 17.32900 32.07200
H  -1.19800 19.92000 31.84900
H  -4.02100 20.14300 31.15400
H  -3.08600 20.75400 32.49700
H  -3.84200 19.06400 32.52300
H  0.29400 17.49900 31.77500
H  -0.69500 16.46800 32.89500
H  -1.20700 18.76700 34.07700
H  0.44900 19.16100 33.51900
H  -2.76500 23.69900 29.06000
H  -3.16300 24.26800 27.46500
H  -1.51200 24.34200 27.92700
H  -0.88500 25.02100 25.63900
H  -2.73700 24.91500 25.32000
H  -1.55500 25.32000 24.09400
H  -0.43000 18.68100 22.37600
H  -2.00400 16.09700 22.50800
H  -3.08700 17.86200 21.57100
H  -2.00700 18.99100 20.74800
H  -3.05100 19.56700 22.10600
H  0.70400 16.17500 23.56400
H  0.70600 16.88700 21.95500
H  1.22100 14.57100 21.48500
H  -0.58400 14.47200 21.51800
H  0.45500 14.06100 22.87200
H  -1.89900 11.61600 27.04200
H  -0.80600 12.27400 25.81100
H  -2.50500 12.43300 25.58400
H  -2.66600 14.64100 31.22200
H  0.24400 12.84100 34.22200
H  0.17900 14.64500 34.27700
H  1.26500 13.78800 33.17500
Mg 25.78600 0.90000 29.58300
C  27.83700 0.83200 32.39200
C  23.12700 1.45500 31.53000
C  23.96200 1.21900 26.79900
C  28.57000 0.22600 27.49700
N  25.51600 1.00000 31.69600
C  26.48500 1.05500 32.70200
C  25.85700 1.23500 34.10200
C  24.32100 1.28700 33.75600
C  24.27700 1.16100 32.25000
C  23.30700 0.41600 34.53500
C  26.53500 2.47000 34.85400
C  25.66200 2.95500 36.08000
H  26.45300 3.16300 37.34400
N  23.79400 1.27300 29.16400
C  22.83600 1.48900 30.11100
C  21.62300 1.88500 29.49200
C  21.76300 1.65700 28.08600
C  23.22300 1.38400 27.94000
C  20.26600 2.07700 30.28500
C  20.75900 1.81900 26.97000
O  20.98300 1.68500 25.79000
C  19.33000 2.28800 27.26600
N  26.19400 0.76600 27.43500
C  25.30200 0.94600 26.47500
C  25.79200 0.86600 25.10200
C  27.26200 0.45700 25.27000
C  27.38100 0.55200 26.83700
C  24.95900 0.04100 24.06800
C  28.18400 1.46000 24.53700
C  29.50800 0.78100 23.96400
N  27.83400 0.43200 29.87300
C  28.79500 0.06500 28.91900
C  30.06000 -0.14000 29.65600
C  29.69800 0.22300 31.04800
C  28.35000 0.51300 31.08200
C  31.36600 -0.40200 29.00200
C  30.21300 0.46500 32.34700
O  31.36800 0.35000 32.69500
C  29.03800 0.87700 33.28700
C  28.91800 0.01200 34.39500
O  28.24700 -1.00900 34.40600
O  29.53700 0.59300 35.47800
C  29.39300 -0.13900 36.69200
H  22.23400 1.72800 32.09600
H  23.24900 1.15000 25.97500
H  29.40300 0.05500 26.81200
H  26.16400 0.37300 34.69500
H  24.05700 2.30500 34.04100
H  22.91500 -0.35600 33.87200
H  22.47600 0.99700 34.93600
H  23.79500 -0.04000 35.39600
H  26.57600 3.24600 34.08900
H  27.50900 2.18000 35.24900
H  24.89600 2.19000 36.20600
H  25.32600 3.95200 35.79500
H  19.75300 3.03700 30.22800
H  20.32100 2.04500 31.37300
H  19.60900 1.29500 29.90600
H  18.62100 1.97000 26.50100
H  19.34100 3.37700 27.24400
H  18.95100 1.81200 28.17100
H  25.63200 1.86100 24.68600
H  27.48200 -0.51600 24.83100
H  24.30500 -0.62500 24.63000
H  25.60500 -0.52700 23.39900
H  24.36300 0.69100 23.42800
H  28.28900 2.29700 25.22700
H  27.70600 1.83100 23.63000
H  30.41200 1.13100 24.46300
H  29.62900 1.01100 22.90600
H  29.48600 -0.30100 24.10000
H  31.69400 0.47700 28.44800
H  31.26900 -1.23700 28.30700
H  32.10800 -0.50800 29.79300
H  29.17200 1.94400 33.46300
H  30.26100 0.18400 37.26700
H  29.58000 -1.20800 36.59000
H  28.49600 0.21900 37.19800

