158

Mg -1.84300 16.82500 27.11100
C  -2.39100 14.56300 29.96800
C  -2.54200 19.36000 29.33200
C  -1.85700 18.75300 24.56800
C  -1.91000 13.92300 25.10800
N  -2.35200 16.98500 29.42700
C  -2.36700 15.94700 30.34100
C  -2.59300 16.50200 31.79700
C  -2.60500 18.04300 31.59800
C  -2.52000 18.16700 30.00600
C  -3.89500 18.78500 32.20300
C  -1.58600 15.94600 32.88200
C  -1.10500 16.83800 34.03100
H  -0.85000 16.17900 35.37500
N  -2.03600 18.79300 26.99400
C  -2.37900 19.69800 27.96500
C  -2.38000 21.06000 27.40800
C  -2.03100 20.90200 26.03800
C  -2.02100 19.46000 25.80400
C  -2.42100 22.29900 28.23400
C  -1.65100 21.95900 24.99500
O  -1.15600 21.70500 23.90300
C  -1.89200 23.35000 25.24400
N  -1.87500 16.40200 25.12800
C  -1.72300 17.45100 24.18900
C  -1.64300 16.85900 22.71100
C  -1.31800 15.33200 23.04100
C  -1.68300 15.15000 24.53200
C  -2.93600 17.04700 21.85900
C  0.11000 14.85900 22.82800
C  1.20800 15.83500 23.33200
N  -2.05200 14.70800 27.41600
C  -2.17300 13.69700 26.49800
C  -2.45700 12.50100 27.17900
C  -2.46600 12.75800 28.54700
C  -2.30200 14.14200 28.61800
C  -2.57800 11.24200 26.44500
C  -2.76400 12.21600 29.80500
O  -3.03900 11.03300 30.09700
C  -2.58000 13.32000 30.84300
C  -1.33400 12.94000 31.48600
O  -0.20400 13.13700 31.07300
O  -1.66400 12.45700 32.77000
C  -0.65000 12.40400 33.75700
H  -2.58100 20.30400 29.88100
H  -1.78200 19.36500 23.66600
H  -1.86000 13.04300 24.46400
H  -3.58800 16.11400 32.01800
H  -1.72200 18.52500 32.01700
H  -4.45900 18.13800 32.87500
H  -4.58800 19.15400 31.44700
H  -3.56200 19.69800 32.69700
H  -0.69000 15.54500 32.40800
H  -2.08300 15.07600 33.31000
H  -1.85800 17.62200 34.11300
H  -0.23000 17.39400 33.69400
H  -1.47100 22.83200 28.21000
H  -2.83100 22.18300 29.23700
H  -3.23600 22.89000 27.81600
H  -2.80300 23.45400 25.83300
H  -2.05000 23.81800 24.27200
H  -0.96000 23.78700 25.60200
H  -0.82900 17.41100 22.24200
H  -1.91900 14.73300 22.35700
H  -3.58300 17.60500 22.53500
H  -3.21300 16.04700 21.52600
H  -2.71000 17.51800 20.90200
H  0.26700 14.66100 21.76800
H  0.20500 13.89400 23.32400
H  1.52800 16.40100 22.45700
H  2.10300 15.30700 23.66100
H  0.97100 16.54500 24.12500
H  -1.67500 11.21000 25.83500
H  -3.40100 11.48700 25.77400
H  -2.75000 10.42500 27.14600
H  -3.53200 13.39600 31.36800
H  -1.11400 12.78800 34.66500
H  0.26200 12.96700 33.55400
H  -0.18500 11.44000 33.96400
Mg -5.35400 24.61600 26.08000
C  -4.09100 26.05600 29.04900
C  -7.16600 22.45500 28.19000
C  -5.99800 22.76600 23.43500
C  -3.37200 26.77900 24.27100
N  -5.52600 24.33500 28.31700
C  -5.03300 25.10300 29.32900
C  -5.40100 24.66400 30.67100
C  -6.29900 23.35400 30.40300
C  -6.35100 23.38200 28.83700
C  -5.79500 21.96700 30.96500
C  -6.19300 25.81900 31.43300
C  -5.78200 25.99400 32.89200
H  -5.36200 24.76600 33.74400
N  -6.45200 22.86200 25.80400
C  -7.18700 22.19400 26.80000
C  -7.98100 21.15100 26.14400
C  -7.73000 21.27100 24.74500
C  -6.59700 22.28900 24.61600
C  -8.98500 20.29600 26.85700
C  -8.34200 20.49200 23.54700
O  -7.97900 20.67400 22.38300
C  -9.55400 19.53600 23.70700
N  -4.79600 24.88400 24.19200
C  -5.17700 23.88800 23.27600
C  -4.61800 24.25300 21.85700
C  -4.00200 25.62100 22.13800
C  -4.06700 25.79500 23.62200
C  -3.79400 23.12400 21.05000
C  -4.56600 26.79200 21.24600
C  -3.47200 27.35700 20.38500
N  -4.04300 26.26200 26.55400
C  -3.27000 26.96900 25.65700
C  -2.43200 27.94300 26.40900
C  -2.67500 27.59600 27.78400
C  -3.71600 26.56500 27.80900
C  -1.46400 28.98200 25.91700
C  -2.33600 27.84400 29.16400
O  -1.65700 28.71600 29.67600
C  -3.27400 26.81800 30.05700
C  -2.26000 26.00200 30.85500
O  -1.78900 24.97300 30.38000
O  -1.99500 26.56200 32.06400
C  -1.21000 25.83700 33.09800
H  -7.73200 21.82600 28.88000
H  -6.20800 22.18000 22.53800
H  -2.65600 27.31000 23.64000
H  -4.45500 24.46200 31.17300
H  -7.28900 23.47500 30.84300
H  -6.73700 21.53100 31.29900
H  -5.04300 21.90500 31.75200
H  -5.36200 21.24400 30.27400
H  -7.20600 25.41800 31.44100
H  -6.22900 26.79500 30.94900
H  -6.64500 26.44700 33.38000
H  -4.91700 26.65500 32.93900
H  -8.82900 19.26500 26.53700
H  -10.01500 20.65200 26.84700
H  -8.67700 20.22000 27.90000
H  -10.28800 20.12600 24.25500
H  -9.18700 18.70200 24.30500
H  -9.73700 19.11900 22.71700
H  -5.49800 24.56100 21.29300
H  -2.93300 25.43200 22.03100
H  -3.69000 22.30300 21.75900
H  -2.79000 23.38200 20.71400
H  -4.47500 22.91800 20.22400
H  -4.99000 27.57900 21.87000
H  -5.44300 26.58900 20.63000
H  -3.74700 27.34100 19.33000
H  -2.50600 26.88500 20.56000
H  -3.33400 28.39700 20.67800
H  -1.90300 29.97900 25.87800
H  -1.02400 28.62200 24.98700
H  -0.63700 29.07700 26.62100
H  -3.73100 27.51900 30.75400
H  -1.78600 25.86900 34.02300
H  -0.21000 26.23500 33.27100
H  -1.12500 24.75400 33.00400

