158

Mg 40.66800 9.11000 29.61500
C  42.56100 10.31700 32.30900
C  38.41000 7.67800 31.80600
C  39.08600 7.98600 26.87300
C  43.27500 10.04900 27.48900
N  40.55800 8.95300 31.80900
C  41.41100 9.60800 32.73200
C  40.88300 9.42200 34.11100
C  39.51500 8.63700 33.94300
C  39.50000 8.36300 32.43000
C  39.22700 7.37900 34.81800
C  40.77200 10.76700 34.92000
C  39.47400 11.16700 35.72100
H  39.41700 12.05100 36.89600
N  39.04200 7.86900 29.36200
C  38.21000 7.40800 30.39400
C  37.12300 6.69000 29.80300
C  37.38100 6.72800 28.37700
C  38.49100 7.62200 28.13500
C  36.12400 5.93900 30.63500
C  36.56700 6.05000 27.25600
O  36.85500 6.04000 26.08500
C  35.44800 5.15100 27.56000
N  41.14500 8.97400 27.43000
C  40.25100 8.66500 26.49100
C  40.80500 8.72100 24.99900
C  42.24500 9.34800 25.26000
C  42.21900 9.55000 26.83000
C  40.81700 7.37700 24.22800
C  42.49900 10.70500 24.54700
C  41.75100 11.90700 25.08800
N  42.46000 10.05800 29.72800
C  43.43100 10.34800 28.82600
C  44.58900 10.92400 29.43900
C  44.29400 10.95500 30.78900
C  43.00300 10.41000 30.93600
C  45.82500 11.25500 28.65100
C  44.75900 11.28400 32.10200
O  45.79700 11.82000 32.43100
C  43.59700 11.00000 33.22000
C  44.25800 10.12800 34.15500
O  44.41000 8.90200 34.00800
O  44.70800 10.88000 35.13400
C  45.47800 10.33400 36.20100
H  37.61100 7.28800 32.43900
H  38.61200 7.61800 25.96000
H  44.21900 10.09200 26.94200
H  41.60100 8.74600 34.57600
H  38.68100 9.33800 33.90700
H  38.25300 7.38500 35.30900
H  40.06700 7.25400 35.50200
H  39.14800 6.55200 34.11200
H  40.92300 11.54900 34.17600
H  41.58900 10.93000 35.62300
H  39.08400 10.20700 36.05700
H  38.75600 11.58900 35.01800
H  35.95000 6.28700 31.65300
H  36.43400 4.90200 30.76800
H  35.23600 5.81900 30.01500
H  34.49200 5.59200 27.84300
H  35.72200 4.52900 28.41200
H  35.27700 4.35800 26.83200
H  40.07200 9.38500 24.54100
H  42.99600 8.60000 25.00700
H  40.02000 7.27200 23.49200
H  40.74200 6.63000 25.01800
H  41.74800 7.35100 23.66200
H  42.38000 10.69400 23.46300
H  43.55100 10.97800 24.63000
H  42.34100 12.62400 25.66000
H  40.91200 11.60700 25.71500
H  41.33300 12.47700 24.25800
H  46.22400 10.45000 28.03400
H  46.48900 11.55200 29.46300
H  45.62700 12.06100 27.94400
H  43.26000 11.97200 33.57900
H  46.14600 9.50900 35.95000
H  44.88100 9.85300 36.97500
H  46.12300 11.10300 36.62600
Mg 42.56800 41.55600 25.94600
C  41.70400 43.94800 28.34100
C  43.43400 39.39400 28.41400
C  43.76000 39.39500 23.54700
C  41.96400 43.91700 23.48400
N  42.78000 41.76200 28.09600
C  42.22600 42.77600 28.88800
C  42.26000 42.38600 30.36100
C  42.77900 40.91500 30.37900
C  43.07000 40.63000 28.85000
C  43.92700 40.70700 31.33100
C  40.93600 42.61500 31.09400
C  40.73800 42.02400 32.51400
H  40.27700 42.84700 33.68400
N  43.54600 39.62400 26.00100
C  43.62500 38.88200 27.11600
C  44.09600 37.52900 26.73900
C  44.20500 37.51700 25.29500
C  43.81000 38.89600 24.90300
C  44.26500 36.32300 27.70300
C  44.55500 36.37000 24.32200
O  44.65700 36.45500 23.13900
C  44.88600 35.04200 24.93200
N  42.91600 41.64000 23.84700
C  43.33600 40.64500 23.08300
C  43.29400 40.94000 21.59300
C  42.71600 42.38600 21.60400
C  42.51600 42.74700 23.10700
C  44.70700 40.79400 20.85300
C  41.36500 42.51400 20.82900
C  40.13800 41.87600 21.37000
N  41.99600 43.59000 25.82200
C  41.69200 44.37400 24.75600
C  41.36500 45.68800 25.25700
C  41.26700 45.59700 26.61600
C  41.63300 44.24000 26.93500
C  40.99400 46.87300 24.36000
C  40.84100 46.20600 27.87400
O  40.41500 47.30400 28.17700
C  41.14900 45.19600 29.00900
C  42.11400 45.76000 29.95400
O  43.27500 45.96500 29.77600
O  41.47100 46.08400 31.08100
C  42.27100 46.80800 32.14400
H  43.56200 38.73000 29.27100
H  44.05100 38.77200 22.69900
H  41.86200 44.60700 22.64400
H  42.83900 43.14200 30.89200
H  41.98600 40.23300 30.68700
H  44.81700 40.82800 30.71300
H  43.91600 39.68000 31.69600
H  43.86900 41.39500 32.17300
H  40.06500 42.38800 30.47800
H  40.84500 43.65300 31.41300
H  41.67600 41.55200 32.80600
H  39.92400 41.30300 32.43700
H  44.15200 36.71100 28.71500
H  45.26100 35.93400 27.49200
H  43.54300 35.50700 27.65800
H  44.07100 34.62300 25.52300
H  45.70000 35.28900 25.61300
H  45.33100 34.28900 24.28100
H  42.64200 40.25300 21.05300
H  43.39100 43.16300 21.24400
H  44.90700 41.70200 20.28300
H  44.49000 39.98000 20.16200
H  45.47500 40.41400 21.52700
H  41.52500 42.17500 19.80500
H  41.20700 43.59100 20.76100
H  39.26300 42.50800 21.21900
H  40.25100 41.59100 22.41600
H  40.14700 40.96400 20.77300
H  40.01400 47.32000 24.52600
H  41.11600 46.54800 23.32600
H  41.78600 47.60300 24.52800
H  40.26000 44.85600 29.54000
H  42.97000 47.49700 31.67200
H  42.70600 46.18300 32.92500
H  41.72600 47.60400 32.65100

