158

Mg 41.44800 40.64900 27.07200
C  40.80000 43.08800 29.71900
C  42.12600 38.34600 29.44000
C  42.29600 38.66200 24.55400
C  41.29400 43.49700 24.79200
N  41.48200 40.81300 29.37700
C  41.03800 41.83700 30.22100
C  40.96700 41.32500 31.65100
C  41.37000 39.77100 31.58000
C  41.76100 39.61500 30.04500
C  42.53500 39.46400 32.53800
C  39.65900 41.62600 32.39700
C  39.71200 42.70500 33.44900
H  39.04200 42.40500 34.79300
N  41.94000 38.75400 27.00500
C  42.25300 37.97700 28.09100
C  42.77600 36.72000 27.62000
C  42.68900 36.70900 26.20300
C  42.24700 38.07600 25.85200
C  43.28200 35.61600 28.50800
C  42.99400 35.51800 25.23600
O  42.79400 35.59000 24.04900
C  43.62900 34.28400 25.65200
N  41.72800 40.99200 25.00000
C  42.14400 39.98400 24.14000
C  42.12000 40.42400 22.66200
C  41.93300 42.03800 22.79000
C  41.53700 42.17500 24.32700
C  43.28400 40.02000 21.78800
C  40.88100 42.49300 21.78600
C  39.38000 42.62400 22.32400
N  41.12600 42.82600 27.17400
C  40.90400 43.72900 26.18300
C  40.41100 44.93600 26.73000
C  40.40700 44.75500 28.14000
C  40.79200 43.42000 28.37200
C  40.16200 46.21400 25.96300
C  40.17700 45.40000 29.34000
O  39.90000 46.58700 29.56800
C  40.39800 44.36600 30.47100
C  41.38800 44.91800 31.39500
O  42.57700 44.75800 31.20000
O  40.85300 45.61300 32.42300
C  41.73100 46.39200 33.30900
H  42.29800 37.49700 30.10600
H  42.61600 37.95800 23.78300
H  41.24300 44.17600 23.93900
H  41.75300 41.87900 32.16400
H  40.50600 39.13100 31.76000
H  43.41400 39.59100 31.90700
H  42.46700 38.44500 32.91700
H  42.40200 40.15000 33.37500
H  39.27700 40.70600 32.83800
H  38.89300 41.98400 31.70900
H  39.10900 43.48300 32.97900
H  40.71600 43.03300 33.71900
H  42.40800 34.98800 28.67900
H  43.62700 35.90800 29.50000
H  44.09600 35.05000 28.05300
H  42.90400 33.80400 26.30800
H  44.52700 34.60400 26.17900
H  43.83100 33.60700 24.82200
H  41.21400 40.09800 22.15200
H  42.82800 42.58700 22.49700
H  42.94600 39.86500 20.76300
H  43.57200 39.05100 22.19400
H  44.12000 40.71600 21.85900
H  40.89400 42.04200 20.79300
H  41.13200 43.50300 21.46300
H  39.34300 42.38600 23.38800
H  38.68300 41.88300 21.93400
H  38.89900 43.59400 22.19700
H  39.95800 45.96900 24.92100
H  40.98800 46.92200 26.04200
H  39.32800 46.70800 26.46200
H  39.44100 44.47800 30.98100
H  41.61100 46.04400 34.33500
H  41.33900 47.40300 33.42600
H  42.77300 46.47700 33.00100
Mg 6.52900 54.56800 40.96100
C  6.21300 51.01600 40.79100
C  9.74900 54.30400 40.10100
C  6.54000 57.97900 40.64800
C  2.95200 54.58400 41.29200
N  7.77500 52.87200 40.43600
C  7.50000 51.52400 40.50900
C  8.72200 50.72800 40.21700
C  9.84600 51.79500 40.23400
C  9.05900 53.10400 40.29000
C  10.79400 51.62100 41.49600
C  8.68700 49.95000 38.88200
C  8.50200 50.72800 37.51100
H  7.17400 50.65700 36.79500
N  7.89200 55.94200 40.41200
C  9.21400 55.64100 40.12000
C  9.93800 56.88900 39.94100
C  9.02400 57.89100 39.98600
C  7.72400 57.32200 40.35600
C  11.41800 56.82700 39.61700
C  9.26100 59.36000 39.64400
O  10.44200 59.76300 39.58400
C  8.19400 60.31500 39.31900
N  4.99100 56.07700 40.93200
C  5.25700 57.45100 40.98100
C  3.90100 58.20200 41.22200
C  2.80100 57.13500 41.16400
C  3.57600 55.79300 41.09300
C  4.08100 59.03000 42.46700
C  1.78200 57.26400 39.99400
C  0.32500 57.56400 40.38100
N  4.89500 53.13800 41.16300
C  3.52700 53.28000 41.37300
C  2.91400 51.98400 41.60300
C  3.97600 51.12400 41.47100
C  5.14000 51.81800 41.11600
C  1.45700 51.56300 41.90300
C  4.30400 49.74800 41.42700
O  3.57600 48.82900 41.72500
C  5.73800 49.55700 40.93600
C  5.65400 48.91200 39.57600
O  5.13100 49.42900 38.62000
O  6.28000 47.73800 39.67500
C  6.00900 47.02200 38.45600
H  10.83900 54.27400 40.03700
H  6.48500 59.07000 40.64100
H  1.91400 54.60900 41.62800
H  8.72700 50.09200 41.10300
H  10.41300 51.82800 39.30300
H  11.63300 51.03400 41.12300
H  10.26400 51.14200 42.32000
H  11.04900 52.57600 41.95600
H  8.08500 49.04900 38.99700
H  9.69900 49.59400 38.68500
H  9.13500 50.37200 36.69800
H  8.69700 51.79900 37.57000
H  12.10000 57.53200 40.09200
H  11.46700 57.08100 38.55800
H  11.80700 55.80900 39.65400
H  7.45300 59.68800 38.82200
H  8.50200 61.17000 38.71800
H  7.77000 60.76500 40.21600
H  3.83000 58.84700 40.34600
H  2.22400 56.99100 42.07700
H  4.21000 60.05600 42.12300
H  5.01700 58.77600 42.96400
H  3.18800 58.99200 43.09000
H  1.67900 56.26500 39.57000
H  2.12200 57.87500 39.15800
H  -0.10900 58.43600 39.89100
H  0.15300 57.61400 41.45700
H  -0.23700 56.66800 40.11900
H  1.32100 50.51700 42.17700
H  0.76800 51.65900 41.06400
H  1.21400 52.08800 42.82700
H  6.35200 48.86200 41.50900
H  5.04500 47.19300 37.97700
H  6.12600 46.01400 38.85300
H  6.86400 47.30200 37.84100

