158

Mg 1.76200 -0.97400 44.13000
C  5.17000 -0.25700 43.45300
C  0.96500 1.82500 42.42000
C  -1.45000 -2.01700 43.88900
C  2.84900 -4.13500 45.16200
N  2.99900 0.52100 43.05400
C  4.34300 0.68900 42.89800
C  4.83200 1.84100 42.07700
C  3.40700 2.62100 41.95700
C  2.38100 1.55000 42.49600
C  3.36700 4.02000 42.73800
C  5.27400 1.37200 40.70600
C  6.45300 2.06400 40.08700
H  6.08900 2.85800 38.75200
N  -0.02300 -0.15100 43.34500
C  -0.18400 1.06100 42.71100
C  -1.55700 1.44100 42.61000
C  -2.29800 0.33400 43.09000
C  -1.28300 -0.70800 43.45300
C  -2.08000 2.69900 41.90800
C  -3.77100 0.34100 43.31200
O  -4.50200 1.34900 43.08200
C  -4.50200 -0.84700 43.81800
N  0.91600 -2.79800 44.36800
C  -0.46500 -2.99000 44.22200
C  -0.86500 -4.42700 44.61900
C  0.45700 -4.98800 45.18200
C  1.45900 -3.91500 44.88800
C  -2.10900 -4.58400 45.53600
C  0.79000 -6.44600 44.64800
C  1.62700 -7.47400 45.50000
N  3.59300 -1.94400 44.43300
C  3.87100 -3.20900 44.97000
C  5.25500 -3.40200 45.15700
C  5.84000 -2.25200 44.48100
C  4.74400 -1.40100 44.16500
C  5.82700 -4.66300 45.60200
C  7.06900 -1.64400 44.06700
O  8.26000 -2.00700 44.20700
C  6.75100 -0.23800 43.40600
C  7.29900 0.83400 44.24900
O  7.26000 0.89300 45.51900
O  7.96400 1.71400 43.43000
C  8.68100 2.84400 44.07700
H  0.72400 2.82800 42.06100
H  -2.43800 -2.44000 43.69600
H  3.21400 -5.12400 45.44700
H  5.64000 2.35200 42.60000
H  3.03000 2.81900 40.95400
H  2.64700 4.75300 42.37300
H  4.33900 4.50400 42.64800
H  2.97700 3.74500 43.71800
H  4.41800 1.46400 40.03600
H  5.50600 0.31000 40.62500
H  7.35600 1.50100 39.85000
H  6.74900 2.88900 40.73500
H  -2.75800 2.38300 41.11600
H  -1.32700 3.33500 41.44300
H  -2.65600 3.29500 42.61600
H  -4.74600 -1.35200 42.88400
H  -5.48200 -0.56100 44.19900
H  -3.96800 -1.43000 44.56800
H  -0.95500 -5.02600 43.71200
H  0.29300 -4.90200 46.25600
H  -2.19600 -3.77800 46.26500
H  -2.27300 -5.60600 45.87700
H  -3.01800 -4.50000 44.93900
H  1.26600 -6.43300 43.66800
H  -0.15900 -6.94500 44.45400
H  2.16900 -8.11000 44.80000
H  0.97900 -8.16800 46.03500
H  2.27700 -6.89800 46.15900
H  5.79900 -5.44400 44.84300
H  5.27200 -5.04900 46.45700
H  6.84100 -4.31600 45.79900
H  7.14100 -0.19300 42.38900
H  7.95700 3.65200 44.17900
H  9.43300 3.20800 43.37700
H  9.17400 2.44400 44.96300
Mg -9.97300 40.51100 42.76600
C  -8.92100 37.36700 41.97100
C  -6.99200 41.75600 41.50000
C  -11.20800 43.59800 43.06000
C  -13.23900 39.21100 43.39000
N  -8.26000 39.58500 41.63600
C  -7.94700 38.28400 41.61200
C  -6.55900 38.13100 41.00500
C  -5.90600 39.51200 41.09000
C  -7.12000 40.36100 41.37100
C  -4.70900 39.65300 42.14700
C  -6.50900 37.51600 39.59400
C  -5.66600 36.26000 39.46400
H  -4.52400 36.31600 38.47500
N  -9.18800 42.44900 42.40800
C  -7.93500 42.72400 41.91700
C  -7.77100 44.08300 41.88500
C  -8.93300 44.67400 42.31000
C  -9.86500 43.59100 42.69100
C  -6.46300 44.76500 41.40800
C  -9.32000 46.23000 42.27200
O  -8.47900 47.00500 41.79400
C  -10.63300 46.79000 42.81100
N  -11.98800 41.33200 43.12400
C  -12.15500 42.65000 43.35400
C  -13.62600 42.95100 43.78000
C  -14.21400 41.52600 43.81200
C  -13.06500 40.59100 43.50300
C  -13.84400 43.85800 45.00500
C  -15.56500 41.28100 43.00900
C  -16.74400 40.70400 43.84200
N  -10.92100 38.68800 42.79100
C  -12.21300 38.26400 43.08500
C  -12.34300 36.93300 42.86900
C  -11.08500 36.53700 42.54900
C  -10.20300 37.61200 42.45900
C  -13.58400 36.08100 43.08700
C  -10.29400 35.38200 42.14800
O  -10.63800 34.22700 42.04600
C  -8.85500 35.86100 41.66800
C  -7.76600 35.08000 42.42800
O  -7.43100 35.26200 43.56600
O  -7.27900 34.09200 41.55400
C  -6.32300 33.12900 42.19900
H  -6.01200 42.13100 41.19800
H  -11.63600 44.60000 43.14600
H  -14.24500 38.81700 43.54200
H  -5.97000 37.54800 41.71300
H  -5.52000 39.81800 40.11700
H  -3.75900 39.61200 41.61400
H  -4.80800 38.89200 42.92200
H  -4.79400 40.61900 42.64400
H  -6.22400 38.19300 38.78900
H  -7.54400 37.23800 39.39400
H  -6.22300 35.34800 39.24700
H  -5.21100 36.07400 40.43600
H  -6.40300 44.76400 40.32000
H  -5.57800 44.23800 41.76600
H  -6.37500 45.80700 41.71400
H  -10.54700 47.86000 42.62400
H  -10.75400 46.46000 43.84300
H  -11.35700 46.32300 42.14300
H  -14.01000 43.54600 42.95200
H  -14.29000 41.26700 44.86800
H  -13.11700 44.65900 44.86900
H  -13.81800 43.21400 45.88500
H  -14.88300 44.18400 44.97000
H  -15.31000 40.75200 42.09000
H  -16.02700 42.23300 42.74600
H  -17.35300 41.58400 44.05000
H  -16.52200 40.24500 44.80500
H  -17.34000 40.00000 43.26200
H  -13.66500 35.50700 42.16400
H  -14.46300 36.63300 43.41900
H  -13.32400 35.30600 43.80700
H  -8.67800 35.58700 40.62800
H  -5.36200 33.62000 42.35000
H  -6.22200 32.25800 41.55100
H  -6.62300 32.68500 43.14900

