158

Mg 36.13200 2.92800 30.52500
C  33.46400 3.85500 32.57600
C  38.24200 3.33300 33.19900
C  38.75600 2.28400 28.38800
C  34.01500 2.95700 27.68800
N  35.89600 3.72300 32.51100
C  34.67600 3.82300 33.20400
C  34.87700 3.81900 34.70200
C  36.37600 4.20000 34.79000
C  36.91700 3.79300 33.44500
C  36.52700 5.63100 35.10700
C  34.56900 2.40200 35.33000
C  34.09200 2.35200 36.79800
H  34.90500 3.28600 37.77900
N  38.14400 2.50000 30.81600
C  38.82500 2.76000 31.99300
C  40.13000 2.17500 31.75500
C  40.24100 1.81600 30.39400
C  39.02000 2.25100 29.78900
C  41.20500 2.17100 32.76000
C  41.42700 1.00700 29.63000
O  41.39400 0.78000 28.41600
C  42.73200 0.64200 30.33700
N  36.40500 2.82700 28.38700
C  37.56200 2.58800 27.72100
C  37.41500 2.32900 26.23000
C  35.88200 2.35500 26.03800
C  35.37600 2.68000 27.50000
C  38.17600 3.42100 25.44000
C  35.37500 0.95600 25.58700
C  33.96600 1.00700 24.96500
N  34.20200 3.40400 30.16600
C  33.43000 3.20100 28.97700
C  32.03400 3.45700 29.33500
C  32.05400 3.75100 30.72100
C  33.33100 3.62800 31.17700
C  30.83500 3.38400 28.45500
C  31.22400 4.18700 31.86500
O  30.03200 4.39100 31.88000
C  32.11000 4.22000 33.12000
C  32.03200 5.55600 33.80200
O  32.27900 6.66500 33.32500
O  31.73200 5.35900 35.12500
C  31.84500 6.57600 35.90400
H  38.95500 3.30800 34.02600
H  39.58000 1.94500 27.75600
H  33.27800 2.95000 26.88300
H  34.28800 4.59000 35.19800
H  36.95200 3.67200 35.55000
H  36.93900 6.29000 34.34200
H  37.14300 5.74100 36.00000
H  35.56800 6.08900 35.34800
H  35.41500 1.74300 35.13000
H  33.68800 2.01100 34.82100
H  34.23500 1.31700 37.10800
H  33.06800 2.69900 36.93800
H  41.59700 1.16100 32.88300
H  40.77800 2.43500 33.72800
H  42.04400 2.81800 32.50400
H  43.35000 1.54000 30.33700
H  43.35700 -0.02300 29.74000
H  42.73100 0.13700 31.30300
H  37.68500 1.30000 25.99300
H  35.55900 3.15700 25.37400
H  39.19900 3.06000 25.33500
H  38.16200 4.39400 25.93200
H  37.75500 3.33400 24.43900
H  35.37500 0.21400 26.38500
H  35.98400 0.47900 24.81900
H  33.59700 2.02000 24.80200
H  33.13200 0.55200 25.49900
H  33.95500 0.43700 24.03600
H  31.17100 2.75200 27.63200
H  30.45700 4.31900 28.04200
H  30.01400 2.89900 28.98300
H  31.63600 3.47400 33.75800
H  30.90000 7.11000 35.80300
H  32.74300 7.19100 35.84600
H  31.81100 6.22400 36.93500
Mg 50.51900 45.14700 42.19100
C  47.49700 46.14000 40.70400
C  49.87600 42.02200 40.99700
C  53.85900 44.44900 42.67000
C  51.34200 48.56300 42.80200
N  48.84800 44.17500 40.95600
C  47.69700 44.78500 40.52800
C  46.73400 43.77200 39.93600
C  47.45800 42.34500 40.15800
C  48.81000 42.87100 40.72800
C  46.71700 41.26400 41.01300
C  46.19200 44.02000 38.51300
C  44.75300 44.28900 38.40100
H  43.93400 43.35600 37.58000
N  51.63800 43.47700 41.95500
C  51.17800 42.28700 41.42900
C  52.26400 41.28900 41.56100
C  53.41200 41.99900 42.03400
C  52.98300 43.33500 42.27000
C  52.11600 39.86500 40.91900
C  54.82100 41.35900 42.23700
O  54.90900 40.20400 41.99600
C  56.00500 42.11300 42.66000
N  52.37800 46.40600 42.57800
C  53.57400 45.81100 42.78600
C  54.61900 46.91200 43.26800
C  53.78500 48.18800 43.33400
C  52.37400 47.69700 42.98200
C  55.36400 46.53900 44.54700
C  54.34600 49.33400 42.37400
C  54.41800 48.94600 40.87000
N  49.56900 46.93400 42.00600
C  49.98700 48.22400 42.28200
C  48.88000 49.10100 42.02900
C  47.93600 48.38100 41.35300
C  48.40300 47.01800 41.36600
C  48.88000 50.56900 42.13300
C  46.62700 48.38800 40.71100
O  45.82600 49.31100 40.60300
C  46.24800 46.98900 40.29800
C  44.95600 46.56500 41.03200
O  44.96400 46.32200 42.23700
O  43.85300 46.58900 40.14400
C  42.51600 46.64600 40.71900
H  49.68600 40.98000 40.73000
H  54.91700 44.33900 42.91800
H  51.57800 49.60600 43.02500
H  45.86200 43.72200 40.58800
H  47.68000 41.79900 39.24100
H  45.63700 41.30100 40.87200
H  46.96100 41.43300 42.06100
H  47.04000 40.27800 40.67900
H  46.40200 43.11800 37.93800
H  46.75400 44.83900 38.06400
H  44.61900 45.31000 38.04500
H  44.24400 44.25800 39.36500
H  51.51800 39.92000 40.00900
H  51.61200 39.23900 41.65500
H  53.08700 39.46300 40.62800
H  55.83100 42.52500 43.65400
H  56.23500 42.79500 41.84100
H  56.88600 41.47300 42.71600
H  55.35400 47.06100 42.47700
H  53.84200 48.55600 44.35900
H  55.23300 45.47400 44.74300
H  55.11000 47.15100 45.41200
H  56.43100 46.69600 44.38800
H  55.27500 49.80300 42.69700
H  53.61500 50.13800 42.45700
H  54.11000 47.92000 40.66600
H  55.36900 49.30000 40.47200
H  53.57700 49.49200 40.44300
H  47.98200 50.95500 41.65100
H  49.72400 51.02100 41.61100
H  49.00100 51.04600 43.10600
H  45.99000 47.02000 39.23900
H  42.51600 46.95900 41.76300
H  42.02900 45.67700 40.60400
H  41.88500 47.37400 40.20800

