158

Mg 1.53500 -1.59600 43.86100
C  4.87100 -0.44300 43.61000
C  0.51700 1.04600 42.11900
C  -1.61400 -2.92100 44.05500
C  2.84300 -4.68000 44.86800
N  2.61900 0.04900 42.81700
C  3.95000 0.46200 43.05400
C  4.22000 1.93100 42.62000
C  2.81100 2.39200 42.03200
C  1.92700 1.07600 42.27600
C  2.26100 3.68900 42.54500
C  5.42200 2.34800 41.68700
C  5.78700 1.33500 40.58800
H  5.74700 1.90800 39.16900
N  -0.30800 -0.98800 43.18600
C  -0.48000 0.15900 42.50100
C  -1.94100 0.38100 42.30400
C  -2.55600 -0.77000 42.97400
C  -1.47600 -1.61000 43.43200
C  -2.61900 1.62800 41.74600
C  -4.06000 -0.93300 43.17700
O  -4.89900 -0.27000 42.48200
C  -4.61200 -1.91200 44.20900
N  0.72900 -3.52400 44.40000
C  -0.58000 -3.77900 44.53200
C  -0.86100 -5.17500 45.00000
C  0.58500 -5.83000 45.00200
C  1.48800 -4.59800 44.70200
C  -1.54900 -5.20900 46.36100
C  0.80900 -6.93400 43.88400
C  1.28300 -8.28500 44.50400
N  3.43600 -2.46900 44.25100
C  3.80900 -3.66500 44.75900
C  5.24700 -3.67500 45.00700
C  5.68000 -2.44800 44.56800
C  4.55400 -1.71600 44.07900
C  5.98100 -4.75900 45.55400
C  6.85700 -1.56200 44.46700
O  8.04600 -1.74200 44.74800
C  6.33500 -0.18800 43.92700
C  6.51400 0.84900 44.89600
O  5.76600 1.03000 45.88200
O  7.51000 1.65400 44.45300
C  7.63200 2.90500 45.29100
H  0.05100 1.93200 41.68400
H  -2.60800 -3.35500 44.17700
H  3.24200 -5.56700 45.36400
H  4.42300 2.49600 43.52900
H  2.91900 2.52000 40.95500
H  3.15300 4.24500 42.83400
H  1.64300 3.57000 43.43400
H  1.61000 4.19900 41.83500
H  6.29700 2.55900 42.30100
H  5.03100 3.26200 41.24000
H  5.17200 0.43800 40.65300
H  6.78000 0.95700 40.83200
H  -2.59300 1.47900 40.66600
H  -2.09800 2.53600 42.05000
H  -3.62200 1.83700 42.11800
H  -5.62100 -1.60200 44.48200
H  -4.01800 -1.98100 45.12000
H  -4.65500 -2.91700 43.78900
H  -1.45600 -5.69600 44.25100
H  0.82600 -6.24100 45.98200
H  -2.18300 -4.32800 46.46600
H  -0.88800 -5.33200 47.21900
H  -2.27000 -6.02300 46.28400
H  1.53200 -6.52400 43.17900
H  -0.08100 -7.22600 43.32600
H  0.57900 -9.06800 44.22200
H  1.47200 -8.34000 45.57600
H  2.22700 -8.54100 44.02300
H  6.70700 -4.44100 46.30200
H  6.53500 -5.27000 44.76600
H  5.28100 -5.47800 45.98100
H  6.90300 -0.09400 43.00100
H  6.63700 3.26700 45.54700
H  8.14600 3.61900 44.64800
H  8.27800 2.75000 46.15600
Mg 27.19700 50.81600 25.86200
C  25.31300 51.94500 28.63000
C  29.42000 49.33800 28.19700
C  29.20400 49.98500 23.33900
C  25.20700 52.77000 23.86600
N  27.39100 50.70400 28.18400
C  26.42400 51.20400 29.09100
C  26.77300 50.72300 30.53300
C  28.11500 49.96300 30.32400
C  28.29400 49.95000 28.81700
C  29.30800 50.70600 30.97300
C  25.65200 50.00800 31.33500
C  25.23300 50.51800 32.79400
H  26.29000 50.77100 33.87100
N  29.04600 49.74500 25.78000
C  29.85300 49.30900 26.86400
C  30.99700 48.63900 26.27100
C  30.95600 48.88900 24.85900
C  29.70000 49.54700 24.62100
C  32.06100 47.80200 27.05900
C  32.00500 48.63300 23.77300
O  31.91400 48.84700 22.56800
C  33.29700 47.99700 24.25400
N  27.17800 51.31900 23.89300
C  28.07800 50.78400 22.99900
C  27.69000 51.09100 21.49400
C  26.32100 51.82900 21.61500
C  26.21800 52.01100 23.22600
C  28.73200 51.63400 20.52200
C  25.18800 51.05500 20.93500
C  24.20400 52.08100 20.33900
N  25.51900 52.10000 26.15400
C  24.84200 52.83600 25.21100
C  23.70100 53.54600 25.73900
C  23.85200 53.19300 27.11600
C  25.02700 52.37000 27.28300
C  22.69800 54.38100 25.05300
C  23.20200 53.28000 28.43300
O  22.02000 53.62100 28.70300
C  24.16000 52.52600 29.50900
C  24.62100 53.49600 30.55300
O  25.63600 54.17300 30.58500
O  23.67100 53.48100 31.58300
C  23.97000 54.25800 32.83600
H  30.00200 48.84700 28.98100
H  29.75500 49.63600 22.46300
H  24.50700 53.28100 23.20300
H  26.93100 51.71200 30.96400
H  28.06600 48.93800 30.69000
H  29.83900 51.33400 30.25900
H  30.00200 49.99200 31.41700
H  28.93800 51.33200 31.78500
H  26.00500 49.01200 31.60000
H  24.69600 49.80900 30.85100
H  24.57700 49.74400 33.19200
H  24.72400 51.47900 32.71900
H  32.63100 47.02800 26.54500
H  31.78100 47.32800 28.00000
H  32.89800 48.45700 27.30100
H  33.89300 48.07400 23.34400
H  33.18200 46.95900 24.56400
H  33.69900 48.71200 24.97200
H  27.45300 50.06800 21.20200
H  26.55400 52.82800 21.24700
H  29.68000 51.37100 20.99200
H  28.69100 52.72000 20.43300
H  28.79800 51.02600 19.62000
H  24.73000 50.56400 21.79300
H  25.62500 50.42700 20.15800
H  23.37400 51.46900 19.98600
H  24.55400 52.58700 19.44000
H  23.81400 52.85200 21.00300
H  21.74200 53.87800 24.90600
H  22.97900 54.66000 24.03800
H  22.55900 55.32300 25.58300
H  23.74500 51.67300 30.04600
H  25.04200 54.31700 33.02600
H  23.42000 53.95000 33.72500
H  23.61600 55.27500 32.67100

