158

Mg 44.12000 3.75500 48.11300
C  42.02400 6.47500 47.43300
C  41.29700 1.73500 47.63300
C  46.16700 1.13900 47.90400
C  46.83300 5.86700 47.67300
N  41.87600 4.06900 47.78600
C  41.27400 5.26600 47.53900
C  39.77300 5.11300 47.26800
C  39.48600 3.58500 47.41600
C  40.99400 3.07100 47.61200
C  38.66700 3.13600 48.63500
C  39.01100 5.85600 46.02700
C  39.58600 5.65200 44.61100
H  39.65600 6.83000 43.61600
N  43.81000 1.73200 47.83700
C  42.54600 1.09100 47.77800
C  42.74900 -0.33200 47.64700
C  44.18700 -0.53100 47.78000
C  44.83100 0.81500 47.83000
C  41.59400 -1.31100 47.60500
C  44.86000 -1.86100 47.82300
O  44.28100 -2.93800 47.92100
C  46.28800 -1.95600 47.80400
N  46.15200 3.58200 47.91500
C  46.81300 2.38700 47.87800
C  48.36100 2.50400 47.75800
C  48.56300 4.02100 47.64300
C  47.13600 4.53200 47.84000
C  49.21700 1.80600 48.92100
C  49.17700 4.41300 46.31100
C  50.54200 5.15700 46.39100
N  44.40300 5.79100 47.78600
C  45.59700 6.49300 47.64300
C  45.30100 7.87300 47.34100
C  43.91800 7.92600 47.31500
C  43.42000 6.59200 47.46000
C  46.29900 8.98000 47.09700
C  42.73000 8.86700 47.18200
O  42.60700 10.12600 47.12200
C  41.41100 7.96500 47.29600
C  40.58000 8.27000 48.48300
O  40.61300 7.54100 49.53200
O  39.68000 9.21000 48.19000
C  38.49900 9.35600 49.15100
H  40.42300 1.10900 47.43800
H  46.86600 0.33300 47.67100
H  47.75000 6.45700 47.62200
H  39.34300 5.63400 48.12400
H  39.09900 3.28800 46.44100
H  39.20100 2.34200 49.15800
H  37.71900 2.65500 48.39400
H  38.39400 3.89600 49.36600
H  38.72900 6.87000 46.31100
H  38.00900 5.42500 46.03700
H  39.12800 4.76200 44.17900
H  40.62300 5.34000 44.73500
H  41.52400 -1.70400 46.59100
H  40.63200 -0.86200 47.85400
H  41.67400 -2.21800 48.20400
H  46.75300 -1.35300 48.58400
H  46.61100 -1.44300 46.89800
H  46.41400 -3.03800 47.82100
H  48.71100 1.99700 46.85900
H  49.16800 4.42800 48.45300
H  48.44800 1.37400 49.56200
H  49.91400 2.43500 49.47500
H  49.78900 0.97800 48.50300
H  48.51300 5.16700 45.88900
H  49.27300 3.49900 45.72500
H  50.93400 5.08000 47.40500
H  50.43900 6.18900 46.05500
H  51.18900 4.63200 45.68900
H  46.70900 9.16000 48.09000
H  45.80200 9.90500 46.80500
H  47.07500 8.67100 46.39600
H  40.79400 7.97800 46.39700
H  38.29100 10.42600 49.19200
H  38.68000 9.04300 50.18000
H  37.71500 8.82100 48.61700
Mg 36.31600 49.74200 24.92000
C  36.65100 48.05500 28.01800
C  35.00200 52.30200 26.75000
C  35.56700 51.18000 22.02400
C  37.32600 46.87300 23.34300
N  35.78700 50.11900 27.13900
C  36.14000 49.32700 28.19900
C  35.83900 49.96200 29.55200
C  35.02700 51.22900 29.11000
C  35.25700 51.24800 27.58100
C  33.56200 51.18500 29.46800
C  37.04300 50.27600 30.49800
C  36.83800 50.03200 32.00800
H  35.43800 50.24400 32.58300
N  35.57800 51.52500 24.42900
C  35.07200 52.43600 25.34000
C  34.74400 53.64600 24.65600
C  34.94300 53.37800 23.21900
C  35.33300 51.96700 23.17900
C  33.99100 54.85000 25.28500
C  34.60700 54.23500 22.02800
O  34.68100 53.89400 20.84300
C  34.34900 55.71800 22.19500
N  36.29700 49.11700 22.97300
C  35.98900 49.91500 21.91800
C  36.21200 49.22800 20.52700
C  37.10800 47.97700 21.00000
C  36.99200 48.02100 22.54700
C  34.87800 48.89600 19.90400
C  38.49900 48.03600 20.33000
C  39.81500 48.01800 21.21900
N  36.94400 47.82800 25.50700
C  37.30600 46.76100 24.73500
C  37.68500 45.60700 25.52600
C  37.43600 46.08200 26.83900
C  36.92300 47.44300 26.78000
C  38.15100 44.35300 25.08900
C  37.31000 45.66100 28.22400
O  37.64700 44.59100 28.69200
C  36.89300 46.94000 28.93900
C  35.73300 46.56800 29.85400
O  34.55800 46.43100 29.54400
O  36.24900 46.18500 31.08300
C  35.23900 45.45700 31.97100
H  34.55900 53.17100 27.24200
H  35.35300 51.71500 21.09600
H  37.62700 45.91200 22.92100
H  35.20800 49.25200 30.08800
H  35.46600 52.16900 29.44400
H  33.16100 50.22800 29.80000
H  32.94100 51.61300 28.68000
H  33.35900 51.82600 30.32600
H  37.32900 51.31900 30.36000
H  37.83200 49.62500 30.12300
H  37.51600 50.75100 32.46700
H  37.22800 49.04900 32.27100
H  34.43200 55.80100 24.98500
H  33.94200 54.92600 26.37100
H  32.95900 54.68300 24.97900
H  34.33000 56.17500 21.20500
H  35.05500 56.29900 22.78900
H  33.37100 55.77800 22.67200
H  36.75300 49.92900 19.89100
H  36.55800 47.07100 20.74400
H  34.86500 49.21800 18.86300
H  34.08900 49.46300 20.39800
H  34.63700 47.83600 19.82500
H  38.47800 48.84300 19.59700
H  38.52700 47.09800 19.77500
H  40.37900 47.18600 20.79800
H  39.59400 47.91700 22.28200
H  40.37200 48.94700 21.10300
H  37.31200 43.74200 24.75500
H  38.64500 43.75100 25.85200
H  38.84500 44.63000 24.29600
H  37.69000 47.31300 29.58200
H  34.78700 44.59900 31.47200
H  34.48000 46.15000 32.33500
H  35.77100 45.18100 32.88100

