158

Mg 40.93600 7.95700 29.07800
C  42.53000 9.53500 31.88700
C  38.60600 6.74600 31.28900
C  39.49500 6.47000 26.57500
C  43.49100 9.20900 27.05600
N  40.67300 8.05300 31.43200
C  41.29700 8.96200 32.30600
C  40.70700 8.81500 33.68600
C  39.54700 7.81900 33.42200
C  39.63800 7.43500 31.96400
C  39.60400 6.45700 34.20600
C  40.33000 10.19600 34.22200
C  39.40400 10.18000 35.48400
H  40.01200 11.00400 36.66800
N  39.20900 6.81400 28.96400
C  38.35000 6.44300 29.98500
C  37.30700 5.71600 29.45100
C  37.50100 5.75800 28.03500
C  38.79200 6.33400 27.79300
C  36.13600 5.25900 30.29500
C  36.54300 5.27600 26.98500
O  36.87900 5.46100 25.81100
C  35.19900 4.64400 27.21600
N  41.40500 7.83400 27.01100
C  40.65300 7.10300 26.20800
C  41.28700 7.09300 24.81400
C  42.58600 8.03200 24.91300
C  42.50500 8.41000 26.41600
C  41.59100 5.66600 24.21000
C  42.57800 9.25400 24.02600
C  41.48500 10.37200 24.22300
N  42.74300 8.93400 29.36300
C  43.60900 9.45900 28.44100
C  44.57400 10.31000 29.02100
C  44.18800 10.27500 30.34500
C  43.00100 9.51300 30.51100
C  45.56800 11.09600 28.35700
C  44.57500 10.83800 31.60500
O  45.46000 11.61100 31.97400
C  43.51300 10.35600 32.58200
C  44.05300 9.64700 33.84500
O  44.51100 8.53500 33.87800
O  43.86900 10.43000 34.92600
C  43.97400 9.69000 36.17700
H  37.81100 6.45900 31.98000
H  39.06700 5.98400 25.69600
H  44.21600 9.43800 26.27100
H  41.49300 8.29700 34.23600
H  38.55800 8.26100 33.54400
H  39.31900 5.58700 33.61400
H  38.89000 6.57900 35.02100
H  40.64000 6.20700 34.43700
H  39.82800 10.76700 33.44100
H  41.26000 10.69600 34.49200
H  39.34300 9.15700 35.85500
H  38.34500 10.31800 35.26800
H  36.45700 5.22400 31.33600
H  35.85000 4.23900 30.03600
H  35.22500 5.85400 30.22900
H  34.49600 5.45000 27.42700
H  35.24900 3.98300 28.08100
H  34.99100 4.05800 26.32100
H  40.60000 7.57100 24.11600
H  43.33300 7.27900 24.66000
H  41.54900 5.02100 25.08700
H  42.56000 5.77700 23.72400
H  40.85200 5.32900 23.48200
H  42.45400 8.80400 23.04200
H  43.54700 9.75100 24.04900
H  41.87600 11.23200 24.76700
H  40.71500 9.88700 24.82200
H  40.89600 10.64800 23.34800
H  46.47300 10.49200 28.29300
H  45.65700 12.00800 28.94600
H  45.19700 11.44000 27.39200
H  42.97300 11.19400 33.02200
H  43.65600 10.32400 37.00400
H  45.02700 9.43500 36.29400
H  43.32400 8.81600 36.22200
Mg 6.85000 57.41200 41.86200
C  5.77900 54.08000 41.92900
C  9.83000 56.30600 40.51700
C  7.75400 60.66200 41.71000
C  3.66000 58.39200 43.02400
N  7.51600 55.35500 40.87900
C  7.02400 54.13000 41.24200
C  7.86600 53.02100 40.63700
C  9.25000 53.80500 40.63900
C  8.82800 55.26000 40.63400
C  10.11100 53.55400 41.86900
C  7.44900 52.60600 39.26900
C  7.47000 51.10900 38.86600
H  6.52200 50.56600 37.77300
N  8.53300 58.35800 41.13700
C  9.69300 57.76300 40.68500
C  10.65400 58.77200 40.41900
C  10.12500 60.03700 40.87100
C  8.74400 59.78100 41.19600
C  12.06900 58.49500 39.90400
C  10.79400 61.41700 40.71500
O  11.97800 61.48100 40.35200
C  10.09400 62.71100 40.95100
N  5.72300 59.26700 41.99800
C  6.42900 60.41900 42.13200
C  5.50000 61.54100 42.56400
C  4.17000 60.85600 42.98100
C  4.54700 59.41000 42.62800
C  6.13700 62.44200 43.67100
C  2.98600 61.37200 42.11500
C  1.65400 61.39900 42.95300
N  5.07900 56.46300 42.36700
C  3.90900 56.98300 42.92500
C  2.99100 55.92700 43.24600
C  3.77900 54.73300 43.05200
C  4.96400 55.13200 42.35900
C  1.59700 56.07800 43.72600
C  3.75800 53.33200 43.22100
O  2.86100 52.60500 43.68500
C  5.13900 52.84600 42.61400
C  4.88000 51.72700 41.71100
O  4.23700 51.78700 40.68300
O  5.19300 50.49700 42.14600
C  4.61200 49.29100 41.58600
H  10.85000 55.98400 40.29800
H  8.06500 61.70900 41.72000
H  2.71700 58.56400 43.54800
H  7.80900 52.15200 41.29300
H  9.88700 53.57900 39.78300
H  9.63600 52.95600 42.64600
H  10.28500 54.47400 42.42800
H  11.10000 53.11700 41.72800
H  7.92400 53.15200 38.45300
H  6.40200 52.87600 39.13700
H  7.21600 50.59400 39.79300
H  8.49000 50.86300 38.57100
H  12.27600 57.42900 39.99900
H  12.81300 58.92700 40.57400
H  12.26500 58.82000 38.88100
H  10.01900 62.94500 42.01300
H  9.16800 62.75600 40.37700
H  10.70900 63.54700 40.61600
H  5.27700 62.18000 41.71000
H  4.00400 60.97500 44.05200
H  6.91900 61.98100 44.27400
H  5.39600 63.01700 44.22600
H  6.71600 63.21700 43.16900
H  2.87100 60.74900 41.22800
H  3.08400 62.38400 41.72400
H  1.70900 62.17500 43.71600
H  1.54100 60.50100 43.56000
H  0.66600 61.40600 42.49100
H  1.69600 55.75800 44.76300
H  0.93500 55.51800 43.06600
H  1.26100 57.11500 43.72600
H  5.67700 52.45500 43.47700
H  5.08100 48.41100 42.02600
H  4.91500 49.34700 40.54000
H  3.52600 49.23700 41.65100

