158

Mg 16.16200 -1.80900 27.30500
C  15.08600 0.21000 29.91700
C  18.31200 -3.36800 29.45800
C  17.53900 -3.23300 24.71600
C  14.19000 0.34900 25.10500
N  16.63300 -1.52000 29.41000
C  16.00500 -0.79400 30.35000
C  16.67300 -0.88700 31.74000
C  17.80600 -1.96600 31.50500
C  17.59600 -2.31600 29.98900
C  19.25800 -1.54200 31.80400
C  15.72500 -1.09800 32.91200
C  16.05700 -0.63000 34.35900
H  17.55100 -0.41200 34.75100
N  17.66300 -3.25900 27.11900
C  18.44400 -3.77800 28.12800
C  19.33800 -4.78200 27.56800
C  19.03600 -4.84100 26.17700
C  18.05800 -3.74200 25.93800
C  20.37800 -5.44000 28.39900
C  19.60700 -5.76700 25.17900
O  19.35800 -5.70600 24.02300
C  20.50100 -6.89300 25.47700
N  15.93700 -1.48600 25.19200
C  16.51500 -2.31000 24.29800
C  16.12700 -2.04200 22.83700
C  15.05000 -0.88000 23.04500
C  15.04100 -0.64300 24.56500
C  17.34600 -1.54900 22.00100
C  13.59700 -1.32700 22.49700
C  13.10500 -0.43100 21.28500
N  14.81000 -0.15300 27.48000
C  14.09100 0.53700 26.51900
C  13.31000 1.54700 27.13200
C  13.64000 1.47000 28.47100
C  14.59100 0.42100 28.61500
C  12.37600 2.38000 26.32300
C  13.47000 1.97900 29.76800
O  12.87500 2.98600 30.25900
C  14.38100 1.18900 30.74400
C  15.21700 2.19900 31.48300
O  16.20400 2.76700 31.02500
O  14.68100 2.38200 32.72700
C  15.26400 3.59600 33.33900
H  18.90000 -3.90800 30.20300
H  17.78400 -3.80000 23.81600
H  13.49800 0.82000 24.40300
H  17.06100 0.10800 31.95700
H  17.60800 -2.82000 32.15300
H  19.72100 -2.24200 32.49900
H  19.38400 -0.49800 32.09100
H  19.90900 -1.67900 30.94000
H  15.69300 -2.18000 33.03700
H  14.71700 -0.78600 32.63900
H  15.61400 -1.35800 35.04000
H  15.67200 0.36300 34.59500
H  21.36700 -5.22400 27.99300
H  20.12500 -6.47800 28.61500
H  20.40500 -5.00200 29.39700
H  20.52800 -7.61200 24.65900
H  20.06000 -7.28800 26.39300
H  21.52900 -6.57300 25.65100
H  15.71800 -2.96900 22.43600
H  15.34300 -0.02600 22.43400
H  17.37000 -0.46200 22.07600
H  17.36200 -1.85700 20.95600
H  18.29100 -1.83900 22.46000
H  12.89200 -1.24100 23.32400
H  13.50900 -2.39400 22.29100
H  12.33900 0.27400 21.60800
H  12.73300 -1.18100 20.58700
H  13.94700 0.02000 20.76000
H  12.13200 3.27800 26.89100
H  11.47400 1.79200 26.15500
H  12.72400 2.85000 25.40300
H  13.66600 0.74800 31.43800
H  15.42100 4.46500 32.70000
H  16.21300 3.34000 33.80900
H  14.60000 3.74400 34.19100
Mg 47.99400 25.57800 29.98000
C  48.81500 28.03300 32.33000
C  46.77200 23.68200 32.60000
C  47.37700 23.19700 27.79100
C  49.45800 27.50800 27.53200
N  47.83500 25.90000 32.27400
C  48.20400 26.92100 33.00900
C  47.80000 26.77900 34.48500
C  47.35500 25.29100 34.51600
C  47.36000 24.90900 32.99800
C  48.29500 24.40000 35.31900
C  46.81200 27.79600 35.04600
C  47.33000 28.45300 36.39800
H  46.18800 28.60600 37.43400
N  47.12900 23.81100 30.19100
C  46.66800 23.18500 31.29900
C  45.95800 21.96900 30.94500
C  46.04600 21.85500 29.57200
C  46.94300 22.94900 29.12100
C  45.20600 21.12500 32.07000
C  45.43900 20.84800 28.71300
O  45.64100 20.84800 27.48800
C  44.58200 19.78600 29.29700
N  48.19800 25.45200 27.91900
C  48.01600 24.30300 27.27300
C  48.45500 24.38300 25.85900
C  48.81000 25.93900 25.72800
C  48.83200 26.33900 27.14100
C  49.59600 23.45100 25.44700
C  47.73700 26.87300 24.96300
C  48.44700 28.02000 24.19400
N  48.91800 27.37300 29.90500
C  49.55300 28.05600 28.84400
C  50.05700 29.32600 29.31700
C  49.81600 29.31500 30.63800
C  49.09600 28.13700 30.97200
C  50.85300 30.32500 28.45800
C  50.01600 30.10500 31.82200
O  50.52700 31.17600 31.99300
C  49.37000 29.30000 32.97400
C  50.45300 29.04100 34.00500
O  51.53700 28.48300 33.84300
O  50.03300 29.58600 35.22800
C  51.02200 29.71900 36.31500
H  46.65800 22.95200 33.40400
H  47.16000 22.38700 27.09100
H  49.83200 28.20200 26.77600
H  48.72200 26.72300 35.06400
H  46.33200 25.10900 34.84500
H  47.99700 23.35400 35.37400
H  48.50800 24.76800 36.32200
H  49.22600 24.46000 34.75400
H  45.86000 27.26500 35.06700
H  46.59800 28.57700 34.31600
H  47.62500 29.43300 36.02400
H  48.20800 28.01000 36.86800
H  45.61500 20.13400 32.26400
H  44.21800 20.89200 31.67200
H  44.93500 21.74200 32.92700
H  43.56100 20.08100 29.53700
H  45.06200 19.31800 30.15600
H  44.51400 18.99500 28.54900
H  47.60600 24.18300 25.20600
H  49.77700 26.08000 25.24500
H  50.49300 23.93800 25.06300
H  49.24300 22.81400 24.63500
H  49.91600 22.88800 26.32400
H  47.01500 27.37500 25.60800
H  47.24100 26.15000 24.31600
H  48.23100 28.01600 23.12600
H  49.52800 27.89700 24.24500
H  48.17500 28.98500 24.62300
H  50.89800 29.97100 27.42800
H  51.85000 30.50100 28.86200
H  50.34300 31.28400 28.36600
H  48.58500 29.93400 33.38600
H  52.03900 29.58500 35.94700
H  50.80100 28.95600 37.06100
H  50.87900 30.71900 36.72500

