158

Mg 25.09300 0.87000 29.97000
C  27.18200 0.60400 32.77700
C  22.43800 1.36600 32.20900
C  22.88900 0.52800 27.35500
C  27.66000 -0.33500 27.94800
N  24.85600 1.05100 32.19200
C  25.86200 0.89600 33.10300
C  25.40700 1.23500 34.55200
C  23.83800 1.36200 34.33100
C  23.68900 1.27900 32.80800
C  22.98100 0.28400 35.10600
C  26.10200 2.53400 35.09300
C  26.58300 2.33300 36.54000
H  26.02800 3.20100 37.67800
N  22.98100 0.94600 29.81800
C  22.10300 1.23300 30.87400
C  20.76500 1.31300 30.36800
C  20.90200 0.92400 28.97900
C  22.29100 0.75600 28.65700
C  19.55100 1.59800 31.13700
C  19.74500 0.70700 28.00800
O  19.94000 0.19800 26.90000
C  18.38100 0.94900 28.39300
N  25.24900 0.16900 27.98000
C  24.19200 0.23300 27.06400
C  24.71100 0.04400 25.60100
C  26.24200 0.00200 25.76400
C  26.43900 -0.01900 27.31800
C  24.05100 -1.20900 24.88300
C  27.03100 1.20500 25.13000
C  27.45600 2.46700 25.95800
N  27.08200 0.39500 30.18200
C  27.96300 -0.09200 29.33000
C  29.24800 -0.33200 30.01000
C  28.97800 -0.11600 31.33400
C  27.65300 0.28000 31.43600
C  30.58300 -0.71700 29.29900
C  29.52100 -0.19000 32.63600
O  30.61900 -0.49700 33.05100
C  28.46500 0.40100 33.60700
C  28.26500 -0.55200 34.72800
O  27.61600 -1.58700 34.73900
O  28.97600 -0.12400 35.78000
C  28.67000 -0.80400 37.02800
H  21.60800 1.63100 32.86700
H  22.23600 0.64300 26.48700
H  28.44100 -0.59200 27.22900
H  25.58900 0.42500 35.25900
H  23.42800 2.33800 34.59400
H  22.94400 -0.71000 34.66000
H  21.95200 0.64400 35.11500
H  23.30200 0.04500 36.12000
H  25.39600 3.34800 34.92300
H  27.02300 2.71200 34.53800
H  27.67200 2.29200 36.57600
H  26.27100 1.33100 36.83300
H  19.67100 1.81400 32.19900
H  19.06000 0.62500 31.16700
H  18.94000 2.39700 30.71800
H  17.73500 0.62600 27.57700
H  18.24500 1.98900 28.68800
H  18.15000 0.28100 29.22300
H  24.44800 0.89300 24.97000
H  26.65000 -0.93000 25.37400
H  23.09700 -1.07200 24.37400
H  23.81600 -1.94800 25.64900
H  24.79700 -1.59000 24.18600
H  26.42200 1.67700 24.35900
H  27.91100 0.84700 24.59700
H  28.53500 2.61000 26.02300
H  27.16300 2.30100 26.99500
H  26.87300 3.30400 25.57600
H  30.78300 -0.12900 28.40400
H  30.30500 -1.73600 29.03100
H  31.49300 -0.70300 29.90000
H  28.86900 1.33000 34.00900
H  27.63100 -0.55700 37.24500
H  29.35200 -0.44100 37.79700
H  28.78800 -1.88400 36.93500
Mg 44.96300 5.43600 47.86000
C  42.92100 8.14700 46.85500
C  42.20200 3.33700 47.19700
C  46.98300 2.82600 47.99700
C  47.67700 7.55800 47.70800
N  42.88500 5.70000 47.01000
C  42.21900 6.90700 46.78200
C  40.81100 6.65200 46.22500
C  40.57500 5.23600 46.75100
C  41.97700 4.72800 47.00400
C  39.58400 4.99100 47.89300
C  40.76900 6.83800 44.64200
C  39.60000 7.73000 44.09500
H  38.74100 7.15800 43.00200
N  44.61800 3.33100 47.73400
C  43.43700 2.70700 47.46600
C  43.65700 1.31700 47.66900
C  45.00900 1.15000 47.98600
C  45.63200 2.47800 47.97000
C  42.57700 0.30400 47.38600
C  45.65900 -0.16500 48.33000
O  44.99600 -1.24200 48.19500
C  47.05500 -0.32800 48.93500
N  47.05600 5.22500 47.87500
C  47.66600 4.06500 47.96800
C  49.16100 4.16000 48.08700
C  49.41500 5.74400 48.00400
C  47.93900 6.27000 47.89100
C  49.59600 3.43500 49.31700
C  50.29600 6.09700 46.71800
C  51.81900 6.09100 47.05400
N  45.26100 7.48500 47.70500
C  46.45900 8.20800 47.58400
C  46.16900 9.62500 47.30200
C  44.73200 9.64000 47.17700
C  44.31300 8.29200 47.20400
C  47.18100 10.72800 47.22100
C  43.64700 10.51400 46.84200
O  43.57700 11.70200 46.66500
C  42.38000 9.57100 46.67700
C  41.38700 9.86900 47.64100
O  41.44500 9.39900 48.78900
O  40.21900 10.55800 47.18800
C  39.06800 10.51500 48.00200
H  41.27200 2.77300 47.10600
H  47.63500 1.96200 47.85200
H  48.54500 8.19700 47.53200
H  40.06200 7.30500 46.67400
H  40.09300 4.62500 45.98800
H  40.05600 4.97100 48.87600
H  39.03400 4.05800 47.76700
H  38.86700 5.81100 47.91000
H  40.92200 5.84400 44.22200
H  41.68900 7.38800 44.44600
H  40.09200 8.59300 43.64500
H  38.96000 8.10700 44.89200
H  41.56800 0.68400 47.22600
H  42.37200 -0.42100 48.17300
H  42.78800 -0.39400 46.57500
H  47.74100 -0.43100 48.09400
H  47.12500 -1.23400 49.53800
H  47.28500 0.61400 49.43300
H  49.66400 3.70500 47.23400
H  50.02700 6.04200 48.85500
H  49.79100 2.37700 49.14300
H  48.94400 3.55700 50.18200
H  50.50800 3.99600 49.52600
H  49.96600 7.06900 46.35200
H  50.00000 5.50100 45.85500
H  52.41100 5.87200 46.16600
H  52.09100 5.30100 47.75400
H  52.22100 7.05900 47.35400
H  47.93100 10.36600 46.51900
H  47.54100 11.04200 48.20100
H  46.69600 11.57000 46.72600
H  41.89000 9.74900 45.71900
H  39.05800 11.29000 48.76800
H  39.00500 9.55300 48.51000
H  38.27800 10.73000 47.28200

