158

Mg 8.19400 3.02700 27.61200
C  9.45400 1.60100 30.62900
C  6.04200 4.94000 29.49100
C  6.74100 4.15400 24.76700
C  9.91600 0.54500 25.90700
N  7.96200 3.33900 29.85100
C  8.50300 2.64000 30.83100
C  8.07400 3.18900 32.22000
C  6.89000 4.16900 31.87400
C  6.89200 4.12700 30.30400
C  5.50500 3.74100 32.58900
C  9.18100 3.79400 33.09300
C  9.40200 3.06000 34.48100
H  9.84300 3.98000 35.68700
N  6.73500 4.35800 27.21700
C  6.02900 5.13200 28.10700
C  5.29000 6.14200 27.47200
C  5.34400 5.88100 26.06400
C  6.30600 4.77200 25.96500
C  4.50400 7.19100 28.20800
C  4.62000 6.61200 24.85900
O  5.00600 6.35200 23.69500
C  3.68700 7.76900 25.06200
N  8.24000 2.42700 25.56900
C  7.65300 3.00800 24.58300
C  7.88100 2.33600 23.29200
C  8.68400 1.07900 23.65800
C  9.03600 1.33700 25.17200
C  6.51300 2.00700 22.58200
C  9.94300 0.79400 22.78000
C  10.17200 -0.66800 22.46400
N  9.56500 1.42900 28.14900
C  10.19800 0.57900 27.25800
C  10.88500 -0.36300 28.09300
C  10.70100 0.04200 29.40600
C  9.82300 1.08200 29.36200
C  11.44300 -1.64100 27.66200
C  11.00700 -0.23700 30.78200
O  11.71500 -1.07000 31.36200
C  10.15900 0.71500 31.66300
C  9.35000 -0.25000 32.36800
O  8.27800 -0.71300 32.00000
O  9.80500 -0.43100 33.65100
C  8.89000 -1.03700 34.54000
H  5.41700 5.50200 30.18900
H  6.31800 4.47500 23.81300
H  10.34400 -0.30500 25.37200
H  7.60200 2.32300 32.68400
H  7.07400 5.22800 32.05500
H  4.72300 3.42400 31.89900
H  4.93800 4.36600 33.27900
H  5.73400 2.86100 33.19000
H  9.01800 4.86500 33.21100
H  10.08200 3.81400 32.48100
H  10.19700 2.33500 34.30900
H  8.51700 2.49600 34.77700
H  3.44900 6.91500 28.22800
H  4.55700 8.10500 27.61700
H  4.86200 7.35600 29.22400
H  3.42300 8.12800 24.06700
H  4.15600 8.66700 25.46500
H  2.84400 7.66200 25.74600
H  8.39700 2.99100 22.59000
H  8.09500 0.16600 23.57200
H  5.75900 2.19200 23.34700
H  6.40200 0.98700 22.21400
H  6.40800 2.71600 21.76100
H  10.80500 1.24300 23.27300
H  9.75600 1.13300 21.76100
H  11.21900 -0.94300 22.34300
H  9.60900 -1.03200 21.60500
H  9.82400 -1.35100 23.23900
H  10.83800 -2.10100 26.88000
H  11.53200 -2.35600 28.48000
H  12.48900 -1.48600 27.40000
H  10.67200 1.28300 32.43900
H  9.46600 -1.30100 35.42700
H  8.41800 -1.93800 34.14800
H  8.08000 -0.35900 34.80800
Mg 39.81200 9.98800 31.03500
C  41.83800 11.52800 33.56100
C  38.03600 8.63300 33.55200
C  38.35500 8.13000 28.74600
C  42.26500 10.95200 28.74500
N  39.93200 10.20400 33.33300
C  40.76200 10.84700 34.16300
C  40.45000 10.63000 35.69400
C  39.31000 9.55300 35.54300
C  39.05500 9.41500 34.04300
C  39.75600 8.21500 36.17100
C  39.91600 11.92600 36.45100
C  40.73500 12.23200 37.72900
H  40.05900 12.82900 38.98200
N  38.28400 8.65800 31.10200
C  37.63000 8.30300 32.26800
C  36.58000 7.40000 31.87300
C  36.67500 7.19600 30.45900
C  37.87600 7.96500 30.01800
C  35.72400 6.70900 32.88100
C  35.83200 6.31100 29.50900
O  36.17100 6.07400 28.36300
C  34.74200 5.47100 30.15900
N  40.40700 9.36600 29.05000
C  39.42700 8.83300 28.26100
C  39.73200 9.00500 26.76700
C  41.08100 9.75100 26.76900
C  41.30700 10.07000 28.24200
C  39.65200 7.66600 25.92100
C  41.31700 10.89000 25.66300
C  40.97300 12.30800 26.07700
N  41.68200 11.09300 31.10300
C  42.55600 11.31600 30.12700
C  43.64000 12.13100 30.60900
C  43.40100 12.21200 31.97800
C  42.18600 11.67300 32.21900
C  44.80400 12.57700 29.81400
C  43.92100 12.66800 33.22800
O  44.90700 13.35400 33.46000
C  42.98100 12.22400 34.25100
C  43.70900 11.27200 35.18100
O  44.41000 10.29400 34.91400
O  43.44400 11.74200 36.48500
C  44.09700 10.83200 37.53200
H  37.50400 8.18900 34.39600
H  37.74900 7.68200 27.95700
H  42.89400 11.48100 28.02600
H  41.34100 10.28000 36.21400
H  38.46100 9.85600 36.15500
H  39.02300 7.85800 36.89500
H  40.67000 8.20700 36.76400
H  39.69700 7.43600 35.41000
H  38.86300 11.90100 36.73100
H  39.96900 12.77200 35.76700
H  41.38300 13.03400 37.37400
H  41.45400 11.47400 38.03800
H  36.06300 5.70300 33.12900
H  34.67800 6.66100 32.57700
H  35.67800 7.19300 33.85700
H  35.28100 4.66000 30.64900
H  34.12000 5.03800 29.37500
H  34.06400 5.88800 30.90300
H  38.92300 9.58300 26.32000
H  41.85000 8.99800 26.59300
H  39.59800 6.72800 26.47300
H  40.51200 7.62500 25.25300
H  38.77300 7.70500 25.27700
H  40.70000 10.67400 24.79000
H  42.33700 10.92000 25.28100
H  40.67700 12.91700 25.22300
H  41.71700 12.82200 26.68500
H  40.12000 12.23200 26.75100
H  45.14000 12.00500 28.94900
H  45.58100 12.57700 30.57800
H  44.62400 13.55200 29.36200
H  42.72700 13.18100 34.70800
H  43.49900 9.92100 37.55900
H  44.19900 11.31500 38.50300
H  45.12200 10.60900 37.23500

