158

Mg 2.74600 -2.41900 45.53200
C  5.81100 -1.02600 44.64900
C  1.26200 -0.04200 43.27800
C  -0.10000 -3.91700 45.60300
C  4.45200 -5.18600 46.79900
N  3.44000 -0.82600 44.05900
C  4.75200 -0.37700 43.97200
C  4.90700 0.80200 43.01300
C  3.42000 1.13100 42.67200
C  2.63600 0.06300 43.36300
C  2.94300 2.50700 43.13000
C  5.76600 0.49000 41.73700
C  7.07300 1.36000 41.59000
H  7.57800 1.59300 40.14000
N  0.76700 -1.90000 44.77100
C  0.40600 -0.93600 43.88600
C  -0.98500 -1.01600 43.60600
C  -1.46000 -2.18800 44.28100
C  -0.29800 -2.68100 44.95600
C  -1.74100 -0.15100 42.57800
C  -2.90000 -2.76900 44.20500
O  -3.76300 -2.26100 43.50300
C  -3.32100 -4.00500 45.04900
N  2.23400 -4.21700 46.23600
C  0.96900 -4.57800 46.19300
C  0.80000 -5.94200 46.86300
C  2.26800 -6.37800 47.22100
C  3.05500 -5.13900 46.78700
C  -0.12500 -6.04700 48.12900
C  2.73500 -7.75900 46.53000
C  2.40100 -8.99000 47.37500
N  4.68800 -2.96000 45.73600
C  5.22600 -4.11100 46.36000
C  6.64900 -3.88900 46.56700
C  6.84700 -2.63000 45.92300
C  5.68800 -2.18100 45.37700
C  7.68800 -4.69500 47.35700
C  7.86600 -1.68300 45.67300
O  9.04700 -1.66600 45.93200
C  7.28800 -0.61900 44.76200
C  7.42700 0.81800 45.33000
O  6.73400 1.34500 46.25400
O  8.47200 1.39700 44.75600
C  8.55400 2.84700 45.03200
H  0.77600 0.69200 42.63200
H  -1.01600 -4.50900 45.65900
H  4.94600 -5.98600 47.35400
H  5.44000 1.60000 43.52900
H  3.28400 1.12800 41.59100
H  2.12800 2.45400 43.85100
H  2.60400 3.07500 42.26400
H  3.83100 2.98600 43.54300
H  5.18800 0.61700 40.82100
H  6.11800 -0.54100 41.71900
H  7.79000 0.93500 42.29200
H  6.97600 2.34100 42.05600
H  -1.18800 0.76600 42.37700
H  -2.68300 0.27300 42.92500
H  -1.98200 -0.73400 41.68900
H  -2.86800 -4.92200 44.67200
H  -4.38500 -4.19800 44.91500
H  -3.03000 -3.85900 46.08900
H  0.32600 -6.59400 46.13000
H  2.37500 -6.56400 48.29000
H  -0.48600 -5.05800 48.41200
H  0.40300 -6.34100 49.03600
H  -0.90500 -6.79700 47.99500
H  3.75000 -7.83100 46.13900
H  1.98300 -7.77900 45.74100
H  1.32400 -9.15600 47.38400
H  2.65100 -8.79700 48.41900
H  2.91700 -9.88300 47.02400
H  7.74800 -5.67900 46.89300
H  7.43800 -4.85100 48.40700
H  8.68200 -4.26300 47.24600
H  7.71800 -0.64600 43.76100
H  7.56100 3.22500 44.78900
H  9.21400 3.30200 44.29300
H  8.90900 3.03100 46.04600
Mg 10.57500 47.40900 26.41800
C  8.62000 47.28800 29.20300
C  13.10100 48.79900 28.42000
C  12.55000 47.45000 23.75600
C  7.76500 46.91800 24.39900
N  10.87500 47.70600 28.65200
C  9.93100 47.61700 29.54400
C  10.54400 48.02600 30.92800
C  11.78900 48.85700 30.58200
C  11.94500 48.41800 29.12100
C  11.63500 50.43900 30.58600
C  10.87800 46.88900 31.90400
C  10.12500 46.80800 33.28600
H  10.45800 45.68300 34.30800
N  12.52200 48.09600 26.14700
C  13.39500 48.53400 27.05400
C  14.70700 48.68400 26.50900
C  14.60500 48.25200 25.13900
C  13.17500 47.91100 24.96200
C  15.90900 49.18400 27.33100
C  15.75300 48.06000 24.17400
O  15.57200 47.50500 23.10600
C  17.12000 48.39900 24.47500
N  10.28000 47.21400 24.38800
C  11.24000 47.14800 23.48600
C  10.60400 46.77000 22.06500
C  9.11600 46.45700 22.27700
C  9.06000 46.87100 23.80500
C  10.87800 47.64700 20.78500
C  8.69800 44.99400 21.79700
C  9.31100 43.82800 22.51400
N  8.61500 46.99800 26.73700
C  7.56600 46.92600 25.79900
C  6.33900 46.78100 26.53000
C  6.67300 46.88900 27.90600
C  8.10000 47.03300 27.95500
C  4.94900 46.59100 26.08700
C  6.15200 47.00300 29.27800
O  5.05600 47.09800 29.72300
C  7.44000 47.09400 30.14900
C  7.51400 45.93800 31.07700
O  8.27600 44.99200 31.02000
O  6.56100 46.01300 32.02300
C  6.19600 44.83100 32.79700
H  13.83800 49.34000 29.01700
H  13.16900 47.51300 22.85900
H  6.92800 46.72600 23.72400
H  9.79300 48.60700 31.46400
H  12.64800 48.51500 31.15900
H  10.89200 50.65800 31.35300
H  11.54400 50.83100 29.57300
H  12.58900 50.74300 31.01500
H  11.88400 47.03500 32.29700
H  10.89300 45.95600 31.34000
H  9.11300 46.56500 32.96400
H  10.07700 47.78700 33.76400
H  15.73300 49.22500 28.40600
H  16.45700 50.04600 26.95100
H  16.64500 48.39400 27.18500
H  17.06800 49.33900 25.02500
H  17.72000 48.57200 23.58200
H  17.57400 47.62300 25.09100
H  11.04800 45.79700 21.85900
H  8.47400 47.15300 21.73800
H  11.24400 48.63800 21.05400
H  10.01700 47.78700 20.13100
H  11.71900 47.11700 20.33700
H  8.90300 45.00200 20.72600
H  7.63800 44.81000 21.97600
H  9.78300 44.08400 23.46200
H  10.09700 43.49800 21.83400
H  8.56100 43.03900 22.57100
H  4.79700 46.66200 25.00900
H  4.36100 47.34600 26.60800
H  4.55100 45.66900 26.51100
H  7.38400 48.02300 30.71600
H  6.69300 44.74100 33.76200
H  6.47100 43.88500 32.33100
H  5.11900 44.76900 32.95300

