158

Mg 26.72500 50.28500 25.92100
C  24.73800 51.33800 28.68000
C  29.09100 49.50500 28.18200
C  28.53400 49.44000 23.29600
C  24.41500 51.71900 23.82200
N  26.91500 50.56900 28.23600
C  25.96600 50.87400 29.15500
C  26.43800 50.50100 30.58200
C  27.88500 50.04900 30.33400
C  27.95100 50.03700 28.81900
C  29.05200 50.95000 30.90000
C  25.48600 49.51200 31.30800
C  24.81400 49.88600 32.58700
H  25.79200 50.41400 33.63800
N  28.51700 49.52900 25.78900
C  29.38500 49.36300 26.82100
C  30.61300 48.81700 26.31000
C  30.44500 48.56700 24.88600
C  29.12600 49.21500 24.58700
C  31.90400 48.60000 27.04700
C  31.30000 47.98400 23.83100
O  31.07900 47.89300 22.65300
C  32.54800 47.28700 24.25800
N  26.48800 50.49400 23.85700
C  27.32800 50.01500 22.91900
C  26.73700 50.10300 21.51900
C  25.39100 50.83400 21.71500
C  25.46700 51.03100 23.25200
C  27.66700 50.70500 20.42100
C  24.11200 50.13900 21.11500
C  23.45900 49.04000 21.90600
N  24.89400 51.26400 26.13700
C  24.05200 51.79200 25.20400
C  22.79300 52.26300 25.73900
C  23.00900 52.16200 27.19000
C  24.28200 51.49200 27.34300
C  21.67500 52.74600 24.92100
C  22.48000 52.42800 28.55400
O  21.44100 52.89300 28.88100
C  23.62300 51.97600 29.53700
C  24.10900 53.17100 30.33200
O  25.02100 53.91900 30.12600
O  23.38200 53.12100 31.54200
C  23.83200 54.05500 32.58800
H  29.95000 49.22400 28.79600
H  29.23600 49.23000 22.48600
H  23.70500 51.97600 23.03400
H  26.33300 51.39100 31.20200
H  27.96400 48.99700 30.60700
H  28.64600 51.56000 31.70700
H  29.43200 51.61700 30.12500
H  29.92500 50.43400 31.29900
H  25.94100 48.52400 31.37500
H  24.70800 49.35900 30.56000
H  24.35000 48.98000 32.97600
H  24.09700 50.69200 32.42500
H  31.88000 49.07700 28.02700
H  32.71800 49.03700 26.46900
H  31.94000 47.55200 27.34500
H  33.04200 46.93200 23.35300
H  32.13400 46.43300 24.79500
H  33.26000 47.81500 24.89300
H  26.38200 49.15000 21.12700
H  25.50900 51.80100 21.22600
H  28.38100 51.41800 20.83400
H  27.10700 51.11800 19.58300
H  28.19000 49.78200 20.17100
H  24.33000 49.79300 20.10500
H  23.42300 50.96700 20.94900
H  24.05200 48.64600 22.73100
H  23.21200 48.21500 21.23700
H  22.52000 49.39400 22.33100
H  20.78200 52.88800 25.53000
H  21.35500 52.17000 24.05300
H  22.09500 53.66900 24.52100
H  23.10400 51.34700 30.26200
H  23.94100 55.02500 32.10500
H  24.76600 53.72400 33.04200
H  23.10900 54.06600 33.40400
Mg -12.12000 38.56600 41.82600
C  -9.75400 36.05800 40.97900
C  -10.14300 40.79700 40.09400
C  -14.71200 40.70800 41.89700
C  -14.13400 36.02800 43.15400
N  -10.27100 38.41300 40.43700
C  -9.52900 37.24200 40.30500
C  -8.24200 37.47300 39.57200
C  -8.27700 39.07500 39.45500
C  -9.60100 39.49600 40.02800
C  -7.12600 39.76300 40.17800
C  -8.02100 36.68200 38.24000
C  -6.70600 35.89900 38.09500
H  -6.05300 36.14100 36.73300
N  -12.42500 40.44800 41.12000
C  -11.46600 41.15800 40.48200
C  -12.01700 42.48800 40.14500
C  -13.35700 42.50600 40.61600
C  -13.55900 41.18600 41.25700
C  -11.20700 43.57700 39.36600
C  -14.34300 43.74500 40.45400
O  -14.00100 44.74900 39.89500
C  -15.81100 43.70200 40.95600
N  -14.08500 38.42200 42.54000
C  -14.91200 39.44600 42.54100
C  -16.32100 38.96600 43.10500
C  -16.10400 37.52800 43.52700
C  -14.69000 37.26000 43.02700
C  -16.95800 39.94600 44.13600
C  -17.08000 36.43200 42.98600
C  -17.74800 35.53700 44.04700
N  -11.99000 36.43300 42.05200
C  -12.87000 35.53400 42.66100
C  -12.22100 34.21200 42.75800
C  -10.99000 34.37300 42.17200
C  -10.87100 35.71800 41.74200
C  -12.82000 33.06600 43.48300
C  -9.72700 33.70300 41.76700
O  -9.35900 32.56000 41.95800
C  -8.89900 34.80800 41.02300
C  -7.66300 34.90900 41.79200
O  -6.60700 34.32800 41.53900
O  -7.74200 35.84600 42.77900
C  -6.51700 36.21300 43.52100
H  -9.52000 41.61900 39.73600
H  -15.66700 41.23700 41.90700
H  -14.74000 35.29700 43.69500
H  -7.53700 37.12800 40.32800
H  -8.06500 39.34100 38.41900
H  -7.46400 40.58200 40.81200
H  -6.37500 40.06200 39.44700
H  -6.58400 39.07000 40.82100
H  -8.09100 37.38200 37.40800
H  -8.85400 36.00100 38.06300
H  -6.88800 34.85900 38.36500
H  -6.11100 36.23800 38.94400
H  -10.60200 43.06000 38.62100
H  -10.68200 44.26700 40.02700
H  -11.89700 44.17700 38.77300
H  -15.94300 43.54800 42.02700
H  -16.34400 42.89100 40.45800
H  -16.30500 44.63000 40.66800
H  -16.93000 39.04100 42.20400
H  -16.23100 37.51000 44.60900
H  -16.90400 39.56700 45.15600
H  -18.01000 40.17200 43.96200
H  -16.26500 40.78700 44.14200
H  -16.59300 35.83400 42.21500
H  -17.90400 36.85500 42.41100
H  -17.52800 35.82600 45.07500
H  -17.51600 34.48400 43.88500
H  -18.82700 35.54100 43.89200
H  -12.69500 32.18400 42.85600
H  -13.88200 33.27300 43.61300
H  -12.28900 32.73400 44.37500
H  -8.68100 34.45000 40.01700
H  -6.89600 36.70500 44.41600
H  -5.88500 36.89000 42.94500
H  -5.91900 35.35400 43.82700

