158

Mg 42.89600 41.99800 27.43100
C  41.86300 44.37200 29.87500
C  44.05600 40.10000 30.01700
C  43.97500 39.80500 25.10500
C  42.00500 44.29800 25.01900
N  42.90500 42.22300 29.66400
C  42.41000 43.22200 30.39200
C  42.47300 42.91900 31.89400
C  43.39100 41.64600 31.98800
C  43.47800 41.28000 30.47500
C  44.80200 41.76000 32.52700
C  41.08500 42.61100 32.56000
C  40.72400 43.41300 33.73500
H  40.25000 42.64500 35.01100
N  43.84800 40.07900 27.52200
C  44.20600 39.52100 28.68900
C  44.81100 38.21600 28.32600
C  44.68400 38.12100 26.94900
C  44.12100 39.35500 26.46800
C  45.16500 37.19100 29.37700
C  45.04100 36.96200 26.02400
O  44.66300 36.93800 24.85300
C  45.74800 35.81000 26.53300
N  43.20600 42.07700 25.38200
C  43.52800 41.02800 24.57200
C  43.31900 41.31800 23.06100
C  42.51000 42.63900 23.09200
C  42.63900 43.09400 24.63400
C  44.58700 41.47800 22.26500
C  41.12500 42.41400 22.52000
C  40.18900 41.32500 23.21600
N  42.24300 44.02800 27.36300
C  41.83000 44.80100 26.34500
C  41.25400 46.04400 26.79100
C  41.21000 45.90700 28.21000
C  41.82300 44.64300 28.49200
C  40.79700 47.16600 25.95100
C  40.79200 46.47600 29.42900
O  40.26700 47.57100 29.57100
C  41.15000 45.56000 30.48800
C  42.10800 46.35500 31.33400
O  43.33500 46.36200 31.19900
O  41.34300 47.04500 32.26300
C  41.98700 48.09500 33.03700
H  44.43400 39.34500 30.71000
H  44.02300 39.14200 24.23800
H  41.55000 44.92000 24.24500
H  42.88700 43.74300 32.47400
H  42.99800 40.82800 32.59200
H  44.77900 42.82200 32.76900
H  45.57700 41.51600 31.80000
H  44.80700 41.23400 33.48100
H  41.11300 41.56700 32.87500
H  40.22500 42.62200 31.89000
H  39.94300 44.12500 33.46900
H  41.47500 44.14900 34.02300
H  44.38000 37.30100 30.12600
H  46.12300 37.60700 29.68900
H  45.09300 36.14700 29.07300
H  45.99900 35.26600 25.62200
H  45.27700 35.01400 27.11100
H  46.64900 36.15400 27.04000
H  42.78700 40.43200 22.71300
H  43.01100 43.45400 22.56900
H  44.73700 40.70100 21.51500
H  45.41700 41.41100 22.96700
H  44.64000 42.41900 21.71600
H  41.37600 42.12100 21.50100
H  40.65000 43.39400 22.56700
H  39.91900 40.65600 22.39900
H  39.25700 41.63600 23.68900
H  40.80000 40.81100 23.95700
H  40.53300 46.67600 25.01400
H  41.41300 48.02600 25.68800
H  39.84300 47.48200 26.37300
H  40.26600 45.11800 30.94600
H  42.80300 48.49600 32.43500
H  42.47600 47.50900 33.81400
H  41.39900 48.83000 33.58700
Mg -1.82200 34.26600 26.53800
C  -3.50600 32.60300 29.18600
C  -0.27800 36.30700 28.84600
C  -0.59800 36.15900 23.96800
C  -3.62300 32.46500 24.20600
N  -1.80800 34.39800 28.75300
C  -2.58600 33.61700 29.67100
C  -2.30400 33.95300 31.10500
C  -1.27300 35.25700 31.01800
C  -1.07500 35.36800 29.47400
C  -1.63600 36.49200 31.86200
C  -1.73800 32.69700 31.79400
C  -2.53900 32.10700 32.95500
H  -1.80400 31.91000 34.31800
N  -0.51300 35.89300 26.46000
C  0.00700 36.58900 27.54000
C  0.90600 37.55200 27.03500
C  0.70700 37.57700 25.59600
C  -0.13900 36.48900 25.28200
C  1.70800 38.50400 27.99800
C  1.30200 38.54500 24.55100
O  1.17500 38.58200 23.34200
C  2.26100 39.66200 25.08200
N  -2.22600 34.44400 24.39600
C  -1.53400 35.24100 23.54900
C  -1.81400 35.03400 22.00100
C  -2.75500 33.78400 22.14600
C  -2.90800 33.58000 23.65400
C  -2.45000 36.22600 21.33500
C  -2.19500 32.54500 21.30400
C  -0.99600 31.94100 21.92100
N  -3.25000 32.83600 26.65000
C  -3.87500 32.15300 25.64000
C  -4.83900 31.23900 26.14300
C  -4.75700 31.36300 27.54000
C  -3.76500 32.34400 27.76600
C  -5.58300 30.17500 25.35200
C  -5.23700 30.79300 28.77600
O  -6.07800 29.93900 28.96500
C  -4.47900 31.59500 29.93200
C  -5.46100 32.22300 30.85400
O  -6.15300 33.20500 30.55600
O  -5.59800 31.60000 32.06500
C  -6.69300 32.12600 32.87300
H  0.12100 36.90400 29.66800
H  -0.14500 36.69900 23.13400
H  -4.08600 31.77000 23.50200
H  -3.31300 34.14900 31.46900
H  -0.32300 34.95200 31.45600
H  -1.59600 37.42700 31.30400
H  -1.00700 36.57300 32.75000
H  -2.68500 36.33500 32.11300
H  -0.72800 32.97900 32.09300
H  -1.74000 31.88000 31.07200
H  -2.94200 31.12500 32.71100
H  -3.40700 32.73700 33.15200
H  1.31800 38.55000 29.01400
H  1.75700 39.51000 27.58000
H  2.75200 38.26500 28.20400
H  2.62200 40.34800 24.31500
H  3.12400 39.29900 25.64100
H  1.77100 40.33300 25.78700
H  -0.86000 34.75000 21.55800
H  -3.76500 34.00000 21.79800
H  -2.19400 36.22100 20.27600
H  -2.21000 37.07200 21.97900
H  -3.52600 36.07500 21.42100
H  -2.02800 32.87000 20.27800
H  -2.91300 31.73600 21.16800
H  -1.20600 30.88800 22.10800
H  -0.74500 32.25700 22.93400
H  -0.15500 32.01300 21.23100
H  -4.81900 29.63000 24.79800
H  -6.37100 30.66100 24.77700
H  -6.04700 29.47600 26.04800
H  -3.81600 30.89200 30.43500
H  -7.54700 32.44000 32.27300
H  -6.32900 33.05700 33.30700
H  -6.98600 31.47500 33.69600

