158

Mg 27.67600 49.82800 26.83200
C  25.54700 50.83700 29.45700
C  30.01600 49.09700 29.13900
C  29.65800 49.18400 24.20400
C  25.19600 50.73200 24.58900
N  27.67800 49.90100 29.14000
C  26.71700 50.28300 30.01000
C  27.17400 50.26800 31.51500
C  28.71400 49.87900 31.30000
C  28.81300 49.60600 29.75300
C  29.71600 50.98600 31.75700
C  26.35500 49.24300 32.28600
C  25.48200 49.76100 33.47400
H  25.30800 48.90200 34.69600
N  29.57300 49.19300 26.69700
C  30.36600 48.94900 27.76700
C  31.62300 48.50600 27.20400
C  31.62200 48.55700 25.77900
C  30.21000 48.95000 25.50000
C  32.75700 48.00500 28.08700
C  32.68900 48.16900 24.68900
O  32.50400 48.29000 23.47000
C  34.04600 47.70800 25.23500
N  27.37800 49.74900 24.59300
C  28.37200 49.47900 23.74600
C  27.96800 49.69000 22.27900
C  26.48400 50.15000 22.36800
C  26.33800 50.24600 23.90600
C  28.77900 50.68500 21.49600
C  25.41800 49.26200 21.62100
C  24.45400 50.03200 20.64100
N  25.81800 50.61500 27.02400
C  24.95900 50.91100 25.98500
C  23.81700 51.58800 26.55400
C  23.96100 51.52800 27.95700
C  25.21600 50.95800 28.12200
C  22.70500 52.18100 25.76900
C  23.31100 51.88500 29.23500
O  22.20200 52.36100 29.44300
C  24.40800 51.42900 30.29400
C  24.75500 52.63800 30.96900
O  25.74400 53.33700 30.71000
O  23.96300 52.83200 32.05700
C  24.34300 53.85300 33.02300
H  30.77900 48.91800 29.90000
H  30.34800 49.03600 23.37100
H  24.33500 50.92700 23.94700
H  27.22400 51.31400 31.81700
H  28.90900 48.93600 31.81100
H  29.21100 51.70600 32.40100
H  30.20100 51.48600 30.91800
H  30.53000 50.53300 32.32400
H  27.02500 48.51100 32.73700
H  25.64400 48.67800 31.68200
H  24.47400 50.02300 33.15500
H  25.92900 50.72200 33.72900
H  32.84100 46.93800 27.87900
H  32.70500 48.08300 29.17300
H  33.72200 48.36500 27.73100
H  34.73300 47.41000 24.44300
H  33.77000 46.92400 25.94100
H  34.48000 48.54400 25.78400
H  28.09700 48.68100 21.88800
H  26.35500 51.15300 21.96000
H  29.55000 51.17600 22.09000
H  28.22500 51.52900 21.08400
H  29.26000 50.07800 20.72800
H  24.72100 48.80300 22.32100
H  25.83000 48.50100 20.95900
H  25.05700 50.87800 20.31100
H  23.61000 50.40100 21.22400
H  24.14200 49.37500 19.82900
H  22.36000 51.56800 24.93700
H  22.98700 53.17500 25.42300
H  21.87200 52.41400 26.43300
H  23.94800 50.73100 30.99400
H  25.09700 54.55000 32.65600
H  24.56300 53.43700 34.00600
H  23.41600 54.42100 33.10600
Mg 6.66000 53.67200 41.30100
C  6.32100 50.06200 41.16500
C  9.61000 53.33600 39.63500
C  6.73600 57.02000 40.89100
C  3.39000 53.86800 42.41700
N  7.71200 51.85100 40.55800
C  7.53200 50.49900 40.61800
C  8.79500 49.67500 40.06600
C  9.85400 50.81600 39.84000
C  8.95100 52.11600 39.96900
C  11.07300 50.85700 40.77900
C  8.50200 48.77300 38.85000
C  8.54800 49.39400 37.35700
H  7.39000 48.99700 36.40800
N  8.03500 55.03200 40.37000
C  9.23500 54.66700 39.82400
C  9.89100 55.83800 39.44600
C  9.05500 56.96500 39.71900
C  7.88000 56.38300 40.39800
C  11.27000 55.85400 38.68200
C  9.45000 58.39400 39.37400
O  10.42600 58.66100 38.76500
C  8.52300 59.52000 39.85900
N  5.27400 55.22900 41.43800
C  5.54600 56.51900 41.37900
C  4.35100 57.45300 41.79400
C  3.19800 56.39900 41.99700
C  3.98300 55.12100 41.93000
C  4.66200 58.45400 42.92500
C  2.03200 56.37800 40.93500
C  0.59600 56.61800 41.40500
N  5.27000 52.30200 41.87900
C  3.94700 52.56800 42.35400
C  3.27800 51.33600 42.67900
C  4.24400 50.32300 42.25600
C  5.35000 50.93700 41.67400
C  1.97200 51.04200 43.34500
C  4.38200 48.83700 42.09100
O  3.63100 47.94900 42.46400
C  5.75300 48.63100 41.39600
C  5.38200 47.97200 40.18400
O  4.69700 48.45100 39.27500
O  5.87200 46.67700 40.08100
C  5.47600 45.92200 38.86400
H  10.63200 53.30900 39.25300
H  6.71300 58.10900 40.96800
H  2.31200 53.87600 42.59200
H  9.15200 49.06500 40.89500
H  10.37300 50.73100 38.88600
H  11.38500 49.82900 40.96900
H  10.83500 51.44700 41.66300
H  11.90900 51.32500 40.25900
H  7.48500 48.41000 38.99400
H  9.11300 47.87100 38.87000
H  9.42600 49.08800 36.78800
H  8.63200 50.46700 37.53200
H  11.07700 55.78800 37.61200
H  11.93500 55.06200 39.02600
H  11.85900 56.74800 38.88900
H  7.51400 59.49600 39.44800
H  9.01800 60.48100 39.72300
H  8.54500 59.37600 40.93900
H  4.04900 58.13100 40.99600
H  2.85700 56.39200 43.03200
H  5.69200 58.54200 43.26900
H  4.01500 58.30800 43.79000
H  4.44600 59.43200 42.49500
H  2.08700 55.38500 40.48800
H  2.33700 57.09800 40.17500
H  0.68600 56.50800 42.48600
H  -0.20700 55.95800 41.07600
H  0.39000 57.66000 41.16000
H  1.67400 50.05500 42.99200
H  1.21100 51.68400 42.90200
H  2.17200 51.08300 44.41600
H  6.45700 47.94900 41.87400
H  6.22400 45.16200 38.63700
H  5.55500 46.59700 38.01200
H  4.45500 45.54600 38.93400

