158

Mg -2.43500 17.17100 26.50500
C  -2.96000 14.98500 29.31500
C  -3.03500 19.83000 28.63800
C  -2.26100 19.05700 23.81600
C  -2.39200 14.29800 24.36100
N  -2.84600 17.38200 28.74800
C  -2.99500 16.34600 29.69200
C  -3.26000 17.00200 31.06400
C  -3.06500 18.51900 30.92200
C  -3.00700 18.64000 29.35700
C  -3.99000 19.48900 31.56700
C  -2.50700 16.27400 32.31300
C  -2.35000 17.15600 33.57900
H  -1.80100 16.51000 34.82000
N  -2.61700 19.12600 26.24100
C  -2.90000 20.10800 27.19100
C  -2.80400 21.46000 26.59900
C  -2.41600 21.24200 25.22500
C  -2.42600 19.77100 25.01100
C  -3.00700 22.73200 27.35300
C  -2.10000 22.20600 24.13900
O  -1.99600 21.96400 22.94500
C  -1.88800 23.71200 24.42000
N  -2.43000 16.72400 24.35900
C  -2.24300 17.69500 23.46900
C  -2.30300 17.12800 22.00900
C  -2.11200 15.60600 22.23000
C  -2.35100 15.52800 23.76900
C  -3.44700 17.63900 21.11200
C  -0.67200 14.98500 21.86200
C  0.58500 15.58300 22.52000
N  -2.43200 15.09500 26.77500
C  -2.58900 14.04700 25.79000
C  -2.81400 12.78600 26.46400
C  -2.85300 13.18600 27.81900
C  -2.64600 14.54600 27.97100
C  -2.98000 11.37100 25.98600
C  -3.11700 12.59500 29.19200
O  -3.44000 11.48300 29.59000
C  -3.08200 13.77000 30.15400
C  -1.95500 13.49100 31.08300
O  -0.75000 13.76200 30.91000
O  -2.45200 12.83300 32.19200
C  -1.48800 12.50400 33.27900
H  -3.04700 20.67100 29.33500
H  -2.23700 19.74000 22.96400
H  -2.46200 13.32300 23.87300
H  -4.31500 16.86600 31.30100
H  -2.04600 18.77300 31.21400
H  -4.51100 20.18600 30.91000
H  -3.47000 20.12200 32.28500
H  -4.74300 18.89000 32.07900
H  -1.54400 15.90700 31.95700
H  -3.15000 15.44700 32.61400
H  -3.30900 17.62500 33.80100
H  -1.51800 17.81800 33.33900
H  -3.25600 22.49100 28.38700
H  -3.81300 23.30700 26.89600
H  -2.12400 23.37100 27.34000
H  -1.10700 23.94300 25.14500
H  -2.84600 24.03600 24.82600
H  -1.64800 24.28800 23.52700
H  -1.42300 17.51000 21.49100
H  -2.97600 15.10800 21.79000
H  -4.11200 16.83900 20.78800
H  -2.98500 18.14000 20.26200
H  -4.14700 18.21100 21.72100
H  -0.53600 15.11800 20.78800
H  -0.72800 13.91500 22.05700
H  0.22800 16.27700 23.28200
H  1.24300 16.09200 21.81600
H  1.16900 14.77900 22.96800
H  -4.00100 11.00500 26.09600
H  -2.30200 10.67500 26.47900
H  -2.73100 11.26200 24.93000
H  -3.98300 13.83700 30.76400
H  -0.96900 11.56500 33.08600
H  -2.07700 12.38000 34.18800
H  -0.80200 13.33400 33.44400
Mg -1.79000 33.43000 26.93100
C  -3.58700 31.71200 29.34500
C  -0.55900 35.48700 29.32800
C  -0.54000 35.32000 24.48500
C  -3.45100 31.49600 24.38100
N  -2.10000 33.67300 28.99800
C  -2.82500 32.74800 29.87800
C  -2.59100 33.10700 31.36100
C  -1.70100 34.35600 31.29100
C  -1.46300 34.54600 29.74000
C  -2.28300 35.55400 32.08700
C  -2.04000 31.90300 32.25100
C  -2.94700 31.57400 33.49100
H  -2.16900 31.44800 34.80500
N  -0.56600 35.18700 26.92700
C  -0.10600 35.79400 27.99900
C  0.87000 36.82200 27.49400
C  0.77400 36.87000 26.05000
C  -0.16700 35.80700 25.75600
C  1.73900 37.57200 28.43500
C  1.52400 37.74400 25.10100
O  1.45400 37.66000 23.88000
C  2.29300 38.80700 25.61200
N  -2.01600 33.45800 24.68400
C  -1.33000 34.33600 23.96900
C  -1.54600 34.14800 22.47300
C  -2.39700 32.84700 22.41500
C  -2.60600 32.50600 23.92900
C  -2.02500 35.42600 21.66000
C  -1.78600 31.64000 21.69100
C  -0.85800 30.71800 22.48400
N  -3.17700 31.94800 26.77400
C  -3.80200 31.22400 25.70500
C  -4.77800 30.32400 26.22400
C  -4.73100 30.45500 27.63300
C  -3.73200 31.48000 27.90700
C  -5.54600 29.28400 25.37400
C  -5.26200 29.93900 28.92900
O  -6.01200 28.94200 29.12100
C  -4.53500 30.77500 29.98800
C  -5.44300 31.47900 30.92600
O  -5.83600 32.62900 30.92700
O  -5.86100 30.53200 31.86300
C  -6.68000 31.15300 32.90300
H  -0.03400 36.12600 30.04000
H  0.01900 35.82900 23.69800
H  -4.07700 30.94200 23.67900
H  -3.61700 33.21900 31.71100
H  -0.80400 34.14000 31.87200
H  -2.51700 36.39200 31.43100
H  -1.61900 35.94200 32.86000
H  -3.26600 35.32500 32.50000
H  -1.05700 32.08600 32.68500
H  -1.93100 30.99600 31.65600
H  -3.53300 30.67300 33.30600
H  -3.55900 32.43200 33.76700
H  1.34000 38.58400 28.49700
H  2.78900 37.40900 28.19000
H  1.62300 37.19400 29.45100
H  2.77700 39.37200 24.81500
H  3.09800 38.38000 26.20900
H  1.67900 39.49100 26.19700
H  -0.58200 33.91100 22.02400
H  -3.40000 33.09400 22.06700
H  -2.10000 36.23600 22.38500
H  -2.96400 35.31000 21.11800
H  -1.17900 35.75300 21.05500
H  -1.11600 31.98600 20.90400
H  -2.49500 31.05600 21.10300
H  -0.64400 31.09600 23.48400
H  0.03300 30.60400 21.86500
H  -1.32800 29.74300 22.61200
H  -4.84600 28.98700 24.59300
H  -6.50000 29.62100 24.96800
H  -5.77200 28.35100 25.88900
H  -4.00100 30.04900 30.60100
H  -6.22900 32.04500 33.33700
H  -6.89400 30.42600 33.68700
H  -7.63300 31.40100 32.43500

