158

Mg 17.48400 -1.46500 27.59900
C  16.60100 0.62700 30.18000
C  19.54200 -3.19400 29.71500
C  18.51900 -3.32100 24.91000
C  15.77700 0.74500 25.46500
N  17.84900 -1.39400 29.70600
C  17.46300 -0.44600 30.60900
C  17.98700 -0.70500 32.03100
C  19.02400 -1.87700 31.81200
C  18.85700 -2.13000 30.30600
C  20.43000 -1.48100 32.21900
C  16.77100 -1.08100 32.91200
C  16.66800 -0.34800 34.31400
H  17.82100 0.33500 34.92300
N  18.75500 -3.10200 27.39100
C  19.51300 -3.69900 28.36000
C  20.19100 -4.89200 27.85100
C  19.81800 -5.04700 26.48900
C  19.00700 -3.74200 26.17000
C  21.10000 -5.75600 28.69100
C  20.18200 -6.20600 25.50300
O  19.89400 -6.19400 24.34700
C  20.80700 -7.44500 26.07400
N  17.38700 -1.20700 25.49900
C  17.84800 -2.11600 24.57000
C  17.59800 -1.67300 23.15700
C  16.62700 -0.48200 23.35900
C  16.59700 -0.25100 24.86100
C  18.92300 -1.27400 22.46200
C  15.20300 -0.66200 22.77200
C  14.98500 0.14700 21.47600
N  16.36600 0.26500 27.79200
C  15.66500 1.03800 26.82200
C  14.94700 2.12100 27.44300
C  15.38200 2.07700 28.79000
C  16.15900 0.93200 28.93200
C  13.98700 3.14300 26.83200
C  15.35400 2.77400 30.08500
O  14.75900 3.79400 30.33500
C  15.95700 1.78000 31.06000
C  16.91400 2.55100 31.91100
O  18.10100 2.64300 31.80200
O  16.08700 3.26100 32.68400
C  16.78600 4.26000 33.50500
H  20.21800 -3.70500 30.40400
H  18.85700 -3.88200 24.03600
H  15.24400 1.35000 24.72900
H  18.49000 0.15300 32.47600
H  18.80900 -2.78600 32.37400
H  20.37900 -0.62900 32.89700
H  21.02300 -1.25000 31.33500
H  20.94100 -2.22700 32.82800
H  16.66000 -2.14200 33.13500
H  15.81500 -0.88500 32.42800
H  16.31500 -1.09800 35.02200
H  15.86700 0.39000 34.27000
H  22.07300 -5.95200 28.24100
H  20.62600 -6.70300 28.94800
H  21.23200 -5.22100 29.63100
H  20.88600 -8.28500 25.38400
H  20.29900 -7.69100 27.00700
H  21.83400 -7.26600 26.39500
H  17.07000 -2.46400 22.62400
H  17.12600 0.38100 22.91900
H  18.94700 -0.25300 22.07900
H  19.06000 -1.91300 21.58900
H  19.86700 -1.34100 23.00200
H  14.50600 -0.31700 23.53600
H  15.03000 -1.72600 22.60900
H  14.55400 -0.58700 20.79600
H  15.99100 0.32200 21.09700
H  14.46900 1.09800 21.61400
H  13.26800 2.69900 26.14300
H  14.56100 3.80500 26.18500
H  13.46800 3.76600 27.56000
H  15.21000 1.25400 31.65400
H  16.95400 5.16100 32.91600
H  17.63000 3.75700 33.97600
H  16.18800 4.65300 34.32700
Mg -10.65400 16.55800 42.90600
C  -7.15700 17.06900 42.93500
C  -11.17700 19.86800 42.50400
C  -13.91500 15.87700 42.18600
C  -9.90100 13.02300 42.66100
N  -9.31900 18.25700 42.65500
C  -7.92000 18.24000 42.70400
C  -7.39700 19.73700 42.56900
C  -8.72600 20.61100 42.68300
C  -9.81700 19.52000 42.64400
C  -8.85400 21.51400 43.89600
C  -6.52900 19.98900 41.21900
C  -5.03400 20.22100 41.45300
H  -4.13600 19.38500 40.58600
N  -12.29900 17.71200 42.33000
C  -12.36900 19.08100 42.26000
C  -13.70100 19.45400 41.86700
C  -14.51100 18.30900 41.79400
C  -13.55600 17.23000 42.05700
C  -14.16400 20.88300 41.47500
C  -16.04900 18.31200 41.42200
O  -16.62400 19.38000 41.48900
C  -16.78600 17.12200 41.15700
N  -11.65900 14.66300 42.21100
C  -13.05000 14.74700 42.35100
C  -13.57500 13.31200 42.68500
C  -12.30900 12.38000 42.49200
C  -11.21300 13.42100 42.46500
C  -14.38100 13.23700 44.07500
C  -12.40700 11.55200 41.15500
C  -11.92200 10.07200 41.21500
N  -8.89800 15.24600 42.88700
C  -8.77300 13.85200 42.85700
C  -7.43400 13.54500 42.98600
C  -6.70500 14.78500 43.07900
C  -7.69400 15.76100 42.89600
C  -6.99000 12.20700 42.99800
C  -5.39200 15.35400 43.14200
O  -4.29600 14.82400 43.14200
C  -5.62600 16.92000 43.22500
C  -5.27700 17.18700 44.65800
O  -6.03000 17.06300 45.61800
O  -4.03200 17.77400 44.67800
C  -3.58500 18.29600 45.98900
H  -11.16700 20.95500 42.40400
H  -14.97700 15.67000 42.33000
H  -9.77600 11.94100 42.74400
H  -6.83000 20.00100 43.46200
H  -8.85300 21.27900 41.83100
H  -7.86700 21.97000 43.97700
H  -9.21800 20.88300 44.70600
H  -9.51600 22.34200 43.64600
H  -7.00600 20.76100 40.61600
H  -6.71400 19.11400 40.59500
H  -4.80700 19.99900 42.49600
H  -4.87600 21.28200 41.25700
H  -13.19900 21.37200 41.34600
H  -14.80000 21.30700 42.25200
H  -14.69600 20.76200 40.53100
H  -17.77900 17.45800 40.85800
H  -16.85500 16.63000 42.12700
H  -16.18900 16.50400 40.48600
H  -14.34600 12.93200 42.01400
H  -12.19400 11.72400 43.35500
H  -14.41600 14.20100 44.58100
H  -13.61500 12.82800 44.73400
H  -15.30900 12.67100 44.00000
H  -11.82500 12.14300 40.44800
H  -13.46400 11.54300 40.88800
H  -11.66300 9.85000 42.25000
H  -11.07800 9.92700 40.54100
H  -12.70300 9.34900 40.97800
H  -7.65000 11.35300 43.15200
H  -6.22500 12.19900 43.77500
H  -6.40800 12.18200 42.07700
H  -4.92400 17.41900 42.55800
H  -3.06300 19.21200 45.71400
H  -2.94600 17.49900 46.37100
H  -4.33500 18.64600 46.69800

