158

Mg 17.28000 -1.74200 29.52700
C  15.82400 0.75500 31.45500
C  18.83600 -3.05400 32.24900
C  18.66500 -4.13700 27.52900
C  15.71700 -0.19100 26.77300
N  17.28900 -1.21300 31.55600
C  16.60600 -0.19700 32.15100
C  16.77300 -0.25000 33.71700
C  17.96800 -1.22200 33.92100
C  18.08200 -1.88400 32.52900
C  19.28700 -0.45600 34.38100
C  15.46300 -0.83400 34.35700
C  15.32300 -0.62800 35.94000
H  16.49400 0.07300 36.75100
N  18.49300 -3.37800 29.88300
C  19.02300 -3.76100 31.09700
C  19.83400 -4.96000 30.94500
C  19.81000 -5.27200 29.55300
C  19.03500 -4.25900 28.93000
C  20.54400 -5.66000 32.22500
C  20.41400 -6.47900 28.87800
O  20.29300 -6.76500 27.69100
C  21.23100 -7.40400 29.73300
N  17.15600 -2.11100 27.45400
C  17.79500 -3.24700 26.86500
C  17.50100 -3.29200 25.38400
C  16.36100 -2.17100 25.26900
C  16.47800 -1.40200 26.58000
C  18.74000 -3.12700 24.43800
C  14.99600 -2.64400 24.96000
C  14.30800 -1.69700 23.91300
N  16.05300 -0.02900 29.09400
C  15.52900 0.49200 27.97500
C  14.70700 1.62700 28.19400
C  14.82300 1.81600 29.60200
C  15.63000 0.76400 30.07800
C  13.97100 2.48000 27.22400
C  14.37700 2.58300 30.71300
O  13.69500 3.60400 30.80000
C  14.95500 1.82700 31.98800
C  15.75000 2.91000 32.75000
O  16.62900 3.54800 32.25200
O  15.26800 3.07300 34.00100
C  15.90600 4.06300 34.90100
H  19.08800 -3.47500 33.22500
H  19.13200 -4.82000 26.81700
H  15.37800 0.20400 25.81300
H  17.06900 0.73900 34.06800
H  17.60100 -1.95900 34.63600
H  19.12200 0.62200 34.36300
H  20.07400 -0.72600 33.67700
H  19.51900 -0.83100 35.37800
H  15.50000 -1.90700 34.16700
H  14.52600 -0.39500 34.01400
H  15.15500 -1.63000 36.33700
H  14.51100 0.07200 36.13600
H  20.27000 -6.71300 32.28700
H  20.28400 -5.20400 33.18100
H  21.60900 -5.43400 32.17000
H  22.08200 -6.94700 30.23900
H  21.73500 -8.10000 29.06300
H  20.65100 -7.95200 30.47500
H  17.00100 -4.24600 25.21100
H  16.76700 -1.49900 24.51200
H  19.57700 -3.14000 25.13500
H  18.70300 -2.17400 23.91100
H  18.73700 -3.91500 23.68500
H  14.30400 -2.71900 25.79800
H  14.95000 -3.64100 24.52100
H  13.67900 -0.91600 24.34100
H  13.68500 -2.20200 23.17500
H  15.10300 -1.16100 23.39400
H  13.75100 1.92200 26.31400
H  14.63400 3.34300 27.15400
H  13.05400 2.78900 27.72400
H  14.14100 1.40100 32.57400
H  15.47400 5.06300 34.93900
H  16.99200 4.10800 34.83000
H  15.69800 3.70700 35.91000
Mg 7.11200 53.00800 41.20100
C  6.72300 49.60900 40.42500
C  10.25200 52.78300 40.10600
C  7.19900 56.24300 41.44200
C  3.57600 53.01300 41.79400
N  8.26700 51.34200 40.41500
C  8.03000 50.03500 40.17000
C  9.20700 49.23700 39.71500
C  10.42100 50.22300 39.93800
C  9.60500 51.60400 40.11800
C  11.37200 49.94600 41.11800
C  9.22600 48.69000 38.22000
C  8.80800 49.74800 37.12500
H  7.78700 49.31800 36.02600
N  8.60200 54.36200 40.87000
C  9.83000 54.08000 40.36700
C  10.56100 55.32400 40.22400
C  9.69500 56.33000 40.65500
C  8.45900 55.65900 41.03300
C  11.99800 55.47000 39.74000
C  10.07900 57.81800 40.70500
O  11.15300 58.21900 40.26200
C  9.29900 58.72700 41.47400
N  5.60800 54.40700 41.40300
C  5.92600 55.68900 41.67000
C  4.68900 56.54000 42.09800
C  3.57900 55.51100 42.30700
C  4.27700 54.23500 41.77600
C  4.85600 57.69200 43.16700
C  2.14200 55.82300 41.76200
C  1.95500 55.66700 40.23900
N  5.47600 51.62600 41.10500
C  4.11900 51.76700 41.39500
C  3.46300 50.44000 41.39000
C  4.49900 49.60100 41.05100
C  5.61800 50.32300 40.80800
C  2.04000 50.19200 41.64500
C  4.76700 48.18000 40.83600
O  4.03500 47.21900 41.04600
C  6.23900 48.12600 40.36600
C  6.09200 47.58600 38.98800
O  5.60600 48.17200 38.07100
O  6.48400 46.23900 39.01600
C  6.23700 45.45600 37.81400
H  11.32800 52.61600 40.03500
H  7.15900 57.33100 41.52200
H  2.55300 53.06300 42.17100
H  9.32700 48.47700 40.48800
H  11.05700 50.31600 39.05800
H  11.20100 50.57700 41.99000
H  12.41000 49.88500 40.79000
H  11.18900 48.94200 41.50000
H  8.72400 47.72700 38.13900
H  10.23900 48.37000 37.97600
H  9.78300 49.89000 36.65900
H  8.47500 50.63200 37.67000
H  12.64600 56.19300 40.23500
H  12.06600 55.75800 38.69100
H  12.45900 54.49400 39.88800
H  8.62000 59.02600 40.67600
H  9.96400 59.51000 41.83800
H  8.72300 58.23800 42.26000
H  4.38700 57.04000 41.17800
H  3.42600 55.33400 43.37200
H  5.88300 57.74200 43.52800
H  4.17300 57.49900 43.99500
H  4.72900 58.61400 42.59900
H  1.86100 56.87200 41.85200
H  1.42200 55.23300 42.32900
H  1.97600 54.60300 40.00600
H  2.69400 56.21000 39.64900
H  0.93700 55.99200 40.02400
H  1.61400 51.06900 42.13200
H  1.96300 49.32100 42.29700
H  1.52200 49.84700 40.75000
H  6.79600 47.41900 40.98000
H  5.20200 45.31500 37.50100
H  6.61500 44.45700 38.02900
H  6.79800 45.94000 37.01400

