158

Mg 40.15300 8.88200 30.33600
C  42.13800 10.07000 32.88600
C  38.21500 7.29200 32.64600
C  38.42600 7.29500 27.82200
C  42.65200 9.51800 27.95600
N  40.16700 8.80800 32.55300
C  41.05600 9.41400 33.43000
C  40.72700 9.24000 34.91300
C  39.56000 8.20300 34.78000
C  39.22700 8.09400 33.18800
C  39.74800 6.87800 35.57800
C  40.30500 10.56700 35.67600
C  41.20200 11.01800 36.80900
H  40.52900 11.62200 38.07100
N  38.40000 7.75300 30.26700
C  37.79100 7.23700 31.35100
C  36.57000 6.49800 30.90300
C  36.64400 6.44800 29.47700
C  37.85700 7.20300 29.13900
C  35.50000 6.01500 31.87200
C  35.74500 5.79500 28.51400
O  35.78400 5.96800 27.28700
C  34.69800 4.81900 29.11700
N  40.42500 8.53700 28.17600
C  39.60400 7.86600 27.34600
C  39.98700 7.94100 25.88200
C  41.48900 8.46900 26.00600
C  41.53000 8.87800 27.48600
C  39.94800 6.57900 25.02900
C  41.85000 9.56500 25.08100
C  41.31800 10.97300 25.35800
N  41.97700 9.63800 30.38100
C  42.87400 9.95200 29.32300
C  43.98000 10.64500 29.91300
C  43.66300 10.86800 31.29900
C  42.42000 10.19600 31.51600
C  45.27200 11.02200 29.24700
C  44.22900 11.29700 32.52100
O  45.24600 11.81600 32.83900
C  43.16000 10.98400 33.63800
C  43.95400 10.30200 34.65300
O  44.25300 9.10800 34.54800
O  44.33900 11.04400 35.76800
C  45.19600 10.45200 36.86400
H  37.47300 6.92800 33.36000
H  37.95400 6.65300 27.07500
H  43.48500 9.73500 27.28300
H  41.51100 8.75000 35.48900
H  38.59500 8.60600 35.08500
H  40.75300 6.85500 36.00100
H  39.54800 6.01900 34.93700
H  38.95600 6.95500 36.32300
H  39.30400 10.39600 36.07100
H  40.17600 11.31800 34.89700
H  41.93400 11.66100 36.32100
H  41.73400 10.09000 37.02000
H  35.40800 6.66300 32.74300
H  35.64900 5.00500 32.25400
H  34.55300 6.11000 31.34000
H  33.89400 5.42300 29.53700
H  35.14200 4.10700 29.81300
H  34.37500 4.09500 28.36900
H  39.35200 8.66200 25.36700
H  42.26500 7.70800 25.92400
H  39.48600 5.75400 25.57100
H  40.86700 6.25300 24.54200
H  39.32800 6.94500 24.21100
H  41.52400 9.24600 24.09100
H  42.93700 9.54000 25.00300
H  42.18700 11.49900 25.75300
H  40.45600 11.01300 26.02400
H  40.95000 11.45500 24.45200
H  45.29800 12.06300 28.92500
H  45.37900 10.46700 28.31500
H  46.11200 10.91200 29.93300
H  42.84900 11.98200 33.94800
H  45.07800 9.37100 36.79300
H  44.81000 10.77600 37.83100
H  46.27100 10.62900 36.82300
Mg -5.49100 25.27000 25.84800
C  -4.04400 26.17500 28.96800
C  -7.73500 23.30400 27.72400
C  -6.51300 23.87900 23.06500
C  -3.18400 27.22300 24.23300
N  -5.82300 24.77900 28.12600
C  -5.08100 25.28300 29.14000
C  -5.61300 24.77300 30.54000
C  -6.64100 23.70500 30.02000
C  -6.67800 23.87200 28.52300
C  -6.48400 22.24100 30.60900
C  -6.25000 25.97700 31.35100
C  -5.78800 26.08300 32.81500
H  -5.10500 24.90000 33.57200
N  -6.95800 23.92700 25.42300
C  -7.81500 23.27100 26.30300
C  -8.79200 22.50700 25.55900
C  -8.52100 22.66800 24.18600
C  -7.20300 23.41000 24.13400
C  -9.99700 21.81000 26.19500
C  -9.28000 22.31900 23.00200
O  -8.84100 22.38000 21.85800
C  -10.67300 21.74000 23.10000
N  -4.76700 25.41300 23.96900
C  -5.37000 24.69500 22.97200
C  -4.75500 25.12500 21.61900
C  -3.98600 26.40500 21.98700
C  -3.94900 26.37000 23.50700
C  -4.15200 23.92300 20.91200
C  -4.44900 27.71500 21.32100
C  -3.35000 28.40600 20.43000
N  -3.91500 26.48700 26.40100
C  -3.03400 27.25200 25.62200
C  -2.07000 27.98100 26.45000
C  -2.45400 27.56500 27.71100
C  -3.56700 26.65300 27.69000
C  -0.98300 28.96300 25.97600
C  -1.98600 27.78600 29.09800
O  -1.12100 28.50000 29.61900
C  -2.98300 26.85100 29.90800
C  -2.10600 26.05000 30.83000
O  -1.78400 24.89600 30.64000
O  -1.94000 26.72100 31.99200
C  -1.14800 26.01200 32.95700
H  -8.44800 22.65200 28.23100
H  -6.74600 23.52900 22.05700
H  -2.53600 27.92400 23.70300
H  -4.88400 24.19100 31.10300
H  -7.62800 23.97900 30.39300
H  -6.47600 21.47600 29.83200
H  -7.27500 22.07700 31.34000
H  -5.56000 22.11500 31.17300
H  -7.33200 26.09900 31.30900
H  -5.80500 26.86800 30.91000
H  -6.57400 26.51100 33.43700
H  -5.09200 26.90800 32.66200
H  -9.69800 21.46200 27.18400
H  -10.27500 20.97600 25.54900
H  -10.85300 22.47300 26.31800
H  -10.55500 20.68600 23.35000
H  -11.19900 21.77300 22.14600
H  -11.27900 22.39300 23.72900
H  -5.68500 25.45200 21.15400
H  -2.92900 26.21600 21.79400
H  -3.07600 23.98600 20.74300
H  -4.57500 23.76900 19.91900
H  -4.20700 23.08200 21.60300
H  -4.86000 28.31600 22.13200
H  -5.32800 27.53600 20.70200
H  -3.62900 28.38500 19.37600
H  -2.44100 27.85200 20.66300
H  -3.19500 29.45600 20.67800
H  -0.20100 28.50300 25.37200
H  -0.59300 29.29700 26.93800
H  -1.27000 29.94200 25.59200
H  -3.54800 27.39400 30.66600
H  -0.12900 26.37700 32.82600
H  -1.09800 24.92500 33.02500
H  -1.28300 26.34800 33.98500

