158

Mg 48.23100 35.77500 28.48200
C  46.25900 33.96400 30.76000
C  48.27900 38.38100 30.71700
C  49.46100 37.63600 26.00800
C  47.66300 33.15100 26.19900
N  47.55600 36.03300 30.52600
C  46.80000 35.15700 31.28300
C  46.78900 35.62000 32.68700
C  46.88400 37.20900 32.53600
C  47.56400 37.24600 31.16900
C  45.52500 37.99500 32.42500
C  47.95600 35.02500 33.49500
C  47.80200 34.90700 35.00400
H  46.85600 35.95300 35.57900
N  48.92600 37.70000 28.38300
C  48.90200 38.62900 29.41400
C  49.63200 39.81100 28.97300
C  50.04900 39.58100 27.60500
C  49.45700 38.24300 27.25500
C  49.87400 40.91100 29.98700
C  50.91200 40.47400 26.65800
O  51.29500 40.13900 25.56000
C  51.26600 41.83900 27.09700
N  48.43100 35.43400 26.37500
C  48.98300 36.42000 25.59800
C  49.07000 35.96500 24.15400
C  48.82000 34.42000 24.22800
C  48.34300 34.26300 25.71800
C  48.25600 36.69200 23.14500
C  49.86000 33.39500 23.77000
C  50.76500 33.76600 22.54700
N  47.19000 33.95500 28.42500
C  47.12200 32.94700 27.45200
C  46.42600 31.77800 27.91900
C  46.03800 32.10400 29.25200
C  46.54500 33.47400 29.49900
C  46.17200 30.50100 27.07700
C  45.39900 31.60000 30.44200
O  44.91500 30.50800 30.79200
C  45.35200 32.89500 31.44800
C  45.83600 32.47100 32.85000
O  46.82400 31.79500 32.98400
O  44.92900 32.86700 33.75900
C  45.07500 32.17300 35.01500
H  48.04300 39.12400 31.48200
H  49.82300 38.26600 25.19300
H  47.63200 32.42600 25.38300
H  45.82300 35.31600 33.09100
H  47.51800 37.49300 33.37600
H  44.71400 37.38900 32.02300
H  45.75400 38.78000 31.70500
H  45.20100 38.27600 33.42800
H  48.86400 35.59800 33.30800
H  48.14500 34.03200 33.08900
H  48.78800 35.10500 35.42400
H  47.47800 33.92000 35.33300
H  49.74100 40.66200 31.03900
H  49.53300 41.91000 29.71500
H  50.96300 40.93500 30.02800
H  51.08100 42.48800 26.24100
H  52.31300 41.95700 27.37400
H  50.57200 42.08100 27.90200
H  50.09100 36.21900 23.86900
H  47.89000 34.08300 23.77000
H  47.45200 35.99800 22.89700
H  48.89000 36.89500 22.28200
H  47.83400 37.64400 23.46700
H  49.40800 32.42300 23.57300
H  50.58000 33.22900 24.57100
H  51.75100 33.88800 22.99500
H  50.42100 34.73900 22.19800
H  50.81300 32.95800 21.81700
H  47.07200 30.11200 26.60000
H  45.40300 30.51700 26.30400
H  45.80900 29.73700 27.76600
H  44.35400 33.32000 31.55900
H  44.77000 32.90900 35.76000
H  46.08300 31.82800 35.24600
H  44.35600 31.35400 35.00700
Mg 7.09400 53.74100 41.29200
C  6.27400 50.31700 40.66900
C  10.24700 53.08500 39.82800
C  7.68600 57.12900 41.05000
C  3.74000 54.25300 41.87800
N  8.16300 51.87400 40.50900
C  7.61600 50.62500 40.27500
C  8.58300 49.78800 39.47400
C  9.95300 50.53400 39.71900
C  9.44100 51.93200 40.10100
C  10.96000 49.97700 40.74600
C  8.13900 49.63500 37.96500
C  8.36100 48.31200 37.31900
H  7.44400 47.95100 36.22900
N  8.68700 54.93000 40.59900
C  9.91000 54.43600 40.09400
C  10.82500 55.56200 40.04100
C  10.16400 56.74700 40.45800
C  8.79500 56.31900 40.78000
C  12.29700 55.39300 39.67800
C  10.84900 58.11200 40.68400
O  12.09400 58.09500 40.62200
C  10.16600 59.42900 41.04000
N  5.85400 55.35800 41.20700
C  6.34800 56.70800 41.15900
C  5.22000 57.75200 41.34900
C  4.03200 56.78500 41.75400
C  4.53300 55.35400 41.56900
C  5.41700 58.86600 42.37700
C  2.74400 57.10100 40.90400
C  2.81800 56.78400 39.38700
N  5.38100 52.48900 41.52500
C  4.11000 52.85700 41.74900
C  3.33000 51.75600 42.14100
C  4.11300 50.66500 41.72100
C  5.32600 51.23900 41.25300
C  1.86300 51.87600 42.54700
C  4.16800 49.26400 41.49800
O  3.44700 48.30100 41.74500
C  5.59400 48.98600 40.84700
C  5.28700 48.20000 39.61300
O  4.96700 48.73200 38.55000
O  5.33700 46.84200 39.74700
C  4.80400 45.95700 38.67600
H  11.26800 52.83800 39.52900
H  7.85100 58.20200 40.92900
H  2.72300 54.42400 42.23800
H  8.65200 48.80100 39.93200
H  10.44800 50.59000 38.74900
H  11.88700 49.99100 40.17300
H  10.67600 48.97800 41.07500
H  11.07300 50.72100 41.53400
H  8.76700 50.34800 37.43000
H  7.10900 49.97600 37.86400
H  8.30100 47.56800 38.11400
H  9.37700 48.38100 36.93000
H  12.52800 54.40000 39.29300
H  13.00500 55.45300 40.50500
H  12.54200 56.16400 38.94800
H  9.37300 59.28200 41.77300
H  9.67300 59.90400 40.19100
H  10.88000 60.11800 41.49200
H  5.02900 58.11800 40.34100
H  3.71400 56.83400 42.79500
H  6.03700 58.54400 43.21400
H  4.46000 59.32300 42.62800
H  6.14100 59.57600 41.97700
H  2.62700 58.18500 40.93200
H  1.82900 56.77800 41.40000
H  2.08300 56.03700 39.08800
H  3.79000 56.46000 39.01400
H  2.57200 57.71500 38.87500
H  1.43900 52.57300 41.82500
H  1.61300 52.25200 43.53900
H  1.40200 50.88900 42.57900
H  6.14300 48.34000 41.53200
H  4.06200 45.19300 38.90800
H  5.50200 45.34100 38.10900
H  4.29300 46.63500 37.99300

