158

Mg 28.17400 56.54800 40.24200
C  25.99800 53.85200 39.55300
C  30.71600 54.57600 39.11100
C  30.10700 59.41000 39.76500
C  25.41000 58.60100 40.63200
N  28.22900 54.47900 39.23800
C  27.29100 53.53800 39.16300
C  27.81200 52.22000 38.54000
C  29.38100 52.37900 38.81300
C  29.49700 53.90700 39.04500
C  29.99500 51.54600 40.03200
C  27.39100 52.10800 37.00900
C  27.08200 53.35500 36.15000
H  27.30500 53.33400 34.70100
N  30.14900 56.94600 39.69100
C  31.02900 55.93500 39.31700
C  32.36100 56.56600 39.08000
C  32.21100 57.99300 39.29400
C  30.80600 58.19700 39.58900
C  33.54700 55.77700 38.57200
C  33.27800 59.05500 39.05600
O  34.34400 58.75400 38.58400
C  33.14600 60.44800 39.39800
N  27.86900 58.62200 40.23100
C  28.80800 59.62700 39.99800
C  28.20700 60.99300 40.13800
C  26.71900 60.73000 40.13300
C  26.62300 59.19800 40.38100
C  28.78800 61.81800 41.30400
C  25.91800 61.02000 38.78400
C  24.88000 62.16500 38.64000
N  26.09400 56.28300 40.20500
C  25.14000 57.23600 40.52400
C  23.86400 56.45700 40.77400
C  24.13600 55.13900 40.33900
C  25.51800 55.12500 40.01800
C  22.52700 56.95400 41.27300
C  23.67600 53.80000 40.13600
O  22.54500 53.35000 40.26900
C  24.82900 52.98800 39.60800
C  24.97300 51.83700 40.51900
O  24.49700 50.71300 40.44200
O  25.88200 52.11000 41.51800
C  26.19800 51.01700 42.48100
H  31.57000 53.92100 38.92400
H  30.62800 60.35500 39.60200
H  24.53000 59.23700 40.75000
H  27.44200 51.36200 39.10200
H  29.97400 52.08700 37.94700
H  29.97100 50.47100 39.85800
H  29.62000 51.79600 41.02500
H  31.06900 51.71700 39.96500
H  26.52500 51.44800 36.94900
H  28.20600 51.53600 36.56600
H  27.56000 54.21800 36.61400
H  26.01600 53.55700 36.25200
H  34.18100 56.26100 37.82900
H  33.23100 54.85800 38.07700
H  34.19700 55.56600 39.42100
H  32.83200 60.48200 40.44200
H  32.46700 60.94000 38.70100
H  34.03600 61.07100 39.31100
H  28.40300 61.56800 39.23300
H  26.24100 61.34500 40.89600
H  28.95900 62.85800 41.02200
H  29.68400 61.27400 41.60300
H  28.06800 61.58500 42.08700
H  25.34700 60.12300 38.54500
H  26.59900 61.13800 37.94100
H  24.76800 62.72300 39.56900
H  23.90500 61.77300 38.34900
H  25.35400 62.87100 37.95800
H  21.79800 56.93300 40.46200
H  22.75800 57.97400 41.58000
H  22.27100 56.28400 42.09300
H  24.71900 52.47300 38.65400
H  25.38200 50.96400 43.20200
H  27.16900 51.34400 42.85300
H  26.36600 50.02900 42.05300
Mg 35.06700 48.33000 25.01400
C  35.69400 46.69200 27.97600
C  33.69800 51.01000 26.89400
C  34.08200 49.79000 22.12100
C  35.96800 45.53300 23.27300
N  34.58600 48.73200 27.20500
C  35.04600 47.92600 28.24300
C  34.79700 48.61300 29.71500
C  33.97600 49.90400 29.23600
C  33.99600 49.87800 27.65600
C  32.49400 50.15600 29.76800
C  36.11500 49.03200 30.38300
C  36.05800 48.85400 31.82700
H  34.75800 49.03000 32.58700
N  34.16600 50.19900 24.48800
C  33.71200 51.14200 25.42400
C  33.44600 52.33000 24.68400
C  33.42200 52.02200 23.29100
C  33.89500 50.60100 23.25300
C  33.25200 53.66400 25.25400
C  32.99600 52.85700 22.09800
O  33.16800 52.50400 20.97500
C  32.39000 54.27400 22.27300
N  35.10100 47.77700 22.93300
C  34.66200 48.55400 21.94400
C  34.77300 47.80900 20.55600
C  35.40500 46.43400 20.95800
C  35.57100 46.57500 22.47800
C  33.39600 47.70900 19.71500
C  36.81800 46.23500 20.31100
C  37.95600 47.23700 20.65300
N  35.59100 46.44200 25.47500
C  36.08300 45.43600 24.64900
C  36.53900 44.34800 25.46200
C  36.41100 44.80300 26.84200
C  35.91500 46.11700 26.74100
C  36.90300 43.02800 25.03000
C  36.56500 44.42200 28.32400
O  37.04800 43.43700 28.83700
C  36.09700 45.68300 29.07100
C  35.01000 45.31700 29.94800
O  33.90000 44.96100 29.49900
O  35.39600 45.35700 31.27900
C  34.25000 45.12400 32.17500
H  33.31400 51.89900 27.39800
H  33.73800 50.24600 21.19100
H  36.46100 44.74900 22.69300
H  34.15800 48.05200 30.39700
H  34.54100 50.76800 29.58900
H  31.84100 50.07400 28.89900
H  32.38600 51.13100 30.24400
H  32.19400 49.44800 30.54100
H  36.27000 50.09800 30.21600
H  36.94600 48.48500 29.93700
H  36.76800 49.46500 32.38400
H  36.34800 47.81300 31.97000
H  32.21200 53.97500 25.16500
H  33.85500 54.38500 24.70300
H  33.61300 53.68300 26.28200
H  31.87100 54.55000 21.35600
H  33.24500 54.91100 22.50200
H  31.59600 54.27900 23.02000
H  35.51300 48.40700 20.02400
H  34.84100 45.56900 20.60800
H  33.67500 47.67300 18.66200
H  32.75900 48.57400 19.90000
H  32.83200 46.85300 20.08500
H  36.67200 46.28200 19.23200
H  37.20800 45.25600 20.59100
H  38.00300 48.10900 19.99900
H  38.92300 46.74400 20.75100
H  37.79600 47.62200 21.66000
H  37.95100 43.11700 24.74200
H  36.33300 42.57500 24.21900
H  36.84000 42.37100 25.89700
H  36.92600 45.97500 29.71600
H  33.49900 45.91000 32.08500
H  34.63700 45.21500 33.19000
H  33.86300 44.11400 32.04400

