158

Mg 55.51100 22.59500 44.78200
C  53.42500 24.96200 43.52900
C  53.12900 20.23400 43.89200
C  57.84500 20.19800 45.16300
C  57.89200 24.99300 45.35200
N  53.57500 22.61600 43.69000
C  52.90100 23.71500 43.18800
C  51.54300 23.30000 42.71000
C  51.34800 21.83700 43.33600
C  52.72700 21.54500 43.72800
C  50.32200 21.71600 44.49900
C  51.33700 23.66800 41.22200
C  50.05600 24.40300 40.91100
H  49.25100 23.86900 39.75200
N  55.46400 20.57800 44.39500
C  54.42700 19.75500 44.03500
C  54.81100 18.36900 44.06000
C  56.20000 18.34800 44.33500
C  56.60200 19.72600 44.63300
C  53.87600 17.25600 43.87500
C  57.03300 17.07900 44.52000
O  56.44300 15.96300 44.46300
C  58.47400 17.05900 45.01700
N  57.54300 22.51000 45.32800
C  58.32100 21.45400 45.48100
C  59.83700 21.71900 45.85100
C  59.80400 23.35000 45.74000
C  58.30300 23.65100 45.47500
C  60.25400 21.23600 47.28700
C  60.69800 23.94700 44.53100
C  61.44800 25.25100 44.79700
N  55.63700 24.55700 44.65800
C  56.60700 25.44700 45.00800
C  56.11700 26.80700 44.83900
C  54.84300 26.70300 44.32800
C  54.58600 25.29800 44.21500
C  56.85100 28.09700 45.19400
C  53.65200 27.38000 43.86600
O  53.38100 28.57500 43.89100
C  52.82800 26.31200 43.15000
C  52.92000 26.54700 41.69400
O  53.87500 26.23100 40.95500
O  51.86300 27.30400 41.35200
C  51.93100 28.12000 40.14900
H  52.38500 19.47100 43.65300
H  58.64900 19.51700 45.44600
H  58.54700 25.85500 45.49200
H  50.89300 23.89900 43.34800
H  51.05500 21.08600 42.60100
H  50.85800 21.19500 45.29300
H  49.49100 21.09800 44.15700
H  49.93400 22.71600 44.68800
H  51.39000 22.73600 40.66000
H  52.14100 24.31900 40.88000
H  50.26500 25.40300 40.53000
H  49.42000 24.43400 41.79500
H  54.02600 16.94000 42.84300
H  52.82900 17.48500 44.07400
H  54.11100 16.42700 44.54300
H  58.53300 17.40900 46.04800
H  59.07700 17.66400 44.33900
H  58.94100 16.07500 45.05100
H  60.37600 21.27300 45.01500
H  60.05700 23.86300 46.66700
H  59.39600 20.75200 47.75300
H  60.56300 22.13400 47.82200
H  61.02000 20.47200 47.15100
H  60.07600 24.10700 43.65000
H  61.43600 23.17800 44.30100
H  61.33200 25.79900 43.86100
H  62.52800 25.20300 44.93700
H  60.97800 25.89800 45.53800
H  56.36500 28.64700 46.00000
H  56.72000 28.76400 44.34100
H  57.93200 27.98300 45.27500
H  51.77200 26.37200 43.41300
H  51.28500 28.99800 40.15100
H  51.57600 27.50500 39.32300
H  52.96800 28.39000 39.95100
Mg 16.75900 52.74500 26.56000
C  18.56400 51.48700 29.27200
C  14.11000 53.31600 28.69800
C  15.01000 53.96000 23.98000
C  19.25800 51.60300 24.44000
N  16.40700 52.52200 28.76800
C  17.30900 52.09100 29.64900
C  16.71200 52.38200 31.10100
C  15.22800 52.66700 30.83200
C  15.25700 52.82100 29.33800
C  14.23000 51.61600 31.41500
C  17.51300 53.57600 31.73100
C  18.27800 53.28900 33.01000
H  17.48500 52.60200 34.14800
N  14.84000 53.50300 26.38200
C  13.91600 53.74600 27.40000
C  12.80000 54.45100 26.86200
C  13.01400 54.69500 25.50800
C  14.33900 54.09400 25.23300
C  11.55400 54.66900 27.69600
C  12.15600 55.31000 24.47200
O  12.49600 55.44700 23.31900
C  10.90800 55.97600 24.92800
N  17.10600 52.74600 24.54900
C  16.20400 53.27500 23.73200
C  16.79600 53.49400 22.35200
C  18.21900 52.78100 22.35200
C  18.20900 52.33100 23.86200
C  15.96300 52.97300 21.14000
C  19.39500 53.62300 21.98200
C  20.50000 53.02700 21.03300
N  18.62100 51.71100 26.73800
C  19.50300 51.28900 25.77500
C  20.63600 50.61600 26.35500
C  20.31200 50.67000 27.77900
C  19.08900 51.29600 27.90700
C  21.79500 49.99400 25.59900
C  20.76300 50.30900 29.08400
O  21.76800 49.70400 29.41400
C  19.70500 50.85500 30.08200
C  19.25000 49.70100 30.94100
O  18.63400 48.69400 30.54500
O  19.59100 49.95900 32.23300
C  19.00400 48.96900 33.18200
H  13.28700 53.55100 29.37600
H  14.41600 54.26900 23.11700
H  20.05600 51.38900 23.72600
H  16.85800 51.43000 31.61100
H  14.96600 53.64800 31.22800
H  14.75300 50.89900 32.04700
H  13.67800 51.05400 30.66200
H  13.53700 52.02900 32.14900
H  16.85800 54.44700 31.74500
H  18.29400 53.84000 31.01800
H  18.47500 54.25200 33.48100
H  19.22700 52.82100 32.74900
H  10.91800 53.78700 27.62700
H  10.96900 55.56600 27.49700
H  11.80700 54.89000 28.73300
H  10.34900 56.35100 24.07100
H  11.24800 56.74800 25.61800
H  10.34300 55.10400 25.26100
H  16.88900 54.55900 22.13700
H  18.28100 51.84700 21.79300
H  16.61200 52.33200 20.54200
H  15.74300 53.84900 20.53000
H  14.98800 52.55100 21.38400
H  19.85400 54.04000 22.87800
H  19.08100 54.52000 21.44800
H  20.53700 53.47800 20.04200
H  20.46200 51.93800 21.03300
H  21.46300 53.17100 21.52300
H  21.72200 48.93300 25.83800
H  22.71000 50.43100 25.99900
H  21.77600 50.16100 24.52300
H  20.14500 51.60600 30.73700
H  17.91500 49.01500 33.15600
H  19.38400 49.03900 34.20200
H  19.34700 47.95300 32.98800

