158

Mg 29.61100 57.81700 40.80300
C  26.90600 55.79100 40.03000
C  31.64200 55.14900 39.91400
C  32.15200 59.97300 40.97100
C  27.41100 60.47600 41.54200
N  29.27000 55.68800 39.97200
C  28.10500 55.03100 39.82400
C  28.30800 53.54200 39.43300
C  29.81500 53.39200 39.69000
C  30.29000 54.78900 39.86800
C  30.14600 52.38800 40.84400
C  27.81400 53.11300 37.97100
C  28.19400 53.90800 36.75900
H  27.24900 54.83500 36.09600
N  31.64800 57.58800 40.44600
C  32.32600 56.42500 40.11100
C  33.73400 56.71500 39.93200
C  33.87400 58.12300 40.14200
C  32.54700 58.60300 40.55500
C  34.70400 55.71400 39.44400
C  35.13200 58.82000 39.85900
O  36.19700 58.15600 39.55200
C  35.22600 60.33900 39.90200
N  29.72000 59.99300 41.14000
C  30.91500 60.55500 41.34500
C  30.71700 61.98700 41.75400
C  29.25100 62.05900 42.19600
C  28.74700 60.77300 41.63100
C  31.76600 62.51300 42.77000
C  28.53900 63.42100 41.95300
C  27.96600 64.17100 43.14900
N  27.62300 58.11400 40.80200
C  26.86100 59.27400 41.08400
C  25.41600 58.95100 40.99300
C  25.44600 57.57000 40.64700
C  26.75500 57.11600 40.45300
C  24.15700 59.87400 41.34000
C  24.53200 56.40400 40.28200
O  23.30300 56.24300 40.26200
C  25.49900 55.25000 40.03800
C  25.28000 54.08900 40.96700
O  25.44500 54.03800 42.19700
O  24.72400 53.00500 40.26400
C  24.24200 51.91600 41.13000
H  32.37900 54.36900 39.71500
H  32.84400 60.81700 41.00000
H  26.65000 61.12900 41.97400
H  27.82900 52.99500 40.24500
H  30.17300 52.92500 38.77300
H  29.34100 51.71800 41.14600
H  30.40800 53.02600 41.68800
H  31.02400 51.88100 40.44300
H  26.73600 53.03900 38.11400
H  28.26200 52.12900 37.83300
H  28.78400 53.31100 36.06300
H  28.80200 54.74200 37.10900
H  35.73100 55.74700 39.80900
H  34.82000 55.89500 38.37500
H  34.35800 54.68500 39.53800
H  34.33200 60.77600 39.45800
H  36.00600 60.68100 39.22200
H  35.40300 60.65000 40.93200
H  30.78800 62.58900 40.84800
H  29.24800 61.87700 43.27100
H  32.44200 61.67800 42.95800
H  31.37200 62.92700 43.69900
H  32.26300 63.23600 42.12400
H  27.77900 63.17300 41.21100
H  29.29300 64.05800 41.49000
H  28.33500 65.19600 43.15000
H  28.28700 63.75100 44.10200
H  26.88200 64.18600 43.27000
H  23.20500 59.54500 40.92400
H  24.34200 60.90600 41.04300
H  24.07200 59.81100 42.42500
H  25.15800 54.83700 39.08900
H  24.34900 51.00400 40.54200
H  23.19000 52.14700 41.29800
H  24.77300 51.88300 42.08100
Mg 0.59700 43.30000 26.37700
C  2.97100 43.38600 29.04700
C  -1.75700 42.65300 28.77700
C  -1.55700 42.40500 23.98500
C  3.08100 43.57800 24.20600
N  0.62200 42.97700 28.70400
C  1.68300 43.09600 29.52400
C  1.14900 43.07700 31.04900
C  -0.27700 42.39400 30.86400
C  -0.50500 42.80400 29.39000
C  -0.41200 40.89600 31.14100
C  1.11000 44.54300 31.68800
C  1.22700 44.80100 33.23200
H  0.99400 43.52700 34.13500
N  -1.43100 42.60800 26.35500
C  -2.21900 42.42500 27.47900
C  -3.56400 42.10400 27.02200
C  -3.54900 42.02700 25.61200
C  -2.15500 42.25300 25.26700
C  -4.73500 41.88700 28.04200
C  -4.67800 41.81000 24.56800
O  -4.44500 41.89800 23.34500
C  -6.02400 41.55500 24.93600
N  0.68900 43.16100 24.41100
C  -0.26400 42.69200 23.60700
C  0.19800 42.69700 22.10800
C  1.59200 43.31200 22.17600
C  1.80700 43.38100 23.71700
C  0.05500 41.36000 21.31700
C  1.81400 44.58000 21.28900
C  1.61800 45.89600 22.10500
N  2.61500 43.56300 26.52500
C  3.53000 43.74600 25.51200
C  4.84400 43.82300 26.11600
C  4.69100 43.65600 27.43300
C  3.27900 43.57900 27.68100
C  6.20000 43.91400 25.51700
C  5.37800 43.50400 28.70400
O  6.58800 43.73200 28.97200
C  4.28500 43.30500 29.76400
C  4.56400 42.09900 30.60200
O  4.71200 40.97700 30.12200
O  4.67000 42.43900 31.86900
C  5.11200 41.43300 32.86300
H  -2.47700 42.49600 29.58200
H  -2.16900 42.15500 23.11600
H  3.93700 43.61600 23.52900
H  1.66700 42.41800 31.74500
H  -0.96000 42.99600 31.46400
H  0.56200 40.50000 31.43100
H  -0.75600 40.36500 30.25400
H  -1.14000 40.81000 31.94700
H  0.17500 44.98500 31.34400
H  1.78700 45.13500 31.07200
H  0.39900 45.46900 33.46700
H  2.11100 45.31300 33.61400
H  -5.17200 40.90200 27.88000
H  -5.62100 42.51800 27.97500
H  -4.40000 41.90300 29.07900
H  -6.65800 41.22700 24.11300
H  -6.47600 42.49500 25.25400
H  -5.95400 40.86900 25.78000
H  -0.37000 43.48000 21.60700
H  2.34200 42.56500 21.91600
H  0.95400 40.75300 21.43200
H  -0.06500 41.71000 20.29200
H  -0.80300 40.74100 21.57700
H  1.17700 44.60400 20.40400
H  2.84500 44.54600 20.93900
H  1.13300 46.58000 21.40800
H  2.58000 46.21600 22.50300
H  0.85700 45.73300 22.86800
H  6.05600 43.60900 24.48000
H  6.93700 43.28200 26.01200
H  6.63000 44.91500 25.51900
H  4.56700 44.11300 30.44000
H  5.01900 40.38300 32.58400
H  4.58200 41.46900 33.81500
H  6.15600 41.62600 33.10800

