158

Mg 35.58100 1.94600 29.38700
C  33.68300 3.04200 31.90000
C  38.31700 1.91100 31.69800
C  37.76500 1.20200 26.90300
C  33.22700 2.86800 27.13400
N  36.02300 2.60400 31.50700
C  34.99900 2.85300 32.35000
C  35.49700 2.92700 33.82200
C  36.99500 2.78700 33.77500
C  37.12900 2.43900 32.21300
C  37.85400 4.07800 34.11000
C  34.76200 1.88100 34.68900
C  34.34100 2.24800 36.15100
H  34.73800 3.63000 36.70200
N  37.71100 1.49600 29.32300
C  38.59700 1.48500 30.34000
C  39.83100 0.93200 29.80100
C  39.67000 0.55000 28.47000
C  38.35000 1.07000 28.15900
C  41.08000 0.79200 30.66000
C  40.71500 -0.11400 27.43700
O  40.35100 -0.37100 26.28600
C  42.14900 -0.44700 27.93700
N  35.47000 2.02500 27.30600
C  36.51000 1.61800 26.49800
C  36.22900 1.95400 25.02700
C  34.69600 2.34300 25.08900
C  34.40800 2.41600 26.60300
C  37.14600 3.12100 24.47800
C  33.79800 1.33800 24.34700
C  33.57800 -0.04700 25.03100
N  33.79500 2.91800 29.43000
C  32.83000 3.09000 28.42700
C  31.61800 3.63900 29.01300
C  31.86600 3.54000 30.41600
C  33.27000 3.16400 30.55000
C  30.30400 3.98100 28.37100
C  31.22900 3.64700 31.70800
O  30.07300 3.87500 32.10000
C  32.47700 3.51800 32.70800
C  32.73100 4.87100 33.39500
O  33.57500 5.77300 33.07600
O  31.79600 5.08100 34.34900
C  31.75800 6.31500 35.04300
H  39.09400 1.72200 32.44100
H  38.47900 1.03300 26.09400
H  32.48200 3.19300 26.40400
H  35.34500 3.93800 34.20200
H  37.38600 1.98600 34.40300
H  38.38100 4.27700 33.17700
H  38.57500 3.89900 34.90700
H  37.27500 4.96100 34.38400
H  35.43700 1.02500 34.68900
H  33.90000 1.46100 34.17000
H  34.66200 1.51300 36.88900
H  33.25900 2.12100 36.19200
H  41.33100 -0.23100 30.94000
H  40.88100 1.22400 31.64000
H  41.95700 1.35100 30.33400
H  42.67900 -0.97300 27.14300
H  42.03600 -1.11700 28.79000
H  42.59200 0.51700 28.18600
H  36.52700 1.02600 24.54000
H  34.42100 3.29100 24.62700
H  36.57300 3.99900 24.18000
H  37.72100 2.75400 23.62800
H  37.82800 3.35500 25.29600
H  34.17000 1.14400 23.34100
H  32.80700 1.77400 24.22200
H  33.22900 -0.79000 24.31400
H  32.95300 0.05400 25.91800
H  34.55400 -0.35000 25.41100
H  30.26600 3.45400 27.41800
H  30.34600 5.04400 28.13500
H  29.45600 3.76700 29.02200
H  32.30100 2.76400 33.47600
H  32.76800 6.60000 35.33700
H  31.21900 6.13400 35.97200
H  31.27900 7.09000 34.44400
Mg 47.96600 34.86800 26.18100
C  46.44900 33.62600 29.27700
C  48.45100 37.79700 27.90900
C  49.07900 35.99900 23.34500
C  47.31000 31.77500 24.81300
N  47.52400 35.52100 28.37500
C  46.98200 34.88300 29.44200
C  47.23100 35.67900 30.78600
C  47.48100 37.08800 30.20300
C  47.87100 36.79400 28.70800
C  46.22400 38.08400 30.30300
C  48.39900 35.30900 31.76600
C  47.99100 35.00300 33.20800
H  46.76000 35.61900 33.78300
N  48.56800 36.63400 25.68700
C  48.83900 37.68400 26.55300
C  49.55400 38.73800 25.85000
C  49.73600 38.25300 24.49300
C  49.07800 36.92500 24.41300
C  49.94900 40.09900 26.51900
C  50.46100 38.90200 23.36600
O  50.45700 38.44100 22.24200
C  51.22800 40.25100 23.64500
N  47.99900 34.03400 24.26300
C  48.67400 34.64800 23.26300
C  48.66500 33.78000 22.00100
C  48.28800 32.34200 22.56300
C  47.84300 32.73300 23.93900
C  47.69900 34.34600 20.97600
C  49.52200 31.27500 22.61700
C  49.16300 29.93300 21.92800
N  47.00600 33.15600 26.79900
C  46.76900 31.96300 26.07500
C  45.99600 31.02000 26.82600
C  45.83900 31.64300 28.10300
C  46.49800 32.90800 28.04600
C  45.52400 29.69700 26.38400
C  45.15800 31.56900 29.45600
O  44.40500 30.74900 29.88900
C  45.61100 32.76300 30.25300
C  46.46400 32.23400 31.38900
O  47.69900 32.24200 31.39900
O  45.66700 31.84600 32.48500
C  46.35100 31.35300 33.66700
H  48.37100 38.81800 28.28700
H  49.53100 36.40200 22.43600
H  47.25800 30.79400 24.33500
H  46.31000 35.72900 31.36700
H  48.27200 37.59300 30.75800
H  46.45700 38.92500 30.95600
H  45.29400 37.60900 30.61600
H  46.05700 38.46700 29.29600
H  49.12100 36.12600 31.78000
H  48.97100 34.44200 31.43200
H  48.88700 35.25900 33.77400
H  47.95700 33.93600 33.42600
H  50.11700 40.97600 25.89400
H  50.81200 40.09400 27.18500
H  49.05300 40.42500 27.04600
H  51.91100 40.32800 22.79900
H  51.77100 40.08200 24.57500
H  50.51300 41.07200 23.58300
H  49.66900 33.66600 21.59200
H  47.44100 31.98100 21.97900
H  46.80400 33.72700 20.91600
H  48.14900 34.59000 20.01400
H  47.38300 35.31600 21.35900
H  49.69500 30.87900 23.61700
H  50.43400 31.61700 22.12700
H  50.02200 29.43300 21.48000
H  48.52700 30.19100 21.08100
H  48.64200 29.30700 22.65300
H  46.38900 29.05900 26.20300
H  45.04400 29.85600 25.41800
H  44.85900 29.26600 27.13300
H  44.77100 33.32800 30.65700
H  46.07400 30.30600 33.78800
H  45.81000 31.85900 34.46600
H  47.42400 31.33600 33.85800

