158

Mg -1.76000 17.50400 27.61000
C  -2.37700 15.23600 30.13700
C  -2.22600 20.15400 29.62700
C  -1.36300 19.50800 24.77800
C  -1.82100 14.69800 25.33600
N  -2.31100 17.64100 29.64000
C  -2.32800 16.58000 30.51800
C  -2.53300 17.14900 31.95600
C  -2.64500 18.74900 31.71500
C  -2.32000 18.88800 30.23000
C  -4.01400 19.46500 32.15400
C  -1.47000 16.80700 33.05400
C  -1.65000 17.46600 34.46700
H  -1.26000 16.69500 35.68500
N  -1.69500 19.54700 27.25000
C  -1.90200 20.52000 28.25200
C  -1.79200 21.76600 27.66300
C  -1.55300 21.66100 26.30200
C  -1.60100 20.22300 26.01800
C  -1.98700 23.08200 28.48900
C  -1.50100 22.74100 25.28300
O  -1.44600 22.48600 24.06400
C  -1.44300 24.16900 25.68400
N  -1.78100 17.12600 25.37000
C  -1.53800 18.16400 24.49900
C  -1.20800 17.61500 23.15500
C  -0.99500 16.10100 23.38300
C  -1.59200 15.90700 24.79900
C  -2.43200 17.87500 22.17300
C  0.48300 15.65600 23.22000
C  1.53200 15.82600 24.31000
N  -2.02400 15.40800 27.71700
C  -1.97800 14.41800 26.70600
C  -2.24800 13.09900 27.31000
C  -2.55600 13.39700 28.63100
C  -2.34200 14.76900 28.85000
C  -2.29700 11.80900 26.64700
C  -2.97600 12.82300 29.88000
O  -3.19300 11.68900 30.18700
C  -2.77700 14.03300 30.92700
C  -1.77200 13.53800 31.87500
O  -0.63200 13.45500 31.65800
O  -2.47500 13.31500 33.05200
C  -1.62600 12.94400 34.18600
H  -2.33300 20.90300 30.41500
H  -1.10400 20.14000 23.92600
H  -1.70700 13.80200 24.72200
H  -3.47700 16.85300 32.41500
H  -1.82300 19.18500 32.28200
H  -4.51000 18.91500 32.95400
H  -4.60800 19.47600 31.24000
H  -3.72900 20.46200 32.49300
H  -0.48100 17.17800 32.78500
H  -1.46300 15.71700 33.05300
H  -2.65800 17.87800 34.50800
H  -0.94000 18.29300 34.47000
H  -2.83200 23.67000 28.12900
H  -1.10400 23.72200 28.46600
H  -2.19500 22.97800 29.55300
H  -1.47800 24.76500 24.77100
H  -0.56500 24.32500 26.31000
H  -2.31200 24.39000 26.30400
H  -0.37000 18.16600 22.72800
H  -1.65700 15.51500 22.74400
H  -3.05100 16.97800 22.12900
H  -2.10400 18.18400 21.18100
H  -2.96000 18.74700 22.55900
H  0.85900 16.13000 22.31400
H  0.45400 14.59600 22.96900
H  0.97100 15.88400 25.24300
H  1.81600 16.86500 24.14000
H  2.43000 15.22000 24.42700
H  -2.92800 11.16900 27.26400
H  -1.26900 11.44700 26.65600
H  -2.70500 11.66700 25.64700
H  -3.76600 14.23100 31.34000
H  -2.28000 12.71100 35.02600
H  -0.93300 13.74500 34.44300
H  -0.99000 12.12800 33.84300
Mg -2.02700 34.92800 26.29900
C  -3.81300 33.61400 28.90700
C  -0.90400 37.39000 28.39900
C  -0.67000 36.15300 23.65400
C  -3.50100 32.48500 24.17400
N  -2.29300 35.42500 28.48000
C  -3.02000 34.70600 29.35400
C  -2.76100 35.13000 30.77100
C  -1.98300 36.54400 30.57400
C  -1.71200 36.48500 29.04800
C  -2.57000 37.90100 31.07400
C  -2.06900 33.95500 31.58000
C  -2.66700 33.67700 32.92400
H  -1.74200 33.50000 34.12000
N  -0.94200 36.47500 26.06700
C  -0.49800 37.40000 27.01900
C  0.26100 38.43800 26.33400
C  0.43000 37.99200 25.00200
C  -0.40400 36.84400 24.88500
C  0.88500 39.66300 27.01100
C  1.26600 38.63000 23.91400
O  1.33800 38.17500 22.76100
C  2.13000 39.88900 24.18200
N  -2.10200 34.33000 24.17600
C  -1.44000 35.10000 23.27800
C  -1.61700 34.59900 21.85600
C  -2.38900 33.24000 22.11000
C  -2.67400 33.36700 23.52600
C  -2.42300 35.64000 20.96500
C  -1.44700 32.00800 21.77400
C  -0.29400 31.70800 22.72900
N  -3.49500 33.40000 26.37100
C  -3.93100 32.44300 25.47900
C  -4.71200 31.43600 26.20300
C  -4.70600 31.82900 27.58100
C  -3.92700 33.05100 27.57700
C  -5.37500 30.20400 25.53800
C  -5.07400 31.50100 28.93000
O  -5.64200 30.52100 29.37500
C  -4.43500 32.51700 29.81600
C  -5.56800 33.06300 30.65700
O  -6.35700 33.87500 30.29900
O  -5.61700 32.40600 31.82800
C  -6.54800 32.85000 32.87900
H  -0.46300 38.11700 29.08400
H  -0.27100 36.60900 22.74500
H  -3.97100 31.71500 23.55900
H  -3.64000 35.45800 31.32600
H  -1.04600 36.39500 31.11000
H  -2.77600 38.55400 30.22500
H  -1.88700 38.35300 31.79300
H  -3.50900 37.68200 31.58300
H  -1.03900 34.21500 31.82400
H  -1.95500 33.04700 30.98800
H  -3.23700 32.75100 32.85700
H  -3.50900 34.29900 33.22700
H  1.96600 39.52900 26.97700
H  0.59200 39.76800 28.05500
H  0.73900 40.57700 26.43500
H  2.64600 39.96900 23.22500
H  2.76400 39.63400 25.03100
H  1.46400 40.73900 24.32900
H  -0.61900 34.42800 21.45400
H  -3.40000 33.13800 21.71500
H  -2.14200 36.64100 21.29100
H  -3.50500 35.58900 21.08800
H  -2.10300 35.42600 19.94500
H  -0.92900 32.16700 20.82800
H  -2.05000 31.11900 21.59100
H  -0.27700 32.46500 23.51300
H  0.58800 31.54800 22.10800
H  -0.55100 30.74800 23.17600
H  -4.72500 29.81900 24.75200
H  -6.33600 30.49200 25.11200
H  -5.51500 29.42400 26.28700
H  -3.73000 32.02200 30.48300
H  -7.34200 33.54500 32.61000
H  -6.04400 33.29000 33.74000
H  -7.01600 31.95900 33.29900

