158

Mg -12.01900 38.25300 42.14600
C  -10.01300 35.55600 41.51100
C  -9.59500 40.35200 40.77500
C  -14.20500 40.75200 42.38500
C  -14.59200 35.91800 42.88500
N  -10.06900 37.93600 41.15100
C  -9.52400 36.75000 40.95000
C  -8.15300 36.87700 40.29900
C  -7.86600 38.47300 40.29300
C  -9.24100 38.99600 40.74900
C  -6.66600 38.98300 41.14100
C  -8.01500 36.23700 38.84600
C  -6.62700 35.62900 38.56100
H  -5.87900 36.34500 37.41400
N  -11.87500 40.32000 41.74200
C  -10.81400 40.97000 41.26000
C  -11.03100 42.38600 41.28500
C  -12.36200 42.61100 41.64800
C  -12.90400 41.21700 41.93000
C  -10.06600 43.51200 40.86700
C  -13.09600 43.99100 41.69500
O  -12.59800 45.08500 41.36800
C  -14.52600 43.98000 42.18000
N  -14.17000 38.29100 42.38700
C  -14.76000 39.48900 42.63700
C  -16.23300 39.32100 43.10700
C  -16.30100 37.74500 43.18800
C  -14.94500 37.24400 42.70100
C  -16.66700 40.10100 44.36600
C  -17.52200 37.13900 42.37200
C  -18.37000 36.10200 43.14600
N  -12.30200 36.07600 42.31800
C  -13.32400 35.31300 42.73000
C  -12.90200 33.90200 42.88900
C  -11.54200 34.01200 42.45500
C  -11.25200 35.33300 42.08400
C  -13.62100 32.68800 43.42800
C  -10.39400 33.19200 42.24900
O  -10.18600 31.97800 42.43000
C  -9.32100 34.22300 41.64900
C  -8.20800 34.19500 42.61100
O  -8.13900 35.03400 43.45100
O  -7.24400 33.29000 42.38900
C  -5.99800 33.23000 43.23600
H  -8.83600 40.97300 40.29400
H  -14.94400 41.49100 42.70000
H  -15.35500 35.22500 43.24700
H  -7.42000 36.38800 40.93900
H  -7.78300 38.86800 39.28100
H  -6.04800 38.14700 41.46800
H  -6.87200 39.61100 42.00800
H  -6.00900 39.58300 40.51200
H  -8.30500 37.07300 38.21000
H  -8.79900 35.48400 38.93200
H  -6.76300 34.55200 38.46000
H  -6.02100 35.67500 39.46600
H  -9.11900 43.03700 40.60900
H  -10.01400 44.21600 41.69800
H  -10.53900 44.15200 40.12300
H  -15.06500 43.24300 41.58400
H  -14.88800 44.97800 41.93400
H  -14.68900 43.84800 43.25000
H  -16.83000 39.71600 42.28500
H  -16.37900 37.42400 44.22700
H  -15.89900 40.75200 44.78400
H  -17.13400 39.54800 45.18100
H  -17.47400 40.76000 44.04500
H  -17.17100 36.61400 41.48400
H  -18.22500 37.87800 41.98700
H  -17.95800 35.80800 44.11100
H  -18.62500 35.15500 42.67100
H  -19.31800 36.54600 43.45100
H  -14.70100 32.82100 43.35300
H  -13.46200 32.51100 44.49200
H  -13.25700 31.76100 42.98500
H  -9.01300 33.81300 40.68700
H  -5.08100 33.08100 42.66600
H  -6.06300 32.41300 43.95500
H  -5.93400 34.15300 43.81100
Mg -2.51800 34.73200 26.95800
C  -4.05600 32.99700 29.49900
C  -1.20500 36.99200 29.26900
C  -1.22600 36.67700 24.38800
C  -4.22000 32.80200 24.55000
N  -2.71600 35.03700 29.12600
C  -3.44100 34.15700 29.95000
C  -3.09400 34.51800 31.47000
C  -2.26300 35.88300 31.32500
C  -2.01600 36.00100 29.78400
C  -2.88600 37.20500 31.86700
C  -2.53900 33.38300 32.39300
C  -1.32700 33.72000 33.17900
H  -1.10400 32.84200 34.37100
N  -1.20600 36.41000 26.89100
C  -0.83100 37.21800 27.95300
C  0.02800 38.25400 27.52000
C  0.17000 38.14500 26.09800
C  -0.75100 37.04700 25.75300
C  0.63000 39.22900 28.42400
C  1.00500 38.99700 25.17700
O  1.04300 38.76900 23.97100
C  1.90000 40.00000 25.77200
N  -2.88000 34.90000 24.78100
C  -2.14100 35.68000 23.93800
C  -2.35900 35.46200 22.44000
C  -3.26000 34.16800 22.53700
C  -3.48800 33.90000 24.01500
C  -3.07400 36.65000 21.70400
C  -2.67700 32.87200 21.76300
C  -1.78600 31.93300 22.59200
N  -3.85300 33.21400 26.94800
C  -4.41100 32.48200 25.89700
C  -5.32700 31.51600 26.52300
C  -5.03700 31.54600 27.87400
C  -4.24600 32.63200 28.11200
C  -6.23700 30.61300 25.61500
C  -5.35300 30.92800 29.15500
O  -5.99300 29.94100 29.45900
C  -4.78600 31.92300 30.30000
C  -6.01800 32.34300 30.99300
O  -6.81500 33.16900 30.49100
O  -6.03800 31.80800 32.24700
C  -6.98800 32.43900 33.20400
H  -0.95400 37.72000 30.04300
H  -0.99400 37.45000 23.65200
H  -4.73500 32.28700 23.73600
H  -4.07500 34.75200 31.88300
H  -1.26000 35.74900 31.73100
H  -3.80900 37.09800 32.43700
H  -3.08700 37.86200 31.02000
H  -2.20900 37.74900 32.52600
H  -2.16900 32.59000 31.74300
H  -3.29500 32.88600 33.00000
H  -1.34200 34.74300 33.55500
H  -0.52500 33.51700 32.46900
H  1.71200 39.14900 28.32300
H  0.27800 39.24200 29.45600
H  0.34000 40.20700 28.04100
H  1.21700 40.78100 26.10700
H  2.52700 40.45400 25.00400
H  2.56300 39.61100 26.54400
H  -1.42300 35.26300 21.91800
H  -4.24800 34.28800 22.09300
H  -3.79300 36.32100 20.95400
H  -2.35600 37.28600 21.18600
H  -3.39200 37.27700 22.53700
H  -2.30100 33.16500 20.78300
H  -3.59700 32.32700 21.55100
H  -1.43400 32.51000 23.44800
H  -0.97700 31.72600 21.89100
H  -2.30100 31.01000 22.85800
H  -5.62500 29.93300 25.02300
H  -6.84700 31.19400 24.92300
H  -6.63000 30.00900 26.43400
H  -4.25300 31.24900 30.97200
H  -6.40300 32.83500 34.03400
H  -7.66500 31.72800 33.67900
H  -7.55800 33.27600 32.80000

