158

Mg 29.99900 58.32100 39.39300
C  27.10300 56.43200 38.70100
C  31.83700 55.57600 38.67600
C  32.66500 60.29800 39.40400
C  27.86200 61.05000 40.07000
N  29.52600 56.24400 38.73700
C  28.26700 55.71700 38.56100
C  28.38800 54.17200 38.24200
C  29.85200 53.84600 38.57800
C  30.45600 55.26100 38.72700
C  30.17900 52.98500 39.81400
C  27.97800 53.66100 36.86000
C  28.69300 54.17900 35.63300
H  27.79500 54.63400 34.52600
N  32.05900 58.01300 39.09300
C  32.64300 56.76400 38.81500
C  34.08600 56.91200 38.66300
C  34.29600 58.34200 38.66800
C  32.99100 58.95700 39.04100
C  34.99100 55.78600 38.36000
C  35.55000 59.07900 38.35600
O  36.57500 58.46700 38.14800
C  35.50800 60.55600 38.31100
N  30.18000 60.37900 39.67600
C  31.43900 60.90600 39.66300
C  31.36900 62.45600 40.06800
C  29.87300 62.65100 40.42700
C  29.23100 61.31000 40.05600
C  32.44900 62.94400 41.09900
C  29.20100 63.86200 39.80200
C  28.22900 64.69300 40.67700
N  27.89200 58.66800 39.45500
C  27.16600 59.84900 39.69000
C  25.78700 59.62700 39.60400
C  25.62700 58.24200 39.22300
C  26.98800 57.72300 39.16200
C  24.71900 60.51200 39.95200
C  24.70400 57.12200 38.88300
O  23.49400 56.97700 38.79300
C  25.72100 55.87800 38.62100
C  25.54700 54.91000 39.76800
O  25.83400 55.04400 40.88700
O  24.98900 53.67100 39.29200
C  24.74500 52.68600 40.31700
H  32.46100 54.68400 38.59700
H  33.50800 60.99200 39.39700
H  27.22000 61.84300 40.45900
H  27.80200 53.70900 39.03700
H  30.36200 53.29000 37.79200
H  30.84300 53.45400 40.54000
H  30.70800 52.11500 39.42400
H  29.25200 52.54400 40.18000
H  26.89600 53.74300 36.76200
H  28.23900 52.60300 36.82200
H  29.26900 53.40300 35.12900
H  29.47000 54.92200 35.80900
H  35.99600 56.18500 38.50200
H  34.84700 55.47900 37.32500
H  34.93900 54.89800 38.99000
H  35.45500 61.10700 39.25000
H  34.71800 60.67500 37.56900
H  36.44800 60.76600 37.80100
H  31.47800 63.00700 39.13400
H  29.80800 62.83800 41.49900
H  33.16000 62.14200 41.30100
H  31.91200 63.11800 42.03100
H  32.74600 63.90200 40.67100
H  28.62200 63.57100 38.92500
H  29.98700 64.56200 39.51800
H  27.38800 64.96900 40.04100
H  28.77000 65.60400 40.93400
H  27.88000 64.10800 41.52800
H  23.86000 60.16500 39.37900
H  25.02100 61.52800 39.70000
H  24.34300 60.54500 40.97500
H  25.45100 55.44400 37.65800
H  23.75100 52.31000 40.07500
H  24.91800 52.95000 41.36000
H  25.42100 51.83200 40.28000
Mg -11.87800 16.69600 41.14700
C  -8.73500 15.07300 40.78700
C  -10.31900 19.61900 40.05900
C  -14.76700 17.82600 40.18000
C  -13.24700 13.49200 41.75400
N  -9.74600 17.25000 40.61400
C  -8.66600 16.45400 40.52800
C  -7.39700 17.35000 40.30700
C  -7.85700 18.85100 40.52000
C  -9.44900 18.56300 40.41400
C  -7.45800 19.56700 41.85500
C  -6.97600 17.13900 38.81100
C  -5.51600 16.59800 38.69100
H  -4.64700 17.09100 37.52300
N  -12.42600 18.62700 40.44500
C  -11.70300 19.65600 39.95700
C  -12.49400 20.72100 39.51000
C  -13.79100 20.13200 39.33200
C  -13.69100 18.78300 39.98000
C  -12.10100 22.15100 39.02300
C  -15.00900 20.69900 38.60200
O  -14.98100 21.89300 38.26000
C  -16.33200 19.94600 38.23900
N  -13.81900 15.76500 41.09900
C  -14.83000 16.51700 40.72300
C  -16.09600 15.60500 40.87100
C  -15.63500 14.17000 41.31800
C  -14.14200 14.43700 41.44300
C  -17.15900 16.35800 41.74200
C  -15.96500 12.98200 40.39900
C  -16.51800 11.69500 41.08600
N  -11.19800 14.70400 41.33900
C  -11.85900 13.56300 41.65200
C  -10.97900 12.43200 41.72900
C  -9.73700 13.02300 41.36600
C  -9.90600 14.38800 41.11800
C  -11.29400 11.00700 42.22800
C  -8.29200 12.68800 41.07700
O  -7.68800 11.59800 41.13300
C  -7.62300 14.05700 40.66800
C  -6.72500 14.31300 41.84000
O  -7.00000 14.32500 43.05500
O  -5.48200 14.44900 41.30800
C  -4.49500 15.16500 42.04800
H  -9.90000 20.58000 39.75300
H  -15.73900 18.28100 39.97800
H  -13.63500 12.47200 41.72200
H  -6.64800 17.19100 41.08300
H  -7.51900 19.44700 39.67200
H  -6.91000 18.84000 42.45400
H  -8.33700 19.86400 42.42700
H  -6.80800 20.42400 41.68000
H  -7.04000 18.04300 38.20600
H  -7.53200 16.39700 38.23900
H  -5.57400 15.51300 38.60400
H  -5.06100 16.89800 39.63500
H  -12.45200 22.22000 37.99300
H  -11.01200 22.15600 39.00200
H  -12.41400 22.89400 39.75700
H  -16.88600 20.56200 37.53100
H  -16.96100 19.74500 39.10600
H  -16.13100 19.01100 37.71500
H  -16.63800 15.46200 39.93600
H  -15.94900 13.85800 42.31400
H  -16.79000 17.29400 42.16200
H  -17.54200 15.65000 42.47700
H  -17.99900 16.54100 41.07300
H  -15.03400 12.68600 39.91600
H  -16.72200 13.17400 39.63800
H  -15.71500 10.97100 41.22300
H  -17.14800 11.13500 40.39500
H  -16.93400 11.85100 42.08200
H  -11.99000 10.56000 41.51800
H  -11.76200 11.05300 43.21100
H  -10.38300 10.41000 42.20200
H  -7.11600 14.01200 39.70500
H  -4.23300 16.03800 41.45100
H  -3.62600 14.50700 42.08000
H  -4.90800 15.40000 43.02900

