158

Mg 27.33600 50.27600 26.55900
C  25.45900 51.22400 29.43300
C  29.79700 49.35300 28.63700
C  28.95100 49.40600 23.82800
C  24.64800 51.43700 24.54800
N  27.53500 50.26100 28.81500
C  26.72300 50.72600 29.82300
C  27.26200 50.32100 31.16700
C  28.77000 49.88100 30.90300
C  28.66600 49.74800 29.35600
C  29.77900 50.95300 31.46100
C  26.42800 49.16600 31.87300
C  26.01100 49.49600 33.34000
H  26.96600 50.03000 34.42900
N  29.08900 49.47700 26.30300
C  29.99100 49.15600 27.18600
C  31.25000 48.70500 26.61100
C  31.01600 48.72500 25.23500
C  29.62900 49.18800 25.08200
C  32.45300 48.18400 27.32800
C  31.91300 48.43000 24.05000
O  31.62200 48.62900 22.86800
C  33.17400 47.77100 24.39500
N  26.87500 50.56200 24.48100
C  27.78700 50.11100 23.51000
C  27.15500 50.23400 22.10900
C  25.73000 50.80500 22.41800
C  25.70400 50.92800 23.91400
C  27.98400 51.14100 21.18700
C  24.50200 49.85200 21.96300
C  23.40600 50.61300 21.25700
N  25.43500 51.25600 26.84000
C  24.46100 51.58700 25.95300
C  23.32600 52.08500 26.66900
C  23.64700 51.96000 28.04200
C  24.90800 51.44600 28.08500
C  22.13500 52.70300 26.05400
C  23.13900 52.14000 29.38900
O  22.05400 52.54200 29.72300
C  24.32900 51.75600 30.38000
C  24.85400 52.93800 31.14600
O  25.34300 53.94200 30.67400
O  24.61000 52.83600 32.47800
C  25.10500 53.88500 33.39400
H  30.65600 49.04500 29.23500
H  29.43100 48.93800 22.96600
H  23.76400 51.59300 23.92700
H  27.15000 51.13000 31.88900
H  28.97300 48.95200 31.43600
H  29.31900 51.71600 32.09000
H  30.14100 51.44300 30.55700
H  30.68100 50.54300 31.91500
H  27.05200 48.32700 32.18200
H  25.59000 48.86400 31.24500
H  25.83300 48.50200 33.75100
H  25.07700 50.05700 33.33500
H  32.45300 48.15500 28.41800
H  33.34200 48.79400 27.17000
H  32.72900 47.18000 27.00700
H  33.06100 46.83200 24.93600
H  33.76400 48.49000 24.96300
H  33.70300 47.65600 23.45000
H  26.96100 49.23400 21.72000
H  25.64400 51.82800 22.05000
H  28.20500 50.58600 20.27500
H  28.92600 51.14000 21.73500
H  27.61800 52.15800 21.04500
H  24.17100 49.29100 22.83600
H  24.90600 49.20500 21.18500
H  23.74400 50.64700 20.22200
H  23.28400 51.63000 21.63100
H  22.41400 50.16100 21.22800
H  21.56300 53.13600 26.87500
H  21.52000 52.03500 25.45200
H  22.52100 53.59100 25.55400
H  24.08200 50.91100 31.02200
H  25.00300 54.82500 32.85100
H  26.15800 53.74500 33.63600
H  24.54100 54.10400 34.30100
Mg -1.59600 34.16900 26.55300
C  -3.43500 32.61600 29.15500
C  0.09900 36.01200 28.94200
C  -0.35800 35.94100 24.13000
C  -3.96100 32.80700 24.31800
N  -1.67900 34.30800 28.81800
C  -2.41800 33.49700 29.62900
C  -2.06500 33.69900 31.05900
C  -0.98900 34.89800 31.00600
C  -0.76900 35.04200 29.51200
C  -1.41500 36.25700 31.66900
C  -1.45000 32.38300 31.66800
C  -2.18900 31.94800 32.92700
H  -1.49200 32.03000 34.27300
N  -0.10500 35.64400 26.50500
C  0.45300 36.23100 27.57100
C  1.45000 37.16600 27.10900
C  1.33100 37.14900 25.69700
C  0.24100 36.29200 25.34900
C  2.31200 38.01400 28.07100
C  2.17800 37.88700 24.71700
O  2.00500 37.91500 23.52300
C  3.28900 38.67000 25.23400
N  -2.07100 34.28900 24.51500
C  -1.31700 35.03400 23.73200
C  -1.70800 34.92100 22.25400
C  -2.87800 33.86100 22.32200
C  -3.05100 33.69600 23.80100
C  -2.21400 36.28900 21.60500
C  -2.55300 32.49900 21.56000
C  -1.46300 31.68800 22.04800
N  -3.18900 32.89000 26.61100
C  -3.97000 32.34500 25.62700
C  -4.79500 31.30200 26.21700
C  -4.67100 31.51300 27.59300
C  -3.64800 32.46100 27.77900
C  -5.87300 30.52400 25.55300
C  -5.26100 31.05600 28.77400
O  -6.11400 30.24700 28.96200
C  -4.45900 31.70000 29.86300
C  -5.46100 32.39100 30.68500
O  -6.23400 33.23700 30.15000
O  -5.43100 32.02100 32.00300
C  -6.36500 32.58100 32.92500
H  0.57800 36.61100 29.71900
H  0.21100 36.38600 23.31100
H  -4.68900 32.29900 23.68200
H  -2.95800 33.96700 31.62400
H  -0.06400 34.66700 31.53400
H  -2.31300 36.59200 31.15100
H  -0.61400 36.99400 31.72900
H  -1.71000 36.12400 32.71000
H  -0.37100 32.53500 31.62700
H  -1.68400 31.52500 31.03700
H  -2.43100 30.88800 32.85100
H  -3.11600 32.52200 32.94800
H  3.34200 37.66300 28.00600
H  2.08200 37.90000 29.13000
H  2.22700 39.07900 27.85700
H  3.10200 39.52600 25.88200
H  3.71400 39.17200 24.36500
H  4.00200 37.94200 25.62100
H  -0.84700 34.53600 21.70900
H  -3.79500 34.35100 21.99500
H  -2.00100 36.25200 20.53700
H  -1.55100 37.09300 21.92200
H  -3.28700 36.45400 21.69900
H  -2.48100 32.68500 20.48800
H  -3.44200 31.87000 21.61900
H  -0.97100 32.17400 22.89000
H  -0.68500 31.47300 21.31500
H  -1.86600 30.72500 22.35900
H  -5.45300 29.84600 24.81000
H  -6.64100 31.17900 25.14200
H  -6.29600 29.85200 26.30100
H  -4.07300 30.82800 30.39100
H  -6.94900 31.73200 33.28100
H  -7.05900 33.37100 32.63900
H  -5.74300 32.92100 33.75400

