158

Mg 16.49300 -2.12500 28.30200
C  15.59300 0.22300 30.87800
C  18.19500 -3.83500 30.61500
C  17.63900 -3.96500 25.75600
C  14.43900 -0.19500 26.08500
N  16.96000 -1.64800 30.49000
C  16.37700 -0.78500 31.35100
C  16.76400 -1.03800 32.80100
C  17.76700 -2.31400 32.66700
C  17.63000 -2.65900 31.15900
C  19.20900 -2.08100 33.16900
C  15.56800 -1.52000 33.68800
C  15.51000 -0.83400 35.07800
H  16.70800 -0.10100 35.70100
N  17.74800 -3.73500 28.23900
C  18.36500 -4.33400 29.29300
C  19.14000 -5.44100 28.85700
C  18.97200 -5.52400 27.43800
C  18.11400 -4.36700 27.07200
C  19.87400 -6.29900 29.87600
C  19.53500 -6.53600 26.40700
O  19.38900 -6.40400 25.22200
C  20.29400 -7.78200 26.94600
N  15.99900 -2.09200 26.23000
C  16.70800 -2.94400 25.39500
C  16.52300 -2.52500 23.87100
C  15.25900 -1.56000 24.02100
C  15.15500 -1.25000 25.51400
C  17.71000 -1.78100 23.32800
C  13.89300 -2.12700 23.46400
C  13.07700 -1.22300 22.56300
N  15.33300 -0.27100 28.39400
C  14.59400 0.33900 27.40800
C  13.84300 1.47600 27.99400
C  14.22000 1.44000 29.37300
C  15.09800 0.35400 29.55900
C  12.78900 2.29700 27.33800
C  13.94500 2.05500 30.67400
O  13.18400 3.01400 30.92900
C  14.74300 1.23300 31.74600
C  15.62800 2.16300 32.43200
O  16.74300 2.61900 32.18900
O  15.05900 2.42300 33.66600
C  15.59700 3.62300 34.36100
H  18.70900 -4.47400 31.33600
H  18.05800 -4.41300 24.85300
H  13.78900 0.33300 25.38400
H  17.20200 -0.17200 33.29800
H  17.45200 -3.25200 33.12400
H  19.33200 -2.64800 34.09200
H  19.26000 -0.99900 33.29700
H  19.92800 -2.43200 32.42900
H  15.72900 -2.57900 33.89000
H  14.67500 -1.48700 33.06300
H  15.22500 -1.66900 35.71800
H  14.66200 -0.15300 35.00900
H  19.14100 -6.93700 30.37000
H  20.30400 -5.62100 30.61300
H  20.69200 -6.92100 29.51200
H  21.17500 -7.47400 27.51000
H  20.59400 -8.43200 26.12400
H  19.60600 -8.35400 27.56900
H  16.35100 -3.44000 23.30500
H  15.43700 -0.66100 23.43000
H  18.44100 -1.71800 24.13500
H  17.43900 -0.83300 22.86400
H  18.19900 -2.31300 22.51200
H  13.34600 -2.47900 24.33900
H  14.15400 -3.07100 22.98700
H  12.87500 -1.72600 21.61700
H  13.70200 -0.42500 22.16100
H  12.25500 -0.69800 23.05000
H  11.95100 2.41000 28.02500
H  12.39300 1.93900 26.38700
H  13.14000 3.30000 27.09500
H  14.03100 0.68500 32.36400
H  15.59800 4.47900 33.68700
H  16.60900 3.48000 34.74100
H  15.03900 3.79600 35.28100
Mg 26.98600 49.62500 25.71200
C  25.22200 50.87300 28.61700
C  29.52900 48.45900 27.91100
C  28.90400 48.99200 23.06800
C  24.73700 51.30500 23.70300
N  27.42100 49.87400 27.97700
C  26.44100 50.20600 28.95700
C  26.93600 49.81300 30.38400
C  28.47800 49.39000 30.15600
C  28.53200 49.23300 28.55800
C  29.51900 50.57200 30.54900
C  25.94800 48.83000 31.06400
C  25.48300 49.11000 32.52100
H  26.46900 49.51500 33.54700
N  28.78100 48.56900 25.53000
C  29.66300 48.15100 26.54700
C  30.85300 47.56700 25.91700
C  30.73200 47.83100 24.49400
C  29.44700 48.49800 24.31500
C  31.88200 46.78900 26.65300
C  31.69700 47.46200 23.40700
O  31.53500 47.77200 22.22700
C  32.96100 46.80500 23.67600
N  26.89000 50.20000 23.63700
C  27.76300 49.76000 22.75800
C  27.34700 50.03600 21.30400
C  25.91800 50.75100 21.59200
C  25.82100 50.72900 23.09200
C  28.29500 50.95300 20.56100
C  24.71600 50.10400 20.86800
C  24.23300 48.66200 21.18100
N  25.30000 50.83600 26.07500
C  24.50700 51.41600 25.10300
C  23.48400 52.09600 25.75400
C  23.65900 51.86800 27.08800
C  24.85100 51.18500 27.26400
C  22.26800 52.84000 25.17300
C  23.13400 52.08200 28.50200
O  22.07600 52.65100 28.77900
C  24.14300 51.38700 29.46700
C  24.49700 52.32500 30.57900
O  25.38200 53.10200 30.62800
O  23.67200 52.12100 31.61800
C  23.87200 53.07500 32.74700
H  30.23300 48.11600 28.67100
H  29.55200 48.80500 22.20900
H  24.06500 51.81900 23.01300
H  26.97900 50.74500 30.94700
H  28.80900 48.51500 30.71400
H  29.97400 51.02700 29.66800
H  30.34400 50.12900 31.10600
H  29.02200 51.35800 31.11800
H  26.27900 47.79100 31.03800
H  25.08800 48.90700 30.39800
H  25.10600 48.15100 32.87600
H  24.66700 49.82700 32.43400
H  32.11200 45.80200 26.25200
H  31.44800 46.64000 27.64200
H  32.82600 47.32700 26.74600
H  33.44500 47.38000 24.46500
H  33.55500 46.63800 22.77700
H  32.77100 45.86000 24.18600
H  27.19100 49.01800 20.94700
H  25.96600 51.82400 21.40600
H  28.50200 50.53400 19.57600
H  29.18900 51.20400 21.13300
H  27.92700 51.95100 20.32300
H  24.92800 50.04200 19.80100
H  23.95100 50.88100 20.85100
H  24.78100 47.92600 20.59300
H  23.21000 48.43400 20.88000
H  24.34300 48.39700 22.23300
H  22.56400 53.76500 24.68000
H  21.48900 52.99600 25.92000
H  21.74600 52.27700 24.39900
H  23.68900 50.52700 29.95900
H  24.58400 52.59300 33.41800
H  22.91700 53.07000 33.27200
H  24.27500 54.03500 32.42500

