158

Mg 2.55100 -0.40100 43.84700
C  5.88100 0.73400 43.31400
C  1.42500 2.26600 42.10600
C  -0.44800 -1.99700 43.49800
C  3.95300 -3.45800 45.00600
N  3.57200 1.28600 42.87300
C  4.91500 1.67200 42.81200
C  5.08100 3.09700 42.42300
C  3.62700 3.54500 42.07000
C  2.78600 2.25800 42.39600
C  3.08000 4.65500 42.96000
C  6.10000 3.17100 41.23400
C  5.90300 2.22100 40.07100
H  6.15300 2.69600 38.64300
N  0.68600 0.08900 42.97000
C  0.47500 1.24100 42.33900
C  -0.91100 1.23600 42.00400
C  -1.56900 0.10900 42.48100
C  -0.43200 -0.70300 42.92000
C  -1.57600 2.46200 41.31300
C  -3.03300 -0.09800 42.59500
O  -3.77200 0.88000 42.35800
C  -3.54900 -1.39300 43.13100
N  1.81200 -2.44100 44.15000
C  0.52700 -2.76100 44.06900
C  0.25600 -4.23900 44.55000
C  1.62700 -4.61600 45.25000
C  2.55600 -3.42700 44.78400
C  -1.15200 -4.49000 45.34900
C  2.14200 -6.02800 44.92600
C  2.29600 -7.14400 46.04600
N  4.52200 -1.23200 44.24000
C  4.86200 -2.51800 44.70100
C  6.33500 -2.54500 44.86500
C  6.78200 -1.31200 44.30200
C  5.61800 -0.57500 43.90000
C  7.19100 -3.54600 45.56700
C  7.93200 -0.49900 43.98300
O  9.12600 -0.77700 44.13800
C  7.38100 0.86200 43.49200
C  7.59800 1.98100 44.49000
O  7.40800 1.88300 45.68700
O  8.36300 3.03200 43.94500
C  8.80700 4.10300 44.87400
H  1.10800 3.15600 41.55800
H  -1.44700 -2.40300 43.66800
H  4.36000 -4.39300 45.39700
H  5.51200 3.60300 43.28700
H  3.44700 3.69800 41.00500
H  3.20100 5.60600 42.44200
H  3.72500 4.63300 43.83900
H  2.05000 4.56900 43.30600
H  7.13800 3.08200 41.55700
H  6.05100 4.21000 40.91000
H  4.87100 1.90200 39.92400
H  6.68400 1.47200 40.20100
H  -2.03600 3.02300 42.12600
H  -2.27200 2.22500 40.50800
H  -0.87400 3.15200 40.84500
H  -4.63000 -1.24700 43.14100
H  -3.27200 -1.71600 44.13500
H  -3.25400 -2.12500 42.38000
H  0.07500 -4.78600 43.62500
H  1.46000 -4.52000 46.32300
H  -1.74400 -3.58000 45.44400
H  -0.96800 -4.77100 46.38600
H  -1.75800 -5.26200 44.87600
H  3.14200 -6.03200 44.49200
H  1.48400 -6.30000 44.10200
H  1.89200 -6.81700 47.00500
H  3.36100 -7.25300 46.24900
H  1.64800 -7.98200 45.78900
H  6.92700 -4.51400 45.14200
H  7.00600 -3.44200 46.63600
H  8.25400 -3.33300 45.45100
H  7.84800 1.12500 42.54300
H  9.10100 4.99300 44.31800
H  9.74800 3.91600 45.39200
H  8.11900 4.46800 45.63700
Mg 26.81100 50.50300 25.67800
C  24.98500 51.39600 28.53500
C  29.27000 49.18400 27.88900
C  29.00300 50.03900 23.13700
C  24.56200 51.91600 23.64400
N  27.08700 50.31900 27.98900
C  26.18100 50.80900 28.93600
C  26.61200 50.47400 30.35700
C  28.04700 49.78400 30.04300
C  28.11600 49.73100 28.56900
C  29.25900 50.57100 30.64600
C  25.62600 49.55200 31.06400
C  25.20700 50.10600 32.39500
H  25.19400 49.10600 33.59900
N  28.86900 49.70400 25.48700
C  29.67400 49.16900 26.54600
C  30.95200 48.76600 25.98200
C  30.92100 49.04900 24.61000
C  29.55800 49.67900 24.33100
C  32.04100 48.17200 26.81300
C  31.86400 48.83000 23.51500
O  31.76600 49.35000 22.39100
C  33.09100 48.01700 23.80800
N  26.77200 51.02800 23.64600
C  27.76700 50.72100 22.81000
C  27.22700 50.82300 21.42300
C  25.95100 51.61300 21.59300
C  25.65900 51.41100 23.07600
C  28.18400 51.53100 20.48400
C  24.73000 51.25100 20.64100
C  24.06900 49.95900 20.91900
N  25.08200 51.48200 25.99200
C  24.26800 52.07200 25.05800
C  23.14000 52.73900 25.67200
C  23.37000 52.49000 27.06200
C  24.56100 51.69800 27.20400
C  22.04900 53.39100 24.89300
C  22.88500 52.73800 28.40700
O  21.91500 53.35600 28.70600
C  23.90500 52.04000 29.38400
C  24.42900 52.99300 30.41000
O  25.44700 53.58000 30.29400
O  23.63500 52.99200 31.50700
C  24.10000 53.83300 32.62000
H  30.07100 48.83600 28.54400
H  29.53200 49.71200 22.24000
H  23.83400 52.39500 22.98600
H  26.85700 51.38500 30.90200
H  28.00900 48.76900 30.44000
H  29.04100 51.00600 31.62100
H  29.70000 51.30700 29.97400
H  30.01300 49.78300 30.65300
H  26.13600 48.62300 31.32000
H  24.79100 49.36300 30.39000
H  24.20400 50.52400 32.31000
H  25.87600 50.91700 32.68500
H  31.79300 47.98600 27.85800
H  32.87400 48.87200 26.88000
H  32.40300 47.24000 26.37900
H  33.79800 48.65900 24.33200
H  33.44100 47.54800 22.88800
H  32.94000 47.18400 24.49600
H  27.02500 49.81000 21.07400
H  26.24200 52.65600 21.47000
H  27.75000 52.37000 19.94100
H  28.39100 50.90900 19.61300
H  29.11000 51.70900 21.03100
H  25.05600 51.29600 19.60200
H  24.01900 52.04600 20.87000
H  23.00400 50.15500 21.03800
H  24.41300 49.40800 21.79400
H  24.16900 49.29400 20.06100
H  22.55100 54.31500 24.60800
H  21.18600 53.51800 25.54700
H  21.84000 52.85200 23.96900
H  23.42100 51.35100 30.07500
H  24.32100 54.86000 32.32900
H  25.02800 53.36000 32.94200
H  23.38000 53.90800 33.43400

