158

Mg 16.47000 -1.95000 28.30100
C  15.72000 0.14900 30.99900
C  18.54000 -3.79400 30.23400
C  17.86500 -3.55700 25.43300
C  14.99300 0.30900 26.15100
N  17.16900 -1.66700 30.35400
C  16.60700 -0.84800 31.28400
C  17.12200 -1.27500 32.68900
C  18.13300 -2.42600 32.42800
C  17.94800 -2.70900 30.92000
C  19.60900 -2.43300 32.87800
C  16.00700 -1.63600 33.68500
C  16.05400 -1.02800 35.12100
H  17.33200 -0.47900 35.64800
N  17.93900 -3.55300 27.87200
C  18.63900 -4.15500 28.90500
C  19.32800 -5.32500 28.35300
C  19.01100 -5.39500 26.94400
C  18.20300 -4.17000 26.68100
C  20.12200 -6.30700 29.23300
C  19.36200 -6.51600 26.02900
O  18.98500 -6.50800 24.86400
C  20.22700 -7.68000 26.51000
N  16.36000 -1.76000 26.11600
C  17.06900 -2.40700 25.20700
C  16.87500 -1.82400 23.77100
C  15.93100 -0.71100 23.99300
C  15.71100 -0.72400 25.49700
C  18.17900 -1.57700 22.89300
C  14.60100 -0.71000 23.12200
C  13.43000 -1.31700 23.78900
N  15.44100 -0.20800 28.50000
C  14.81100 0.58100 27.53700
C  14.01700 1.58100 28.16900
C  14.37900 1.48100 29.53600
C  15.26400 0.39100 29.68000
C  13.17300 2.65700 27.50400
C  14.15300 1.99100 30.91900
O  13.42200 2.89500 31.30600
C  15.06200 1.17500 31.88000
C  15.99700 2.13400 32.61600
O  16.93900 2.76400 32.20200
O  15.58000 2.15300 33.90900
C  16.16300 3.23700 34.75400
H  19.06700 -4.44400 30.93700
H  18.41100 -3.96900 24.58200
H  14.63000 1.16400 25.57600
H  17.76400 -0.47500 33.05900
H  17.71200 -3.33000 32.86700
H  20.25900 -2.12500 32.05900
H  19.94100 -3.37000 33.32500
H  19.63600 -1.66100 33.64700
H  15.88700 -2.71600 33.76300
H  15.02300 -1.30000 33.35700
H  15.73000 -1.83300 35.78200
H  15.28200 -0.27700 35.28500
H  21.14200 -6.27900 28.85100
H  19.76200 -7.33000 29.12600
H  20.22300 -6.03000 30.28200
H  20.31600 -8.39500 25.69200
H  19.95900 -8.21300 27.42200
H  21.21900 -7.33200 26.80100
H  16.37800 -2.70900 23.37400
H  16.44800 0.23500 23.83200
H  18.30300 -0.52700 22.62800
H  18.12500 -2.16200 21.97400
H  19.11900 -1.81100 23.39300
H  14.84500 -1.19900 22.17900
H  14.41400 0.32400 22.83200
H  13.62500 -2.19600 24.40200
H  12.74400 -1.63400 23.00400
H  12.97600 -0.56800 24.43800
H  12.13500 2.32300 27.47500
H  13.62200 2.82500 26.52500
H  13.22900 3.52400 28.16200
H  14.34700 0.67000 32.52900
H  15.92200 4.16900 34.24300
H  17.22400 3.10800 34.96800
H  15.68200 3.28100 35.73200
Mg -12.03000 15.88000 42.70500
C  -8.84000 14.56000 41.76900
C  -11.08000 18.89300 41.49800
C  -15.35700 16.75800 42.75300
C  -12.97900 12.45200 43.53700
N  -10.19700 16.57900 41.78600
C  -8.94700 15.93600 41.72600
C  -7.77900 16.94200 41.39000
C  -8.55000 18.33700 41.62200
C  -10.03100 17.94500 41.49900
C  -8.26800 18.97800 43.01400
C  -7.16900 16.75300 39.98900
C  -5.65800 16.72800 39.71500
H  -5.33800 15.51800 38.76200
N  -13.07100 17.58900 42.23700
C  -12.44800 18.70900 41.68500
C  -13.41100 19.64300 41.36400
C  -14.73700 19.06800 41.69500
C  -14.43500 17.77300 42.25400
C  -13.15200 20.94900 40.72700
C  -16.13000 19.68500 41.53900
O  -16.20100 20.86200 41.13900
C  -17.36400 18.92800 41.84100
N  -13.83600 14.85500 43.35500
C  -15.10400 15.46800 43.23900
C  -16.17500 14.54200 43.67400
C  -15.43400 13.16000 43.91100
C  -13.96700 13.49300 43.62500
C  -17.19400 15.08000 44.77100
C  -16.04800 11.92500 43.20000
C  -15.65300 11.76500 41.74900
N  -11.13800 13.92000 42.74600
C  -11.69100 12.67200 43.06500
C  -10.69800 11.67900 42.94000
C  -9.54300 12.35000 42.46100
C  -9.89600 13.67900 42.27000
C  -10.92900 10.23900 43.33500
C  -8.14100 12.23400 42.10600
O  -7.40300 11.32300 42.12300
C  -7.65200 13.62400 41.65200
C  -6.56300 13.87000 42.56500
O  -6.66700 13.90500 43.79600
O  -5.33000 13.99800 41.92000
C  -4.16300 14.14900 42.85300
H  -10.85600 19.96100 41.45100
H  -16.37300 17.11200 42.94200
H  -13.29800 11.45600 43.85200
H  -7.05000 16.80700 42.18900
H  -8.22100 19.01100 40.83100
H  -7.29900 18.71100 43.43700
H  -9.02300 18.84700 43.78900
H  -8.21000 20.06100 42.91000
H  -7.58600 17.39600 39.21300
H  -7.48500 15.73600 39.75800
H  -5.08300 16.58600 40.63000
H  -5.33600 17.63400 39.20100
H  -13.93200 21.17800 40.00100
H  -12.29200 21.01800 40.06100
H  -13.17000 21.84800 41.34200
H  -17.32200 18.03800 41.21300
H  -18.07800 19.68900 41.52400
H  -17.41300 18.84700 42.92700
H  -16.73700 14.32500 42.76600
H  -15.40200 12.94400 44.97900
H  -18.16700 14.66500 44.50800
H  -17.35300 16.15300 44.87300
H  -16.98000 14.73100 45.78200
H  -17.11500 11.88800 43.42200
H  -15.59500 11.07400 43.70900
H  -15.22100 12.73300 41.49300
H  -16.46800 11.47400 41.08600
H  -14.83800 11.04900 41.65100
H  -10.06400 9.58100 43.25400
H  -11.77300 9.82900 42.78000
H  -11.28700 10.16000 44.36200
H  -7.28800 13.57500 40.62600
H  -4.36100 13.47100 43.68300
H  -4.13100 15.18200 43.19900
H  -3.25600 13.92900 42.28900

