158

Mg 8.20300 2.56100 28.32400
C  9.54900 1.05300 31.22400
C  6.31500 4.61100 30.37800
C  7.19500 4.03400 25.60900
C  9.76200 -0.04700 26.45300
N  7.89900 2.64800 30.52800
C  8.65200 2.13800 31.51300
C  8.36800 2.72400 32.87800
C  7.23400 3.72100 32.63800
C  7.11000 3.66200 31.06100
C  5.89800 3.39500 33.37200
C  9.63500 3.41400 33.50200
C  10.12600 3.01600 34.85500
H  9.09000 2.75800 36.03500
N  7.07100 4.21600 27.99400
C  6.29600 4.87200 29.00300
C  5.54600 5.95700 28.29200
C  5.79500 5.85000 26.94600
C  6.69700 4.67100 26.75200
C  4.61900 6.83500 29.02900
C  5.27700 6.72400 25.79000
O  5.69200 6.60100 24.60000
C  4.42000 7.86700 26.03200
N  8.43600 2.10100 26.37200
C  7.96000 2.86600 25.43500
C  8.22000 2.32400 23.96700
C  9.25000 1.14400 24.24200
C  9.15100 1.05200 25.79900
C  6.94300 1.87100 23.14700
C  10.75900 1.37900 23.82200
C  11.33400 2.64000 24.40900
N  9.33400 0.76300 28.72600
C  9.87500 -0.18900 27.87100
C  10.57300 -1.23600 28.62300
C  10.50300 -0.77300 29.92900
C  9.72000 0.44700 29.95200
C  11.28000 -2.47700 28.14100
C  10.92800 -1.01100 31.27200
O  11.58200 -1.95500 31.75300
C  10.32900 0.13100 32.21100
C  9.43600 -0.49800 33.17600
O  8.30600 -0.81900 32.94200
O  9.94500 -0.59900 34.41700
C  9.40800 -1.59200 35.36300
H  5.83200 5.28600 31.08700
H  6.84900 4.43800 24.65600
H  10.24600 -0.77700 25.80000
H  8.16000 1.92000 33.58400
H  7.43200 4.78600 32.75600
H  5.86400 2.42900 33.87500
H  5.10600 3.38200 32.62400
H  5.67200 4.21800 34.05100
H  9.36800 4.44800 33.72200
H  10.48900 3.33700 32.82900
H  10.83400 3.80100 35.12300
H  10.72100 2.11600 34.69900
H  4.84800 7.87100 28.77800
H  4.65300 6.75900 30.11600
H  3.56100 6.66700 28.83200
H  3.54200 7.37000 26.44300
H  4.10700 8.37000 25.11700
H  4.90400 8.66500 26.59500
H  8.63800 3.15000 23.39100
H  8.96300 0.20300 23.77200
H  6.92900 0.82900 22.82900
H  6.95800 2.55400 22.29700
H  6.09900 2.18600 23.76000
H  10.82800 1.53900 22.74600
H  11.38500 0.50500 24.00300
H  12.39400 2.61600 24.66300
H  11.01300 2.86800 25.42500
H  11.19700 3.46500 23.70900
H  11.76000 -2.34500 27.17100
H  10.57400 -3.30000 28.02500
H  12.15900 -2.66400 28.75800
H  11.16300 0.58100 32.75000
H  10.21100 -2.09200 35.90500
H  8.65200 -2.29600 35.01600
H  8.95400 -1.07000 36.20600
Mg -4.73400 25.77200 26.23100
C  -3.34100 27.39800 28.80200
C  -6.70200 23.88100 28.38400
C  -5.62700 23.73100 23.64700
C  -2.74600 27.52000 23.94300
N  -4.93200 25.55200 28.38100
C  -4.33900 26.48500 29.25700
C  -4.69600 26.06000 30.71600
C  -5.59600 24.80800 30.47900
C  -5.80200 24.79900 28.96600
C  -4.91800 23.44100 30.94900
C  -5.36700 27.15900 31.50900
C  -4.99200 27.22900 33.01100
H  -4.70800 25.95400 33.70600
N  -5.98800 24.01600 26.05600
C  -6.80200 23.49600 27.01200
C  -7.65900 22.45000 26.48100
C  -7.31100 22.31000 25.11800
C  -6.29900 23.37000 24.88600
C  -8.80000 21.81000 27.31200
C  -7.92000 21.35600 24.18800
O  -7.56500 21.38200 22.99000
C  -8.90000 20.34500 24.55900
N  -4.20900 25.62600 24.14500
C  -4.71600 24.73800 23.32300
C  -4.37600 25.02000 21.80200
C  -3.53900 26.32300 21.95600
C  -3.53200 26.51600 23.42400
C  -3.64200 23.79900 21.24000
C  -4.05100 27.55000 21.17000
C  -3.02000 28.06200 20.17900
N  -3.37200 27.25200 26.29500
C  -2.65400 27.91300 25.27700
C  -1.68900 28.76300 25.99600
C  -1.91100 28.55300 27.33500
C  -2.96600 27.64600 27.46200
C  -0.63000 29.65700 25.22800
C  -1.47700 28.95600 28.58100
O  -0.55200 29.67900 28.89500
C  -2.38200 28.25100 29.62700
C  -1.57000 27.41900 30.51100
O  -0.84400 26.57100 30.11600
O  -1.80500 27.66900 31.83600
C  -1.09400 26.73900 32.79900
H  -7.24700 23.28200 29.11700
H  -5.93700 23.11700 22.79900
H  -1.92000 27.94200 23.36700
H  -3.73300 25.71800 31.09300
H  -6.53700 24.90600 31.02000
H  -3.88100 23.64500 31.21400
H  -5.02900 22.66800 30.18800
H  -5.42900 23.08700 31.84400
H  -6.45300 27.07500 31.45700
H  -5.17400 28.11400 31.02000
H  -5.88900 27.67700 33.43800
H  -4.18300 27.93400 33.20100
H  -8.75400 20.72700 27.19000
H  -9.76800 22.23200 27.04600
H  -8.68400 21.87600 28.39400
H  -9.38200 19.88500 23.69600
H  -9.75700 20.86600 24.98600
H  -8.59100 19.59000 25.28200
H  -5.32500 25.21000 21.30000
H  -2.51400 26.12900 21.64000
H  -4.41200 23.12900 20.85500
H  -2.98800 23.46800 22.04600
H  -3.08000 24.06000 20.34300
H  -4.36200 28.34100 21.85200
H  -4.98900 27.29700 20.67500
H  -3.39800 28.80300 19.47400
H  -2.40100 27.32900 19.66000
H  -2.31500 28.56400 20.84200
H  -1.15400 30.54900 24.88400
H  -0.29200 29.15900 24.31900
H  0.13800 29.86500 25.97300
H  -2.99900 29.03600 30.06400
H  -0.91600 27.18100 33.78000
H  -0.09400 26.51700 32.42800
H  -1.78700 25.89800 32.78400

