158

Mg 1.48100 -1.23000 44.43500
C  4.87600 -0.83800 43.52500
C  0.70700 1.52500 42.55400
C  -1.72700 -2.04100 44.67900
C  2.42200 -4.25500 45.94400
N  2.62700 0.04400 43.01200
C  4.00400 0.05200 42.93000
C  4.49800 1.13900 41.94800
C  3.17200 2.09900 41.81800
C  2.09100 1.16500 42.50000
C  3.28200 3.47700 42.48100
C  5.05100 0.54900 40.60700
C  6.45700 1.27100 40.19700
H  6.49700 2.15700 39.01600
N  -0.25600 -0.38300 43.76800
C  -0.38400 0.74700 43.05100
C  -1.80400 1.05800 42.76600
C  -2.57200 -0.06100 43.26800
C  -1.51000 -0.86500 43.95400
C  -2.26300 2.31500 42.03200
C  -4.10300 -0.11400 43.24100
O  -4.80800 0.80800 42.84400
C  -4.81700 -1.34300 43.62900
N  0.44400 -2.90700 45.24900
C  -0.91200 -2.94800 45.27100
C  -1.37200 -4.24500 45.91800
C  -0.07400 -4.88200 46.47100
C  1.01500 -4.00600 45.87200
C  -2.62700 -4.18400 46.95000
C  0.14500 -6.45200 46.18800
C  0.57800 -7.16100 47.45400
N  3.23800 -2.33400 44.80100
C  3.47600 -3.51700 45.45500
C  4.86100 -3.85800 45.46700
C  5.47600 -2.73100 44.80700
C  4.39100 -1.90800 44.34700
C  5.46700 -5.05800 46.15000
C  6.71500 -2.14000 44.36700
O  7.88100 -2.46700 44.51400
C  6.34500 -0.81900 43.57300
C  6.84500 0.38300 44.35000
O  6.78500 0.58100 45.54100
O  7.32900 1.34600 43.52200
C  7.87300 2.52800 44.22000
H  0.43400 2.43700 42.01900
H  -2.79900 -2.18700 44.82300
H  2.69800 -5.06800 46.61900
H  5.35300 1.68100 42.35400
H  3.01000 2.06400 40.74000
H  2.97500 4.24800 41.77400
H  4.27400 3.71300 42.86600
H  2.59800 3.51600 43.32900
H  4.26400 0.59000 39.85400
H  5.31900 -0.48800 40.80600
H  7.31400 0.61700 40.03600
H  6.84700 1.85700 41.02900
H  -1.60500 2.35600 41.16300
H  -1.91800 3.08600 42.72100
H  -3.32900 2.34600 41.80700
H  -4.96100 -1.41100 44.70800
H  -4.17900 -2.17000 43.31800
H  -5.76200 -1.53600 43.12200
H  -1.65100 -4.85200 45.05600
H  -0.08600 -4.66000 47.53800
H  -3.04600 -3.18700 47.08800
H  -2.35400 -4.59700 47.92100
H  -3.47000 -4.74400 46.54600
H  0.77500 -6.70800 45.33600
H  -0.82800 -6.91700 46.02900
H  1.44700 -7.72600 47.11800
H  -0.25600 -7.81700 47.70100
H  1.02700 -6.62200 48.28900
H  5.59500 -5.86700 45.43100
H  4.77600 -5.58700 46.80600
H  6.43600 -4.81000 46.58300
H  6.73400 -0.63100 42.57300
H  7.12100 3.17300 44.67400
H  8.50700 3.04800 43.50100
H  8.61700 2.17500 44.93500
Mg 35.19100 1.99100 29.90200
C  33.26300 3.42200 32.17900
C  37.95500 2.16000 32.18500
C  37.32400 1.01000 27.39500
C  32.67500 2.36500 27.38900
N  35.47800 2.58900 31.99800
C  34.47400 3.07700 32.78400
C  34.91800 3.19200 34.24100
C  36.46200 2.95400 34.22500
C  36.69300 2.51400 32.70700
C  37.45400 4.17900 34.68300
C  34.20600 2.16600 35.22800
C  33.54900 2.75900 36.48300
H  34.27200 3.82900 37.19000
N  37.29900 1.52800 29.85500
C  38.23300 1.69200 30.88500
C  39.50300 1.26200 30.38900
C  39.31200 0.83900 28.99300
C  37.94500 1.08000 28.68200
C  40.71700 1.23400 31.25200
C  40.41100 0.38100 28.00300
O  40.18800 0.03200 26.82800
C  41.80500 0.13000 28.55900
N  34.97200 1.58400 27.74000
C  36.03900 1.27000 26.97500
C  35.59500 1.27000 25.51100
C  34.07300 1.32000 25.52000
C  33.87100 1.76300 27.00500
C  36.33100 2.45500 24.73100
C  33.32600 0.05600 25.07900
C  32.38500 0.23300 23.88000
N  33.32200 2.65100 29.78500
C  32.37700 2.67900 28.72400
C  31.19100 3.29100 29.27600
C  31.49900 3.63200 30.57500
C  32.81300 3.15600 30.83200
C  29.95900 3.58900 28.47000
C  30.91700 4.15900 31.77500
O  29.76300 4.54800 31.97100
C  31.99100 3.98100 32.88800
C  32.32700 5.25100 33.52000
O  33.19200 6.12700 33.29100
O  31.33900 5.39400 34.49200
C  31.37300 6.56600 35.39500
H  38.79400 2.17700 32.88400
H  37.91300 0.79800 26.50000
H  31.95900 2.41800 26.56600
H  34.70000 4.23000 34.49000
H  36.84300 2.19200 34.90500
H  36.91000 5.06200 35.01600
H  37.92100 4.66900 33.82900
H  38.27900 3.94800 35.35700
H  34.87200 1.35200 35.51500
H  33.49300 1.62200 34.60800
H  33.28300 2.01400 37.23200
H  32.56900 3.12600 36.17800
H  41.13500 0.23100 31.34700
H  40.60700 1.57500 32.28100
H  41.49000 1.79900 30.73100
H  42.37200 1.05800 28.48300
H  42.34200 -0.55500 27.90300
H  41.87000 -0.40100 29.50800
H  35.93900 0.30100 25.14900
H  33.65100 2.01700 24.79600
H  37.10100 1.98800 24.11800
H  36.88700 3.14200 25.36900
H  35.70100 3.05500 24.07500
H  32.72100 -0.29400 25.91600
H  34.04700 -0.73000 24.85600
H  32.38100 -0.74100 23.39100
H  32.56900 1.02800 23.15800
H  31.39200 0.38800 24.30200
H  29.22800 2.78200 28.52000
H  30.18300 3.79600 27.42300
H  29.42000 4.42500 28.91600
H  31.51600 3.29200 33.58700
H  32.28600 6.62400 35.98900
H  30.64000 6.36700 36.17700
H  31.27500 7.51800 34.87400

