158

Mg 53.88000 24.18800 43.91400
C  51.37100 26.65100 43.16800
C  51.49300 21.89700 43.06900
C  56.27600 21.91500 43.95100
C  56.12800 26.68500 44.67700
N  51.71600 24.39800 43.06800
C  50.92500 25.42900 42.79300
C  49.50500 24.94100 42.49900
C  49.48800 23.51500 43.17600
C  51.00000 23.20900 43.12000
C  48.82100 23.29500 44.58100
C  49.10600 24.88800 41.02300
C  50.06300 24.32300 40.01400
H  50.48100 25.38200 38.96100
N  53.90200 22.20900 43.48800
C  52.80600 21.39600 43.13200
C  53.22500 20.05600 42.89000
C  54.61200 20.04200 43.17600
C  55.00900 21.42800 43.58100
C  52.20400 19.03800 42.32300
C  55.50700 18.84400 42.97800
O  54.95700 17.79600 42.56000
C  57.02600 18.76200 43.19100
N  56.05800 24.38400 43.91200
C  56.78800 23.25900 44.19000
C  58.23100 23.64600 44.59100
C  58.10900 25.17900 44.95700
C  56.70700 25.46300 44.43900
C  58.94900 22.77000 45.72100
C  59.11500 26.05200 44.21400
C  60.25300 26.75200 45.06300
N  53.81400 26.22200 43.94100
C  54.76000 27.04700 44.49900
C  54.10300 28.41900 44.74700
C  52.86300 28.24600 44.13200
C  52.66800 26.90800 43.66300
C  54.84000 29.63500 45.22100
C  51.63500 28.95300 43.80200
O  51.29300 30.09200 44.03300
C  50.64300 27.97000 43.10900
C  50.29000 28.38900 41.77800
O  51.13800 28.57000 40.92400
O  48.93200 28.45500 41.60800
C  48.49800 29.18000 40.32400
H  50.74400 21.10900 43.17100
H  57.06200 21.15900 44.02100
H  56.72500 27.42500 45.21600
H  48.85300 25.63200 43.03400
H  48.87800 22.83800 42.57900
H  49.60100 23.13700 45.32500
H  48.15500 22.44000 44.46900
H  48.18100 24.14900 44.80300
H  48.83700 25.91300 40.76600
H  48.15700 24.35200 40.98800
H  49.53500 23.61400 39.37700
H  50.90300 23.75600 40.41600
H  51.39400 19.57600 41.83100
H  51.67700 18.58700 43.16400
H  52.63600 18.29500 41.65300
H  57.24500 19.29400 44.11700
H  57.59900 19.10300 42.32900
H  57.30400 17.72100 43.35400
H  58.77300 23.33000 43.70000
H  58.05400 25.32600 46.03500
H  58.39000 21.84200 45.84500
H  58.89500 23.38500 46.62000
H  60.00900 22.56100 45.58400
H  58.65900 26.73700 43.50000
H  59.67500 25.37100 43.57400
H  60.59900 27.57300 44.43500
H  61.06500 26.06200 45.29200
H  59.75400 27.08600 45.97300
H  54.78200 29.64900 46.30900
H  54.25400 30.47200 44.84000
H  55.82700 29.71000 44.76500
H  49.79900 27.73700 43.75900
H  47.95300 30.11400 40.46600
H  47.93800 28.59000 39.59900
H  49.37900 29.43300 39.73400
Mg 6.16200 54.76500 42.18600
C  5.70900 51.36500 41.52200
C  9.20900 54.40000 40.62100
C  6.46400 58.08200 42.16600
C  2.86100 54.88500 43.00400
N  7.29400 53.03200 41.07000
C  6.93500 51.78900 40.97800
C  7.94200 50.95400 40.27800
C  9.27900 51.89800 40.43200
C  8.57000 53.21400 40.71400
C  10.43300 51.53700 41.41300
C  7.62000 50.64500 38.69900
C  7.54500 51.78900 37.71100
H  6.30800 51.77500 36.75800
N  7.59900 56.03600 41.38600
C  8.80500 55.71700 40.93200
C  9.71500 56.93800 40.89200
C  8.93600 58.01700 41.36800
C  7.56400 57.42300 41.59800
C  11.16400 56.88100 40.45000
C  9.44200 59.45700 41.51800
O  10.61300 59.79800 41.06800
C  8.53500 60.54200 42.07600
N  4.77100 56.31700 42.34000
C  5.14500 57.65000 42.41200
C  4.07300 58.41600 43.11400
C  2.78200 57.51400 42.98000
C  3.46000 56.13300 42.74900
C  4.46000 58.66100 44.65900
C  1.88400 57.84600 41.79600
C  0.38900 58.24700 42.06700
N  4.59200 53.44800 42.48600
C  3.32400 53.62100 42.90100
C  2.57100 52.38400 43.01600
C  3.55300 51.37000 42.59900
C  4.70500 52.19600 42.16400
C  1.16000 52.26000 43.55100
C  3.87200 49.98100 42.44600
O  3.16300 48.99600 42.60100
C  5.26300 49.94700 41.75000
C  5.16600 49.18600 40.46400
O  4.40200 49.40200 39.52700
O  5.81300 48.01800 40.65700
C  5.65100 46.98600 39.60600
H  10.25000 54.24600 40.32900
H  6.56100 59.14500 42.39500
H  1.80800 54.93900 43.28900
H  8.02200 50.01400 40.82500
H  9.72000 51.90300 39.43500
H  10.39100 52.28200 42.20700
H  11.27300 51.87500 40.80600
H  10.47100 50.50400 41.75900
H  6.72000 50.03300 38.64700
H  8.29400 49.96200 38.18300
H  8.42100 51.57700 37.09800
H  7.60200 52.77400 38.17500
H  11.52200 55.92600 40.06500
H  11.77900 57.08900 41.32500
H  11.34500 57.75000 39.81800
H  7.57000 60.65200 41.58200
H  8.98100 61.53600 42.06200
H  8.31700 60.27300 43.10900
H  4.08500 59.41800 42.68500
H  2.17600 57.54300 43.88500
H  3.69200 58.18800 45.27100
H  4.57600 59.70100 44.96300
H  5.40900 58.14600 44.81000
H  1.88800 57.13200 40.97200
H  2.45600 58.66900 41.36800
H  0.30200 59.04500 42.80500
H  0.03300 57.35900 42.58900
H  -0.07600 58.44300 41.10100
H  0.61500 53.18000 43.33600
H  1.17300 52.04600 44.62000
H  0.65300 51.44700 43.03300
H  5.90700 49.41300 42.44800
H  6.08300 46.01000 39.82700
H  6.17400 47.33600 38.71700
H  4.61400 46.81600 39.31700

