158

Mg 16.80900 -1.94500 27.69800
C  15.85100 0.15700 30.26600
C  18.82300 -3.57300 29.78800
C  17.98700 -3.64000 25.11000
C  14.99900 0.17300 25.41200
N  17.26400 -1.71600 29.75100
C  16.75300 -0.85600 30.63300
C  17.30400 -1.00600 32.05000
C  18.50500 -1.96800 31.85600
C  18.20900 -2.46100 30.40900
C  19.90600 -1.40900 32.02200
C  16.20400 -1.66000 32.96900
C  16.12200 -1.05900 34.36400
H  17.35500 -0.44300 34.95700
N  18.01300 -3.56000 27.49300
C  18.74500 -4.05400 28.49700
C  19.27000 -5.26500 28.04500
C  19.10600 -5.37900 26.68600
C  18.34200 -4.18800 26.35000
C  20.18900 -6.15500 28.96600
C  19.57800 -6.50300 25.66900
O  19.51600 -6.37900 24.45900
C  20.18900 -7.77100 26.24300
N  16.44400 -1.85200 25.57800
C  17.14700 -2.62400 24.70900
C  16.79800 -2.29500 23.21500
C  15.76800 -1.14800 23.32500
C  15.74200 -0.94100 24.88400
C  18.14500 -1.96600 22.54500
C  14.33600 -1.45200 22.79100
C  13.96300 -0.62200 21.50600
N  15.75900 -0.19600 27.74400
C  15.01000 0.53500 26.79800
C  14.19900 1.54400 27.41200
C  14.56100 1.49800 28.77300
C  15.47500 0.41900 28.94700
C  13.19700 2.47000 26.83900
C  14.30200 2.04700 30.06800
O  13.59800 2.94600 30.43400
C  15.15300 1.16600 31.11000
C  16.09300 2.08500 31.91700
O  17.19500 2.46500 31.63700
O  15.37500 2.39700 33.10100
C  16.15900 3.30200 33.98600
H  19.62600 -3.95700 30.42000
H  18.41200 -4.29200 24.34300
H  14.37800 0.74800 24.72200
H  17.57700 -0.04900 32.49400
H  18.41400 -2.85200 32.48800
H  20.50800 -1.98500 32.72500
H  19.86000 -0.44100 32.52100
H  20.49500 -1.29500 31.11200
H  16.44300 -2.72000 33.04800
H  15.20600 -1.55900 32.54300
H  15.65700 -1.84400 34.96100
H  15.38600 -0.25500 34.35100
H  21.19600 -6.08000 28.55600
H  19.98500 -7.22600 28.94000
H  20.12700 -5.97200 30.03800
H  19.52700 -8.07300 27.05500
H  21.15900 -7.41600 26.58900
H  20.22900 -8.52200 25.45400
H  16.31700 -3.15100 22.74000
H  16.22400 -0.21100 23.00700
H  18.95800 -1.85200 23.26100
H  18.13600 -0.94900 22.15400
H  18.34200 -2.67200 21.73800
H  13.52400 -1.30000 23.50100
H  14.31000 -2.44700 22.34600
H  14.89700 -0.37200 21.00100
H  13.50900 0.32000 21.81300
H  13.34700 -1.22600 20.84000
H  13.71700 3.42300 26.74600
H  12.30900 2.73500 27.41400
H  12.68600 2.17400 25.92300
H  14.38500 0.69500 31.72500
H  16.78400 3.99600 33.42400
H  16.68500 2.79500 34.79500
H  15.50800 3.93600 34.58700
Mg 25.45200 1.03100 29.24300
C  27.39600 0.94600 32.23600
C  22.67600 1.16500 31.28900
C  23.59100 0.65800 26.57100
C  28.43100 0.19000 27.47700
N  25.08600 1.04600 31.47100
C  26.03200 1.18100 32.51700
C  25.40600 1.50100 33.85600
C  23.93900 1.35300 33.46400
C  23.86200 1.08600 31.96500
C  23.18700 0.33800 34.33600
C  25.80100 2.93600 34.37500
C  26.50700 2.91900 35.77100
H  25.77900 3.82700 36.80100
N  23.42900 0.97900 28.99500
C  22.42700 1.07600 29.93100
C  21.13500 1.11200 29.23900
C  21.42600 1.00100 27.87600
C  22.83700 0.83900 27.75400
C  19.84800 1.33600 29.93600
C  20.49100 0.97600 26.63200
O  20.83400 0.93000 25.47300
C  18.90600 0.87600 26.83800
N  25.99700 0.42000 27.32300
C  24.95800 0.42400 26.36200
C  25.50600 0.18500 25.01000
C  27.03300 0.39800 25.23600
C  27.25100 0.35800 26.78500
C  25.01100 -1.19500 24.41100
C  27.81000 1.65200 24.71400
C  27.31700 3.00600 25.28400
N  27.53600 0.61900 29.72300
C  28.59300 0.29100 28.91400
C  29.72300 0.18200 29.67000
C  29.34300 0.52100 30.96300
C  27.97200 0.70500 31.00400
C  31.07000 -0.13300 29.15000
C  29.92100 0.87500 32.26800
O  31.05100 0.87000 32.69700
C  28.55700 1.07100 33.15700
C  28.62700 0.10700 34.26800
O  28.10700 -1.03600 34.25300
O  29.18600 0.68300 35.38800
C  29.34400 -0.21000 36.54600
H  21.80400 1.28700 31.93400
H  23.10800 0.52100 25.60100
H  29.33900 0.13500 26.87200
H  25.74700 0.65300 34.45000
H  23.48100 2.33000 33.62100
H  23.83100 -0.37000 34.85900
H  22.63600 -0.36600 33.71200
H  22.60000 0.79800 35.13100
H  24.89600 3.53500 34.47300
H  26.46300 3.45800 33.68400
H  27.44400 3.41200 35.51200
H  26.52100 1.88200 36.10400
H  19.45700 2.34000 29.77200
H  19.99100 1.26900 31.01500
H  19.01500 0.73000 29.58000
H  18.59000 -0.02700 27.36100
H  18.46600 0.93000 25.84300
H  18.68900 1.79300 27.38700
H  25.10000 1.01000 24.42500
H  27.51200 -0.49200 24.82500
H  24.46700 -1.66200 25.23100
H  25.84100 -1.88800 24.27300
H  24.39200 -1.14900 23.51400
H  27.87700 1.73600 23.63000
H  28.87600 1.55800 24.92100
H  26.77000 2.98200 26.22600
H  26.75000 3.47700 24.48100
H  28.19900 3.59900 25.52700
H  31.07900 -0.45900 28.11000
H  31.49800 -0.93900 29.74700
H  31.80000 0.67200 29.23600
H  28.66400 2.04200 33.63900
H  28.61100 0.06300 37.30500
H  30.26000 0.08400 37.05800
H  29.49800 -1.28300 36.43100

