158

Mg 35.56100 2.11000 29.31400
C  33.21900 3.41900 31.61700
C  37.85800 2.03400 31.78700
C  37.92800 1.21000 27.03100
C  33.18400 2.43800 26.87300
N  35.55500 2.70600 31.45700
C  34.45100 3.08300 32.18300
C  34.75500 3.01600 33.65200
C  36.33900 2.94900 33.70800
C  36.62500 2.44500 32.25900
C  37.09600 4.26600 34.07900
C  33.97900 1.84500 34.35900
C  33.87800 1.88200 35.86200
H  34.38100 3.20100 36.51100
N  37.56200 1.59200 29.41500
C  38.33500 1.65500 30.50300
C  39.72100 1.33600 30.23400
C  39.64800 0.89200 28.89200
C  38.26700 1.21300 28.38600
C  40.85800 1.50800 31.21500
C  40.79400 0.31000 28.07300
O  40.75600 -0.06000 26.91900
C  42.03800 0.02500 28.80000
N  35.62300 1.85200 27.20000
C  36.65700 1.49800 26.48800
C  36.30300 1.44400 24.97500
C  34.73100 1.64300 24.99400
C  34.46200 1.93200 26.47900
C  37.17700 2.41500 24.10600
C  33.96400 0.43200 24.32400
C  33.41600 -0.69300 25.16700
N  33.58300 2.79700 29.20500
C  32.76800 2.95300 28.10100
C  31.47400 3.48700 28.49000
C  31.58200 3.70600 29.87600
C  32.89500 3.26400 30.25100
C  30.16900 3.65200 27.72300
C  30.92900 4.17000 31.05900
O  29.86000 4.70500 31.17600
C  31.89800 3.84900 32.27800
C  31.99200 5.08300 33.06900
O  32.50100 6.11500 32.65400
O  31.41200 4.98300 34.33300
C  31.36100 6.18700 35.16000
H  38.61000 2.20200 32.56100
H  38.69600 0.88400 26.32600
H  32.35800 2.38400 26.16000
H  34.42300 3.92700 34.15000
H  36.71000 2.21900 34.42700
H  37.82200 4.05000 34.86200
H  36.38800 4.95700 34.53700
H  37.66600 4.66200 33.23800
H  34.52300 0.92500 34.14600
H  33.00000 1.74200 33.89200
H  34.51200 1.08500 36.25000
H  32.87800 1.55600 36.14600
H  41.02400 0.55300 31.71500
H  40.48500 2.15500 32.00900
H  41.70700 2.07300 30.82900
H  42.69300 0.89500 28.84500
H  42.43100 -0.77300 28.16900
H  41.79400 -0.37100 29.78500
H  36.64600 0.47200 24.62200
H  34.38700 2.52900 24.46000
H  36.60800 3.17200 23.56600
H  37.79400 1.78600 23.46400
H  37.85000 2.97700 24.75300
H  34.53200 0.03500 23.48300
H  33.08000 0.92200 23.91700
H  33.62500 -1.62700 24.64700
H  32.32700 -0.65600 25.16700
H  33.80700 -0.64500 26.18400
H  29.84500 2.66500 27.39500
H  30.21900 4.31100 26.85500
H  29.42300 4.14200 28.35000
H  31.52100 3.00300 32.85300
H  31.96200 7.03800 34.84100
H  31.74100 5.77100 36.09200
H  30.30900 6.44600 35.28600
Mg 25.92200 49.78500 26.16200
C  23.75700 51.14300 28.85500
C  28.05600 48.93800 28.58800
C  27.99600 49.03200 23.70300
C  23.71900 51.24100 23.92900
N  25.83600 50.08200 28.50100
C  24.89000 50.49000 29.38100
C  25.29400 50.19900 30.81700
C  26.70800 49.61900 30.75100
C  26.90400 49.45200 29.15700
C  27.91900 50.29400 31.43100
C  24.24800 49.39800 31.57600
C  23.71100 50.03900 32.90800
H  24.80100 50.45400 33.90900
N  27.75700 48.94000 26.15600
C  28.56200 48.65700 27.27200
C  29.86800 48.18900 26.84700
C  29.82000 48.17000 25.37500
C  28.48400 48.75900 24.99600
C  31.01400 47.78500 27.79800
C  30.93000 47.82400 24.39800
O  30.90100 47.96600 23.16700
C  32.21600 47.13200 25.05000
N  25.89600 50.14700 24.10800
C  26.80400 49.63200 23.26100
C  26.41300 49.77400 21.86300
C  24.96700 50.41900 21.95600
C  24.88800 50.66500 23.45200
C  27.46600 50.69300 21.12200
C  23.88600 49.51400 21.32600
C  22.68200 50.13300 20.63400
N  24.12000 51.01100 26.29500
C  23.39400 51.53300 25.23300
C  22.24800 52.21000 25.79500
C  22.30300 52.02700 27.18100
C  23.50100 51.36100 27.46600
C  21.28900 52.87700 24.88800
C  21.66500 52.31200 28.46500
O  20.57600 52.86000 28.67600
C  22.61600 51.71600 29.61300
C  23.06400 52.76500 30.51000
O  24.03300 53.55300 30.26700
O  22.10700 52.87700 31.55500
C  22.55100 53.92600 32.51500
H  28.75600 48.56800 29.34000
H  28.67000 48.86600 22.86000
H  23.03000 51.59500 23.16000
H  25.36100 51.16500 31.31700
H  26.70100 48.57200 31.05500
H  27.68700 51.30500 31.76800
H  28.77200 50.33400 30.75400
H  28.16300 49.64500 32.27200
H  24.78700 48.53700 31.97300
H  23.52800 48.89200 30.93300
H  23.01700 49.38200 33.43200
H  23.25300 50.97300 32.58000
H  30.62100 47.87500 28.81100
H  31.84400 48.49000 27.78100
H  31.30000 46.73300 27.77700
H  32.02400 46.10200 25.34800
H  32.52000 47.76600 25.88400
H  33.03000 46.99600 24.33800
H  26.46200 48.75600 21.47600
H  24.98400 51.31500 21.33500
H  28.29400 50.87000 21.80700
H  27.09700 51.71500 21.02600
H  27.87100 50.17800 20.25100
H  23.56600 48.80200 22.08600
H  24.42000 48.94300 20.56700
H  21.78500 49.67000 21.04600
H  22.62200 50.16400 19.54600
H  22.69600 51.18100 20.93400
H  20.92400 52.14100 24.17100
H  21.73300 53.68300 24.30400
H  20.44600 53.24000 25.47500
H  22.16600 50.84300 30.08500
H  22.94900 54.81300 32.02300
H  23.23700 53.42800 33.20000
H  21.67400 54.15400 33.12100

