158

Mg -11.97900 38.41600 42.01600
C  -10.02200 35.61800 41.31800
C  -10.11800 40.33000 40.01700
C  -14.48700 40.63900 42.05100
C  -14.34200 36.07300 43.45800
N  -10.40100 37.90200 40.65400
C  -9.61800 36.72500 40.60200
C  -8.37700 36.93500 39.73200
C  -8.32000 38.51600 39.50300
C  -9.67800 38.98000 40.14200
C  -7.12600 39.16800 40.17900
C  -8.34800 36.00700 38.48500
C  -7.05100 35.27500 38.13500
H  -6.30100 35.87600 36.97900
N  -12.15400 40.32800 41.33000
C  -11.28800 40.95500 40.56400
C  -11.72500 42.33700 40.25600
C  -13.07800 42.49000 40.87100
C  -13.32400 41.11800 41.47700
C  -10.87400 43.31800 39.58500
C  -14.00500 43.72200 40.70000
O  -13.50300 44.74800 40.22200
C  -15.43400 43.61600 41.11100
N  -14.23600 38.29400 42.31800
C  -14.84200 39.37300 42.51800
C  -16.37400 39.08600 42.78800
C  -16.23600 37.64800 43.33500
C  -14.87500 37.26600 42.96100
C  -17.09500 40.02800 43.68500
C  -17.34000 36.61500 42.76200
C  -18.46300 36.11300 43.74900
N  -12.17200 36.31100 42.39700
C  -13.06500 35.62200 43.16500
C  -12.51600 34.36500 43.53100
C  -11.29700 34.28000 42.79300
C  -11.17300 35.53800 42.13500
C  -13.11400 33.26000 44.39400
C  -10.22900 33.48100 42.53600
O  -9.77900 32.35700 42.81600
C  -9.44500 34.24600 41.43100
C  -7.99700 34.26300 41.75900
O  -7.11800 33.82900 40.99500
O  -7.72200 34.99300 42.95100
C  -6.32900 35.13800 43.28600
H  -9.52300 40.93000 39.32400
H  -15.32200 41.34100 42.09800
H  -14.96400 35.52200 44.16600
H  -7.54100 36.60300 40.34800
H  -8.24800 38.74500 38.43900
H  -6.47900 38.35900 40.51700
H  -7.41600 39.72200 41.07200
H  -6.60200 39.89200 39.55500
H  -8.57600 36.55400 37.57000
H  -9.14200 35.27400 38.62300
H  -7.42800 34.29400 37.84300
H  -6.33500 35.30000 38.95600
H  -9.86400 42.96100 39.78300
H  -11.10500 44.31100 39.97100
H  -10.97200 43.22800 38.50300
H  -15.92600 42.75700 40.65400
H  -15.93100 44.48800 40.68700
H  -15.64400 43.63200 42.18000
H  -16.97400 39.07600 41.87800
H  -16.40600 37.64300 44.41100
H  -16.55500 40.89200 44.07500
H  -17.26100 39.48800 44.61700
H  -18.08600 40.29400 43.31900
H  -16.83900 35.71500 42.40500
H  -17.78500 36.92600 41.81700
H  -18.63300 35.03700 43.76700
H  -19.40200 36.63900 43.57500
H  -18.14900 36.39700 44.75300
H  -14.06000 32.96000 43.94200
H  -13.36600 33.48400 45.43100
H  -12.35000 32.48300 44.37900
H  -9.50400 33.54800 40.59500
H  -6.39900 35.68500 44.22700
H  -5.91700 35.86200 42.58300
H  -5.76800 34.20400 43.31800
Mg 0.48400 42.98200 25.40300
C  1.78300 43.01300 28.63700
C  -2.40100 41.67800 26.79000
C  -0.63400 42.03200 22.32300
C  3.61400 43.54800 24.10300
N  -0.25700 42.38000 27.55000
C  0.37900 42.70100 28.71600
C  -0.51200 42.41500 29.94200
C  -1.85900 41.96000 29.32300
C  -1.49600 42.01800 27.77600
C  -2.43200 40.59900 29.82200
C  -0.62000 43.77200 30.84300
C  0.09500 43.74100 32.13000
H  -0.75200 43.68400 33.43500
N  -1.31300 42.10600 24.65100
C  -2.36800 41.64900 25.34100
C  -3.42600 41.36800 24.40600
C  -2.90900 41.41500 23.08500
C  -1.54800 41.88100 23.32000
C  -4.76400 41.01200 24.88200
C  -3.56100 41.15700 21.73100
O  -3.02400 41.32200 20.59200
C  -4.99000 40.80900 21.55600
N  1.33400 42.83200 23.52800
C  0.68400 42.39200 22.40100
C  1.55400 42.48300 21.11000
C  2.88400 43.13900 21.60100
C  2.60500 43.16300 23.16700
C  1.83300 41.12300 20.41400
C  3.07700 44.46600 20.86500
C  2.22100 45.64900 21.34300
N  2.27600 43.32100 26.17900
C  3.47500 43.58200 25.50100
C  4.53600 43.79700 26.46900
C  3.88800 43.61500 27.69900
C  2.50700 43.24600 27.47000
C  5.96300 44.10900 26.17900
C  4.12000 43.61600 29.21700
O  5.05500 43.88000 29.89100
C  2.73600 43.21100 29.80500
C  2.93000 42.02800 30.62300
O  2.44700 40.92900 30.40500
O  3.32500 42.38300 31.89400
C  2.91600 41.47900 33.04300
H  -3.38400 41.35400 27.13600
H  -0.95000 41.87200 21.29000
H  4.61600 43.72300 23.70600
H  -0.09900 41.57100 30.49600
H  -2.62000 42.69100 29.59800
H  -2.56700 40.02400 28.90600
H  -3.33900 40.74600 30.40900
H  -1.66300 40.11500 30.42500
H  -1.65300 44.09100 30.98200
H  -0.23700 44.55500 30.18800
H  0.60800 44.70200 32.16600
H  0.93300 43.04300 32.14700
H  -5.56000 41.29100 24.19100
H  -4.87700 41.49900 25.85100
H  -4.79500 39.92900 24.99900
H  -5.53200 41.71000 21.84200
H  -5.17700 39.99800 22.26100
H  -5.34000 40.47000 20.58200
H  0.99000 43.10100 20.41200
H  3.76400 42.50900 21.47400
H  1.89100 40.32600 21.15600
H  2.79000 41.15900 19.89200
H  1.12200 40.87900 19.62400
H  2.73900 44.30300 19.84200
H  4.13600 44.72100 20.82100
H  1.48800 45.31200 22.07600
H  1.65300 46.07800 20.51800
H  2.83100 46.49500 21.66100
H  6.17500 45.17700 26.20900
H  6.22000 43.94500 25.13300
H  6.68000 43.71000 26.89700
H  2.40200 44.08400 30.36600
H  3.90600 41.05500 33.21100
H  2.13800 40.76600 32.77200
H  2.67900 41.99000 33.97700

