158

Mg 17.50700 -2.20800 27.67800
C  16.29700 -0.15700 30.28300
C  19.25800 -4.05200 30.00800
C  18.76100 -4.06900 25.14900
C  15.86700 -0.11700 25.39700
N  17.79300 -2.01900 29.88900
C  17.13500 -1.17600 30.74100
C  17.73200 -1.36400 32.13000
C  18.58500 -2.63500 32.02900
C  18.55400 -2.97100 30.56600
C  19.99300 -2.35900 32.57400
C  16.53300 -1.47600 33.24200
C  16.62700 -0.41400 34.35800
H  17.99800 0.21200 34.71800
N  18.77800 -3.84900 27.59100
C  19.35500 -4.51600 28.67000
C  20.06500 -5.61600 28.15700
C  20.07900 -5.61400 26.77200
C  19.14900 -4.50800 26.45800
C  20.84200 -6.53300 28.99900
C  20.85900 -6.47200 25.82800
O  20.77700 -6.32100 24.59900
C  21.93200 -7.40500 26.20300
N  17.26900 -2.18300 25.56700
C  17.92900 -2.98800 24.71200
C  17.83600 -2.53600 23.28300
C  16.79400 -1.37800 23.31400
C  16.65000 -1.18400 24.84200
C  19.20400 -2.04700 22.67200
C  15.42800 -1.65300 22.53600
C  15.11200 -0.52700 21.46900
N  16.31200 -0.41400 27.71000
C  15.68400 0.28600 26.72600
C  14.91000 1.38400 27.24900
C  15.08500 1.30300 28.68500
C  15.96000 0.17300 28.86300
C  13.95400 2.28400 26.42300
C  14.73300 1.81700 29.99400
O  13.98600 2.77400 30.31700
C  15.56100 0.97800 31.01800
C  16.57300 1.91500 31.62100
O  17.70500 1.97200 31.22600
O  16.03600 2.78900 32.46400
C  16.87100 3.96300 32.87000
H  19.80000 -4.56900 30.80300
H  19.10000 -4.60700 24.26100
H  15.25900 0.45000 24.68900
H  18.31000 -0.44600 32.24500
H  18.19200 -3.45300 32.63300
H  20.81100 -2.83600 32.03400
H  20.05200 -2.84300 33.54900
H  20.18500 -1.28600 32.59700
H  16.40100 -2.49600 33.60200
H  15.61400 -1.32400 32.67700
H  16.26700 -0.89000 35.27000
H  15.90500 0.30700 33.97400
H  20.73100 -6.34900 30.06800
H  21.88300 -6.23100 28.89100
H  20.62500 -7.58000 28.78700
H  22.08400 -8.14200 25.41400
H  21.65300 -8.06000 27.02800
H  22.83000 -6.86300 26.49700
H  17.48600 -3.36500 22.66800
H  17.32400 -0.52700 22.88700
H  19.71300 -2.82100 22.09700
H  19.83000 -1.90300 23.55200
H  19.05000 -1.18500 22.02200
H  14.67100 -1.40500 23.28000
H  15.35100 -2.61600 22.03200
H  14.47000 0.28000 21.82000
H  14.81400 -1.15900 20.63200
H  16.06800 -0.08600 21.18700
H  14.03800 2.12400 25.34800
H  14.11100 3.31000 26.75400
H  12.97400 1.94800 26.76200
H  14.86000 0.58600 31.75400
H  17.15800 4.58400 32.02200
H  17.72000 3.59600 33.44600
H  16.15500 4.61000 33.37700
Mg -11.10100 16.27900 42.24200
C  -7.79700 17.29600 42.28200
C  -11.89500 19.77700 41.47800
C  -14.32600 15.48400 41.50400
C  -10.27500 12.93500 42.39100
N  -9.96000 18.25900 41.78300
C  -8.62900 18.38700 41.98600
C  -8.22200 19.90200 41.81500
C  -9.57800 20.59700 42.10200
C  -10.50900 19.51100 41.75000
C  -9.85100 21.16900 43.57300
C  -7.70900 20.05400 40.32900
C  -6.20000 20.43500 40.10200
H  -5.36800 19.44800 39.26500
N  -12.88000 17.38400 41.47800
C  -12.93600 18.77400 41.32000
C  -14.20500 19.03600 40.73400
C  -14.97300 17.82500 40.65500
C  -14.10300 16.85200 41.24900
C  -14.53600 20.36000 40.27000
C  -16.37800 17.63800 40.03300
O  -16.97500 18.56700 39.52500
C  -17.03800 16.26000 40.00500
N  -12.03700 14.52800 41.74000
C  -13.40100 14.51100 41.81000
C  -13.89100 13.15700 42.43000
C  -12.63500 12.26200 42.10500
C  -11.55200 13.30800 42.06700
C  -14.36700 13.21600 43.86600
C  -12.73000 11.59400 40.76300
C  -12.48100 10.06500 40.88300
N  -9.45200 15.23100 42.53700
C  -9.21500 13.89100 42.46400
C  -7.77400 13.64300 42.56100
C  -7.19600 15.01500 42.66600
C  -8.28300 15.91900 42.45200
C  -7.06300 12.37100 42.58400
C  -5.91700 15.74700 42.71100
O  -4.79000 15.30000 42.90300
C  -6.27700 17.27700 42.61900
C  -5.98800 17.98900 43.95100
O  -6.30200 17.51600 45.02500
O  -5.32600 19.14000 43.70300
C  -5.37600 20.19600 44.73300
H  -12.22500 20.81400 41.38500
H  -15.32400 15.04400 41.46500
H  -9.90700 11.91900 42.54700
H  -7.37000 20.11200 42.46200
H  -9.70000 21.40600 41.38200
H  -8.91400 20.86200 44.03600
H  -10.63300 20.67700 44.15200
H  -9.97100 22.24300 43.42800
H  -8.36300 20.78300 39.85100
H  -7.85300 19.12300 39.78100
H  -5.73900 20.61900 41.07200
H  -6.11200 21.40000 39.60300
H  -14.85800 21.03400 41.06400
H  -15.22000 20.43900 39.42600
H  -13.62200 20.76400 39.83400
H  -18.02800 16.21700 39.55200
H  -17.29700 15.99400 41.03000
H  -16.39300 15.52300 39.52600
H  -14.72600 12.79600 41.83000
H  -12.39800 11.41600 42.75100
H  -15.43300 12.99100 43.86000
H  -14.40400 14.18000 44.37300
H  -13.76800 12.54600 44.48300
H  -12.07300 11.91000 39.95300
H  -13.72800 11.68400 40.33600
H  -13.21400 9.49800 40.30900
H  -12.45100 9.56200 41.84900
H  -11.55600 9.97100 40.31500
H  -7.74600 11.59700 42.23200
H  -6.81000 12.35900 43.64400
H  -6.15300 12.36200 41.98500
H  -5.67700 17.69600 41.81100
H  -4.41700 20.71400 44.70000
H  -5.50600 19.82000 45.74700
H  -6.23600 20.84900 44.58600

