158

Mg -1.54100 18.14300 27.24300
C  -1.94900 16.12400 30.05500
C  -2.46700 20.75900 29.12400
C  -1.19500 20.02600 24.52500
C  -1.48600 15.34400 25.22800
N  -2.24800 18.38000 29.41300
C  -2.13500 17.47600 30.42600
C  -2.51900 18.07000 31.79800
C  -2.85900 19.55600 31.43200
C  -2.54400 19.57700 29.91800
C  -4.33800 19.97200 31.73300
C  -1.24900 17.98500 32.78500
C  -1.50700 17.22900 34.06700
H  -0.26200 16.94000 34.99300
N  -1.53000 20.08900 26.95400
C  -1.89900 21.00600 27.86900
C  -1.71300 22.32900 27.30300
C  -1.24100 22.14200 25.97200
C  -1.36100 20.73900 25.75600
C  -1.83200 23.66100 27.99100
C  -0.78900 23.07800 24.89300
O  -0.46800 22.79900 23.76000
C  -0.63800 24.43000 25.25200
N  -1.18800 17.79500 25.21400
C  -1.14000 18.71300 24.22200
C  -1.03400 18.19200 22.79400
C  -1.04800 16.65000 23.12100
C  -1.24400 16.54400 24.64700
C  -2.16400 18.48700 21.81700
C  0.21400 15.88100 22.62900
C  1.37000 15.94600 23.57900
N  -1.59500 16.06600 27.51000
C  -1.61900 15.05300 26.62000
C  -1.86500 13.78500 27.29800
C  -1.89300 14.13000 28.66500
C  -1.77300 15.55200 28.73900
C  -2.06400 12.40200 26.76300
C  -2.02000 13.56900 29.97800
O  -2.18200 12.40800 30.34300
C  -1.99900 14.84900 30.95000
C  -0.79900 14.68200 31.84900
O  0.19000 15.33500 31.81100
O  -1.08600 13.72800 32.84900
C  -0.04700 13.47800 33.86900
H  -2.85600 21.61100 29.68600
H  -1.11900 20.63000 23.61800
H  -1.38700 14.40200 24.68400
H  -3.37600 17.57900 32.25800
H  -2.29200 20.34600 31.92300
H  -4.94100 20.03700 30.82700
H  -4.24900 20.94900 32.20800
H  -4.91100 19.25500 32.32100
H  -0.93200 18.99600 33.04200
H  -0.38600 17.54200 32.28900
H  -1.84400 16.21100 33.87100
H  -2.27700 17.69300 34.68400
H  -2.43200 23.44000 28.87400
H  -2.31900 24.43200 27.39300
H  -0.87800 24.14900 28.18600
H  0.07000 24.55800 26.07100
H  -1.60900 24.88800 25.43800
H  -0.13200 24.86600 24.39100
H  -0.05700 18.46000 22.39300
H  -1.92300 16.11700 22.74700
H  -3.01800 17.81100 21.80300
H  -1.72000 18.53100 20.82200
H  -2.58600 19.48100 21.95900
H  0.48000 16.39400 21.70500
H  -0.06600 14.84200 22.46100
H  1.20900 16.62200 24.41900
H  2.28000 16.20200 23.03700
H  1.55900 14.99100 24.07100
H  -2.17900 12.32800 25.68200
H  -2.93300 11.99800 27.28200
H  -1.25800 11.69500 26.96000
H  -2.85600 14.96600 31.61300
H  0.82900 14.05100 33.56500
H  0.16000 12.42500 33.67800
H  -0.53900 13.59900 34.83400
Mg 26.25400 49.85000 26.48800
C  24.27900 51.12500 29.00200
C  28.57800 48.87200 28.77100
C  28.34200 49.21700 23.95700
C  24.14700 51.55300 24.13800
N  26.35200 49.92500 28.63800
C  25.39000 50.36300 29.49200
C  25.65600 49.97100 30.97700
C  27.19200 49.46900 30.83700
C  27.38200 49.45200 29.32900
C  28.13400 50.45800 31.68200
C  24.63600 48.93400 31.53800
C  23.92400 49.31400 32.82700
H  24.74900 49.98300 34.04400
N  28.17800 49.07300 26.40600
C  28.99600 48.67600 27.44800
C  30.18000 48.11700 26.94200
C  30.04600 48.08900 25.51900
C  28.86900 48.84000 25.22000
C  31.26000 47.54500 27.84100
C  31.00800 47.53800 24.49200
O  30.86400 47.58100 23.25400
C  32.16500 46.79900 24.93200
N  26.28200 50.32300 24.45600
C  27.19400 49.81400 23.56300
C  26.88900 49.92800 21.98600
C  25.48800 50.68200 22.19300
C  25.25200 50.81500 23.68300
C  27.92300 50.66500 21.07300
C  24.30700 49.84800 21.41300
C  23.94600 50.21400 19.91900
N  24.49100 50.98600 26.47200
C  23.80100 51.69100 25.46800
C  22.63100 52.34000 26.05900
C  22.83500 52.13400 27.39500
C  23.97400 51.35400 27.63100
C  21.53800 53.23000 25.37800
C  22.30400 52.48600 28.70800
O  21.29600 53.04500 29.04000
C  23.14200 51.68900 29.84400
C  23.50400 52.65000 30.91000
O  24.53100 53.26300 30.95400
O  22.58800 52.71000 31.94700
C  22.80500 53.73000 33.00400
H  29.23000 48.49400 29.56100
H  28.96100 48.77000 23.17700
H  23.51600 51.89200 23.31400
H  25.54600 50.86400 31.59200
H  27.35300 48.45000 31.18900
H  27.87100 51.49300 31.46400
H  29.07500 50.18000 31.20600
H  28.06200 50.16200 32.72900
H  25.19200 48.01500 31.72200
H  23.92800 48.75000 30.72900
H  23.45600 48.37400 33.11800
H  23.09700 49.99700 32.63100
H  32.25900 47.78600 27.47700
H  31.25100 46.46300 27.96800
H  31.17100 47.98400 28.83500
H  32.97600 47.41900 25.31400
H  32.51600 46.27100 24.04600
H  31.86800 46.03700 25.65400
H  26.89300 48.89900 21.62400
H  25.53300 51.64000 21.67400
H  28.51400 51.30300 21.73100
H  27.50800 51.38100 20.36300
H  28.58300 50.01100 20.50300
H  23.43600 50.02800 22.04200
H  24.50700 48.78200 21.51900
H  24.52900 49.51200 19.32300
H  24.27700 51.22600 19.68900
H  22.86800 50.14200 19.77100
H  21.38400 52.82400 24.37800
H  21.58700 54.31300 25.49400
H  20.57200 52.92100 25.77900
H  22.68800 50.79900 30.28000
H  23.73300 53.63000 33.56700
H  22.03100 53.74800 33.77200
H  22.76900 54.72500 32.56200

