158

Mg 44.23700 4.14500 47.13300
C  42.23100 7.00900 47.44700
C  41.44400 2.13600 47.33100
C  46.20800 1.52600 47.04200
C  46.97100 6.23100 46.44800
N  42.14600 4.58900 47.20900
C  41.57600 5.84200 47.34200
C  40.05200 5.74900 47.54400
C  39.87800 4.21400 47.87000
C  41.21400 3.59300 47.38500
C  39.56300 3.85000 49.35200
C  39.11900 6.36700 46.44000
C  39.32300 6.17700 44.93300
H  39.62100 7.34500 44.00600
N  43.89400 2.08400 46.89300
C  42.69400 1.51200 47.12400
C  42.84500 0.13500 46.97200
C  44.30000 -0.11300 46.91600
C  44.89700 1.18100 46.87800
C  41.72300 -0.90600 46.70300
C  44.97400 -1.44600 46.66900
O  44.28600 -2.47400 46.62400
C  46.43400 -1.60100 46.55000
N  46.25300 3.92400 46.44300
C  46.80200 2.76700 46.76000
C  48.36600 2.86900 46.64500
C  48.58400 4.40300 46.36800
C  47.18000 4.92900 46.43900
C  49.11200 2.27800 47.91900
C  49.25000 4.62900 44.96900
C  50.39600 5.63100 44.92900
N  44.59600 6.12900 46.96600
C  45.77500 6.83200 46.67900
C  45.54000 8.29000 46.83300
C  44.16800 8.36200 47.24300
C  43.61200 7.07000 47.24700
C  46.56300 9.43900 46.55400
C  43.09100 9.34100 47.52300
O  43.19800 10.56600 47.55500
C  41.78700 8.46200 47.66900
C  41.02700 8.76100 48.99400
O  41.10500 8.06200 50.04700
O  40.18800 9.84400 48.91000
C  39.23200 10.11300 50.06200
H  40.64700 1.43800 47.59400
H  46.95900 0.73400 47.06400
H  47.77800 6.88000 46.10200
H  39.80500 6.38300 48.39600
H  39.12800 3.74000 47.23800
H  39.27700 4.71200 49.95500
H  40.42800 3.39900 49.83700
H  38.74700 3.12900 49.30300
H  39.20600 7.42800 46.67600
H  38.12600 5.99200 46.69000
H  38.46600 5.68400 44.47400
H  40.14800 5.46400 44.92800
H  41.77800 -1.19200 45.65300
H  40.73800 -0.54900 47.00300
H  42.02700 -1.71400 47.36900
H  46.88700 -1.47800 47.53400
H  46.84600 -0.91000 45.81400
H  46.47500 -2.62000 46.16500
H  48.67700 2.18700 45.85400
H  49.15500 4.87000 47.17100
H  48.49800 1.79900 48.68200
H  49.50400 3.12900 48.47700
H  49.85400 1.50700 47.71200
H  48.57200 4.99300 44.19600
H  49.69500 3.73700 44.52900
H  50.21600 6.34400 44.12400
H  51.35300 5.11900 44.82800
H  50.42800 6.23800 45.83300
H  47.24000 9.15500 45.74800
H  47.13500 9.40800 47.48100
H  46.06600 10.37600 46.30000
H  41.09300 8.78800 46.89400
H  39.62100 10.93600 50.66200
H  39.09900 9.30000 50.77600
H  38.21800 10.35800 49.74500
Mg -12.14700 37.77800 42.22400
C  -10.14300 34.89500 41.33900
C  -9.90700 39.61700 40.49200
C  -14.26300 40.22100 42.59600
C  -14.57600 35.50400 43.37100
N  -10.30300 37.20800 40.98400
C  -9.58700 36.06400 40.90900
C  -8.38600 36.22200 39.98300
C  -8.20300 37.78500 40.11100
C  -9.56300 38.24500 40.61800
C  -7.02300 38.18700 41.03500
C  -8.64200 35.60100 38.57900
C  -7.41500 35.20800 37.80300
H  -6.92600 36.05200 36.65300
N  -12.11700 39.67900 41.60800
C  -11.05800 40.30100 40.94300
C  -11.25300 41.76300 40.95400
C  -12.53700 41.96000 41.62500
C  -13.01800 40.59300 41.95700
C  -10.34800 42.78300 40.38000
C  -13.21200 43.31100 41.66500
O  -12.67400 44.31800 41.19700
C  -14.57900 43.47400 42.12100
N  -14.11000 37.92800 43.10300
C  -14.83600 39.01200 42.99400
C  -16.29100 38.91800 43.48400
C  -16.34000 37.40700 43.77100
C  -14.95600 36.86900 43.36300
C  -16.63400 40.04600 44.59400
C  -17.51100 36.66600 43.03900
C  -18.46200 35.79500 43.98200
N  -12.38600 35.56400 42.44200
C  -13.39100 34.84400 42.99000
C  -13.01400 33.41300 43.00700
C  -11.79400 33.34100 42.32300
C  -11.47600 34.70500 41.94700
C  -13.57400 32.24800 43.90300
C  -10.66800 32.45000 41.90900
O  -10.55000 31.24500 41.97900
C  -9.56500 33.40500 41.16900
C  -8.24700 33.28600 41.87100
O  -7.24700 32.98300 41.30600
O  -8.34500 33.44600 43.25600
C  -7.14100 33.08600 44.11000
H  -9.09400 40.28000 40.19000
H  -14.87000 41.10400 42.80400
H  -15.32000 34.77500 43.69800
H  -7.50300 35.77000 40.43400
H  -8.00600 38.14000 39.09900
H  -7.21500 38.93900 41.80000
H  -6.36900 38.70300 40.33200
H  -6.55100 37.30500 41.46800
H  -9.09300 36.40800 38.00100
H  -9.20500 34.66900 38.61500
H  -7.51000 34.18900 37.42600
H  -6.52300 35.20100 38.43000
H  -10.73700 43.27700 39.49000
H  -9.42400 42.29400 40.07000
H  -10.18600 43.57300 41.11400
H  -14.93800 44.46900 41.85800
H  -14.50200 43.27900 43.19100
H  -15.13100 42.71600 41.56600
H  -16.95500 39.07100 42.63300
H  -16.43500 37.31800 44.85300
H  -15.64000 40.45000 44.78400
H  -17.09200 39.53900 45.44400
H  -17.28900 40.83500 44.22400
H  -17.14400 35.95100 42.30300
H  -18.13000 37.38400 42.50000
H  -19.25900 36.33300 44.49500
H  -17.80100 35.38600 44.74600
H  -18.97000 34.97000 43.48300
H  -14.50500 32.58700 44.35800
H  -12.67500 31.95700 44.44500
H  -13.81600 31.39900 43.26400
H  -9.46800 32.99400 40.16400
H  -6.79400 32.19600 43.58500
H  -7.33500 32.91800 45.16900
H  -6.50200 33.96800 44.09500

