158

Mg 23.96100 -4.69200 46.18400
C  25.81900 -2.24200 44.51800
C  21.38700 -4.07000 43.82800
C  22.40500 -7.67300 46.97400
C  26.77100 -5.65000 47.86700
N  23.73900 -3.35300 44.34900
C  24.58000 -2.38800 43.90300
C  24.15000 -1.58700 42.71200
C  22.54300 -1.91500 42.82300
C  22.49300 -3.18100 43.70700
C  21.60500 -0.80500 43.43000
C  24.79900 -2.07900 41.45300
C  25.55600 -1.04000 40.58100
H  25.01100 -0.87200 39.13300
N  22.17000 -5.65400 45.63800
C  21.26900 -5.23100 44.73400
C  20.10700 -6.03400 44.78700
C  20.26700 -7.08600 45.71600
C  21.67100 -6.85000 46.15100
C  18.89000 -5.70300 43.92200
C  19.31200 -8.14800 46.09400
O  18.23000 -8.15100 45.55500
C  19.64200 -9.22000 47.17500
N  24.53700 -6.45800 47.36900
C  23.64900 -7.47800 47.58100
C  24.38600 -8.59700 48.33400
C  25.78300 -7.98700 48.58100
C  25.70000 -6.60400 47.98000
C  23.65000 -9.12800 49.72200
C  26.99600 -8.79600 47.91400
C  28.18800 -8.96200 48.85100
N  25.88700 -3.97400 46.44100
C  26.90900 -4.43000 47.22600
C  28.02300 -3.49500 47.13200
C  27.62700 -2.64300 46.13100
C  26.27700 -2.97000 45.69100
C  29.36500 -3.65600 47.74800
C  28.01800 -1.50300 45.38800
O  29.05200 -0.86900 45.47600
C  26.87300 -1.26800 44.21500
C  26.51500 0.11600 44.21100
O  25.84100 0.63100 45.09600
O  27.09600 0.73600 43.13200
C  27.29400 2.15800 43.33700
H  20.45400 -3.89900 43.28800
H  22.03800 -8.69300 47.10700
H  27.63500 -5.94100 48.46700
H  24.25500 -0.51300 42.86500
H  22.15000 -2.07200 41.81800
H  22.30900 -0.08600 43.85000
H  21.08800 -1.27700 44.26500
H  20.97300 -0.32700 42.68100
H  24.02600 -2.42100 40.76500
H  25.49800 -2.89300 41.64600
H  26.58800 -1.38700 40.54700
H  25.58500 -0.09000 41.11300
H  19.18300 -5.39700 42.91800
H  18.46100 -4.80200 44.36000
H  18.13100 -6.48500 43.96900
H  20.39000 -9.93100 46.82300
H  18.74500 -9.82900 47.28300
H  19.77500 -8.71900 48.13400
H  24.44300 -9.43300 47.63700
H  26.01500 -7.81400 49.63200
H  23.77000 -10.21200 49.73000
H  22.62600 -8.75500 49.72700
H  24.06000 -8.87200 50.69900
H  27.47200 -8.40900 47.01200
H  26.68800 -9.80500 47.64200
H  28.02700 -9.84100 49.47500
H  28.30500 -8.04200 49.42400
H  29.13500 -8.95600 48.31200
H  29.58500 -4.66200 48.10500
H  29.48800 -2.91100 48.53300
H  30.06500 -3.38000 46.96000
H  27.29400 -1.49300 43.23500
H  28.03200 2.51100 42.61600
H  27.53800 2.43400 44.36300
H  26.39600 2.70100 43.04500
Mg 27.00500 50.56000 25.52600
C  24.84800 51.35600 28.18500
C  29.35700 49.47000 27.82800
C  28.95700 49.79600 22.93600
C  24.47200 51.55600 23.37100
N  27.11100 50.55300 27.79600
C  26.07300 50.74300 28.67000
C  26.53500 50.55500 30.18100
C  27.99900 49.99700 29.95700
C  28.18200 50.00600 28.41000
C  29.11600 50.80400 30.72000
C  25.54000 49.58100 30.84600
C  25.09400 49.82000 32.33100
H  26.02600 50.55100 33.31900
N  28.81500 49.68900 25.35200
C  29.65800 49.39600 26.40900
C  30.77200 48.77800 25.90700
C  30.81100 48.92600 24.53200
C  29.48600 49.54200 24.23200
C  31.79200 48.12000 26.77000
C  31.91100 48.67200 23.59300
O  31.86000 48.97500 22.39600
C  33.15600 47.92400 24.05600
N  26.70100 50.70500 23.48900
C  27.68900 50.25800 22.61600
C  27.18200 50.45500 21.14200
C  25.78200 50.98200 21.29900
C  25.62300 51.05800 22.79600
C  28.14700 51.28300 20.18800
C  24.66000 50.16100 20.48500
C  23.99100 48.95900 21.13600
N  25.14900 51.44700 25.70200
C  24.23900 51.72700 24.73300
C  23.03600 52.28600 25.26900
C  23.24400 52.24400 26.66600
C  24.52100 51.62200 26.89600
C  21.90500 52.91300 24.49300
C  22.65400 52.54400 27.93200
O  21.58800 53.03200 28.22500
C  23.69700 51.95300 29.01600
C  24.16900 52.95600 29.99800
O  25.02500 53.80700 29.82900
O  23.44300 52.76200 31.18200
C  23.68800 53.75600 32.22900
H  30.12300 49.17400 28.54700
H  29.53900 49.54900 22.04600
H  23.66700 51.87200 22.70300
H  26.60200 51.53400 30.65600
H  28.08000 48.92900 30.15900
H  28.83500 51.80300 31.05400
H  30.04900 50.87200 30.16100
H  29.35600 50.27100 31.64000
H  25.96300 48.57700 30.80000
H  24.60700 49.61600 30.28400
H  24.94600 48.81600 32.73000
H  24.05900 50.16100 32.32400
H  31.44900 47.81300 27.75800
H  32.68900 48.73300 26.86300
H  32.12200 47.16600 26.36100
H  33.70400 48.30200 24.91900
H  33.81100 47.88400 23.18600
H  32.77400 46.90900 24.16900
H  27.12100 49.44600 20.73600
H  25.78700 51.96900 20.83800
H  29.15200 50.98000 20.48300
H  27.94600 52.35300 20.24100
H  28.03900 51.00400 19.14000
H  25.14400 49.99300 19.52300
H  23.84800 50.86000 20.28300
H  24.03900 48.11900 20.44300
H  22.95900 49.20900 21.38200
H  24.51100 48.64900 22.04300
H  22.05700 53.97800 24.31500
H  21.00700 52.75400 25.08900
H  21.69900 52.39500 23.55600
H  23.17800 51.18000 29.58300
H  24.64800 53.63800 32.73000
H  22.77300 53.74700 32.82100
H  23.81900 54.75700 31.81700

