158

Mg 53.25700 23.51700 43.55400
C  50.64200 25.56600 42.94400
C  51.53000 20.95300 42.19400
C  56.15100 21.75900 43.50600
C  55.12000 26.33500 44.36500
N  51.34700 23.40100 42.39100
C  50.36900 24.34700 42.48900
C  49.13100 23.85500 41.68600
C  49.32200 22.24100 41.74600
C  50.85400 22.18300 42.07100
C  48.39600 21.40900 42.69500
C  48.93300 24.47800 40.21200
C  50.17300 24.70000 39.39900
H  50.12500 25.38600 37.97200
N  53.80300 21.53900 43.10900
C  52.87100 20.61800 42.64800
C  53.44800 19.36500 42.80500
C  54.80700 19.47700 43.30700
C  55.04100 20.92500 43.31400
C  52.73200 18.11700 42.33500
C  55.72500 18.39800 43.65600
O  55.25600 17.24000 43.52700
C  57.15100 18.69000 44.23500
N  55.35300 24.05200 43.57100
C  56.36600 23.13300 43.67700
C  57.70100 23.77600 44.09700
C  57.41800 25.28700 44.04400
C  55.85000 25.22500 43.93400
C  58.14400 23.31400 45.53200
C  57.98600 26.09400 42.88100
C  59.13000 27.19300 43.20100
N  52.93100 25.55400 43.82300
C  53.72400 26.56600 44.27800
C  52.91800 27.74800 44.50700
C  51.65200 27.37200 44.07000
C  51.74900 26.06000 43.57700
C  53.36800 29.02100 45.21500
C  50.28300 27.81300 43.84900
O  49.71600 28.86600 44.08800
C  49.58400 26.67200 43.16200
C  49.22000 27.38300 41.94100
O  50.02500 27.83500 41.12500
O  47.90700 27.59200 41.96400
C  47.26700 28.37900 40.89900
H  50.86000 20.14600 41.89100
H  57.08600 21.19900 43.56900
H  55.77400 27.17800 44.60000
H  48.30400 24.21300 42.29900
H  49.17300 21.81200 40.75500
H  48.00000 22.04300 43.48800
H  48.88300 20.68300 43.34600
H  47.56200 21.00700 42.12100
H  48.25500 25.32400 40.10300
H  48.48200 23.68900 39.61000
H  50.75400 23.79000 39.25000
H  50.84900 25.32200 39.98600
H  52.83100 18.13100 41.24900
H  51.71200 18.22200 42.70300
H  53.21300 17.18900 42.64600
H  57.50800 17.76700 44.69200
H  57.06500 19.43500 45.02600
H  57.76200 19.10600 43.43500
H  58.52100 23.43200 43.46600
H  57.79400 25.67800 44.98900
H  59.11600 22.84200 45.38800
H  57.53100 22.63600 46.12500
H  58.29900 24.10200 46.26900
H  57.23500 26.51600 42.21300
H  58.69300 25.47600 42.32700
H  58.86900 27.82500 44.05000
H  59.12000 27.73400 42.25500
H  60.04600 26.64800 43.43200
H  53.44800 29.82300 44.48200
H  54.28500 28.85500 45.78100
H  52.57100 29.31000 45.89900
H  48.74700 26.31300 43.76200
H  46.18100 28.34700 40.99200
H  47.50100 28.02700 39.89400
H  47.55600 29.42200 41.03000
Mg 47.02500 16.13300 28.07000
C  44.75200 15.84800 30.74100
C  49.22100 17.99700 30.09800
C  48.81700 17.04200 25.36200
C  44.44700 15.12100 25.94100
N  47.00600 16.88000 30.20200
C  46.05300 16.49100 31.10900
C  46.38400 17.00500 32.49300
C  47.76000 17.70500 32.29900
C  48.03000 17.60500 30.73300
C  48.01700 19.21800 32.61200
C  46.47700 15.83700 33.49900
C  45.76200 15.95600 34.83500
H  45.25400 17.40900 35.32400
N  48.92100 17.13800 27.79700
C  49.73200 17.73300 28.73800
C  50.96000 18.06600 28.17300
C  50.88700 17.83800 26.74300
C  49.49200 17.28200 26.56800
C  52.16900 18.62200 28.92100
C  51.92100 18.07000 25.61500
O  51.72900 17.81800 24.43000
C  53.22300 18.63400 25.95900
N  46.70000 16.06700 25.95000
C  47.56900 16.51400 25.04100
C  46.96900 16.47600 23.61900
C  45.77000 15.59600 23.82800
C  45.62700 15.57100 25.32200
C  46.61200 17.90900 23.13700
C  45.98100 14.20800 23.25200
C  44.76100 13.69900 22.52400
N  45.00200 15.63700 28.18700
C  44.11500 15.16500 27.29500
C  42.93700 14.59300 27.98100
C  43.16100 14.84500 29.27900
C  44.44100 15.47000 29.40800
C  41.70100 14.09200 27.36900
C  42.49700 14.80200 30.55300
O  41.38600 14.35700 30.87300
C  43.50900 15.42200 31.57800
C  42.87700 16.57600 32.25500
O  42.72700 17.66300 31.69100
O  42.37800 16.22700 33.47300
C  41.39400 17.14600 34.05700
H  49.95000 18.46600 30.76300
H  49.48100 17.25600 24.52100
H  43.63000 14.77700 25.30300
H  45.59900 17.59200 32.97100
H  48.60600 17.29200 32.84900
H  47.16100 19.64800 33.13200
H  48.23500 19.88300 31.77600
H  48.89100 19.30600 33.25800
H  47.50000 15.46200 33.53700
H  45.96000 15.00800 33.01700
H  46.34400 15.40200 35.57200
H  44.81300 15.42900 34.74000
H  53.06400 18.07300 28.62600
H  51.97800 18.58200 29.99400
H  52.29000 19.70100 28.83300
H  53.79000 17.84300 26.45100
H  53.07500 19.53500 26.55400
H  53.67600 18.94500 25.01800
H  47.75300 16.10700 22.95700
H  44.85900 15.95400 23.34700
H  45.55000 18.05600 22.94400
H  47.24200 18.19800 22.29500
H  46.98500 18.52300 23.95600
H  46.20200 13.52600 24.07300
H  46.84000 14.09100 22.59100
H  43.85300 13.98500 23.05500
H  44.59300 12.62300 22.57300
H  44.80600 14.00900 21.48000
H  41.02100 13.83200 28.18100
H  41.74200 13.20500 26.73800
H  41.07000 14.84800 26.90200
H  43.88600 14.69000 32.29300
H  40.40000 16.88600 33.69300
H  41.60900 18.15400 33.70100
H  41.28900 17.09000 35.14000

