158

Mg 29.88200 58.02900 40.98300
C  27.00600 56.28300 40.08300
C  31.72400 55.68700 39.42500
C  32.49600 60.22300 41.21700
C  27.70300 60.74200 41.94300
N  29.34200 56.26800 39.85100
C  28.17300 55.63800 39.65500
C  28.25400 54.37600 38.69400
C  29.79600 54.08000 38.90400
C  30.33800 55.44100 39.36200
C  30.17900 52.88600 39.75900
C  27.84100 54.77300 37.24000
C  26.95100 53.67400 36.69200
H  26.96900 53.49300 35.12300
N  31.92200 57.86600 40.64300
C  32.44100 56.83200 39.92400
C  33.79500 57.13100 39.69200
C  34.04200 58.40200 40.18600
C  32.76800 58.90700 40.73300
C  34.75800 56.27800 38.88100
C  35.46300 58.98600 40.15200
O  36.41300 58.37300 39.69400
C  35.90800 60.19100 40.92600
N  30.11700 60.16900 41.53300
C  31.28600 60.80900 41.53200
C  31.12500 62.31400 42.02300
C  29.65700 62.38100 42.50400
C  29.12300 61.05700 41.97500
C  32.19500 62.69500 43.03300
C  28.95500 63.70300 42.09800
C  27.89300 64.17100 43.13000
N  27.84400 58.46700 41.14900
C  27.11200 59.54900 41.64200
C  25.69300 59.25400 41.57200
C  25.64000 57.99400 40.97500
C  26.95500 57.54500 40.75600
C  24.51800 60.11500 42.02700
C  24.70500 57.11400 40.39400
O  23.53800 57.29800 40.16800
C  25.51900 55.80400 39.96600
C  25.11700 54.64700 40.78800
O  25.71300 54.22300 41.73700
O  23.97100 54.12600 40.23800
C  23.57500 52.82000 40.63100
H  32.26500 54.82700 39.02600
H  33.41800 60.80300 41.29600
H  27.15300 61.62800 42.26500
H  27.50400 53.63300 38.96500
H  30.21500 54.01400 37.90000
H  29.33000 52.21700 39.61400
H  30.48300 53.10600 40.78300
H  31.00000 52.34000 39.29400
H  28.71200 54.87200 36.59100
H  27.30900 55.72400 37.26000
H  25.94400 53.66800 37.10800
H  27.42400 52.77600 37.09000
H  34.24500 55.51800 38.29100
H  35.46400 55.70600 39.48300
H  35.19800 56.96600 38.16000
H  35.48000 60.22600 41.92800
H  35.68900 61.11300 40.38700
H  36.93500 60.06500 41.27100
H  31.14400 62.91900 41.11600
H  29.64000 62.23500 43.58400
H  31.97300 63.53700 43.68800
H  33.22100 62.86800 42.70700
H  32.38500 61.84000 43.68100
H  28.51100 63.72100 41.10300
H  29.74700 64.44500 42.20000
H  28.32400 64.96200 43.74400
H  27.60800 63.29900 43.71900
H  27.05300 64.61500 42.59600
H  24.64500 61.17800 41.82400
H  24.32400 60.19500 43.09600
H  23.61800 59.70400 41.56900
H  25.30200 55.48300 38.94700
H  24.48700 52.23100 40.73700
H  22.83100 52.32400 40.00800
H  23.19000 52.84000 41.65000
Mg 26.75500 50.61700 26.21700
C  24.44200 51.53100 28.83500
C  29.07600 49.79600 28.51300
C  28.75500 49.87200 23.70400
C  24.38500 51.77200 23.97700
N  26.76900 50.83500 28.45300
C  25.70400 51.08600 29.28800
C  25.99700 50.72800 30.72000
C  27.50000 50.25700 30.62200
C  27.85400 50.31200 29.07200
C  28.65700 50.96200 31.44900
C  25.01000 49.71000 31.33900
C  24.24800 50.33700 32.57500
H  24.11500 49.49700 33.87100
N  28.68300 50.04100 26.16800
C  29.52100 49.76900 27.21500
C  30.79600 49.31400 26.76600
C  30.82300 49.43900 25.39500
C  29.35700 49.84500 24.98400
C  31.77800 48.76400 27.66000
C  31.98700 49.34300 24.47100
O  31.85300 49.47700 23.29500
C  33.34900 49.14000 25.01000
N  26.53900 50.84200 24.13900
C  27.47700 50.21900 23.29700
C  27.04800 50.27600 21.84800
C  25.63900 50.92500 21.91300
C  25.47300 51.16500 23.43300
C  28.08700 51.12100 21.04200
C  24.61400 50.00200 21.27700
C  24.22600 50.22400 19.81900
N  24.84100 51.56800 26.33600
C  24.07400 51.96500 25.30300
C  22.82700 52.46900 25.82900
C  22.86300 52.33800 27.18200
C  24.11400 51.71800 27.50300
C  21.72500 53.04800 25.08000
C  22.25600 52.55700 28.49900
O  21.11900 53.03400 28.74600
C  23.25000 52.04700 29.61400
C  23.52400 53.10100 30.55900
O  24.35600 53.90800 30.30400
O  22.77500 52.91100 31.71700
C  23.07100 53.78600 32.85300
H  29.59500 49.36900 29.37300
H  29.35500 49.54400 22.85300
H  23.62500 51.91300 23.20500
H  26.12400 51.65700 31.27600
H  27.59100 49.25100 31.03000
H  29.61500 50.98100 30.93000
H  28.79000 50.52600 32.43900
H  28.44900 52.02600 31.56600
H  25.42900 48.88500 31.91500
H  24.31400 49.32400 30.59400
H  23.20600 50.49600 32.29600
H  24.61100 51.31600 32.88900
H  32.31000 47.88800 27.29000
H  31.37500 48.32500 28.57300
H  32.45300 49.56900 27.95400
H  33.93700 49.09400 24.09300
H  33.44900 48.17700 25.51200
H  33.61000 49.94400 25.69800
H  27.06600 49.27100 21.42600
H  25.46200 51.80700 21.29700
H  27.57600 51.91000 20.49000
H  28.64400 50.41100 20.43200
H  28.79600 51.57100 21.73600
H  23.70600 50.10500 21.87100
H  24.96400 48.96900 21.29200
H  24.74900 51.06500 19.36200
H  23.16000 50.44300 19.74600
H  24.61700 49.39300 19.23200
H  20.77600 52.97300 25.61000
H  21.63100 52.69600 24.05200
H  21.91500 54.11900 25.13700
H  22.91500 51.23800 30.26400
H  23.38000 54.78400 32.54400
H  23.82200 53.29300 33.47100
H  22.17400 53.89000 33.46400

