158

Mg 24.66400 1.83000 29.61900
C  26.86500 1.56700 32.22800
C  22.09300 2.04900 31.62000
C  22.59300 1.87700 26.82500
C  27.32900 1.46100 27.34600
N  24.52900 1.49600 31.72800
C  25.51500 1.64400 32.66700
C  24.91900 1.87700 34.03800
C  23.35200 1.86500 33.74900
C  23.29600 1.87800 32.27100
C  22.52300 0.62700 34.16700
C  25.50000 3.23200 34.54100
C  25.50000 3.22200 36.11400
H  25.03700 4.36900 36.99700
N  22.62200 1.91800 29.28300
C  21.71900 2.03100 30.29200
C  20.37100 2.00200 29.67300
C  20.48500 1.74200 28.28400
C  21.96900 1.91200 28.06400
C  19.11500 2.07200 30.57700
C  19.38000 1.40800 27.19400
O  19.55200 1.28300 25.99400
C  17.95200 1.03800 27.64800
N  24.95300 1.67400 27.36300
C  23.95900 1.79200 26.53100
C  24.45700 1.87700 25.02800
C  26.00300 1.88900 25.17600
C  26.11700 1.71600 26.73300
C  23.82400 0.95000 23.87700
C  26.75600 3.04300 24.55700
C  27.14000 4.32700 25.33700
N  26.70000 1.43200 29.66300
C  27.68600 1.32600 28.72600
C  28.93300 1.05700 29.37800
C  28.71000 1.18200 30.74200
C  27.33200 1.37700 30.85500
C  30.10700 0.59700 28.68800
C  29.27600 1.14400 32.08700
O  30.38500 0.82600 32.41700
C  28.15700 1.50000 33.17700
C  28.13700 0.51200 34.26400
O  27.71800 -0.63200 34.22800
O  28.61800 1.05100 35.42800
C  28.70800 0.12200 36.60200
H  21.35900 2.25700 32.40200
H  22.00000 1.84200 25.90900
H  28.24300 1.42400 26.75000
H  25.31000 1.07900 34.66800
H  22.92600 2.78700 34.14400
H  23.15700 0.01300 34.80600
H  22.15800 0.06600 33.30700
H  21.65600 0.88000 34.77700
H  24.97900 4.12100 34.18500
H  26.54300 3.39800 34.27100
H  26.52000 3.02500 36.44400
H  24.86800 2.40200 36.45500
H  18.60700 2.96100 30.20300
H  19.41600 2.17100 31.62000
H  18.55300 1.15700 30.39100
H  18.18700 0.03000 27.98900
H  17.33200 1.02500 26.75200
H  17.47600 1.71100 28.36100
H  24.13500 2.91200 24.91300
H  26.43100 1.02500 24.66800
H  22.98200 1.46700 23.41700
H  23.29200 0.06900 24.23600
H  24.63300 0.67400 23.20000
H  26.24000 3.32700 23.63900
H  27.69100 2.70100 24.11300
H  28.22500 4.41300 25.29100
H  26.72200 4.26700 26.34100
H  26.51700 5.12700 24.93800
H  30.81600 1.41700 28.80100
H  29.99300 0.39800 27.62300
H  30.54700 -0.32100 29.07700
H  28.35100 2.49400 33.57900
H  28.88000 -0.91600 36.31700
H  27.85100 0.16600 37.27400
H  29.54800 0.46900 37.20400
Mg 47.36100 16.86100 27.83000
C  45.43000 16.83000 30.80400
C  49.85300 18.58400 29.61600
C  48.98800 17.20300 25.08100
C  44.57300 15.54900 26.12700
N  47.55900 17.67300 29.95100
C  46.62700 17.54500 30.95700
C  47.22100 18.14800 32.26700
C  48.46100 18.93700 31.71100
C  48.62500 18.35000 30.33400
C  48.29400 20.47800 31.75300
C  47.58200 16.94200 33.21200
C  47.16800 17.14400 34.65900
H  46.69900 18.54600 35.08000
N  49.16000 17.65100 27.39500
C  50.04700 18.22700 28.27200
C  51.25000 18.51200 27.55100
C  51.02700 18.24400 26.18500
C  49.73400 17.62100 26.17200
C  52.53200 19.04400 28.19500
C  51.93300 18.43100 24.96400
O  51.53000 18.10000 23.84900
C  53.30100 19.15800 24.99300
N  46.85200 16.34200 25.92800
C  47.75200 16.56000 24.94800
C  47.16000 16.21300 23.57600
C  45.78200 15.53400 24.02000
C  45.75100 15.74400 25.47100
C  47.04700 17.40000 22.53300
C  45.76800 13.96400 23.64200
C  44.79000 13.66200 22.47500
N  45.46600 16.22700 28.31200
C  44.41800 15.75100 27.50700
C  43.20100 15.60000 28.30600
C  43.58100 15.94800 29.59900
C  44.89900 16.34900 29.55900
C  41.79400 15.21900 27.79800
C  43.04900 16.14200 30.91400
O  41.91500 15.94200 31.29500
C  44.22100 16.75600 31.72200
C  43.80600 18.12100 32.21300
O  44.01000 19.17500 31.66900
O  43.19700 17.97900 33.37700
C  42.48600 19.13100 33.95300
H  50.62400 19.13600 30.15700
H  49.38900 17.20900 24.06600
H  43.75600 14.97600 25.68300
H  46.39100 18.73200 32.66300
H  49.33600 18.69600 32.31400
H  47.45300 20.78600 32.37400
H  48.26700 20.75600 30.70000
H  49.10400 21.08400 32.15900
H  48.65900 16.79300 33.13000
H  46.94600 16.14200 32.83300
H  47.90300 16.76500 35.36900
H  46.27200 16.56500 34.88500
H  53.44000 18.51900 27.89800
H  52.50100 18.89600 29.27400
H  52.62100 20.10400 27.95600
H  53.54400 19.16800 23.93100
H  54.04000 18.67500 25.63400
H  53.17500 20.16400 25.39200
H  47.86500 15.44400 23.26300
H  44.90000 16.03800 23.62600
H  46.03300 17.35500 22.13600
H  47.74300 17.11000 21.74600
H  47.37500 18.32500 23.00700
H  45.49400 13.36600 24.51100
H  46.77600 13.56000 23.53900
H  45.08500 14.18800 21.56700
H  43.81800 14.01100 22.82300
H  44.62300 12.58600 22.42100
H  41.63500 15.56200 26.77500
H  41.10500 15.77600 28.43300
H  41.48200 14.17700 27.85800
H  44.45900 16.10800 32.56600
H  42.25400 19.76300 33.09600
H  43.11400 19.53200 34.74800
H  41.53700 18.84400 34.40800

