158

Mg 54.35200 24.68900 44.50000
C  51.45800 26.55700 43.73700
C  52.81300 21.84500 43.50400
C  57.36800 23.15700 44.87900
C  55.84400 27.65300 45.49400
N  52.44700 24.32700 43.55300
C  51.39200 25.22900 43.30400
C  50.13500 24.42200 42.86900
C  50.64900 22.97400 42.97600
C  52.09200 23.05100 43.36400
C  49.81900 22.11200 43.98200
C  49.66200 24.82800 41.38700
C  48.34700 24.17100 40.94900
H  48.25300 23.39600 39.63200
N  55.08000 22.73700 44.10100
C  54.23700 21.67200 43.80000
C  55.07000 20.47600 43.89500
C  56.38400 20.79400 44.25600
C  56.35700 22.27200 44.37700
C  54.51500 19.13200 43.58000
C  57.45500 19.78400 44.50300
O  57.20700 18.61100 44.36200
C  58.80500 20.15100 44.99900
N  56.40200 25.35600 44.97600
C  57.43800 24.54200 45.09800
C  58.76500 25.25100 45.56500
C  58.21200 26.72800 45.54100
C  56.73600 26.60400 45.24800
C  59.28800 24.86300 47.00300
C  58.87000 27.68300 44.47600
C  59.37800 28.99500 45.06500
N  53.77600 26.68500 44.86100
C  54.44700 27.69900 45.34500
C  53.54500 28.87000 45.43100
C  52.36400 28.43400 44.78800
C  52.60000 27.15800 44.40600
C  53.82400 30.17700 46.11300
C  51.01100 28.86500 44.35100
O  50.41200 29.94300 44.37700
C  50.37900 27.66400 43.56900
C  50.07300 28.05200 42.12800
O  50.86500 28.35100 41.22800
O  48.71000 27.97800 42.03400
C  48.14400 28.43100 40.76100
H  52.34400 20.86900 43.35800
H  58.28200 22.68600 45.24600
H  56.40400 28.55500 45.75200
H  49.33100 24.79500 43.50300
H  50.62800 22.54200 41.97600
H  49.12000 22.78400 44.47800
H  50.54800 21.71100 44.68600
H  49.25000 21.31200 43.50900
H  50.40600 24.49800 40.66200
H  49.67600 25.91700 41.35700
H  47.70800 25.03500 40.76600
H  47.89300 23.64900 41.79100
H  55.10600 18.76400 42.74100
H  53.42500 19.13000 43.55200
H  54.76800 18.48300 44.41800
H  59.09200 21.09300 44.53200
H  59.39000 19.30300 44.64400
H  58.90900 20.09900 46.08300
H  59.56700 25.00700 44.86800
H  58.31800 27.27900 46.47600
H  59.54700 25.76800 47.55200
H  60.13100 24.19700 46.81900
H  58.54300 24.38500 47.63900
H  58.10900 27.81600 43.70700
H  59.63800 26.99400 44.12500
H  60.46800 28.98800 45.06100
H  59.06100 29.17400 46.09300
H  58.96400 29.84100 44.51700
H  54.21700 30.78900 45.30100
H  54.57500 30.04100 46.89100
H  52.95900 30.62000 46.60600
H  49.55000 27.31200 44.18300
H  47.84500 29.47800 40.81400
H  47.12500 28.06600 40.63900
H  48.85100 28.31800 39.94000
Mg 17.26000 52.12400 26.33700
C  19.17200 50.77300 28.99000
C  14.84500 52.82800 28.70700
C  15.11500 52.92700 23.83900
C  19.42100 50.75000 24.07500
N  17.09800 51.80200 28.59200
C  17.97900 51.34500 29.45100
C  17.52000 51.56600 30.97200
C  16.07400 51.98500 30.75200
C  16.00400 52.28900 29.22600
C  15.04600 50.92700 31.19400
C  18.45900 52.56200 31.78500
C  18.72900 52.23800 33.31200
H  17.62300 51.63300 34.03600
N  15.33000 52.94100 26.30700
C  14.49300 53.14400 27.34000
C  13.28800 53.73700 26.85300
C  13.33500 53.80400 25.43100
C  14.63800 53.18900 25.13400
C  12.18600 54.11600 27.86100
C  12.34000 54.35200 24.44100
O  12.53200 54.51800 23.20900
C  10.99800 54.89200 24.90900
N  17.26700 52.02200 24.27800
C  16.26900 52.26000 23.42800
C  16.61000 51.88400 21.99500
C  18.08700 51.45400 22.09600
C  18.30600 51.44800 23.56700
C  15.77800 50.99000 21.11700
C  18.94200 52.48800 21.36400
C  19.24000 53.91000 21.91500
N  19.01100 51.14700 26.43200
C  19.81300 50.62200 25.40700
C  20.91300 49.92800 25.90800
C  20.73200 49.96800 27.32000
C  19.56100 50.74400 27.60800
C  22.09600 49.39800 25.09800
C  21.31000 49.54800 28.55000
O  22.26900 48.87200 28.81800
C  20.41700 50.18600 29.68000
C  20.12300 49.04200 30.76700
O  19.51000 48.00300 30.64300
O  20.56900 49.43300 31.96800
C  20.51100 48.49500 33.06900
H  14.09700 53.00200 29.48300
H  14.55900 53.29000 22.97300
H  20.07000 50.35800 23.28900
H  17.48400 50.60500 31.48700
H  15.83200 52.90700 31.28000
H  15.52100 50.13500 31.77300
H  14.66300 50.38000 30.33300
H  14.23600 51.34800 31.78900
H  18.06200 53.57100 31.67400
H  19.40800 52.51000 31.25100
H  18.99200 53.22600 33.69000
H  19.55200 51.54400 33.48000
H  12.37300 55.18300 27.97900
H  12.32700 53.51200 28.75800
H  11.17200 53.93500 27.50700
H  11.14300 55.70200 25.62400
H  10.48400 54.03400 25.34300
H  10.45200 55.35800 24.09000
H  16.60700 52.88200 21.55800
H  18.33300 50.47200 21.69200
H  16.22400 50.10300 20.66600
H  15.26500 51.61500 20.38600
H  14.99300 50.59100 21.75900
H  18.46900 52.65500 20.39600
H  19.92600 52.03300 21.24900
H  20.23800 54.08900 22.31500
H  18.43600 54.29100 22.54500
H  19.13100 54.58800 21.06900
H  22.10500 49.99400 24.18600
H  21.79600 48.35900 24.96200
H  23.02700 49.37900 25.66500
H  21.07100 50.96400 30.07200
H  21.22700 48.91300 33.77700
H  20.66300 47.41700 33.03300
H  19.55300 48.46300 33.58700

