158

Mg 0.04100 7.51500 26.79000
C  0.95200 9.88500 29.09100
C  -0.09600 5.12500 29.21900
C  -0.52000 5.19600 24.30900
C  0.52600 9.94400 24.27600
N  0.36000 7.49200 28.93600
C  0.69600 8.59900 29.66800
C  0.60900 8.29100 31.12400
C  0.61900 6.73400 31.16500
C  0.26100 6.42000 29.69500
C  1.95000 6.12000 31.45700
C  -0.70200 8.94700 31.68900
C  -0.76200 8.81500 33.26900
H  -1.48900 7.52100 33.83900
N  -0.23300 5.55900 26.76200
C  -0.32900 4.71700 27.86900
C  -0.53100 3.37500 27.50400
C  -0.75000 3.38800 26.09800
C  -0.46200 4.75100 25.62000
C  -0.57200 2.20200 28.57000
C  -1.15000 2.26600 25.14900
O  -1.31100 2.29700 23.93000
C  -1.34500 0.92500 25.76200
N  0.03700 7.57200 24.53200
C  -0.26500 6.47400 23.76000
C  -0.41900 6.87300 22.31100
C  0.06200 8.39000 22.40800
C  0.19800 8.71600 23.79100
C  0.42200 6.00100 21.38300
C  -0.70100 9.40500 21.41300
C  -1.94500 10.19000 21.98600
N  0.59900 9.49800 26.63100
C  0.70900 10.36400 25.54300
C  1.06800 11.69200 26.01100
C  1.18500 11.53000 27.38900
C  0.94800 10.20100 27.69300
C  1.30700 12.94500 25.22000
C  1.48600 12.22800 28.62100
O  1.89400 13.39100 28.75900
C  1.28000 11.23000 29.80000
C  2.43400 11.23900 30.76000
O  3.54900 10.72600 30.56300
O  2.04600 11.77900 31.89800
C  3.08500 11.66100 32.99000
H  -0.13400 4.41300 30.04500
H  -0.83500 4.44700 23.57900
H  0.52400 10.67900 23.46800
H  1.40900 8.65900 31.76700
H  -0.17400 6.31700 31.78600
H  2.67600 6.92700 31.36300
H  2.01500 5.21600 30.85100
H  2.04200 5.59100 32.40500
H  -1.55000 8.43900 31.22900
H  -0.72100 10.01500 31.47000
H  -1.38200 9.60400 33.69500
H  0.17300 8.90700 33.82300
H  -1.42300 1.52900 28.47100
H  -0.68600 2.41700 29.63300
H  0.33800 1.60900 28.49000
H  -1.95300 0.33400 25.07800
H  -1.99400 1.14400 26.60900
H  -0.48300 0.34100 26.08500
H  -1.46000 6.83400 21.99300
H  1.10500 8.29900 22.10300
H  1.12800 6.54900 20.75900
H  -0.10600 5.28500 20.75200
H  1.01200 5.28000 21.94700
H  -0.99400 8.80400 20.55300
H  -0.05400 10.07100 20.84200
H  -1.57400 11.19900 21.80400
H  -2.16100 10.08400 23.04900
H  -2.88100 10.04900 21.44500
H  0.42100 13.57700 25.16400
H  1.82900 12.73800 24.28500
H  1.98800 13.63200 25.72200
H  0.41500 11.47400 30.41700
H  3.73400 12.49400 32.71500
H  3.62800 10.71900 33.06300
H  2.65700 11.90100 33.96300
Mg 16.78900 52.09100 26.34600
C  18.81100 51.17800 29.03400
C  14.34600 52.90500 28.59400
C  14.95200 53.04900 23.64500
C  19.44800 51.15000 24.13300
N  16.73400 52.27200 28.55600
C  17.63100 51.78900 29.45500
C  17.13100 51.82200 30.89500
C  15.66300 52.12100 30.64000
C  15.58000 52.50300 29.14300
C  14.62100 51.08900 31.15400
C  17.95800 52.98700 31.65100
C  18.18800 52.70600 33.10000
H  17.22300 51.73800 33.76200
N  14.91800 52.86400 26.15600
C  14.02700 53.07200 27.16600
C  12.69600 53.51600 26.64700
C  12.90400 53.51900 25.19800
C  14.32600 53.17100 24.92900
C  11.53400 53.89200 27.51400
C  11.92900 53.83400 24.11500
O  12.28000 53.86100 22.95900
C  10.49100 54.32700 24.40200
N  17.12500 52.05400 24.20700
C  16.21300 52.63500 23.31100
C  16.77500 52.52900 21.84400
C  18.29600 52.09900 22.12200
C  18.33400 51.78900 23.59600
C  15.96800 51.69000 20.86600
C  19.29900 53.16200 21.61600
C  19.94900 54.10800 22.62000
N  18.61600 51.22300 26.44800
C  19.58000 50.89400 25.51900
C  20.72700 50.34200 26.12800
C  20.39800 50.31000 27.53100
C  19.19000 50.99400 27.63800
C  21.99500 49.91600 25.44100
C  20.97900 50.02200 28.87200
O  22.06000 49.65300 29.31800
C  19.90600 50.52400 29.89000
C  19.55200 49.22000 30.62000
O  19.17300 48.16700 30.13000
O  19.79700 49.47400 31.97900
C  19.58300 48.29500 32.82000
H  13.58800 53.09200 29.35700
H  14.36900 53.39000 22.78700
H  20.24100 51.01900 23.39300
H  17.17000 50.85100 31.38900
H  15.43900 53.05200 31.16000
H  14.12700 50.74200 30.24600
H  13.94500 51.33600 31.97300
H  15.10800 50.21400 31.58300
H  17.31200 53.85000 31.48500
H  18.85000 53.18300 31.05600
H  18.10600 53.68400 33.57300
H  19.23700 52.40900 33.10500
H  11.65100 54.92800 27.82900
H  11.23700 53.24500 28.34000
H  10.60200 53.93400 26.95000
H  10.54900 55.27700 24.93400
H  10.00300 53.46900 24.86400
H  9.97200 54.36200 23.44400
H  16.70300 53.56200 21.50400
H  18.54700 51.18400 21.58600
H  16.61300 51.33600 20.06100
H  15.22300 52.35900 20.43400
H  15.49000 50.82000 21.31500
H  18.70500 53.79900 20.96000
H  20.12600 52.77700 21.02000
H  21.03400 54.01400 22.65700
H  19.58200 53.90900 23.62700
H  19.73000 55.14900 22.38200
H  22.43200 50.64000 24.75300
H  21.74600 48.98100 24.94000
H  22.80700 49.81200 26.16100
H  20.41800 51.15100 30.62000
H  20.40900 47.59000 32.72500
H  18.65900 47.73800 32.66700
H  19.55600 48.55200 33.87900

