158

Mg 3.06900 -0.90600 44.25200
C  6.34300 -0.27100 43.22800
C  2.05100 1.64600 42.24800
C  -0.01600 -2.25500 44.19800
C  4.26800 -3.79800 45.80700
N  4.09500 0.39300 42.75500
C  5.44100 0.53700 42.57300
C  5.76700 1.79800 41.79500
C  4.38800 2.51500 41.67300
C  3.40100 1.50100 42.32400
C  4.36200 3.88000 42.42900
C  6.41300 1.51700 40.45400
C  7.16400 2.74400 39.83400
H  6.89200 3.23500 38.44900
N  1.12600 -0.21300 43.56500
C  0.97600 0.84100 42.68400
C  -0.37400 1.00400 42.39600
C  -1.06200 -0.06900 43.06200
C  0.00900 -0.92200 43.70500
C  -0.98300 1.99200 41.46500
C  -2.51200 -0.30200 43.07900
O  -3.22300 0.30000 42.31200
C  -3.08300 -1.06500 44.26000
N  2.30300 -2.74000 44.81400
C  1.00800 -3.06600 44.69900
C  0.69700 -4.50300 45.35800
C  1.98700 -4.86100 46.01400
C  2.89900 -3.70600 45.52900
C  -0.47400 -4.64100 46.33300
C  2.50400 -6.28500 45.63600
C  2.77800 -7.28900 46.75000
N  4.93000 -1.76700 44.66800
C  5.27400 -2.97000 45.34300
C  6.75600 -3.07100 45.43600
C  7.21300 -1.97600 44.67100
C  6.03000 -1.35800 44.11900
C  7.49500 -4.03500 46.28900
C  8.33900 -1.27300 44.15600
O  9.53300 -1.44800 44.33800
C  7.86500 -0.29300 43.12600
C  8.40400 0.96000 43.46500
O  8.33700 1.49500 44.55700
O  9.00900 1.55900 42.40800
C  9.68800 2.88100 42.54700
H  1.63600 2.42800 41.60900
H  -1.02600 -2.66900 44.22600
H  4.62500 -4.69600 46.31700
H  6.50600 2.36900 42.35700
H  4.07500 2.77200 40.66100
H  5.33400 4.16600 42.83100
H  3.76900 3.84600 43.34300
H  4.09000 4.69200 41.75400
H  5.67500 1.30300 39.68100
H  7.12400 0.69300 40.51700
H  8.22600 2.50400 39.79200
H  6.98000 3.56400 40.52800
H  -1.30000 1.56000 40.51600
H  -0.37400 2.86500 41.23000
H  -1.81900 2.48400 41.96300
H  -3.21700 -2.10300 43.95600
H  -4.02100 -0.51800 44.34900
H  -2.52900 -1.10700 45.19800
H  0.41900 -5.22000 44.58600
H  1.89500 -4.66400 47.08200
H  -0.08900 -4.98000 47.29500
H  -1.23700 -5.26600 45.87000
H  -0.93800 -3.65500 46.35800
H  3.43700 -6.11200 45.10000
H  1.91800 -6.83400 44.89900
H  3.85300 -7.45000 46.83800
H  2.33600 -8.26000 46.52600
H  2.31300 -6.95700 47.67800
H  8.56400 -3.99600 46.08400
H  7.09700 -4.98700 45.93700
H  7.33400 -3.80400 47.34200
H  8.08800 -0.62400 42.11200
H  8.93800 3.65500 42.38700
H  10.39400 2.95000 41.72000
H  10.12700 3.02500 43.53400
Mg 26.06200 51.97000 26.39000
C  23.91900 52.93000 28.94200
C  28.33000 51.13500 28.77500
C  28.28800 51.61100 23.86700
C  23.79400 53.48900 24.05800
N  26.02700 51.80500 28.57200
C  25.05700 52.25400 29.38600
C  25.39000 52.03100 30.88000
C  26.93700 51.66300 30.82900
C  27.12400 51.55200 29.31400
C  27.84500 52.76100 31.45400
C  24.45300 50.94900 31.62000
C  23.72500 51.57000 32.86900
H  23.54400 50.54400 34.03100
N  28.07400 51.47600 26.32300
C  28.80600 50.99700 27.44400
C  30.12700 50.58500 26.95200
C  30.14600 50.88000 25.58300
C  28.84100 51.34800 25.18000
C  31.26800 50.05500 27.85000
C  31.33000 50.79600 24.62300
O  31.20900 51.17400 23.41200
C  32.69600 50.47100 25.04400
N  26.05200 52.47300 24.32600
C  27.07100 52.15100 23.50900
C  26.77500 52.54500 22.02900
C  25.25200 52.88100 22.04200
C  25.03300 52.96900 23.54300
C  27.65600 53.71400 21.47100
C  24.42000 51.74200 21.31600
C  23.79700 52.25600 20.02900
N  24.13400 52.75900 26.45900
C  23.42700 53.39400 25.42100
C  22.10900 53.87100 25.97400
C  22.30200 53.66200 27.33800
C  23.54600 53.05600 27.59500
C  20.99300 54.60800 25.20000
C  21.64300 53.79800 28.59700
O  20.49000 54.16000 28.81500
C  22.67000 53.34500 29.67800
C  22.90300 54.48200 30.60800
O  23.80400 55.24000 30.44200
O  21.95800 54.45100 31.58000
C  22.02400 55.54100 32.63000
H  29.09800 50.92600 29.52200
H  28.97200 51.41800 23.03800
H  23.07000 53.69400 23.26700
H  25.18000 53.00600 31.32000
H  27.18800 50.67900 31.22400
H  27.45100 53.77600 31.48500
H  28.82100 52.78000 30.96800
H  28.19900 52.51200 32.45400
H  24.91400 49.99500 31.87200
H  23.68900 50.70700 30.88100
H  22.75100 51.83800 32.46000
H  24.28100 52.45500 33.17600
H  32.20300 50.52200 27.53900
H  31.27000 48.96900 27.75800
H  30.99300 50.37800 28.85400
H  32.70500 49.39400 25.21300
H  33.17200 51.09500 25.80100
H  33.29500 50.63600 24.14900
H  26.91500 51.60300 21.49900
H  25.08100 53.87600 21.63100
H  27.95100 54.42900 22.24000
H  27.01100 54.15900 20.71400
H  28.54600 53.32400 20.97800
H  23.66200 51.26800 21.94100
H  25.05800 50.96300 20.89800
H  24.42800 52.02700 19.17000
H  23.63400 53.33100 20.11000
H  22.73100 52.13600 19.83600
H  20.05800 54.10200 25.43800
H  21.05200 54.53600 24.11400
H  21.07000 55.65800 25.48300
H  22.18200 52.53700 30.22400
H  22.96100 55.58600 33.18600
H  21.27500 55.36300 33.40200
H  21.93500 56.50100 32.12200

