158

Mg 35.60400 1.84300 30.12300
C  33.03600 3.07700 32.41500
C  37.72400 1.87400 32.70800
C  37.85500 1.31500 27.92400
C  33.29500 2.59400 27.41500
N  35.32600 2.47700 32.31000
C  34.23200 2.85900 33.01900
C  34.51200 2.96100 34.47000
C  36.07900 2.88200 34.51000
C  36.44000 2.34000 33.10900
C  36.72300 4.26200 34.76500
C  33.78600 1.86300 35.27600
C  33.25700 2.20700 36.71700
H  34.07200 3.32500 37.49900
N  37.55500 1.37600 30.33700
C  38.22100 1.41600 31.47100
C  39.56700 0.93200 31.15300
C  39.66500 0.97500 29.73100
C  38.37000 1.27500 29.28100
C  40.49600 0.51400 32.26500
C  40.95800 0.81100 28.86400
O  40.95900 0.86900 27.63900
C  42.24400 0.60600 29.52000
N  35.47300 1.75300 27.95000
C  36.59000 1.50800 27.30200
C  36.46600 1.84100 25.78800
C  34.89000 1.88900 25.62500
C  34.53100 2.08400 27.07000
C  37.29200 3.05700 25.26200
C  34.10700 0.79300 24.94400
C  33.70000 -0.44500 25.65500
N  33.66500 2.63700 29.86100
C  32.89400 2.86200 28.76400
C  31.52900 3.28900 29.24600
C  31.58500 3.37300 30.61000
C  32.85300 3.00300 30.99400
C  30.30300 3.56800 28.47400
C  30.79300 3.70600 31.76600
O  29.66200 4.16600 31.85800
C  31.74500 3.47900 33.01500
C  31.91200 4.78700 33.67600
O  32.60300 5.74500 33.27100
O  31.00900 4.91000 34.72100
C  30.91300 6.22300 35.37800
H  38.42600 1.79400 33.54100
H  38.56600 1.00100 27.15700
H  32.47300 2.90400 26.76600
H  34.15700 3.95000 34.76000
H  36.50900 2.22700 35.26800
H  35.97500 5.05300 34.70900
H  37.51600 4.51600 34.06200
H  37.31600 4.28600 35.68000
H  34.52200 1.06100 35.21900
H  32.87700 1.47100 34.81900
H  33.21000 1.32300 37.35300
H  32.19700 2.43900 36.61400
H  41.14100 -0.29800 31.92900
H  39.91500 0.19700 33.13100
H  41.09500 1.31600 32.69600
H  42.58100 1.43800 30.13700
H  42.89600 0.49400 28.65400
H  42.27700 -0.29900 30.12700
H  36.77400 0.92800 25.27800
H  34.77600 2.84100 25.10500
H  37.69800 2.76200 24.29400
H  38.11800 3.31500 25.92400
H  36.68800 3.92800 25.00900
H  34.76400 0.50600 24.12200
H  33.21000 1.07500 24.39300
H  33.96300 -1.34200 25.09500
H  32.62700 -0.46300 25.84700
H  34.28200 -0.53400 26.57200
H  30.22800 2.75000 27.75600
H  30.49500 4.47600 27.90300
H  29.34700 3.62800 28.99400
H  31.15200 2.76100 33.58200
H  31.78000 6.43300 36.00500
H  30.09800 6.07100 36.08500
H  30.67000 7.08800 34.76100
Mg 40.15300 9.32800 30.22500
C  41.72500 10.60600 33.06800
C  37.70900 8.01400 32.21600
C  38.58200 8.12600 27.48600
C  42.99300 10.10300 28.37600
N  39.79300 9.30300 32.36400
C  40.47700 9.97100 33.38300
C  39.81000 9.97300 34.74600
C  38.56600 8.98800 34.46800
C  38.67400 8.79100 32.93800
C  38.48200 7.68500 35.25800
C  39.43200 11.38600 35.26700
C  38.53800 11.37100 36.55600
H  39.17700 12.23600 37.66500
N  38.32000 8.29200 29.90100
C  37.47700 7.80300 30.86200
C  36.44200 7.02900 30.27000
C  36.65200 7.17100 28.85300
C  37.88500 7.97000 28.66600
C  35.44900 6.21700 31.07500
C  35.84800 6.54900 27.73500
O  36.02600 6.84000 26.52800
C  34.75700 5.62100 28.00600
N  40.70400 9.28300 28.16900
C  39.87200 8.63100 27.25800
C  40.58900 8.44700 25.98000
C  41.88100 9.29600 26.14300
C  41.85500 9.63900 27.62600
C  40.91700 6.95500 25.56600
C  41.99400 10.46900 25.17100
C  41.80000 11.86400 25.70600
N  41.92800 10.28300 30.56300
C  43.04500 10.46000 29.70300
C  44.00900 11.17400 30.39600
C  43.53800 11.25400 31.68100
C  42.24000 10.65600 31.78800
C  45.36000 11.64800 29.82500
C  43.85100 11.79300 32.92200
O  44.70500 12.62900 33.20300
C  42.76500 11.24300 33.91800
C  43.45800 10.36300 34.86200
O  43.55400 9.16500 34.76000
O  43.84500 11.15700 35.90700
C  44.43400 10.37900 36.97200
H  36.87300 7.67800 32.83300
H  38.18100 7.59600 26.61900
H  43.92500 10.32900 27.85200
H  40.47300 9.58400 35.51800
H  37.58900 9.42500 34.67600
H  38.60000 6.78300 34.65800
H  37.54500 7.58200 35.80500
H  39.33800 7.68600 35.93400
H  38.88900 11.91900 34.48600
H  40.37100 11.91900 35.42100
H  38.45800 10.33200 36.87500
H  37.54700 11.78500 36.36800
H  36.16500 5.92100 31.84200
H  35.03700 5.31900 30.61300
H  34.58500 6.82500 31.33900
H  34.07900 6.12700 28.69200
H  35.16400 4.64600 28.27200
H  34.26400 5.50500 27.04000
H  39.95300 8.91500 25.22900
H  42.74500 8.63200 26.16700
H  40.26200 6.29800 26.13800
H  41.93900 6.63100 25.76600
H  40.64600 6.83700 24.51700
H  41.23900 10.34000 24.39600
H  42.99000 10.42400 24.72900
H  41.38400 12.49200 24.91800
H  42.72100 12.34100 26.04000
H  41.09200 11.93900 26.53100
H  45.25400 12.23000 28.91000
H  46.12300 10.89800 29.61300
H  45.68200 12.29100 30.64400
H  42.30600 12.02700 34.51900
H  45.01800 9.52500 36.62900
H  43.59000 10.09800 37.60300
H  45.14500 11.07300 37.42300

