158

Mg 16.41800 -2.27300 27.54200
C  15.45500 -0.26600 30.21900
C  18.39400 -4.06900 29.66400
C  17.44900 -4.20700 24.89500
C  14.47800 -0.29300 25.40800
N  16.96500 -2.05400 29.73400
C  16.27300 -1.28700 30.67800
C  16.93000 -1.47900 32.04400
C  17.90600 -2.72400 31.84900
C  17.83400 -2.93400 30.28900
C  19.29200 -2.66100 32.51100
C  15.76600 -1.84600 33.06200
C  15.81700 -1.02500 34.43400
H  17.08800 -0.29000 34.86200
N  17.73100 -3.87800 27.36300
C  18.45700 -4.46000 28.33800
C  19.14200 -5.62300 27.87500
C  18.85000 -5.73900 26.49500
C  17.93900 -4.61900 26.18400
C  19.70400 -6.54000 28.78800
C  19.38900 -6.69500 25.47500
O  19.03300 -6.74500 24.31200
C  20.33000 -7.83200 25.96800
N  16.17700 -2.19800 25.43800
C  16.64200 -3.16400 24.58000
C  16.03900 -2.95100 23.09400
C  14.88800 -1.95400 23.41600
C  15.18800 -1.41100 24.81900
C  17.13700 -2.26500 22.21500
C  13.44500 -2.55200 23.35100
C  13.00300 -3.14100 21.98700
N  15.23800 -0.69600 27.67800
C  14.56900 0.02200 26.72600
C  13.84200 1.08400 27.27700
C  14.13600 1.02400 28.65300
C  15.02300 -0.05300 28.86400
C  12.85000 1.93500 26.67400
C  13.78800 1.52600 29.94700
O  12.91100 2.40100 30.21000
C  14.56700 0.66500 31.00800
C  15.35200 1.68700 31.79900
O  16.50300 1.97800 31.60800
O  14.64200 2.02500 32.91100
C  15.28000 3.12800 33.67900
H  19.03300 -4.60100 30.37200
H  17.73600 -4.80100 24.02500
H  13.75800 0.18800 24.74300
H  17.39300 -0.51400 32.25100
H  17.54300 -3.70300 32.16000
H  19.34400 -1.83200 33.21700
H  20.15200 -2.63500 31.84100
H  19.50700 -3.58000 33.05500
H  15.72500 -2.91300 33.28100
H  14.80000 -1.68300 32.58400
H  15.61700 -1.72900 35.24200
H  14.99200 -0.31300 34.45500
H  20.03900 -7.52100 28.45000
H  19.05400 -6.71100 29.64700
H  20.59700 -6.09900 29.23000
H  21.22500 -7.42400 26.43700
H  20.69900 -8.40800 25.11900
H  19.93000 -8.53500 26.69900
H  15.70200 -3.93600 22.77000
H  15.04700 -1.03700 22.84800
H  17.96000 -2.20900 22.92700
H  16.85500 -1.32900 21.73300
H  17.30100 -2.89500 21.34100
H  12.75100 -1.82700 23.77700
H  13.48900 -3.36000 24.08100
H  12.91500 -4.22200 22.09500
H  13.76800 -3.00300 21.22300
H  12.02600 -2.75100 21.69900
H  12.92300 2.20300 25.62000
H  13.00800 2.89400 27.16800
H  11.83500 1.63200 26.93000
H  13.73500 0.19000 31.52800
H  14.65300 4.01600 33.60200
H  16.30800 3.38900 33.42500
H  15.33000 2.82900 34.72600
Mg 39.84800 9.81600 30.24900
C  41.90000 10.67700 33.04200
C  37.58300 8.42200 32.60600
C  38.30200 8.34300 27.82200
C  42.34300 10.90500 28.09900
N  39.73200 9.59600 32.53700
C  40.66500 10.05000 33.41700
C  40.13800 10.02800 34.82100
C  38.80800 9.17900 34.74400
C  38.68200 9.03400 33.23500
C  38.68500 7.79500 35.43600
C  40.00000 11.45800 35.39700
C  39.29100 11.60800 36.73300
H  39.98200 10.99900 37.92100
N  38.05500 8.72700 30.18300
C  37.34000 8.22900 31.19600
C  36.19300 7.51000 30.66000
C  36.37700 7.52800 29.26200
C  37.63400 8.20600 29.01500
C  35.21400 6.74900 31.49100
C  35.54400 6.95700 28.12800
O  35.92800 7.02100 26.92500
C  34.23300 6.36100 28.35300
N  40.33200 9.44700 28.22700
C  39.41800 8.94400 27.42100
C  39.76000 9.25400 25.91300
C  40.96200 10.24200 26.02900
C  41.16700 10.31300 27.59900
C  39.92900 7.92000 24.97600
C  40.63000 11.65500 25.41400
C  39.69500 12.57200 26.05300
N  41.75100 10.63300 30.46300
C  42.63200 11.02500 29.47600
C  43.78400 11.51100 30.16800
C  43.50700 11.38600 31.54200
C  42.28700 10.85200 31.69600
C  45.13200 11.82000 29.48900
C  44.04700 11.69400 32.79400
O  45.13400 12.20000 33.02600
C  43.01100 11.20900 33.84500
C  43.59200 10.12100 34.72700
O  43.78100 8.93800 34.42500
O  43.90400 10.58600 35.91200
C  44.34400 9.77000 37.00800
H  36.84500 8.11800 33.35200
H  38.03600 7.73800 26.95200
H  43.18900 11.20700 27.47800
H  40.90100 9.52000 35.41100
H  37.88100 9.60800 35.12300
H  37.67200 7.44500 35.63600
H  39.30500 7.78000 36.33200
H  39.13400 7.09200 34.73300
H  39.64700 12.13600 34.62000
H  41.01500 11.76000 35.65400
H  38.25100 11.28600 36.68300
H  39.27400 12.68800 36.88300
H  35.41500 5.68000 31.42600
H  34.27200 7.09000 31.06100
H  35.20700 6.99700 32.55300
H  33.61100 6.44000 27.46100
H  33.74900 6.90000 29.16700
H  34.33200 5.32400 28.67500
H  38.86300 9.76300 25.56200
H  41.87400 9.83800 25.58900
H  40.93200 7.85600 24.55500
H  39.24600 7.98600 24.12900
H  39.71300 7.00000 25.51900
H  40.10200 11.36700 24.50500
H  41.54200 12.20700 25.18900
H  38.75500 12.53800 25.50200
H  40.00400 13.61600 26.08600
H  39.42100 12.18000 27.03200
H  45.23000 12.83300 29.09700
H  45.41200 11.10300 28.71700
H  45.90500 11.80400 30.25800
H  42.76700 12.13500 34.36600
H  43.92800 10.13200 37.94800
H  45.42600 9.87000 37.08300
H  44.12200 8.70300 36.98700

