158

Mg -1.50300 18.03900 27.84800
C  -2.09800 15.52400 30.44000
C  -2.31300 20.39800 30.23600
C  -1.72700 20.27700 25.39800
C  -1.16700 15.45800 25.62600
N  -2.18200 17.92900 30.08900
C  -2.20500 16.84900 30.90600
C  -2.68600 17.24800 32.38400
C  -2.87500 18.85600 32.17700
C  -2.42000 19.12600 30.74400
C  -4.32900 19.31300 32.54400
C  -1.66800 16.69400 33.40900
C  -1.32900 17.64100 34.56600
H  -0.77800 17.07400 35.85000
N  -1.96200 20.05300 27.82800
C  -2.22900 20.81500 28.93300
C  -2.28300 22.17000 28.50900
C  -2.06200 22.23600 27.12100
C  -1.91500 20.83000 26.71400
C  -2.58100 23.35900 29.42900
C  -1.98500 23.43200 26.17000
O  -1.78800 23.37500 24.92000
C  -2.12800 24.77000 26.77100
N  -1.62900 17.89600 25.81500
C  -1.59700 18.97900 24.97300
C  -1.50600 18.49800 23.52600
C  -1.16000 16.98100 23.66300
C  -1.31900 16.76800 25.16400
C  -2.86300 18.77700 22.74000
C  0.25900 16.69800 22.99700
C  1.48200 17.38600 23.59300
N  -1.59500 15.93500 27.97300
C  -1.47800 15.01600 26.90500
C  -1.50800 13.65700 27.50200
C  -1.74900 13.79600 28.89700
C  -1.86100 15.17500 29.09700
C  -1.39600 12.37400 26.69700
C  -1.93800 13.04300 30.03100
O  -2.05600 11.85800 30.27800
C  -2.13500 14.13700 31.16400
C  -1.07100 13.92000 32.16300
O  0.06400 14.27500 32.02500
O  -1.57800 13.28900 33.22100
C  -0.71600 12.99100 34.29600
H  -2.38400 21.22100 30.95000
H  -1.82800 20.98900 24.57700
H  -0.99900 14.69700 24.86100
H  -3.61100 16.68800 32.52300
H  -2.16100 19.49900 32.69200
H  -4.32400 19.97900 33.40600
H  -4.95600 18.51200 32.93600
H  -4.76200 19.85700 31.70500
H  -0.71400 16.44000 32.94800
H  -2.07200 15.82400 33.92700
H  -2.21900 18.24800 34.72600
H  -0.43400 18.17900 34.25300
H  -1.82000 24.13000 29.31700
H  -2.44700 23.09900 30.47900
H  -3.61600 23.65500 29.25800
H  -3.07000 24.96800 27.28300
H  -2.02500 25.51200 25.97800
H  -1.30400 24.90700 27.47100
H  -0.63400 19.01200 23.12100
H  -1.99600 16.38200 23.30200
H  -2.60200 19.08400 21.72700
H  -3.36700 19.62300 23.20800
H  -3.45800 17.87000 22.84800
H  0.20400 17.07700 21.97700
H  0.31900 15.60900 22.97500
H  1.61500 18.25100 22.94300
H  2.43300 16.85800 23.52700
H  1.33900 17.70000 24.62700
H  -0.82900 12.53700 25.78100
H  -2.38400 12.01800 26.40500
H  -0.82900 11.58300 27.18800
H  -3.06000 14.05800 31.73500
H  -1.45200 12.47100 34.90900
H  -0.31900 13.85900 34.82200
H  0.07500 12.34800 33.90800
Mg 16.54500 52.50700 26.02000
C  18.19900 51.11100 28.97400
C  13.90400 53.24500 28.05900
C  14.88500 53.32400 23.25800
C  19.29500 51.36900 24.25400
N  16.13600 52.12800 28.30100
C  16.91400 51.63300 29.32900
C  16.25100 51.79500 30.72600
C  14.80400 52.38200 30.31400
C  14.94700 52.62200 28.74500
C  13.46500 51.55800 30.69300
C  17.03000 52.77500 31.64400
C  16.43800 52.82900 33.09500
H  15.18800 52.02700 33.56300
N  14.64400 53.23400 25.66400
C  13.69900 53.47100 26.63100
C  12.55700 54.13700 26.07100
C  12.84400 54.22400 24.64100
C  14.21500 53.60600 24.44600
C  11.43100 54.74700 26.87300
C  12.02000 54.68800 23.37900
O  12.48800 54.66000 22.22700
C  10.64800 55.26600 23.52700
N  17.01400 52.32800 24.08400
C  16.14600 52.76500 23.11300
C  16.83400 52.64600 21.78400
C  18.27700 52.15800 22.15700
C  18.25900 52.02000 23.62500
C  15.98200 51.70500 20.89700
C  19.48500 53.07400 21.64000
C  19.33600 54.57000 21.81600
N  18.27300 51.37100 26.43700
C  19.27100 50.99200 25.63400
C  20.23300 50.12300 26.26200
C  19.85100 50.23600 27.58600
C  18.69300 50.99400 27.65100
C  21.40500 49.42800 25.66900
C  20.37200 49.92100 28.90400
O  21.41600 49.46600 29.34200
C  19.25900 50.47600 29.94200
C  18.64100 49.30300 30.65900
O  18.49800 48.17400 30.19600
O  18.30600 49.62700 31.95700
C  17.95900 48.50100 32.81900
H  13.00900 53.53600 28.61400
H  14.40800 53.49500 22.29000
H  20.00000 50.91100 23.55700
H  16.17600 50.81000 31.18800
H  14.56900 53.34900 30.75900
H  12.98200 51.15400 29.80400
H  12.72800 52.23500 31.12500
H  13.66900 50.73600 31.37900
H  16.94600 53.76400 31.19400
H  18.06600 52.45400 31.74500
H  16.29500 53.87600 33.36200
H  17.31900 52.52900 33.66300
H  11.07400 55.68600 26.45000
H  11.76800 54.90900 27.89600
H  10.56000 54.10000 26.98300
H  10.61500 56.16000 24.15100
H  9.97200 54.43600 23.73500
H  10.37500 55.53800 22.50800
H  16.77400 53.62700 21.31300
H  18.49800 51.18800 21.71200
H  16.07300 50.67400 21.23900
H  16.35800 51.81900 19.88000
H  14.93900 52.02100 20.91300
H  19.55200 52.90300 20.56500
H  20.40100 52.82600 22.17700
H  18.95600 55.21800 21.02600
H  20.28000 54.98500 22.16600
H  18.61600 54.74600 22.61500
H  21.19900 49.02900 24.67600
H  21.76000 48.61900 26.30700
H  22.11400 50.24500 25.53900
H  19.82400 51.14200 30.59400
H  16.92400 48.25600 32.58000
H  17.90100 48.79200 33.86800
H  18.67500 47.68300 32.73300

