158

Mg 6.16200 54.76500 42.18600
C  5.70900 51.36500 41.52200
C  9.20900 54.40000 40.62100
C  6.46400 58.08200 42.16600
C  2.86100 54.88500 43.00400
N  7.29400 53.03200 41.07000
C  6.93500 51.78900 40.97800
C  7.94200 50.95400 40.27800
C  9.27900 51.89800 40.43200
C  8.57000 53.21400 40.71400
C  10.43300 51.53700 41.41300
C  7.62000 50.64500 38.69900
C  7.54500 51.78900 37.71100
H  6.30800 51.77500 36.75800
N  7.59900 56.03600 41.38600
C  8.80500 55.71700 40.93200
C  9.71500 56.93800 40.89200
C  8.93600 58.01700 41.36800
C  7.56400 57.42300 41.59800
C  11.16400 56.88100 40.45000
C  9.44200 59.45700 41.51800
O  10.61300 59.79800 41.06800
C  8.53500 60.54200 42.07600
N  4.77100 56.31700 42.34000
C  5.14500 57.65000 42.41200
C  4.07300 58.41600 43.11400
C  2.78200 57.51400 42.98000
C  3.46000 56.13300 42.74900
C  4.46000 58.66100 44.65900
C  1.88400 57.84600 41.79600
C  0.38900 58.24700 42.06700
N  4.59200 53.44800 42.48600
C  3.32400 53.62100 42.90100
C  2.57100 52.38400 43.01600
C  3.55300 51.37000 42.59900
C  4.70500 52.19600 42.16400
C  1.16000 52.26000 43.55100
C  3.87200 49.98100 42.44600
O  3.16300 48.99600 42.60100
C  5.26300 49.94700 41.75000
C  5.16600 49.18600 40.46400
O  4.40200 49.40200 39.52700
O  5.81300 48.01800 40.65700
C  5.65100 46.98600 39.60600
H  10.25000 54.24600 40.32900
H  6.56100 59.14500 42.39500
H  1.80800 54.93900 43.28900
H  8.02200 50.01400 40.82500
H  9.72000 51.90300 39.43500
H  10.39100 52.28200 42.20700
H  11.27300 51.87500 40.80600
H  10.47100 50.50400 41.75900
H  6.72000 50.03300 38.64700
H  8.29400 49.96200 38.18300
H  8.42100 51.57700 37.09800
H  7.60200 52.77400 38.17500
H  11.52200 55.92600 40.06500
H  11.77900 57.08900 41.32500
H  11.34500 57.75000 39.81800
H  7.57000 60.65200 41.58200
H  8.98100 61.53600 42.06200
H  8.31700 60.27300 43.10900
H  4.08500 59.41800 42.68500
H  2.17600 57.54300 43.88500
H  3.69200 58.18800 45.27100
H  4.57600 59.70100 44.96300
H  5.40900 58.14600 44.81000
H  1.88800 57.13200 40.97200
H  2.45600 58.66900 41.36800
H  0.30200 59.04500 42.80500
H  0.03300 57.35900 42.58900
H  -0.07600 58.44300 41.10100
H  0.61500 53.18000 43.33600
H  1.17300 52.04600 44.62000
H  0.65300 51.44700 43.03300
H  5.90700 49.41300 42.44800
H  6.08300 46.01000 39.82700
H  6.17400 47.33600 38.71700
H  4.61400 46.81600 39.31700
Mg -1.86600 35.09500 26.58100
C  -3.62400 33.40000 29.18200
C  -0.76200 37.27700 28.99000
C  -0.84700 37.17900 24.11500
C  -3.90400 33.38000 24.22900
N  -2.21400 35.36100 28.87700
C  -2.86200 34.50000 29.70300
C  -2.42600 34.72800 31.19400
C  -1.49300 35.92400 31.10900
C  -1.45000 36.21900 29.60500
C  -1.77300 37.21000 31.97500
C  -1.87100 33.34200 31.68600
C  -2.52600 32.73100 32.92500
H  -1.70100 32.58400 34.16200
N  -0.81400 36.90100 26.59000
C  -0.42100 37.60800 27.66400
C  0.39400 38.67500 27.19800
C  0.46900 38.58800 25.79600
C  -0.50000 37.56600 25.43900
C  0.97400 39.83200 28.13000
C  1.31600 39.42700 24.83400
O  1.20000 39.38200 23.60400
C  2.44100 40.30700 25.34600
N  -2.55000 35.43300 24.46700
C  -1.77600 36.24300 23.64700
C  -2.06500 35.97700 22.19300
C  -2.93400 34.65000 22.18300
C  -3.25800 34.49700 23.70100
C  -2.72600 37.14300 21.42400
C  -2.20900 33.35400 21.65000
C  -1.04000 32.84600 22.43500
N  -3.31400 33.64100 26.62700
C  -3.97400 32.99100 25.60700
C  -4.74600 31.90200 26.11700
C  -4.70200 32.06900 27.51800
C  -3.80900 33.15200 27.79900
C  -5.57100 30.92400 25.41400
C  -5.11100 31.49800 28.74300
O  -5.83600 30.57900 28.97300
C  -4.48600 32.32000 29.87100
C  -5.66700 32.73600 30.68500
O  -6.47700 33.60700 30.39000
O  -5.68600 31.98600 31.82900
C  -6.66100 32.53000 32.82300
H  -0.16700 37.78300 29.75300
H  -0.46000 37.72800 23.25400
H  -4.19700 32.72200 23.40800
H  -3.27200 35.00900 31.82100
H  -0.48900 35.56800 31.34200
H  -0.82000 37.39500 32.47200
H  -2.44800 37.01600 32.80800
H  -2.16600 38.01400 31.35300
H  -0.79500 33.39300 31.85200
H  -1.83900 32.62600 30.86500
H  -2.86600 31.72300 32.68600
H  -3.39400 33.33500 33.19000
H  1.90900 39.48300 28.57000
H  0.19500 39.96000 28.88200
H  1.17900 40.82800 27.73900
H  2.96000 39.93100 26.22800
H  1.89200 41.21300 25.60300
H  3.06800 40.44400 24.46500
H  -1.16500 35.71500 21.63800
H  -3.90200 34.79400 21.70300
H  -3.77600 36.90400 21.25700
H  -2.27600 37.45200 20.48000
H  -2.76200 38.00400 22.09200
H  -1.91100 33.52100 20.61500
H  -3.01700 32.62500 21.71100
H  -1.34800 31.98500 23.02900
H  -0.62000 33.64300 23.04900
H  -0.22800 32.53200 21.78000
H  -5.07400 30.92500 24.44400
H  -6.63800 31.14600 25.44600
H  -5.38300 29.94300 25.85000
H  -3.91700 31.65600 30.52200
H  -7.63700 32.08200 32.64000
H  -6.73700 33.60500 32.66100
H  -6.34400 32.38300 33.85600

