158

Mg 24.09500 -5.40300 45.33400
C  26.19100 -3.09200 43.76800
C  21.42800 -4.16100 43.47900
C  22.45500 -8.39500 45.78100
C  26.88700 -6.85800 46.86900
N  23.81500 -3.72400 43.88800
C  24.83800 -2.94100 43.39500
C  24.22700 -1.86200 42.51500
C  22.67900 -1.99200 42.85100
C  22.58100 -3.33000 43.52900
C  22.12100 -0.84500 43.74300
C  24.67700 -2.01600 40.99900
C  25.52500 -0.81700 40.45200
H  25.11800 -0.53500 39.01800
N  22.20400 -6.22600 44.68700
C  21.30000 -5.51000 43.88200
C  20.17300 -6.38200 43.63400
C  20.49300 -7.69900 44.22900
C  21.74900 -7.49400 44.92400
C  18.95500 -5.99500 42.84100
C  19.65000 -9.00400 43.95600
O  18.46600 -8.98600 43.54000
C  20.35400 -10.33700 44.19800
N  24.65700 -7.41400 46.15200
C  23.67900 -8.34800 46.41300
C  24.20100 -9.56600 47.25200
C  25.71500 -9.11400 47.53300
C  25.75000 -7.67100 46.88300
C  23.39900 -9.79600 48.55100
C  26.76300 -10.10300 47.09600
C  27.93700 -10.35100 47.94400
N  26.14500 -4.95000 45.46400
C  27.13800 -5.62800 46.05900
C  28.39000 -4.88200 45.90600
C  28.05900 -3.99100 44.85400
C  26.68900 -4.01100 44.68800
C  29.72900 -5.19700 46.48200
C  28.58200 -2.95800 43.94400
O  29.74300 -2.66100 43.75100
C  27.38400 -2.28100 43.31000
C  27.31900 -0.85700 43.68500
O  26.56900 -0.35300 44.51200
O  28.16600 -0.18200 42.86500
C  28.43900 1.20500 43.19100
H  20.61900 -3.70900 42.90200
H  21.84400 -9.22300 46.14700
H  27.75800 -7.33600 47.32000
H  24.62900 -0.93700 42.92700
H  22.02900 -2.08400 41.98100
H  21.32700 -0.27400 43.26100
H  22.89600 -0.13000 44.01900
H  21.72900 -1.28800 44.65900
H  23.81200 -2.23400 40.37400
H  25.41500 -2.81500 40.93500
H  26.57700 -1.10200 40.41500
H  25.36800 0.14700 40.93700
H  19.01100 -5.92400 41.75400
H  18.70500 -4.96200 43.08500
H  18.08900 -6.46700 43.30400
H  21.40900 -10.11200 44.04300
H  19.98400 -11.00600 43.42000
H  20.19800 -10.67000 45.22400
H  24.20400 -10.48800 46.67100
H  25.92400 -9.04700 48.60100
H  22.80500 -10.70700 48.48600
H  22.72400 -8.94100 48.52300
H  24.08100 -9.74400 49.40100
H  27.02600 -10.03200 46.04000
H  26.21100 -11.04300 47.04900
H  28.88400 -10.11100 47.46000
H  27.99700 -11.40500 48.21400
H  27.98700 -9.77400 48.86800
H  29.70400 -5.43600 47.54500
H  30.33000 -4.30100 46.33100
H  30.12700 -6.03300 45.90600
H  27.39000 -2.25600 42.22000
H  27.83500 1.70100 43.95100
H  28.41700 1.89300 42.34500
H  29.47600 1.22400 43.52700
Mg 41.82900 40.70500 26.43900
C  40.97000 43.08300 29.05700
C  42.83700 38.64600 29.01600
C  43.10300 38.70900 24.09800
C  41.25300 43.11200 24.10400
N  41.89700 40.93700 28.84200
C  41.41200 41.88800 29.69200
C  41.46100 41.49500 31.17100
C  42.42700 40.22500 31.03500
C  42.35800 39.82900 29.52700
C  43.88100 40.31300 31.52700
C  40.17300 41.34600 31.88200
C  39.96300 42.23300 33.17300
H  39.24500 41.61100 34.32700
N  42.66600 38.80900 26.47800
C  43.06800 38.21000 27.69200
C  43.59800 36.87100 27.23900
C  43.64700 36.86000 25.80100
C  43.03800 38.17100 25.40800
C  43.96100 35.78500 28.24300
C  44.22100 35.88000 24.78600
O  44.11100 35.95800 23.57400
C  44.88300 34.59000 25.30600
N  42.16800 40.93300 24.41200
C  42.69700 39.97300 23.61000
C  42.42500 40.19900 22.15500
C  41.71000 41.59200 22.16000
C  41.72500 41.96200 23.62800
C  43.63500 40.01700 21.24900
C  40.28200 41.71100 21.49800
C  39.94000 42.98700 20.67100
N  41.22300 42.71400 26.55100
C  41.00400 43.52900 25.43700
C  40.48000 44.76500 25.96000
C  40.41300 44.65300 27.34300
C  40.94600 43.41400 27.68400
C  40.01100 45.93100 25.10700
C  39.97500 45.30700 28.58800
O  39.39200 46.43000 28.74800
C  40.27000 44.19400 29.71700
C  41.13800 44.76000 30.76900
O  42.34200 44.60300 30.86200
O  40.32700 45.51000 31.59800
C  41.03800 46.02400 32.77800
H  43.05600 37.84300 29.72200
H  43.54000 38.18600 23.24500
H  40.96400 43.88100 23.38500
H  41.97200 42.29700 31.70300
H  42.02000 39.48100 31.71900
H  44.70900 40.45700 30.83300
H  44.05500 39.35900 32.02500
H  43.86500 41.09500 32.28600
H  40.04900 40.30700 32.18800
H  39.27500 41.50800 31.28600
H  39.41500 43.09000 32.78200
H  40.90400 42.63300 33.55100
H  43.64400 34.82200 27.84300
H  43.50500 35.86700 29.23000
H  45.03100 35.71000 28.43400
H  44.12600 34.00100 25.82300
H  45.84500 34.61300 25.81800
H  45.15200 34.03900 24.40500
H  41.62000 39.53000 21.85000
H  42.28800 42.34800 21.62800
H  43.29400 39.33100 20.47500
H  44.51400 39.68700 21.80300
H  43.97600 40.88800 20.68900
H  39.55400 41.58300 22.29900
H  40.16500 40.80500 20.90400
H  40.79000 43.65300 20.52600
H  39.11000 43.54300 21.10800
H  39.55700 42.54100 19.75300
H  39.79900 45.65900 24.07200
H  40.77200 46.71100 25.10100
H  39.03300 46.23900 25.47600
H  39.27700 43.96500 30.10500
H  41.27300 45.18500 33.43400
H  40.31100 46.70200 33.22500
H  41.91100 46.63100 32.53900

