158

Mg 48.00400 25.21100 30.31600
C  49.20900 27.62400 32.67400
C  46.90900 23.48600 32.88500
C  47.22700 23.04000 28.04800
C  49.69500 27.18100 27.83700
N  47.89100 25.65600 32.51400
C  48.46600 26.62800 33.29800
C  48.06600 26.43500 34.80900
C  47.44500 25.00600 34.79600
C  47.37500 24.71400 33.27500
C  48.17100 23.94400 35.78800
C  47.12900 27.55600 35.36600
C  47.66000 28.18900 36.66500
H  46.64900 28.53200 37.82600
N  47.15500 23.34700 30.49100
C  46.74400 22.77900 31.62700
C  46.12500 21.49300 31.30800
C  46.21900 21.33500 29.83300
C  46.89600 22.56900 29.35900
C  45.34700 20.62800 32.26300
C  45.74200 20.29200 28.93700
O  46.22000 20.28700 27.76300
C  44.92900 19.13900 29.36000
N  48.50800 25.13600 28.32800
C  47.97900 24.13100 27.61600
C  48.31400 24.20400 26.11100
C  49.20500 25.46800 26.07400
C  49.10900 26.01700 27.49600
C  48.93500 22.92300 25.47400
C  48.77000 26.43000 25.04600
C  47.39000 27.12400 25.36000
N  49.23400 26.95700 30.17200
C  49.78600 27.69400 29.14100
C  50.47100 28.87100 29.57000
C  50.22300 28.88700 30.93400
C  49.53800 27.70400 31.27400
C  51.20000 29.85000 28.70500
C  50.45400 29.63600 32.18100
O  50.89800 30.78100 32.37600
C  49.85400 28.82300 33.32800
C  51.02500 28.44000 34.28100
O  51.98300 27.78700 34.03600
O  50.76600 29.02900 35.50500
C  51.62000 28.79500 36.66400
H  46.48300 22.87900 33.68700
H  46.84100 22.46500 27.20400
H  50.27500 27.69200 27.06500
H  48.97200 26.43000 35.41500
H  46.39200 25.04200 35.07400
H  48.54000 23.08300 35.23100
H  47.44000 23.70800 36.56200
H  49.00500 24.39700 36.32400
H  46.07800 27.28900 35.47100
H  47.06800 28.28100 34.55400
H  48.23300 29.09200 36.45200
H  48.42600 27.73200 37.29000
H  44.29900 20.57500 31.96600
H  45.44000 20.75400 33.34200
H  45.68800 19.59800 32.15700
H  44.00700 19.50700 29.81000
H  45.49400 18.50200 30.04100
H  44.69800 18.56800 28.46100
H  47.38500 24.35800 25.56200
H  50.26600 25.27400 25.91900
H  48.95800 22.13300 26.22400
H  49.89300 23.17600 25.02100
H  48.19100 22.63700 24.73100
H  48.80600 25.83200 24.13500
H  49.46200 27.27100 24.99600
H  47.60700 28.19200 25.38200
H  46.92000 26.71200 26.25300
H  46.78400 26.87700 24.48800
H  50.90900 29.83300 27.65500
H  52.26500 29.61800 28.72900
H  51.07900 30.82900 29.16900
H  49.09800 29.37000 33.89200
H  52.58300 28.37000 36.37800
H  51.14900 28.09400 37.35300
H  51.82800 29.71900 37.20400
Mg -11.95600 16.15200 42.30900
C  -9.03700 14.61500 41.42500
C  -10.94500 18.95800 40.56000
C  -15.30500 17.48000 42.29500
C  -13.26400 13.21100 43.44300
N  -10.19800 16.67000 41.00900
C  -9.10000 15.92100 40.86100
C  -7.97400 16.66600 40.25700
C  -8.57400 18.11700 40.12500
C  -10.01100 17.92000 40.54500
C  -7.86900 19.09900 41.07300
C  -7.43200 16.05900 38.90000
C  -6.03900 15.60900 38.84900
H  -5.21600 16.14100 37.72200
N  -12.97200 18.03800 41.63600
C  -12.25800 19.05200 41.08500
C  -13.18300 20.21800 40.94900
C  -14.42000 19.82800 41.51300
C  -14.29200 18.40500 41.82200
C  -12.79200 21.59200 40.30200
C  -15.60800 20.75200 41.78700
O  -15.53000 21.93300 41.49100
C  -16.85700 20.24400 42.48100
N  -13.95000 15.45500 42.88100
C  -15.12300 16.20100 42.80400
C  -16.26400 15.40700 43.25800
C  -15.64900 14.06100 43.72700
C  -14.19200 14.21900 43.31700
C  -17.14700 15.99700 44.37600
C  -16.22700 12.70900 43.04000
C  -16.56200 11.65300 44.04200
N  -11.30900 14.29400 42.46300
C  -11.88500 13.22700 43.06700
C  -10.88000 12.13300 43.11200
C  -9.69800 12.65500 42.54800
C  -10.03700 13.93900 42.12300
C  -11.25300 10.77900 43.66200
C  -8.32600 12.34100 42.33600
O  -7.65200 11.37900 42.63100
C  -7.79200 13.68300 41.52000
C  -6.71900 14.27500 42.41700
O  -6.89100 15.26100 43.16900
O  -5.52000 13.71900 42.21300
C  -4.38800 14.12100 43.04200
H  -10.46300 19.86800 40.19700
H  -16.36900 17.71600 42.21900
H  -13.54700 12.24600 43.86700
H  -7.10400 16.72800 40.91200
H  -8.46800 18.52000 39.11700
H  -8.63300 19.47700 41.75200
H  -7.32800 19.90400 40.57600
H  -7.16100 18.58000 41.71800
H  -7.53000 16.85700 38.16400
H  -8.12200 15.31500 38.50100
H  -6.19800 14.53100 38.88200
H  -5.57300 16.00600 39.75100
H  -13.43900 21.77700 39.44500
H  -11.72800 21.66700 40.07300
H  -12.99000 22.32500 41.08400
H  -16.57300 19.51200 43.23700
H  -17.57100 19.85100 41.75700
H  -17.31000 21.06500 43.03600
H  -16.88500 15.23000 42.37900
H  -15.74500 14.14600 44.81000
H  -16.77200 16.94200 44.76900
H  -17.25900 15.26300 45.17400
H  -18.10600 16.24400 43.92100
H  -15.44400 12.37600 42.35900
H  -17.18500 12.95000 42.58000
H  -17.63500 11.46900 43.98100
H  -16.30500 11.97800 45.05000
H  -15.99200 10.77800 43.73100
H  -10.30700 10.40200 44.05200
H  -11.70900 10.19800 42.86000
H  -11.90200 10.75000 44.53700
H  -7.29900 13.43700 40.57900
H  -3.92000 13.20600 43.40500
H  -4.53700 14.76700 43.90700
H  -3.75400 14.66400 42.34200

