158

Mg -1.92500 17.92300 26.91100
C  -2.68400 15.58900 29.47400
C  -2.85600 20.46300 29.04300
C  -1.12700 20.05800 24.55100
C  -1.69000 15.19000 24.67600
N  -2.77500 17.98800 28.97800
C  -2.91000 16.92900 29.89700
C  -3.33300 17.46500 31.32700
C  -3.30100 19.03400 31.04400
C  -3.00800 19.21400 29.58100
C  -4.60900 19.86800 31.58300
C  -2.50500 16.82700 32.52100
C  -2.43500 17.81600 33.76100
H  -1.91000 17.26900 35.12200
N  -1.92700 20.04500 26.84900
C  -2.38500 20.91500 27.80800
C  -2.32800 22.24300 27.33500
C  -1.67200 22.16500 26.03400
C  -1.59700 20.73700 25.73800
C  -2.92400 23.43500 28.14000
C  -1.19800 23.25100 25.17100
O  -0.59900 23.10500 24.08100
C  -1.35900 24.68100 25.53800
N  -1.61300 17.69200 24.86700
C  -1.13600 18.74500 24.15100
C  -0.85100 18.37700 22.71600
C  -0.94600 16.81500 22.75100
C  -1.48000 16.50800 24.13300
C  -1.75000 19.02300 21.65100
C  0.38400 16.16300 22.47700
C  1.49000 16.29700 23.45800
N  -2.18900 15.79900 27.00200
C  -2.07100 14.80900 26.04000
C  -2.20200 13.46000 26.55400
C  -2.47400 13.71600 27.92700
C  -2.42900 15.18100 28.11600
C  -2.19800 12.16400 25.74300
C  -2.77900 13.10500 29.20400
O  -2.94600 11.90300 29.47500
C  -2.88500 14.33900 30.24100
C  -1.81500 14.07700 31.28500
O  -0.70200 14.50000 31.33600
O  -2.40700 13.35700 32.25400
C  -1.66100 13.07900 33.46500
H  -2.99500 21.21200 29.82600
H  -0.65000 20.69300 23.80100
H  -1.66000 14.36900 23.95700
H  -4.37500 17.16100 31.42700
H  -2.45700 19.51300 31.53900
H  -5.27400 19.24000 32.17600
H  -5.12900 20.18100 30.67800
H  -4.27500 20.68400 32.22300
H  -1.48000 16.69300 32.17500
H  -3.02800 15.93600 32.86700
H  -3.38900 18.29300 33.98400
H  -1.86900 18.71200 33.50800
H  -3.61900 22.98300 28.84800
H  -3.39700 24.18700 27.50900
H  -2.03300 23.87500 28.58700
H  -2.38600 25.01200 25.38200
H  -0.67700 25.36100 25.02700
H  -1.26400 24.80500 26.61600
H  0.14400 18.70300 22.41300
H  -1.58900 16.48000 21.93700
H  -2.71300 18.51500 21.60200
H  -1.20300 18.98600 20.70900
H  -1.84300 20.06800 21.94700
H  0.81800 16.54600 21.55400
H  0.29800 15.08200 22.36400
H  1.83500 15.30200 23.73900
H  1.12600 16.85500 24.32100
H  2.24300 16.92500 22.98200
H  -2.72300 12.16200 24.78900
H  -2.82600 11.40100 26.20100
H  -1.24400 11.65000 25.62500
H  -3.85900 14.17000 30.70100
H  -0.68300 12.70900 33.15800
H  -2.16400 12.35900 34.11100
H  -1.52100 14.02300 33.99200
Mg 24.29600 -5.27400 46.24900
C  26.53000 -2.88000 44.77100
C  21.83100 -4.14000 43.99300
C  22.62500 -7.93400 46.91300
C  26.87200 -6.24900 48.24600
N  24.25400 -3.79300 44.56900
C  25.22100 -2.87200 44.24200
C  24.78000 -2.04200 43.05300
C  23.18400 -2.14200 43.17200
C  23.13000 -3.48600 43.98300
C  22.45100 -0.92500 43.88800
C  25.36500 -2.69500 41.77000
C  26.32800 -1.83200 40.90400
H  26.14300 -1.81700 39.40000
N  22.39100 -5.88700 45.57200
C  21.55400 -5.32600 44.67400
C  20.37200 -6.19200 44.49100
C  20.55000 -7.25600 45.45500
C  21.85900 -7.04500 46.06900
C  19.32900 -5.91200 43.42700
C  19.56400 -8.36700 45.66500
O  18.51700 -8.27600 45.01900
C  19.83000 -9.56300 46.61800
N  24.70700 -6.91400 47.39000
C  23.85500 -7.94800 47.56200
C  24.42800 -8.91300 48.62800
C  25.76300 -8.30400 49.13400
C  25.80800 -7.06900 48.19000
C  23.45800 -9.24400 49.77100
C  27.02900 -9.30300 48.97400
C  27.11300 -10.36000 50.06500
N  26.33400 -4.75400 46.48300
C  27.22500 -5.18500 47.40900
C  28.48900 -4.48900 47.23800
C  28.30300 -3.57500 46.18900
C  26.95200 -3.78600 45.76300
C  29.75600 -4.67100 48.05900
C  28.95400 -2.58000 45.36000
O  30.07100 -2.08900 45.33400
C  27.75300 -2.06400 44.32800
C  27.57700 -0.60200 44.37900
O  27.15100 0.00400 45.38700
O  28.06700 -0.12900 43.18800
C  28.27600 1.30900 43.18100
H  21.10100 -3.75700 43.27700
H  22.05000 -8.85300 47.04700
H  27.75000 -6.46500 48.85800
H  25.09700 -1.00000 43.09500
H  22.82100 -2.27400 42.15200
H  23.13800 -0.41700 44.56400
H  21.66500 -1.36700 44.50100
H  22.00700 -0.26200 43.14400
H  24.65900 -3.21100 41.11900
H  26.01900 -3.53300 42.01000
H  27.31400 -2.25900 41.08500
H  26.39200 -0.81600 41.29400
H  19.78600 -5.29500 42.65300
H  18.45800 -5.42700 43.86900
H  18.93700 -6.87100 43.08800
H  19.83400 -9.18700 47.64100
H  20.49200 -10.37400 46.31700
H  18.89000 -10.10400 46.51300
H  24.63600 -9.86600 48.14100
H  25.64500 -7.85600 50.12000
H  23.07400 -10.25600 49.64000
H  22.62300 -8.54300 49.77200
H  23.93100 -9.20900 50.75200
H  27.97200 -8.79600 49.17700
H  27.07800 -9.82900 48.02100
H  27.23300 -11.32400 49.57100
H  26.13600 -10.39900 50.54800
H  27.87100 -10.10200 50.80400
H  29.84800 -3.98100 48.89800
H  30.67700 -4.47600 47.51000
H  29.72800 -5.71900 48.35800
H  28.04600 -2.38900 43.33000
H  27.66300 1.94700 43.81800
H  27.94100 1.70100 42.22000
H  29.31300 1.60500 43.33900

