158

Mg 9.00600 4.13500 27.97500
C  10.31700 2.44300 30.70300
C  7.00400 6.03300 30.01000
C  7.57700 5.60700 25.25100
C  10.53000 1.79900 25.77200
N  8.75000 4.15500 30.10200
C  9.41000 3.47200 31.08200
C  8.97300 3.76200 32.46100
C  7.86700 4.87600 32.19400
C  7.84500 5.06200 30.66700
C  6.46900 4.60700 32.83200
C  10.11200 4.15000 33.40600
C  9.61600 4.78100 34.75000
H  10.73700 5.04100 35.79100
N  7.66100 5.68400 27.65800
C  6.95800 6.34100 28.65500
C  6.13100 7.42700 28.12900
C  6.30100 7.41100 26.64200
C  7.17100 6.16700 26.45500
C  5.30200 8.42100 28.87200
C  5.77700 8.32900 25.55000
O  5.99300 8.18700 24.34500
C  5.14700 9.46300 25.93500
N  9.02200 3.70100 25.76100
C  8.44900 4.50700 24.87700
C  8.51900 3.92100 23.43200
C  9.58900 2.76200 23.70600
C  9.73300 2.75500 25.21300
C  7.07500 3.42100 22.92100
C  10.89900 2.80700 22.87200
C  11.43800 1.59800 22.14800
N  10.22700 2.44800 28.15300
C  10.73200 1.61900 27.17600
C  11.58900 0.66900 27.91200
C  11.40700 0.87200 29.28200
C  10.62800 2.05300 29.33300
C  12.31100 -0.50800 27.26800
C  11.79600 0.48800 30.60500
O  12.46300 -0.52300 30.88600
C  11.05000 1.43500 31.58000
C  10.01000 0.68400 32.31400
O  8.94600 0.30400 31.88800
O  10.54600 0.47500 33.58000
C  9.47600 -0.06100 34.48000
H  6.51600 6.66900 30.75200
H  7.04100 5.97600 24.37400
H  11.03700 1.10600 25.09700
H  8.53500 2.82500 32.80200
H  8.28500 5.76100 32.67400
H  6.38500 5.33700 33.63700
H  6.45700 3.59700 33.24100
H  5.60100 4.64400 32.17400
H  10.78000 4.78800 32.82700
H  10.63800 3.22900 33.65700
H  8.81900 4.21000 35.22600
H  9.26100 5.79600 34.57300
H  5.62300 9.45700 28.76000
H  5.39800 8.16100 29.92600
H  4.23700 8.44000 28.64100
H  4.12000 9.24600 26.23000
H  4.96800 10.15400 25.11100
H  5.67300 9.94100 26.76100
H  9.03700 4.50600 22.67200
H  9.21900 1.73900 23.63500
H  7.00900 2.33800 23.02800
H  6.76800 3.78000 21.93900
H  6.36100 3.81900 23.64200
H  11.69600 3.17800 23.51600
H  10.81200 3.54600 22.07600
H  12.46500 1.58700 22.51300
H  11.38200 1.69400 21.06400
H  10.99300 0.70400 22.58500
H  12.12400 -0.59100 26.19800
H  12.03300 -1.45800 27.72500
H  13.39700 -0.48300 27.35600
H  11.80300 1.92600 32.19700
H  8.88300 0.84600 34.59800
H  9.89300 -0.30300 35.45700
H  8.90600 -0.92600 34.14300
Mg 41.24900 8.37400 29.47700
C  43.32800 9.80200 32.02800
C  39.42900 6.96700 31.67900
C  39.48100 7.36900 26.77400
C  43.69800 9.58800 27.14600
N  41.46300 8.29200 31.61500
C  42.20500 9.04300 32.49900
C  41.71200 8.87900 33.90800
C  40.68000 7.72500 33.78000
C  40.43300 7.70300 32.24300
C  41.10200 6.29800 34.34300
C  41.24200 10.22400 34.47500
C  41.13600 10.16600 36.05600
H  41.57900 11.35600 36.89600
N  39.60800 7.35400 29.25100
C  39.01900 6.78400 30.31900
C  37.90800 6.03600 29.77400
C  37.72600 6.37300 28.44000
C  38.99600 7.02800 28.06500
C  37.08600 5.15800 30.63500
C  36.67900 5.94900 27.46100
O  36.84500 6.20200 26.25400
C  35.38600 5.24100 27.75300
N  41.64700 8.24100 27.36200
C  40.68200 7.89300 26.43000
C  41.30600 7.73500 25.07600
C  42.41900 8.89200 25.13200
C  42.65300 8.86700 26.62900
C  41.85100 6.31100 24.66400
C  41.94400 10.30400 24.71800
C  42.98800 10.88800 23.76400
N  43.18100 9.36300 29.55100
C  44.01900 9.82000 28.53200
C  45.14000 10.48500 29.10800
C  44.85200 10.55500 30.43800
C  43.69100 9.88100 30.68700
C  46.24000 11.02200 28.25800
C  45.31400 11.12300 31.72200
O  46.23500 11.84800 31.96500
C  44.26700 10.72000 32.77100
C  45.00500 9.87600 33.75800
O  45.63100 8.88600 33.55200
O  44.73400 10.43900 34.99900
C  45.53000 9.81600 36.07000
H  38.78100 6.36600 32.32100
H  38.93200 7.14500 25.85700
H  44.33700 10.10000 26.42300
H  42.43000 8.45100 34.60700
H  39.74200 8.03700 34.24100
H  42.08600 6.33500 34.81100
H  41.18000 5.48200 33.62300
H  40.28800 6.00200 35.00400
H  40.21200 10.30800 34.13000
H  41.75800 11.08600 34.05200
H  41.67200 9.31500 36.47600
H  40.06500 10.04100 36.21200
H  37.83700 4.51800 31.10000
H  36.38400 4.63800 29.98300
H  36.44700 5.63400 31.37900
H  34.96500 5.46000 28.73400
H  35.62800 4.17800 27.76800
H  34.62500 5.56000 27.04100
H  40.65600 8.13000 24.29400
H  43.34300 8.56400 24.65600
H  41.55200 5.57100 25.40700
H  42.93900 6.23900 24.64100
H  41.34600 6.09600 23.72300
H  41.79100 10.96200 25.57300
H  40.99700 10.20200 24.18900
H  43.68200 10.14800 23.36600
H  43.51500 11.73800 24.19700
H  42.47200 11.24300 22.87300
H  45.85400 11.43000 27.32400
H  46.93500 10.25200 27.92400
H  46.71500 11.81100 28.84000
H  43.87200 11.65700 33.16600
H  45.30900 10.30000 37.02100
H  46.58000 9.60300 35.87000
H  45.16800 8.79200 36.16100

