158

Mg 17.21800 52.14300 26.56000
C  18.84800 50.78100 29.24800
C  14.70400 53.14600 28.67800
C  15.36800 52.94300 23.82900
C  19.50700 50.67300 24.47800
N  16.82900 51.99300 28.75500
C  17.68800 51.44700 29.63100
C  17.18500 51.64700 31.02600
C  15.72400 52.31100 30.87600
C  15.73400 52.53300 29.38400
C  14.60600 51.38200 31.44200
C  18.14400 52.56000 31.85600
C  18.07600 52.43900 33.38200
H  17.13800 51.38200 34.01300
N  15.34300 53.00200 26.32100
C  14.40300 53.23600 27.30700
C  13.35500 54.01000 26.70500
C  13.55300 53.94000 25.32100
C  14.79100 53.17900 25.09500
C  12.24800 54.77400 27.54200
C  12.63400 54.49600 24.18800
O  12.81000 54.32100 23.00200
C  11.29600 55.08200 24.65200
N  17.41700 51.90100 24.39600
C  16.61000 52.41500 23.47100
C  17.18300 52.35500 22.02800
C  18.62100 51.72700 22.36500
C  18.52300 51.41200 23.89300
C  16.41300 51.39200 21.02700
C  19.81500 52.62400 21.86900
C  20.49200 52.14700 20.55600
N  18.90300 50.98500 26.78500
C  19.75200 50.40300 25.83500
C  20.80000 49.76200 26.48100
C  20.50100 49.84900 27.81400
C  19.27100 50.55500 27.92800
C  21.99300 49.07700 25.94300
C  20.98000 49.53500 29.15400
O  21.92700 48.85600 29.54700
C  19.89000 50.08300 30.09200
C  19.41900 48.86300 30.88000
O  18.87300 47.89100 30.37100
O  19.63100 48.96200 32.25200
C  19.21900 47.83900 33.14200
H  13.88400 53.58000 29.25500
H  14.80300 53.31700 22.97300
H  20.24600 50.19000 23.83500
H  17.15000 50.69400 31.55300
H  15.70400 53.27400 31.38600
H  14.04600 51.93500 32.19600
H  14.94400 50.40500 31.78600
H  13.94800 51.24600 30.58400
H  17.91800 53.58300 31.55700
H  19.17000 52.40200 31.52200
H  17.99100 53.41300 33.86400
H  19.07900 52.06900 33.59600
H  12.17100 55.83800 27.32100
H  12.45900 54.56000 28.59000
H  11.27600 54.32500 27.33800
H  10.69500 55.27700 23.76300
H  11.54700 56.03300 25.12100
H  10.69800 54.33800 25.17800
H  17.26300 53.40900 21.76300
H  18.76700 50.73200 21.94500
H  15.37100 51.41700 21.34500
H  16.84500 50.39300 20.97100
H  16.49300 51.77800 20.01000
H  20.50700 52.91000 22.66200
H  19.41700 53.57900 21.52400
H  19.80200 51.44900 20.08000
H  21.41000 51.59500 20.75500
H  20.64000 53.02800 19.93200
H  21.80900 48.21100 25.30600
H  22.56700 48.84400 26.84000
H  22.64300 49.74000 25.37100
H  20.33700 50.71700 30.85700
H  18.21700 47.43300 33.00200
H  19.27800 48.06900 34.20600
H  19.86400 46.96800 33.02500
Mg -11.26500 38.00700 42.69500
C  -9.06800 35.40100 41.46800
C  -9.42100 40.19100 40.98600
C  -13.83000 40.00400 42.96700
C  -13.26300 35.32200 44.16400
N  -9.54800 37.74000 41.26100
C  -8.81100 36.61900 40.96700
C  -7.61900 36.97300 40.09900
C  -7.60700 38.57500 40.24600
C  -8.97400 38.89500 40.85600
C  -6.40700 39.13000 41.08400
C  -7.78900 36.46100 38.65400
C  -6.62600 35.60900 38.24200
H  -5.54000 36.26800 37.38200
N  -11.65300 39.88100 42.06400
C  -10.71100 40.66100 41.45700
C  -11.17000 41.97100 41.38800
C  -12.43100 41.99400 42.06600
C  -12.73900 40.59300 42.40900
C  -10.36800 42.96500 40.69200
C  -13.23300 43.21400 42.30200
O  -12.87000 44.34700 41.87500
C  -14.53600 43.14100 43.04000
N  -13.25500 37.65000 43.43600
C  -14.12700 38.70100 43.38100
C  -15.49000 38.28700 43.98200
C  -15.35800 36.72800 44.15900
C  -13.85300 36.52400 43.91000
C  -16.00600 39.11800 45.18500
C  -16.20700 35.81200 43.18700
C  -17.21300 34.86800 43.82000
N  -11.11600 35.85100 42.98100
C  -11.95500 34.94800 43.68800
C  -11.22200 33.64500 43.67400
C  -10.10800 33.78900 42.82800
C  -10.10200 35.13000 42.40200
C  -11.71700 32.49000 44.33900
C  -9.03700 33.05000 42.21300
O  -8.79400 31.82500 42.29500
C  -8.28200 34.08400 41.27300
C  -6.80400 34.02900 41.64000
O  -6.23200 34.83900 42.38700
O  -6.21000 32.98000 41.01000
C  -4.76100 32.75100 41.36100
H  -8.80100 41.03100 40.66600
H  -14.68900 40.67600 43.01800
H  -13.87300 34.52300 44.59100
H  -6.71000 36.55100 40.52700
H  -7.45000 39.08200 39.29400
H  -5.93300 39.78400 40.35200
H  -5.63700 38.42500 41.39800
H  -6.68400 39.73100 41.95000
H  -7.70200 37.33400 38.00800
H  -8.78600 36.04200 38.51600
H  -7.03800 34.70900 37.78400
H  -6.20900 35.18300 39.15500
H  -9.42700 43.19700 41.19000
H  -10.86600 43.91600 40.50200
H  -10.13200 42.69200 39.66300
H  -15.26200 42.66100 42.38300
H  -14.73100 44.18800 43.27300
H  -14.37800 42.67900 44.01500
H  -16.30000 38.38600 43.26000
H  -15.63200 36.38000 45.15500
H  -16.84600 39.63800 44.72500
H  -15.27100 39.86700 45.47900
H  -16.38600 38.49300 45.99200
H  -15.50300 35.22500 42.59600
H  -16.69600 36.37000 42.38800
H  -17.56500 35.37600 44.71900
H  -16.77100 33.92800 44.14800
H  -18.13200 34.79600 43.23900
H  -12.29900 32.49700 45.26100
H  -10.86700 31.96500 44.77500
H  -12.07700 31.66900 43.72100
H  -8.42800 33.78200 40.23600
H  -4.52600 31.73700 41.03600
H  -4.64400 32.89200 42.43500
H  -4.06200 33.47200 40.93700

