158

Mg 2.59300 -2.04300 44.65400
C  5.52900 -0.68600 43.52600
C  0.83600 0.02100 42.58700
C  -0.26100 -3.85000 45.37900
C  4.50500 -4.48500 46.38900
N  3.12700 -0.62600 43.13100
C  4.44200 -0.17700 42.82800
C  4.42900 0.98800 41.82300
C  2.88000 1.36100 41.80200
C  2.24900 0.23200 42.61200
C  2.57800 2.80600 42.32300
C  5.02000 0.63300 40.43500
C  6.28400 1.37000 40.09100
H  6.59600 1.94100 38.66700
N  0.53500 -1.84600 44.08900
C  0.00100 -0.93500 43.18800
C  -1.32900 -1.19500 43.03900
C  -1.72800 -2.22200 43.93800
C  -0.43900 -2.71700 44.52600
C  -2.32000 -0.37400 42.14800
C  -3.13000 -2.68300 44.21400
O  -4.01000 -2.33100 43.42000
C  -3.55900 -3.77400 45.18800
N  2.23900 -3.93400 45.76100
C  0.96100 -4.37100 45.96000
C  0.92500 -5.66600 46.84700
C  2.44300 -5.99300 46.94500
C  3.10500 -4.76600 46.30700
C  0.27300 -5.65000 48.25200
C  2.93500 -7.27800 46.19600
C  3.22300 -8.40000 47.16400
N  4.64700 -2.49700 44.97600
C  5.23900 -3.44700 45.76700
C  6.66900 -3.20800 45.79000
C  6.82800 -2.14300 44.93400
C  5.55600 -1.73600 44.49700
C  7.76500 -3.94700 46.56100
C  7.84000 -1.28300 44.39700
O  9.03600 -1.21300 44.60300
C  7.06100 -0.31300 43.50500
C  7.22700 1.04600 44.07400
O  8.09100 1.79300 43.66300
O  6.38300 1.34500 45.07000
C  6.65300 2.55200 45.87600
H  0.27000 0.65400 41.90000
H  -1.15200 -4.45000 45.57400
H  5.05600 -5.17600 47.03000
H  4.95000 1.81200 42.30900
H  2.38000 1.32400 40.83400
H  2.67500 3.47900 41.47200
H  3.13900 3.16800 43.18400
H  1.53400 2.82300 42.63500
H  4.32700 0.65600 39.59400
H  5.35900 -0.39900 40.52500
H  7.14500 0.76500 40.37500
H  6.24400 2.22900 40.76100
H  -1.99800 0.66700 42.17300
H  -3.27400 -0.06800 42.57800
H  -2.52500 -0.77500 41.15600
H  -3.03500 -3.63100 46.13200
H  -3.32700 -4.71000 44.68000
H  -4.63100 -3.71700 45.37600
H  0.40800 -6.37400 46.19900
H  2.61100 -6.01000 48.02200
H  -0.81400 -5.62400 48.17300
H  0.55000 -4.73700 48.77900
H  0.50900 -6.54400 48.83000
H  3.90700 -7.09500 45.73900
H  2.20000 -7.52000 45.42800
H  2.46100 -9.17900 47.15000
H  3.23300 -8.02200 48.18600
H  4.18300 -8.85800 46.92300
H  8.29200 -4.58800 45.85300
H  7.27300 -4.49600 47.36400
H  8.41300 -3.23200 47.06800
H  7.59300 -0.33400 42.55400
H  7.68100 2.66600 46.22100
H  5.92100 2.66000 46.67600
H  6.50600 3.33500 45.13200
Mg 34.99700 2.10700 29.98200
C  32.99200 3.26400 32.42000
C  37.72200 2.29200 32.24900
C  37.08900 1.31300 27.40200
C  32.47300 2.61600 27.66800
N  35.34900 2.72600 32.07400
C  34.31600 3.04900 32.86400
C  34.78900 3.25400 34.27100
C  36.37400 3.47300 34.18100
C  36.52800 2.82500 32.76800
C  36.91600 4.92700 34.11500
C  34.32200 1.97400 34.94900
C  34.53800 1.93900 36.53000
H  35.28400 3.11200 37.16900
N  37.04500 1.67700 29.92100
C  37.94100 1.78800 30.93300
C  39.28900 1.50700 30.44400
C  39.14400 1.21800 29.02400
C  37.68700 1.39300 28.72800
C  40.52800 1.51900 31.23500
C  40.26200 0.90800 27.92600
O  40.03700 0.79100 26.72300
C  41.77400 0.52200 28.30300
N  34.70700 1.73200 27.89100
C  35.71000 1.40500 27.03700
C  35.24600 1.38700 25.54000
C  33.67700 1.66100 25.68000
C  33.58900 1.95300 27.19900
C  35.94800 2.48900 24.63700
C  32.84700 0.44300 25.25900
C  32.36000 0.29700 23.75800
N  33.06700 2.86500 29.99400
C  32.14700 3.05400 28.95800
C  30.85000 3.39700 29.53200
C  31.15900 3.56300 30.97600
C  32.50300 3.20100 31.16400
C  29.57900 3.59400 28.83800
C  30.62000 3.89200 32.26900
O  29.50400 4.28200 32.66200
C  31.80800 3.75900 33.26300
C  32.04000 5.01800 34.01800
O  32.57600 6.06300 33.61500
O  31.51000 4.84800 35.26800
C  31.61000 6.09000 36.11000
H  38.52900 2.48100 32.96100
H  37.80000 1.34800 26.57400
H  31.62300 2.82900 27.01700
H  34.39500 4.19600 34.65300
H  36.73900 2.94600 35.06300
H  37.57400 5.17200 34.94900
H  36.05100 5.57100 34.27700
H  37.36200 5.12400 33.14000
H  34.97400 1.16100 34.63000
H  33.30800 1.65500 34.70900
H  34.88000 0.92500 36.74000
H  33.62900 2.04500 37.12100
H  40.41200 0.61700 31.83500
H  40.55700 2.39900 31.87800
H  41.37600 1.53200 30.54900
H  42.32900 1.42800 28.54400
H  42.16700 0.05300 27.40200
H  41.85900 -0.19900 29.11700
H  35.53900 0.41000 25.15600
H  33.43300 2.50700 25.03700
H  36.63900 3.12700 25.18800
H  35.27300 3.13100 24.07100
H  36.55200 1.94200 23.91300
H  31.89000 0.37800 25.77700
H  33.40000 -0.48100 25.42600
H  32.61400 -0.70300 23.40800
H  32.87800 1.04200 23.15400
H  31.27800 0.41100 23.70400
H  29.51100 3.08400 27.87700
H  29.51700 4.65000 28.57700
H  28.78500 3.35500 29.54500
H  31.55600 3.01300 34.01600
H  30.78800 6.00600 36.82000
H  31.31000 6.96900 35.54000
H  32.58900 6.29400 36.54400

