158

Mg 35.31000 48.51200 25.77800
C  35.76600 46.53700 28.70600
C  34.43200 51.12600 27.63700
C  34.69400 50.09700 22.87800
C  36.22800 45.64700 23.98500
N  35.15800 48.76300 27.92000
C  35.50200 47.88200 28.97900
C  35.48600 48.60300 30.31400
C  34.71600 50.01100 29.91500
C  34.79500 50.00300 28.39500
C  33.29200 50.04400 30.44900
C  36.90600 48.78600 31.06100
C  36.88200 48.57500 32.65600
H  35.54900 48.77400 33.38300
N  34.66100 50.35600 25.32400
C  34.40800 51.37100 26.25200
C  34.14000 52.64300 25.58200
C  34.23800 52.32500 24.17800
C  34.58900 50.88600 24.09000
C  33.86800 53.99900 26.42100
C  34.05300 53.25900 22.95800
O  34.20600 52.92600 21.78800
C  33.74400 54.64900 23.26600
N  35.09300 47.87800 23.76500
C  34.87500 48.69600 22.69200
C  34.95800 48.00300 21.31800
C  35.45600 46.55800 21.71700
C  35.60000 46.66600 23.22700
C  33.61600 48.02400 20.57100
C  36.82600 46.12500 21.15000
C  38.05200 46.97900 21.60000
N  35.85700 46.49500 26.17000
C  36.27000 45.44200 25.34000
C  36.69900 44.29100 26.11500
C  36.38400 44.64900 27.42200
C  35.93600 46.00200 27.40400
C  37.38100 43.02200 25.54000
C  36.42900 44.12600 28.77300
O  36.73700 43.04600 29.23600
C  36.04000 45.33200 29.62400
C  34.88600 44.97100 30.57000
O  33.74200 44.71700 30.25800
O  35.37800 44.91100 31.82900
C  34.34300 44.52300 32.83900
H  34.35400 51.99600 28.29300
H  34.61300 50.56200 21.89300
H  36.74600 44.85800 23.43600
H  34.79200 48.10700 30.99300
H  35.38900 50.81000 30.22600
H  32.92500 51.06800 30.37000
H  33.35900 49.85300 31.52000
H  32.76500 49.25300 29.91500
H  37.36000 49.74000 30.79100
H  37.56900 48.05900 30.59300
H  37.34300 49.31700 33.30900
H  37.24000 47.59800 32.97700
H  32.91000 54.50900 26.31700
H  34.70000 54.60700 26.06700
H  34.22400 53.86900 27.44300
H  34.55700 55.11600 23.82200
H  32.83900 54.57600 23.86900
H  33.53000 55.33100 22.44300
H  35.73100 48.51900 20.74800
H  34.74300 45.76200 21.50000
H  32.86700 48.48500 21.21400
H  33.28700 47.02800 20.27200
H  33.75600 48.63600 19.68000
H  36.74400 46.15800 20.06400
H  37.06500 45.09800 21.42400
H  38.45000 46.52100 22.50600
H  37.71600 47.98700 21.84500
H  38.76600 47.02700 20.77800
H  37.70700 43.06700 24.50100
H  36.82700 42.12000 25.80000
H  38.28800 42.89900 26.13200
H  36.95500 45.58200 30.16100
H  34.01800 43.49200 32.69700
H  33.45800 45.14000 32.68200
H  34.70000 44.59800 33.86700
Mg 0.59900 43.06000 25.59300
C  1.84200 43.29600 28.69300
C  -2.59100 42.64500 26.90000
C  -0.53400 42.41000 22.48900
C  3.70500 43.77500 24.38400
N  -0.26400 42.95600 27.57700
C  0.45800 43.04400 28.72700
C  -0.44700 42.96800 29.97700
C  -1.85900 42.61400 29.37900
C  -1.59000 42.81500 27.83900
C  -2.48800 41.32600 29.84200
C  -0.45100 44.35400 30.70700
C  -0.37500 44.37200 32.26900
H  -0.49500 43.01100 33.03600
N  -1.31100 42.61000 24.76700
C  -2.48400 42.49600 25.47300
C  -3.60600 42.39700 24.54500
C  -3.03800 42.36500 23.26600
C  -1.57200 42.46700 23.45600
C  -5.08700 42.32900 24.86600
C  -3.70600 42.17600 21.92600
O  -3.12500 41.97200 20.90900
C  -5.15200 42.44100 21.74200
N  1.42400 43.21100 23.62400
C  0.82400 42.71200 22.51700
C  1.79300 42.64500 21.34000
C  3.04200 43.46200 21.93500
C  2.70000 43.49800 23.42900
C  2.08100 41.21200 20.73300
C  3.17000 44.88100 21.35600
C  2.50500 46.05000 22.17200
N  2.42300 43.35900 26.34400
C  3.63800 43.58100 25.77300
C  4.63600 43.87500 26.70800
C  3.99500 43.77200 27.90100
C  2.60600 43.40500 27.61400
C  6.14000 44.41100 26.47400
C  4.17800 43.85600 29.34800
O  5.12000 44.04100 30.04400
C  2.75700 43.53600 29.95200
C  2.97200 42.34300 30.82400
O  2.60200 41.19500 30.51800
O  3.80800 42.72400 31.87700
C  4.30800 41.70700 32.71500
H  -3.52600 42.59100 27.46100
H  -0.83800 42.07500 21.49500
H  4.69800 44.02900 24.00600
H  0.01200 42.28100 30.68700
H  -2.58800 43.36900 29.67300
H  -1.91300 40.76600 30.57900
H  -2.64400 40.60100 29.04400
H  -3.42500 41.57000 30.34200
H  -1.34600 44.92500 30.46100
H  0.42300 44.88800 30.33500
H  -1.20100 44.95900 32.67100
H  0.51900 44.90100 32.59800
H  -4.95900 41.89700 25.85900
H  -5.58400 41.59500 24.23300
H  -5.61700 43.27900 24.94100
H  -5.65900 41.55600 22.12600
H  -5.39500 42.47800 20.68000
H  -5.48400 43.32800 22.28200
H  1.32000 43.36800 20.67500
H  3.98900 42.94400 21.77800
H  3.01400 41.14300 20.17600
H  1.38100 40.97800 19.93100
H  2.01400 40.40600 21.46400
H  2.87600 44.82800 20.30700
H  4.25000 45.02300 21.37900
H  1.68200 45.77600 22.83200
H  2.02900 46.70100 21.44000
H  3.26700 46.68500 22.62400
H  6.84600 43.60500 26.27200
H  6.51800 44.63600 27.47100
H  6.22600 45.18200 25.70900
H  2.58000 44.39700 30.59700
H  4.32200 42.07500 33.74100
H  5.34600 41.45700 32.49800
H  3.65000 40.83800 32.71400

