158

Mg 23.97700 -5.60800 46.51900
C  25.99000 -3.16100 44.78000
C  21.41300 -4.84800 44.39100
C  22.69700 -8.46800 47.35200
C  27.12700 -6.67900 48.02300
N  23.63300 -3.95300 45.05400
C  24.60800 -3.20100 44.39200
C  23.96100 -2.33500 43.27500
C  22.44600 -2.82500 43.29200
C  22.47900 -3.96600 44.28000
C  21.41900 -1.68900 43.58900
C  24.58100 -2.61900 41.82300
C  25.01200 -1.43500 41.01500
H  24.82100 -1.42400 39.56600
N  22.21900 -6.48200 46.10200
C  21.29800 -5.99200 45.22400
C  20.19600 -6.83900 45.12500
C  20.48200 -7.93200 45.98500
C  21.80800 -7.63000 46.61400
C  18.93500 -6.55300 44.31500
C  19.42600 -8.97800 46.36300
O  18.30700 -9.02200 45.75500
C  19.65400 -9.96400 47.50900
N  24.81300 -7.32300 47.61100
C  23.99500 -8.33700 47.84700
C  24.69100 -9.44200 48.76800
C  26.05200 -8.72800 49.07300
C  26.03700 -7.51000 48.12700
C  23.87700 -9.90700 50.04800
C  27.31300 -9.64300 48.91000
C  28.28300 -9.88600 50.11200
N  26.10200 -4.95100 46.58800
C  27.21900 -5.50800 47.21200
C  28.43100 -4.82800 46.76000
C  27.98900 -3.90500 45.84400
C  26.59000 -4.01600 45.75500
C  29.82900 -5.09300 47.26800
C  28.41800 -2.86300 44.92500
O  29.52100 -2.40800 44.79100
C  27.12300 -2.35100 44.21800
C  27.00500 -0.93700 44.63600
O  26.53100 -0.62400 45.72800
O  27.36300 -0.11800 43.60400
C  27.27000 1.33800 43.95800
H  20.66000 -4.53500 43.66500
H  22.33400 -9.47500 47.56400
H  28.11500 -6.98500 48.37400
H  23.97000 -1.26000 43.45500
H  22.03400 -3.11600 42.32600
H  20.72300 -2.07600 44.33400
H  20.78300 -1.44000 42.73900
H  21.88000 -0.79300 44.00600
H  23.95300 -3.27300 41.21700
H  25.49700 -3.19400 41.96100
H  26.06600 -1.34200 41.27700
H  24.45100 -0.61100 41.45500
H  19.00100 -6.96600 43.30800
H  18.77400 -5.48900 44.14500
H  18.02400 -6.98000 44.73300
H  18.75800 -10.42800 47.92100
H  20.08600 -9.36600 48.31100
H  20.32300 -10.76100 47.18500
H  24.89600 -10.29800 48.12500
H  26.11400 -8.29200 50.07000
H  22.88000 -9.46700 50.03600
H  24.48300 -9.65200 50.91800
H  23.87600 -10.99400 49.96900
H  27.91000 -9.28500 48.07200
H  26.87900 -10.60200 48.62500
H  29.29900 -9.58300 49.85600
H  28.50800 -10.94600 50.22500
H  27.99000 -9.35800 51.02000
H  30.57900 -4.33100 47.05700
H  30.23700 -5.98700 46.79600
H  29.78600 -5.22800 48.34900
H  27.40800 -2.50600 43.17800
H  27.55100 1.45200 45.00500
H  26.24000 1.68800 44.03300
H  27.74800 1.96900 43.20900
Mg 17.47600 51.92100 25.94700
C  19.30800 50.71900 28.50800
C  15.05700 52.84000 28.13600
C  15.62300 52.92800 23.28900
C  20.00100 50.86100 23.74600
N  17.17700 51.63600 28.03100
C  18.08700 51.20600 28.92600
C  17.67300 51.41000 30.35900
C  16.20900 51.83500 30.17400
C  16.11300 52.17100 28.70700
C  15.28200 50.67400 30.41200
C  18.54300 52.48500 31.05000
C  18.95400 52.24000 32.57500
H  18.00100 51.48000 33.46800
N  15.55000 52.64600 25.71900
C  14.75300 53.10700 26.74200
C  13.63400 53.88100 26.21700
C  13.62300 53.62300 24.75800
C  14.96400 53.04000 24.52900
C  12.65000 54.57400 27.21300
C  12.68200 54.08300 23.69300
O  12.83700 53.80300 22.50400
C  11.47200 55.01500 24.08200
N  17.76300 51.78400 23.74800
C  16.90400 52.47500 22.92700
C  17.43300 52.39800 21.47900
C  18.83000 51.84300 21.60900
C  18.90700 51.43300 23.10400
C  16.61900 51.54800 20.40100
C  19.94100 52.90400 21.42800
C  21.37600 52.33400 21.06400
N  19.30400 50.92100 26.06400
C  20.19000 50.45300 25.10400
C  21.35300 49.80900 25.72500
C  21.03200 49.85900 27.10600
C  19.81300 50.55200 27.21700
C  22.45200 49.23600 24.93900
C  21.40800 49.45700 28.46200
O  22.38200 48.92300 28.82100
C  20.34200 50.06900 29.43800
C  19.83400 48.87800 30.32700
O  19.03200 48.09600 29.87600
O  20.35400 48.92600 31.48900
C  19.68700 48.00400 32.47200
H  14.47800 53.29100 28.94500
H  15.11300 53.41000 22.45200
H  20.77100 50.71600 22.98600
H  17.69100 50.47900 30.92500
H  15.89000 52.60500 30.87600
H  14.74900 50.83200 31.35000
H  15.78300 49.70700 30.45300
H  14.61900 50.57400 29.55300
H  18.09000 53.45600 30.85000
H  19.45100 52.61200 30.46000
H  18.89700 53.22500 33.03700
H  19.93700 51.80000 32.74600
H  12.10800 53.76000 27.69300
H  11.87700 55.26900 26.88500
H  13.26400 54.98900 28.01100
H  10.59900 54.48900 24.46900
H  11.08700 55.69700 23.32400
H  11.85500 55.66800 24.86700
H  17.35300 53.44200 21.17600
H  18.99600 50.89200 21.10300
H  17.16700 50.78500 19.84800
H  16.43500 52.22600 19.56800
H  15.75300 51.11600 20.90200
H  19.97300 53.45600 22.36800
H  19.58700 53.71400 20.79100
H  21.60700 52.87800 20.14900
H  21.54300 51.26300 20.94900
H  22.13000 52.59600 21.80700
H  22.81700 49.93800 24.19000
H  22.10300 48.39500 24.34000
H  23.12700 48.87700 25.71600
H  20.87900 50.80400 30.03900
H  20.47100 47.24800 32.51200
H  18.80800 47.38600 32.29200
H  19.61200 48.48300 33.44800

