158

Mg 24.82600 1.64900 30.15100
C  26.95200 1.04900 32.79300
C  22.10800 1.53400 32.26700
C  22.79800 1.71700 27.33500
C  27.49000 1.00400 27.86300
N  24.54600 1.29100 32.36800
C  25.57300 1.30100 33.23600
C  25.08900 1.64800 34.61500
C  23.53600 1.55700 34.48800
C  23.35600 1.49600 32.96400
C  22.78500 0.32100 35.12500
C  25.60500 3.03400 35.05400
C  26.76100 2.99900 36.09100
H  26.42500 3.94300 37.29900
N  22.70700 1.58400 29.86200
C  21.79900 1.47500 30.81900
C  20.46400 1.47100 30.24800
C  20.63500 1.58700 28.84000
C  22.09700 1.71400 28.63900
C  19.22300 1.28200 31.09700
C  19.50100 1.77700 27.74200
O  19.65500 2.23600 26.59600
C  18.11500 1.25900 28.08700
N  25.10200 1.56700 27.91800
C  24.14000 1.64900 27.02000
C  24.63700 1.74900 25.62200
C  26.18400 1.64800 25.81500
C  26.26900 1.43800 27.29200
C  24.05000 0.81500 24.56100
C  26.93800 2.86900 25.15500
C  26.96500 4.14600 26.05200
N  26.89700 1.07600 30.23700
C  27.78700 0.93600 29.23800
C  29.10100 0.71700 29.88100
C  28.81000 0.68800 31.26700
C  27.40000 0.88000 31.46000
C  30.45700 0.62000 29.18000
C  29.36900 0.61200 32.65300
O  30.55700 0.59200 32.98800
C  28.17200 0.91800 33.66100
C  28.05500 -0.23000 34.57900
O  27.54700 -1.26700 34.36000
O  28.64400 0.04500 35.77200
C  28.36100 -0.93800 36.88600
H  21.26700 1.67400 32.94900
H  22.19800 1.74600 26.42400
H  28.29400 0.91300 27.12900
H  25.34300 0.89100 35.35800
H  22.97400 2.44600 34.77400
H  23.37400 -0.35000 35.75000
H  22.30500 -0.31600 34.38100
H  22.04800 0.78400 35.78100
H  24.76600 3.65500 35.36800
H  25.92800 3.64700 34.21200
H  27.66200 3.42400 35.64900
H  27.00300 1.97800 36.38500
H  18.47800 2.00000 30.75600
H  19.42000 1.56200 32.13200
H  18.81400 0.27500 31.18300
H  18.06400 0.28700 28.57900
H  17.59600 1.28800 27.12900
H  17.70700 2.04700 28.72000
H  24.51900 2.76300 25.23800
H  26.42200 0.67500 25.38400
H  23.53300 1.28800 23.72700
H  23.45500 0.10900 25.14000
H  24.86300 0.21600 24.15000
H  26.61000 3.13200 24.14900
H  27.96900 2.54100 25.02700
H  26.33800 4.08000 26.94200
H  26.60000 4.92500 25.38300
H  27.99000 4.42700 26.29600
H  30.54200 1.32900 28.35600
H  30.57800 -0.38200 28.76800
H  31.17800 0.88300 29.95400
H  28.40800 1.82300 34.22100
H  27.44800 -0.56200 37.34800
H  29.24900 -0.92200 37.51900
H  28.15600 -1.93700 36.50100
Mg 42.58200 42.42000 26.53100
C  41.31900 44.77500 28.92400
C  44.09600 40.69700 29.06200
C  43.98400 40.45800 24.21600
C  41.54800 44.67200 23.95100
N  42.88000 42.86700 28.79200
C  42.06100 43.75200 29.57500
C  42.07900 43.26600 31.07900
C  43.20000 42.18900 31.09400
C  43.36300 41.82700 29.53700
C  44.51400 42.79000 31.57300
C  40.72300 42.73000 31.71100
C  40.16200 43.28800 33.01100
H  40.24600 42.44200 34.22500
N  43.64300 40.57000 26.67000
C  44.20900 40.08500 27.76700
C  44.89800 38.88800 27.37500
C  44.80500 38.78300 25.99400
C  44.04100 39.95100 25.55300
C  45.69500 38.09600 28.44800
C  45.39600 37.73300 25.04100
O  45.08700 37.71300 23.85400
C  46.39900 36.74600 25.48700
N  42.79700 42.65200 24.43500
C  43.40700 41.71500 23.70300
C  43.48400 42.18900 22.19500
C  42.33600 43.12800 22.09200
C  42.15500 43.47200 23.56800
C  44.91500 42.59300 21.66600
C  41.02800 42.53000 21.41300
C  40.19600 41.54800 22.21700
N  41.59300 44.36200 26.44300
C  41.28800 45.12300 25.28100
C  40.63900 46.31200 25.71800
C  40.42800 46.11100 27.16400
C  41.20200 44.94600 27.52400
C  40.19300 47.51200 24.97500
C  39.92000 46.79800 28.34000
O  39.42000 47.89500 28.46400
C  40.38800 45.88300 29.53200
C  41.01500 46.62900 30.64200
O  42.22400 46.82000 30.84700
O  39.99700 46.86000 31.57500
C  40.57000 47.21200 32.85000
H  44.51000 40.04500 29.83400
H  44.45900 39.87900 23.42100
H  41.30300 45.26400 23.06700
H  42.41700 44.11400 31.67500
H  43.06000 41.27800 31.67600
H  45.16600 41.92600 31.70400
H  44.39900 43.23300 32.56200
H  44.90600 43.43100 30.78400
H  40.81600 41.64400 31.73300
H  40.03300 43.02700 30.92100
H  39.09800 43.48900 32.88400
H  40.68200 44.22400 33.21700
H  45.11900 37.87500 29.34700
H  46.43400 38.82800 28.77300
H  46.32100 37.24100 28.19100
H  46.04300 36.13100 26.31400
H  47.28500 37.34700 25.69400
H  46.49100 36.14300 24.58400
H  43.23500 41.28300 21.64300
H  42.50900 44.07500 21.58000
H  45.79600 42.16500 22.14400
H  45.06600 43.66200 21.51400
H  44.96000 42.08400 20.70300
H  41.47800 42.02700 20.55700
H  40.43300 43.36500 21.04500
H  40.67700 41.41300 23.18600
H  40.10700 40.57900 21.72700
H  39.20200 41.95600 22.40300
H  40.40500 48.38500 25.59300
H  39.10600 47.54400 24.89600
H  40.61200 47.60900 23.97400
H  39.44900 45.43400 29.85600
H  41.12400 46.30700 33.09600
H  39.84700 47.47700 33.62100
H  41.29200 48.02200 32.74700

