158

Mg 26.33800 1.15100 29.57900
C  28.16100 1.05700 32.55500
C  23.43700 1.61900 31.52800
C  24.38100 1.14600 26.70900
C  28.93400 -0.08200 27.75800
N  25.85900 1.20400 31.81400
C  26.81400 1.25100 32.82700
C  26.13400 1.43000 34.19900
C  24.61100 1.55400 33.89000
C  24.58100 1.41700 32.28600
C  23.69600 0.60600 34.55200
C  26.66600 2.52200 35.09500
C  25.96400 2.78600 36.43300
H  26.78600 2.84200 37.71300
N  24.17300 1.35100 29.16500
C  23.19500 1.55100 30.09100
C  21.94200 1.73200 29.48600
C  22.16800 1.54700 28.10700
C  23.65200 1.31300 27.88900
C  20.65200 2.03100 30.18400
C  21.19000 1.55800 26.97900
O  21.49400 1.30800 25.81900
C  19.82200 2.05900 27.21900
N  26.56500 0.48400 27.57300
C  25.63200 0.64500 26.51500
C  26.22500 0.27300 25.13100
C  27.74700 -0.06800 25.44300
C  27.75500 0.10800 27.02700
C  25.31700 -0.65000 24.19600
C  28.77700 0.73100 24.60100
C  29.16700 2.12900 25.05000
N  28.18600 0.62200 29.96400
C  29.19600 0.17400 29.12600
C  30.37400 -0.00700 29.89800
C  30.07000 0.47300 31.20800
C  28.69300 0.72400 31.25300
C  31.73600 -0.46700 29.36700
C  30.59000 0.70800 32.53200
O  31.73200 0.55300 32.92600
C  29.32800 1.17100 33.47000
C  29.51000 0.28500 34.74400
O  29.24300 -0.88700 34.86700
O  29.86300 1.09000 35.84900
C  30.01400 0.49000 37.15700
H  22.63100 2.03600 32.13600
H  23.78000 1.30100 25.81100
H  29.81100 -0.44900 27.22100
H  26.35200 0.50200 34.72800
H  24.32700 2.53800 34.26200
H  23.45600 -0.19500 33.85300
H  22.80100 1.05900 34.97700
H  24.28700 0.13300 35.33700
H  26.55300 3.43100 34.50400
H  27.75100 2.47400 35.18500
H  25.41000 1.85800 36.57400
H  25.36800 3.69900 36.45100
H  20.09500 1.09700 30.26600
H  20.17200 2.95800 29.87100
H  20.82200 2.15800 31.25300
H  19.46900 1.35200 27.97000
H  19.09400 2.11400 26.41000
H  19.95600 3.05700 27.63500
H  26.23800 1.26200 24.67400
H  27.85900 -1.14000 25.28100
H  24.73400 -0.07400 23.47700
H  24.63400 -1.23500 24.81200
H  25.86300 -1.32600 23.53700
H  28.29500 0.76700 23.62400
H  29.67300 0.11200 24.56300
H  30.22700 2.16000 25.30300
H  28.50100 2.46500 25.84400
H  28.86900 2.78600 24.23300
H  31.81500 -0.51300 28.28100
H  32.01000 -1.46100 29.72100
H  32.40400 0.37000 29.57400
H  29.60500 2.16500 33.82000
H  30.96400 0.79500 37.59500
H  29.90200 -0.59200 37.08300
H  29.16300 0.94700 37.66300
Mg 48.81000 45.17200 42.12200
C  45.28700 45.22200 41.50300
C  48.81600 41.95100 41.19300
C  52.10900 45.52000 42.00000
C  48.49900 48.77000 42.68800
N  47.22600 43.78700 41.39300
C  45.89300 43.95900 41.30700
C  45.13600 42.74200 40.84200
C  46.19700 41.63200 41.07200
C  47.50200 42.48000 41.22500
C  45.94300 40.65500 42.23900
C  44.59600 42.91600 39.35100
C  43.13200 42.44000 39.07500
H  42.84600 41.79800 37.72200
N  50.29800 43.89600 41.51600
C  50.07300 42.55200 41.26500
C  51.37100 41.98100 40.86200
C  52.32800 42.94400 41.12800
C  51.59200 44.17600 41.56900
C  51.50100 40.54000 40.34400
C  53.79500 42.67100 40.99600
O  54.19900 41.57100 40.58200
C  54.91100 43.68400 41.39200
N  50.15400 47.07100 42.02800
C  51.48400 46.74100 42.27500
C  52.21100 48.08400 42.50500
C  51.04100 49.09500 42.88500
C  49.85000 48.27000 42.53700
C  53.33300 47.98900 43.59300
C  51.21100 50.34700 42.00000
C  50.99200 51.61400 42.77400
N  47.25300 46.74500 42.12700
C  47.29300 48.09300 42.48400
C  45.96500 48.61300 42.56000
C  45.15000 47.54400 42.05500
C  45.96500 46.43800 41.91100
C  45.56100 49.97700 43.03900
C  43.73100 47.21300 41.86700
O  42.73600 47.85100 41.99400
C  43.84900 45.61800 41.39600
C  42.99300 44.88600 42.33500
O  41.95800 44.41900 41.94000
O  43.54100 44.73300 43.64300
C  42.81500 43.97500 44.67500
H  48.77400 40.90000 40.89800
H  53.19500 45.61200 42.06400
H  48.35400 49.81400 42.97500
H  44.34100 42.61100 41.57600
H  46.18200 40.92300 40.24400
H  45.69100 41.24400 43.12100
H  46.86900 40.14700 42.51200
H  45.20300 39.87600 42.05700
H  45.26300 42.31000 38.73800
H  44.63400 43.96800 39.06800
H  42.54100 43.35600 39.05100
H  42.61800 41.84700 39.83200
H  51.64800 40.49700 39.26400
H  50.62100 39.91900 40.50400
H  52.35600 40.11400 40.87000
H  54.77000 43.93100 42.44400
H  54.80600 44.59200 40.79700
H  55.91700 43.31100 41.19700
H  52.70600 48.30100 41.55800
H  51.17700 49.51400 43.88200
H  53.28500 46.97100 43.97800
H  53.25200 48.72600 44.39200
H  54.32800 48.08300 43.15800
H  50.58900 50.30300 41.10700
H  52.20000 50.37000 41.54200
H  51.94500 51.89900 43.21800
H  50.22100 51.68500 43.54200
H  50.66500 52.27700 41.97300
H  44.48000 50.10200 43.09700
H  45.90600 50.72100 42.32100
H  45.82000 50.24200 44.06400
H  43.44800 45.49400 40.39000
H  43.58900 43.60500 45.34700
H  42.33700 43.09100 44.25200
H  42.08000 44.60700 45.17300

