158

Mg 17.65600 -0.88700 28.07000
C  16.13800 0.96500 30.51700
C  19.37200 -2.74000 30.39800
C  19.40700 -2.14600 25.49400
C  15.94300 1.16500 25.68200
N  17.85400 -0.75000 30.23100
C  17.01300 -0.03900 31.01300
C  17.34100 -0.42100 32.43400
C  18.48000 -1.46200 32.38600
C  18.63700 -1.71700 30.91900
C  19.86700 -0.96400 32.98800
C  16.15300 -0.82200 33.30600
C  15.94000 -0.20800 34.72700
H  17.19900 0.45800 35.37500
N  19.12700 -2.31000 27.91000
C  19.56800 -3.02300 28.97600
C  20.47700 -4.07700 28.46500
C  20.49500 -3.93500 27.01200
C  19.63400 -2.76900 26.69500
C  21.26700 -5.01300 29.38200
C  21.30300 -4.73700 26.01900
O  21.17000 -4.53100 24.80900
C  22.26500 -5.71700 26.48500
N  17.72000 -0.48900 25.84900
C  18.70200 -1.09300 25.05000
C  18.68700 -0.54300 23.60300
C  17.32700 0.23000 23.62300
C  16.99500 0.37400 25.12700
C  19.97500 0.04900 23.05400
C  16.22800 -0.44500 22.77700
C  15.88300 0.24900 21.44000
N  16.29200 0.68100 28.02900
C  15.73500 1.43200 27.01400
C  14.87400 2.45600 27.54900
C  15.02900 2.31400 28.89100
C  15.87400 1.22900 29.16700
C  14.06400 3.51100 26.79100
C  14.68600 2.93300 30.17300
O  14.05500 3.91800 30.48400
C  15.38200 1.94900 31.28600
C  16.29100 2.86400 32.12100
O  17.33200 3.23200 31.75700
O  15.65100 3.30500 33.22400
C  16.45400 4.22700 34.08500
H  19.78800 -3.28300 31.25000
H  19.86500 -2.72800 24.69100
H  15.65200 1.90200 24.93000
H  17.72200 0.49400 32.88800
H  18.20200 -2.33500 32.97600
H  20.64700 -0.88900 32.23000
H  20.16900 -1.55100 33.85500
H  19.70600 0.02500 33.41500
H  16.13500 -1.91100 33.28000
H  15.23900 -0.45100 32.84200
H  15.64000 -0.97000 35.44600
H  15.20800 0.59800 34.77200
H  20.64100 -5.87400 29.61800
H  21.40300 -4.50400 30.33600
H  22.18500 -5.29700 28.86700
H  21.93900 -6.58700 27.05400
H  23.21800 -5.25800 26.74700
H  22.59700 -6.19800 25.56400
H  18.46500 -1.41300 22.98600
H  17.44000 1.20700 23.15300
H  20.32200 -0.40800 22.12800
H  20.84200 -0.09900 23.69800
H  19.85400 1.12800 22.95600
H  15.29000 -0.35500 23.32500
H  16.41400 -1.51900 22.77600
H  14.87800 0.66500 21.51600
H  16.01500 -0.51100 20.67000
H  16.56100 1.03500 21.10700
H  13.82900 4.28500 27.52100
H  13.11300 3.13700 26.41000
H  14.56900 3.86100 25.89000
H  14.58400 1.42200 31.80900
H  16.24100 5.24800 33.76700
H  17.50700 3.95400 34.01500
H  16.08900 4.07200 35.10100
Mg 41.51200 8.70400 29.67800
C  43.42600 10.04200 32.05300
C  39.33600 7.47100 31.97700
C  39.54400 7.64200 27.08400
C  43.99700 9.56400 27.30300
N  41.43700 8.80100 31.79500
C  42.31800 9.43800 32.63500
C  41.82200 9.36500 34.07600
C  40.74000 8.21500 33.97400
C  40.46500 8.15300 32.45800
C  41.10800 6.80600 34.59200
C  41.36100 10.73700 34.62700
C  40.75300 10.93700 36.06400
H  41.42200 11.82700 37.11800
N  39.63300 7.80600 29.58100
C  38.87300 7.35800 30.63600
C  37.60100 6.84600 30.15300
C  37.59900 7.03400 28.73200
C  38.97500 7.50700 28.42900
C  36.72600 6.03800 31.00700
C  36.47300 6.74600 27.72800
O  36.48200 6.79900 26.49100
C  35.17800 6.24500 28.29300
N  41.70900 8.68700 27.46300
C  40.81500 8.11700 26.64900
C  41.34900 8.05000 25.16700
C  42.60100 9.00500 25.22500
C  42.82100 9.12700 26.76600
C  41.44700 6.61200 24.68200
C  42.48500 10.43600 24.55500
C  43.68700 10.89300 23.67100
N  43.36600 9.57200 29.67000
C  44.24900 9.84200 28.62200
C  45.40300 10.52200 29.16700
C  45.10000 10.66400 30.51600
C  43.87200 10.05400 30.70900
C  46.57500 11.13400 28.47000
C  45.57700 11.19100 31.82100
O  46.57300 11.79600 32.19800
C  44.42000 10.89200 32.80300
C  45.08100 10.14800 33.96400
O  45.71900 9.11500 33.87300
O  44.97500 10.89400 35.08100
C  45.51100 10.26400 36.29700
H  38.78800 7.01200 32.80200
H  38.82700 7.30300 26.33300
H  44.71300 9.71300 26.49200
H  42.66200 8.96200 34.64200
H  39.85500 8.64200 34.44500
H  42.11800 6.84100 35.00000
H  40.93900 6.00700 33.87000
H  40.49100 6.67200 35.48100
H  40.79700 11.22800 33.83500
H  42.34500 11.20300 34.57100
H  40.63700 9.98500 36.58300
H  39.79500 11.43500 35.91400
H  37.00400 6.03000 32.06100
H  36.66400 5.02800 30.60400
H  35.78800 6.59100 30.95900
H  34.37200 6.29500 27.56100
H  34.90500 6.93900 29.08800
H  35.26300 5.21000 28.62100
H  40.57400 8.53000 24.56900
H  43.50800 8.46700 24.94900
H  41.04800 5.94200 25.44400
H  42.51200 6.40900 24.56500
H  40.84300 6.50600 23.78100
H  42.39900 11.21400 25.31400
H  41.56700 10.54600 23.97800
H  43.39800 11.35000 22.72400
H  44.32200 10.00800 23.65300
H  44.21900 11.69400 24.18500
H  47.00900 10.58300 27.63500
H  47.33400 11.41800 29.19900
H  46.22200 12.08800 28.07700
H  44.00700 11.84500 33.13400
H  44.64400 9.96200 36.88400
H  45.91700 11.12600 36.82600
H  46.34600 9.56600 36.25100

