158

Mg 53.25600 24.20400 44.88700
C  50.75300 26.48800 44.26000
C  51.17700 21.74900 43.82600
C  55.96100 22.06100 44.82600
C  55.47200 26.86400 45.65500
N  51.26600 24.19400 43.83600
C  50.41700 25.23300 43.83200
C  49.01100 24.86000 43.39400
C  49.09600 23.23900 43.59300
C  50.59400 23.03100 43.79600
C  48.25100 22.63500 44.79900
C  48.54100 25.31900 42.02900
C  49.59600 25.30800 40.97100
H  50.43500 24.05200 40.63000
N  53.56900 22.14300 44.33500
C  52.55800 21.33500 43.97600
C  53.17200 19.99400 43.90700
C  54.55100 20.04300 44.17900
C  54.77500 21.46700 44.50900
C  52.44000 18.78800 43.44900
C  55.54000 18.84400 44.05500
O  55.08800 17.73000 43.86800
C  57.02200 19.00800 43.96900
N  55.45500 24.47300 44.92300
C  56.34800 23.40600 45.14400
C  57.78100 23.93800 45.58400
C  57.56700 25.43300 45.72200
C  56.05100 25.60300 45.46200
C  58.41800 23.28400 46.78100
C  58.44500 26.23700 44.85600
C  57.92300 26.53900 43.43600
N  53.17300 26.24100 45.13700
C  54.10000 27.18100 45.49300
C  53.45500 28.47500 45.52400
C  52.12300 28.22700 45.20900
C  52.01400 26.85300 44.84400
C  54.09200 29.81900 45.76800
C  50.88500 28.90400 44.98500
O  50.55700 30.04800 45.25700
C  50.00200 27.84800 44.23800
C  49.73400 28.31000 42.88800
O  50.57500 28.43800 42.04700
O  48.43200 28.58900 42.63700
C  48.02900 29.00600 41.32300
H  50.47800 20.94000 43.60300
H  56.81000 21.38400 44.93600
H  56.17700 27.58400 46.07500
H  48.33000 25.21000 44.17000
H  48.79900 22.61200 42.75200
H  47.45000 23.33800 45.03100
H  48.92100 22.52200 45.65200
H  47.70100 21.73300 44.53000
H  47.96300 26.24200 42.07700
H  47.76000 24.61100 41.74900
H  50.18500 26.21200 41.13000
H  49.12900 25.53300 40.01200
H  52.92900 18.10100 42.75800
H  51.55100 19.16200 42.94100
H  51.98500 18.23900 44.27400
H  57.44200 19.81000 43.36200
H  57.44300 18.10200 43.53200
H  57.42800 19.14900 44.97100
H  58.40300 23.70400 44.72100
H  57.71500 25.73100 46.76000
H  57.66000 22.59100 47.14800
H  58.58200 24.01200 47.57600
H  59.41700 22.98200 46.46700
H  59.38300 25.68800 44.93700
H  58.54700 27.18700 45.37900
H  58.63600 26.26000 42.66000
H  57.74700 27.60500 43.29000
H  57.00000 25.99300 43.24200
H  55.16500 29.79000 45.57700
H  53.79500 30.03200 46.79500
H  53.68500 30.61400 45.14300
H  49.02600 27.83800 44.72300
H  48.11600 28.13800 40.67000
H  48.67900 29.82000 41.00000
H  47.02000 29.41300 41.37900
Mg -1.90100 33.69900 26.84500
C  -3.66800 31.77500 29.21900
C  -0.69700 35.60300 29.44000
C  -0.61700 35.77600 24.53500
C  -3.79000 32.07400 24.42900
N  -2.20300 33.70600 29.03500
C  -2.94000 32.77100 29.78700
C  -2.69100 32.98200 31.24700
C  -2.04900 34.41400 31.28400
C  -1.64000 34.59700 29.82900
C  -3.03000 35.50000 31.75600
C  -1.84600 31.82900 31.82500
C  -2.33700 31.26600 33.18400
H  -1.57500 31.92100 34.40000
N  -0.66900 35.39500 26.92900
C  -0.22800 35.98000 28.09000
C  0.64500 37.07800 27.77000
C  0.56000 37.18600 26.34400
C  -0.23300 36.07900 25.88600
C  1.36200 37.83800 28.87200
C  1.16500 38.23200 25.41800
O  0.99000 38.23200 24.19900
C  2.26200 39.10100 25.97400
N  -2.33900 33.97400 24.81600
C  -1.49800 34.80500 24.07200
C  -1.53800 34.44400 22.58800
C  -2.47500 33.16100 22.53600
C  -2.92000 33.01400 24.02000
C  -1.90300 35.67000 21.69300
C  -1.81700 31.83000 21.97700
C  -1.05800 30.88000 22.92600
N  -3.33300 32.11400 26.76400
C  -4.07000 31.65800 25.74700
C  -4.89400 30.54700 26.17500
C  -4.75100 30.45300 27.52600
C  -3.88100 31.53400 27.83700
C  -5.64000 29.52300 25.29500
C  -5.10100 29.75800 28.76600
O  -5.76900 28.76800 28.88500
C  -4.38100 30.55600 29.92400
C  -5.40900 30.95800 30.95200
O  -6.17600 31.87500 30.82300
O  -5.36600 30.21800 32.13900
C  -6.20700 30.64800 33.23400
H  -0.23900 35.96600 30.36200
H  -0.26700 36.33000 23.66200
H  -4.34100 31.45500 23.71800
H  -3.67000 33.04200 31.72300
H  -1.21800 34.58400 31.96800
H  -3.85500 35.08400 32.33300
H  -3.47100 36.03600 30.91500
H  -2.53300 36.21900 32.40800
H  -0.84400 32.24200 31.94200
H  -1.75200 31.02100 31.10000
H  -2.09300 30.20700 33.26800
H  -3.41400 31.41200 33.26500
H  2.42100 37.68300 28.66400
H  0.99000 37.63500 29.87600
H  1.28200 38.92100 28.78300
H  1.76400 39.86200 26.57500
H  2.78000 39.59100 25.14900
H  2.99100 38.49900 26.51500
H  -0.50600 34.12400 22.44300
H  -3.40900 33.29400 21.98900
H  -2.60600 35.45500 20.88800
H  -1.03500 35.94800 21.09500
H  -2.32100 36.49800 22.26500
H  -1.17400 31.95200 21.10600
H  -2.70000 31.32700 21.58100
H  -0.55400 31.33600 23.77800
H  -0.40000 30.28400 22.29300
H  -1.90500 30.27700 23.25300
H  -6.16000 29.98100 24.45400
H  -6.48200 29.07300 25.82000
H  -4.91700 28.76200 25.00000
H  -3.72700 29.81100 30.37900
H  -5.81700 31.47800 33.82500
H  -6.10400 29.82300 33.93900
H  -7.26300 30.81300 33.02400

