158

Mg 46.14900 25.05200 29.44100
C  46.96700 27.36700 31.94500
C  45.05700 22.87700 31.75000
C  45.77600 22.90000 26.98800
C  47.84400 27.26700 27.18500
N  45.89800 25.17000 31.52200
C  46.34300 26.21600 32.40300
C  46.04900 25.91100 33.86000
C  45.49000 24.44100 33.79300
C  45.44900 24.11100 32.24100
C  46.10500 23.33300 34.72500
C  44.97900 26.94000 34.48100
C  45.26000 27.54200 35.82500
H  45.74100 26.67200 36.99100
N  45.29100 23.19500 29.33500
C  44.89200 22.44000 30.39700
C  44.30500 21.25800 29.88500
C  44.35400 21.22500 28.50000
C  45.16700 22.45700 28.18500
C  43.64400 20.27400 30.83500
C  43.80300 20.16300 27.48100
O  43.98100 20.24500 26.25800
C  42.94200 18.99900 28.01600
N  46.75800 25.13900 27.38800
C  46.44600 24.05600 26.63400
C  46.93700 24.30100 25.18100
C  47.53400 25.70000 25.20500
C  47.37100 26.12600 26.66200
C  47.85800 23.20600 24.51600
C  46.81600 26.68300 24.29100
C  47.04100 26.49300 22.79600
N  47.10300 26.92600 29.44600
C  47.76400 27.63200 28.47800
C  48.32400 28.84500 28.96400
C  48.00500 28.84300 30.34900
C  47.24200 27.63200 30.60000
C  49.00400 29.86600 28.08500
C  48.23600 29.53500 31.59900
O  48.78900 30.62400 31.81600
C  47.54600 28.59100 32.64000
C  48.65100 28.41100 33.61400
O  49.73300 28.00300 33.42100
O  48.27700 28.87400 34.82400
C  49.17000 28.71000 35.97400
H  44.65100 22.23500 32.53500
H  45.61700 22.31000 26.08200
H  48.56900 27.69900 26.49200
H  47.01600 25.88200 34.36300
H  44.42100 24.51100 33.99500
H  45.34400 22.64500 35.09300
H  46.59600 23.90400 35.51400
H  46.97400 23.03300 34.14000
H  44.09000 26.31000 34.46900
H  44.72600 27.69000 33.73100
H  44.28000 27.88100 36.16100
H  45.95800 28.34900 35.60300
H  42.55400 20.29700 30.83400
H  43.97000 20.49100 31.85200
H  43.97500 19.27000 30.57200
H  43.45300 18.40900 28.77700
H  42.64200 18.34900 27.19400
H  42.01900 19.15400 28.57500
H  46.02800 24.35900 24.58200
H  48.55600 25.63700 24.82900
H  48.31300 22.52900 25.23900
H  48.69300 23.62300 23.95300
H  47.21000 22.67200 23.82100
H  47.09700 27.71300 24.50900
H  45.74800 26.52700 24.44300
H  47.77600 25.69700 22.67900
H  47.51600 27.37400 22.36400
H  46.12700 26.15300 22.30900
H  48.25600 30.28600 27.41200
H  49.91900 29.52300 27.60200
H  49.32000 30.71200 28.69500
H  46.67700 29.14300 32.99800
H  49.63600 27.73600 35.82200
H  48.56300 28.58100 36.87100
H  49.99600 29.41500 36.06200
Mg 6.56000 53.02200 42.21600
C  6.37100 49.53000 41.74500
C  9.82800 52.95100 41.05100
C  6.51600 56.46300 42.16300
C  3.23100 52.94300 43.21400
N  7.95700 51.42000 41.48800
C  7.66100 50.07500 41.34000
C  8.92900 49.37300 40.84100
C  10.11300 50.43200 41.04000
C  9.30600 51.68800 41.33200
C  11.12700 50.04400 42.14900
C  8.88900 48.79500 39.37700
C  8.69100 49.77300 38.21700
H  7.76800 49.40700 37.07400
N  7.95000 54.54500 41.65900
C  9.26400 54.24300 41.22700
C  9.88000 55.51600 41.02500
C  8.89000 56.47000 41.13200
C  7.73500 55.84600 41.72800
C  11.34600 55.60500 40.55600
C  9.08300 57.92500 40.72000
O  10.19900 58.39900 40.38200
C  8.03200 58.96000 40.74100
N  5.08000 54.47300 42.58300
C  5.31400 55.80500 42.58600
C  3.99400 56.51700 42.81400
C  3.06700 55.44700 43.35900
C  3.80300 54.19000 42.95700
C  4.09000 57.68800 43.89200
C  1.65600 55.58600 42.63700
C  0.52300 56.12900 43.52700
N  5.08400 51.55400 42.43600
C  3.80400 51.69700 42.90500
C  3.24600 50.42900 43.18800
C  4.19000 49.57900 42.55700
C  5.29000 50.29500 42.19900
C  1.86900 50.13000 43.82800
C  4.32100 48.16400 42.23400
O  3.55200 47.22800 42.34300
C  5.92200 48.10500 41.67900
C  5.82800 47.58600 40.22400
O  5.39700 48.23300 39.26300
O  6.31300 46.24900 40.21900
C  6.49000 45.53400 38.98600
H  10.87600 52.88000 40.75100
H  6.51200 57.53700 42.36100
H  2.18700 52.84900 43.52300
H  9.10300 48.55300 41.53800
H  10.60900 50.56400 40.07900
H  11.12800 50.85100 42.88000
H  12.11300 50.01200 41.68400
H  10.92100 49.16800 42.76400
H  8.30400 47.87800 39.32100
H  9.91200 48.51100 39.12600
H  9.62100 50.16100 37.80100
H  8.25500 50.66300 38.67100
H  11.82200 56.52300 40.90000
H  11.22100 55.49000 39.47900
H  11.85100 54.69400 40.87900
H  7.07500 58.49300 40.50900
H  8.27100 59.83100 40.13000
H  7.83000 59.29300 41.75900
H  3.75800 56.98500 41.85800
H  2.98500 55.52800 44.44300
H  4.99000 57.65200 44.50700
H  3.21900 57.74000 44.54500
H  4.24300 58.68900 43.48800
H  1.34100 54.60300 42.28700
H  1.72500 56.25900 41.78300
H  0.78700 56.22900 44.58000
H  -0.41300 55.57500 43.59000
H  0.34700 57.17800 43.28900
H  1.60000 49.13900 43.46200
H  1.10300 50.77700 43.40100
H  1.96900 50.20400 44.91100
H  6.51600 47.43800 42.30400
H  7.47500 45.07100 38.94600
H  6.30200 46.14200 38.10100
H  5.71400 44.77100 39.05800

