158

Mg 36.44200 1.90000 30.21200
C  34.00500 3.19900 32.30200
C  38.66500 2.28800 32.86300
C  38.86000 0.99400 28.10000
C  34.18600 2.21900 27.42100
N  36.25200 2.83400 32.36000
C  35.17200 3.07700 33.03700
C  35.39500 3.18900 34.60400
C  36.98200 3.18000 34.71200
C  37.31500 2.72200 33.21700
C  37.59200 4.61000 34.93600
C  34.77500 2.01000 35.39400
C  34.19700 2.26500 36.81800
H  34.73100 3.50300 37.56000
N  38.44600 1.63900 30.44100
C  39.12300 1.72200 31.61600
C  40.45000 1.19100 31.36500
C  40.60100 0.89100 30.00300
C  39.24400 1.09600 29.42800
C  41.42900 1.00700 32.39800
C  41.79000 0.41200 29.22100
O  41.65500 0.14000 28.05500
C  43.09600 0.11800 29.93600
N  36.46400 1.48600 28.01400
C  37.67100 1.33900 27.38800
C  37.53500 1.25000 25.86100
C  35.94200 1.58800 25.65000
C  35.49900 1.88500 27.09900
C  38.59100 2.01500 25.07500
C  35.14200 0.42600 25.03900
C  34.12700 0.81700 23.90200
N  34.53200 2.58800 29.92000
C  33.70300 2.57200 28.73300
C  32.34000 2.99500 29.15400
C  32.42800 3.25700 30.57100
C  33.78200 2.98800 30.93300
C  31.10500 3.08900 28.26100
C  31.72200 3.73400 31.69100
O  30.57000 4.11000 31.87400
C  32.72200 3.65100 32.85100
C  32.81900 4.91200 33.59900
O  33.41700 5.92000 33.19400
O  32.16600 4.87000 34.84700
C  32.17600 6.05400 35.75200
H  39.42600 2.36800 33.64300
H  39.57100 0.60700 27.36700
H  33.49800 2.24000 26.57300
H  34.96700 4.10400 35.01300
H  37.41500 2.40600 35.34600
H  36.83300 5.37100 34.75700
H  38.47000 4.66300 34.29200
H  38.02900 4.71500 35.92900
H  35.47100 1.18300 35.52900
H  33.87400 1.64700 34.90000
H  34.30100 1.33300 37.37400
H  33.13900 2.45600 36.63900
H  41.05300 0.97100 33.42000
H  42.08300 1.87800 32.36900
H  42.06600 0.12200 32.38500
H  43.34400 0.89100 30.66300
H  43.93100 0.17200 29.23600
H  43.02100 -0.83800 30.45300
H  37.73000 0.19200 25.68400
H  35.82100 2.53200 25.11800
H  39.15200 2.61100 25.79400
H  38.10500 2.64300 24.32900
H  39.25800 1.25700 24.66400
H  34.56600 -0.10600 25.79700
H  35.78800 -0.35700 24.64200
H  34.40200 1.77000 23.45200
H  33.12200 0.92000 24.31300
H  34.09500 0.00600 23.17500
H  31.18900 2.66300 27.26200
H  30.83200 4.14000 28.17200
H  30.30800 2.51000 28.72800
H  32.34800 2.77300 33.37900
H  31.54200 6.69500 35.14000
H  33.11300 6.60900 35.79600
H  31.79000 5.83400 36.74800
Mg 41.64800 40.51300 26.74800
C  41.04700 42.84300 29.15500
C  42.44700 38.21400 29.13100
C  42.25900 38.33800 24.19800
C  40.67400 42.85700 24.31200
N  41.97600 40.60600 28.90300
C  41.53100 41.63100 29.70900
C  41.51000 41.27100 31.20400
C  41.95300 39.72600 31.12700
C  42.15100 39.48900 29.62900
C  43.20800 39.40200 32.00500
C  40.14700 41.41900 31.89600
C  39.83200 40.66500 33.20600
H  39.28100 41.42800 34.43700
N  42.38200 38.61600 26.70200
C  42.68200 37.80900 27.78800
C  43.17800 36.49100 27.33000
C  43.12600 36.47200 25.90300
C  42.55700 37.87100 25.53100
C  43.55500 35.43500 28.29500
C  43.51800 35.29000 24.98300
O  43.20100 35.22300 23.79900
C  44.24500 34.15800 25.57900
N  41.65200 40.64000 24.53100
C  41.74900 39.57400 23.79400
C  41.58000 39.88600 22.28500
C  40.83000 41.27200 22.31800
C  41.09000 41.63500 23.81700
C  42.90900 39.83600 21.40800
C  39.43800 41.33800 21.83100
C  38.32300 40.71100 22.69600
N  41.04300 42.43300 26.65000
C  40.67700 43.31800 25.59400
C  40.36600 44.61800 26.15800
C  40.50300 44.45600 27.51600
C  40.87500 43.13100 27.79300
C  39.99700 45.88800 25.41000
C  40.39100 45.15600 28.76100
O  40.04600 46.30700 29.01800
C  40.59000 44.09100 29.89900
C  41.58100 44.52000 30.93600
O  42.76400 44.66200 30.64500
O  41.02500 44.72300 32.21500
C  42.00600 45.17400 33.30200
H  42.72400 37.47400 29.88500
H  42.41800 37.49600 23.52200
H  40.21600 43.52000 23.57500
H  42.14600 41.83800 31.88300
H  41.08800 39.12000 31.39300
H  42.89400 39.06500 32.99300
H  43.83900 40.28500 32.10300
H  43.83900 38.59900 31.62600
H  39.38700 41.35100 31.11800
H  40.22300 42.47300 32.16500
H  40.61000 39.96300 33.50900
H  39.08800 39.89100 33.01600
H  42.77800 34.67100 28.30500
H  43.58000 35.81300 29.31800
H  44.47200 34.93400 27.98500
H  43.74900 33.59500 26.37100
H  45.17500 34.52900 26.01000
H  44.51300 33.30000 24.96200
H  40.94900 39.11700 21.84000
H  41.38700 41.93600 21.65700
H  42.98000 38.92500 20.81500
H  43.81000 39.96900 22.00600
H  42.93700 40.68600 20.72500
H  39.40000 40.73700 20.92200
H  39.25500 42.40600 21.71300
H  38.61700 40.29100 23.65800
H  37.67800 40.08400 22.08100
H  37.61200 41.51200 22.89700
H  39.62900 45.68000 24.40500
H  40.85300 46.56200 25.39300
H  39.25800 46.44000 25.99000
H  39.64300 43.95900 30.42100
H  41.63600 46.01500 33.88900
H  42.99200 45.50500 32.97400
H  42.14500 44.36200 34.01500

