158

Mg 53.25200 23.89200 44.68200
C  50.81600 26.09600 43.51300
C  51.44600 21.27800 43.29000
C  55.87700 21.76400 45.20300
C  55.18600 26.54400 45.45900
N  51.43400 23.73100 43.44700
C  50.60200 24.78700 43.06000
C  49.67500 24.25700 42.03600
C  49.42400 22.80500 42.48300
C  50.88200 22.55700 43.19100
C  48.16200 22.46700 43.39200
C  50.26500 24.34800 40.51700
C  49.43400 24.98000 39.44000
H  50.17000 25.72900 38.30300
N  53.58400 21.79800 44.38800
C  52.69400 20.89800 43.88000
C  53.36000 19.56200 43.79800
C  54.62600 19.67100 44.33700
C  54.78100 21.10900 44.66000
C  52.68600 18.30800 43.31000
C  55.65700 18.46200 44.40800
O  55.37900 17.39600 43.89100
C  57.05600 18.62100 44.93900
N  55.28600 24.13000 45.14000
C  56.13000 23.13200 45.41900
C  57.42200 23.66800 46.01700
C  57.29700 25.14000 45.77300
C  55.77100 25.28900 45.58000
C  57.97200 23.11200 47.32500
C  57.98500 25.70100 44.48400
C  58.33500 27.22600 44.65900
N  53.06000 25.97400 44.63300
C  53.89600 26.95400 45.13300
C  53.15600 28.19400 45.16400
C  51.95000 27.90000 44.54800
C  51.93400 26.53200 44.24100
C  53.61400 29.53300 45.71700
C  50.75800 28.56700 44.07900
O  50.54500 29.74300 44.01200
C  49.98900 27.43400 43.40100
C  49.64200 27.88400 42.03600
O  50.50100 28.16800 41.17000
O  48.32000 28.13300 41.90300
C  47.92500 28.92800 40.77200
H  50.80900 20.47500 42.91300
H  56.72200 21.12800 45.47300
H  55.84800 27.33500 45.81700
H  48.72700 24.78400 42.14600
H  49.45500 22.05500 41.69300
H  47.55000 21.71200 42.89900
H  47.55100 23.34000 43.61800
H  48.45400 22.19700 44.40700
H  50.33500 23.32100 40.15900
H  51.22800 24.86100 40.51700
H  48.79200 25.73500 39.89400
H  48.64100 24.34100 39.05200
H  53.18100 17.78800 42.49000
H  51.73700 18.51400 42.81500
H  52.44500 17.65500 44.14900
H  57.59500 17.70300 44.70100
H  56.96700 18.72600 46.02100
H  57.46500 19.44400 44.35400
H  58.19000 23.35500 45.31000
H  57.55700 25.73600 46.64800
H  58.85400 22.49000 47.17300
H  57.16900 22.52300 47.76800
H  58.19700 24.01500 47.89300
H  57.31100 25.58100 43.63600
H  58.88600 25.13400 44.25100
H  57.53200 27.91100 44.38400
H  59.29100 27.48000 44.20300
H  58.40400 27.45700 45.72200
H  53.73700 30.17100 44.84200
H  54.61500 29.42600 46.13500
H  53.03100 29.98100 46.52200
H  49.07600 27.31500 43.98400
H  48.09700 28.27400 39.91700
H  48.49000 29.83700 40.56800
H  46.85200 29.11700 40.81200
Mg 30.11300 58.16900 39.98000
C  27.37300 56.24900 39.13800
C  32.12000 55.52600 38.97800
C  32.80500 60.16500 40.06700
C  27.96300 60.95100 40.08900
N  29.77100 56.08700 39.37200
C  28.56300 55.49400 39.03500
C  28.75600 54.02000 38.75100
C  30.12900 53.68300 39.33200
C  30.79100 55.18100 39.23500
C  30.16700 53.07500 40.76200
C  28.70600 53.67000 37.21100
C  27.62600 52.64900 36.62100
H  26.73500 53.35900 35.60100
N  32.19100 57.90000 39.46200
C  32.80600 56.77700 39.09200
C  34.20100 56.94200 39.00500
C  34.47000 58.29000 39.43200
C  33.13000 58.94400 39.59400
C  35.05400 55.83500 38.60700
C  35.83300 58.86800 39.63400
O  36.79700 58.14600 39.37500
C  36.01600 60.27600 40.16200
N  30.32300 60.36800 39.88400
C  31.59200 60.87400 40.18600
C  31.38800 62.32100 40.59900
C  29.81700 62.46500 40.74700
C  29.28300 61.17200 40.15100
C  32.11300 62.83100 41.91400
C  29.15200 63.65700 39.97600
C  28.50700 64.67100 40.85300
N  28.03300 58.53000 39.89200
C  27.35800 59.71600 39.89700
C  25.94800 59.37400 39.87600
C  25.89500 57.96300 39.59300
C  27.20500 57.58600 39.50200
C  24.89200 60.38800 40.02700
C  25.05600 56.87300 39.32100
O  23.85400 56.79600 39.30200
C  26.02900 55.68900 38.98700
C  25.60100 54.48000 39.71100
O  26.01900 54.11800 40.81200
O  24.81500 53.61900 38.91700
C  24.31600 52.36100 39.48500
H  32.67900 54.61900 38.74200
H  33.65200 60.81900 40.28700
H  27.27900 61.73400 40.42200
H  28.02200 53.43000 39.30100
H  30.63700 53.10200 38.56300
H  29.24700 53.40500 41.24400
H  31.05000 53.50700 41.23400
H  30.31600 51.99500 40.75300
H  29.63400 53.35800 36.73100
H  28.52000 54.60800 36.68700
H  26.89900 52.30500 37.35700
H  28.21000 51.84600 36.17200
H  35.28000 55.32200 39.54200
H  35.95300 56.21900 38.12500
H  34.55100 55.02400 38.08000
H  35.57900 60.60100 41.10500
H  35.98900 60.92500 39.28700
H  37.09400 60.22600 40.31900
H  31.69300 62.87700 39.71300
H  29.51100 62.54700 41.79000
H  32.31800 61.93000 42.49300
H  31.47200 63.55400 42.42000
H  33.04400 63.34100 41.66500
H  28.30100 63.35500 39.36600
H  29.91500 64.19600 39.41300
H  28.24500 64.44600 41.88700
H  27.60600 64.92700 40.29500
H  29.17400 65.52500 40.96700
H  23.96200 59.84900 39.84200
H  25.02800 61.14900 39.25900
H  24.95400 60.90400 40.98500
H  25.87800 55.31700 37.97400
H  24.17400 51.63600 38.68300
H  23.38800 52.49400 40.04200
H  25.00600 51.93600 40.21300

