158

Mg 6.73600 57.36100 41.87100
C  5.57600 54.03200 41.84400
C  9.54700 56.26000 40.29200
C  7.50300 60.62700 41.21800
C  3.48900 58.25400 43.03700
N  7.42000 55.35200 41.01200
C  6.89900 54.10900 41.23100
C  7.68800 53.00900 40.50000
C  9.08300 53.80000 40.39600
C  8.66300 55.23700 40.58100
C  10.16800 53.39100 41.42800
C  7.12500 52.63700 39.05500
C  7.43400 51.26500 38.47600
H  8.38100 51.07500 37.27200
N  8.34400 58.41300 40.90600
C  9.44600 57.74300 40.46000
C  10.47100 58.62900 40.12400
C  9.93400 59.94200 40.40300
C  8.52300 59.74000 40.83800
C  11.84700 58.22300 39.61000
C  10.74100 61.20700 40.21700
O  11.93000 61.13100 39.81300
C  10.22200 62.63600 40.60600
N  5.63100 59.10700 42.11600
C  6.19700 60.37100 41.79700
C  5.36400 61.47100 42.39400
C  3.99000 60.81500 42.65100
C  4.37000 59.30600 42.68800
C  5.80500 62.13900 43.71600
C  2.94100 61.09300 41.45000
C  2.15100 62.39300 41.46200
N  4.97100 56.31000 42.51500
C  3.75500 56.80200 42.96500
C  2.84300 55.78700 43.18500
C  3.53400 54.62400 42.80400
C  4.81800 55.00700 42.38100
C  1.45400 55.97300 43.70900
C  3.46600 53.25900 42.78000
O  2.61500 52.50900 43.21600
C  4.68000 52.84700 41.92100
C  4.09400 52.40300 40.61400
O  3.41000 53.09000 39.92100
O  4.40200 51.06200 40.37800
C  3.73000 50.54700 39.23600
H  10.54100 55.93300 39.97900
H  7.77500 61.68500 41.22200
H  2.57200 58.59300 43.52300
H  7.89200 52.14900 41.13700
H  9.49500 53.56500 39.41500
H  10.79300 52.70800 40.85200
H  9.75000 52.84400 42.27300
H  10.76800 54.24600 41.74000
H  7.52400 53.32000 38.30500
H  6.05400 52.83900 39.08200
H  6.45300 50.86600 38.21400
H  7.81100 50.65000 39.29300
H  12.72600 58.79500 39.90900
H  11.62200 58.24700 38.54400
H  12.11100 57.23800 39.99500
H  10.03600 62.67400 41.67900
H  9.32800 62.73100 39.99000
H  10.83200 63.47600 40.27400
H  5.23800 62.21700 41.61000
H  3.54200 61.14600 43.58800
H  5.15700 61.94700 44.57100
H  6.23700 63.12400 43.53800
H  6.70300 61.58800 43.99500
H  2.28600 60.23100 41.57500
H  3.43700 61.03400 40.48100
H  2.26900 62.89100 40.50000
H  2.53500 63.03900 42.25200
H  1.08300 62.20800 41.58000
H  0.80400 55.41700 43.03400
H  1.12000 57.01000 43.65700
H  1.32300 55.57400 44.71500
H  5.17600 52.01400 42.41800
H  2.78900 50.09000 39.54100
H  4.23500 49.69300 38.78300
H  3.52200 51.31600 38.49400
Mg -5.36100 24.76000 27.02500
C  -3.64200 26.63800 29.43600
C  -6.40000 22.65900 29.54700
C  -6.94500 22.99100 24.73300
C  -4.07500 26.91800 24.56900
N  -5.09300 24.76200 29.22400
C  -4.33400 25.60400 30.03700
C  -4.64200 25.43000 31.57600
C  -5.37000 24.10100 31.51700
C  -5.66000 23.80300 29.98800
C  -4.43700 22.92100 32.05400
C  -5.65800 26.61300 31.90200
C  -5.45100 27.38800 33.27700
H  -4.92400 26.43700 34.32100
N  -6.35800 23.02700 27.11800
C  -6.68000 22.31300 28.19300
C  -7.48400 21.16300 27.87400
C  -7.81800 21.31800 26.51400
C  -6.97100 22.47200 26.02900
C  -7.92400 20.11100 28.82500
C  -8.85200 20.60400 25.66800
O  -9.21200 21.01500 24.55900
C  -9.41800 19.25800 26.12900
N  -5.43800 24.92500 24.91100
C  -6.26300 24.05500 24.23800
C  -6.35200 24.50400 22.78100
C  -5.50900 25.87000 22.72900
C  -5.01000 25.97700 24.14600
C  -5.90500 23.33400 21.83500
C  -6.23300 27.10700 22.22100
C  -5.47900 27.85000 21.07400
N  -4.10000 26.41500 26.99800
C  -3.63700 27.19900 25.89500
C  -2.75500 28.21500 26.34700
C  -2.74300 28.01700 27.73800
C  -3.53100 26.89000 28.05100
C  -2.03600 29.28900 25.59600
C  -2.22900 28.50400 28.97800
O  -1.46700 29.40000 29.25600
C  -2.89200 27.68300 30.12000
C  -1.83900 27.24500 31.07200
O  -0.96900 26.39800 30.89000
O  -2.04600 27.91300 32.21100
C  -1.18400 27.58800 33.32800
H  -6.90800 22.00000 30.25400
H  -7.48200 22.35700 24.02300
H  -3.70300 27.64900 23.84800
H  -3.68500 25.58900 32.07200
H  -6.31300 24.16400 32.05900
H  -3.44500 23.27200 32.33900
H  -4.33700 22.17800 31.26300
H  -4.99100 22.51200 32.89900
H  -6.69800 26.29000 31.93800
H  -5.59700 27.30300 31.06000
H  -6.41300 27.65600 33.71400
H  -4.98200 28.36000 33.12200
H  -9.00400 20.22200 28.93100
H  -7.47900 20.25200 29.80900
H  -7.70000 19.10000 28.48600
H  -9.79600 18.88600 25.17700
H  -10.18200 19.34000 26.90300
H  -8.70400 18.49400 26.43600
H  -7.35300 24.74000 22.42000
H  -4.63900 25.71000 22.09200
H  -6.65200 23.29700 21.04200
H  -5.78500 22.37600 22.34100
H  -5.04100 23.62000 21.23400
H  -6.46800 27.83800 22.99400
H  -7.10900 26.70500 21.71000
H  -4.60800 27.27900 20.75200
H  -5.00600 28.76500 21.43000
H  -6.13000 28.01900 20.21600
H  -2.85300 29.97800 25.38000
H  -1.55300 28.80400 24.74800
H  -1.32200 29.82700 26.21800
H  -3.47700 28.43300 30.65400
H  -0.13900 27.68100 33.03100
H  -1.23800 26.56800 33.71000
H  -1.41700 28.31200 34.10900

