158

Mg 44.14800 5.23500 47.14300
C  42.18600 8.10000 46.48700
C  41.32400 3.30300 46.27300
C  46.11200 2.41800 46.83500
C  47.03600 7.20000 47.24800
N  41.96700 5.74600 46.37800
C  41.40100 6.95500 46.38200
C  39.92900 6.79900 46.31300
C  39.58400 5.24300 46.28600
C  41.03700 4.68600 46.33800
C  38.78200 4.60000 47.39300
C  39.28100 7.59400 45.12900
C  39.52800 7.06200 43.71800
H  40.47100 7.80500 42.69500
N  43.71100 3.17400 46.86400
C  42.54400 2.61400 46.48200
C  42.67100 1.20600 46.33600
C  44.00200 0.83200 46.68200
C  44.72500 2.16500 46.85500
C  41.59500 0.27000 45.85400
C  44.59900 -0.56100 46.59200
O  43.89200 -1.51400 46.26600
C  45.97700 -0.92700 46.84700
N  46.25000 4.91000 47.09200
C  46.81000 3.63300 47.10500
C  48.37000 3.68600 47.21400
C  48.66600 5.22300 47.46500
C  47.24900 5.82000 47.31900
C  48.92000 2.83100 48.37100
C  49.82400 5.81900 46.59200
C  50.86200 6.61400 47.26000
N  44.60500 7.22900 46.97700
C  45.79600 7.90800 47.07400
C  45.55500 9.35000 47.06200
C  44.09000 9.42900 46.91000
C  43.56700 8.16600 46.77700
C  46.56100 10.50100 47.13700
C  42.99000 10.36200 46.84000
O  43.00200 11.58600 46.86900
C  41.68900 9.57400 46.68700
C  40.76600 9.73500 47.82000
O  40.79200 9.00500 48.83200
O  39.87200 10.70300 47.63900
C  38.82700 10.86600 48.61500
H  40.45200 2.64700 46.23600
H  46.73200 1.53900 46.64400
H  47.87500 7.88800 47.36800
H  39.53000 7.32500 47.18100
H  39.07700 4.92600 45.37400
H  39.23800 3.75100 47.90200
H  37.96600 4.11900 46.85500
H  38.34000 5.30100 48.10100
H  39.61000 8.63300 45.08500
H  38.22100 7.48800 45.36200
H  38.56000 7.01800 43.21900
H  39.90900 6.05000 43.85000
H  41.23000 -0.25700 46.73600
H  41.93700 -0.35400 45.02800
H  40.82000 0.81700 45.31600
H  45.96400 -1.89000 47.35800
H  46.51000 -0.39800 47.63600
H  46.50300 -1.00900 45.89600
H  48.82200 3.41600 46.26000
H  48.91000 5.51300 48.48700
H  49.95800 3.07400 48.60000
H  48.97800 1.79000 48.05300
H  48.24300 2.98600 49.21200
H  49.36300 6.45300 45.83400
H  50.37900 5.07300 46.02300
H  50.98900 7.51000 46.65200
H  51.80200 6.06300 47.25600
H  50.60400 6.86700 48.28800
H  46.09500 11.30600 47.70600
H  46.88700 10.85900 46.16100
H  47.41300 9.97200 47.56500
H  41.13800 9.93400 45.81800
H  38.72500 11.91500 48.89200
H  39.06600 10.37700 49.56000
H  37.83900 10.45800 48.40300
Mg 35.73000 2.15300 30.13600
C  33.18800 3.51000 32.19200
C  37.84800 2.00500 32.81700
C  38.26700 1.49300 28.04100
C  33.55500 2.62100 27.37600
N  35.59000 2.85400 32.27500
C  34.44000 3.28800 32.95500
C  34.70400 3.28500 34.38900
C  36.30500 3.19400 34.52900
C  36.62200 2.60400 33.13900
C  37.02400 4.56700 34.75100
C  33.98100 2.13600 35.08600
C  33.39900 2.38300 36.54900
H  33.99600 3.59000 37.39500
N  37.69700 1.59900 30.43100
C  38.34600 1.53800 31.63100
C  39.62500 1.02400 31.41200
C  39.89300 0.97100 30.01500
C  38.62400 1.39000 29.43800
C  40.55700 0.70600 32.52300
C  41.14700 0.56400 29.22300
O  41.25500 0.77700 27.98800
C  42.22600 -0.13700 29.96700
N  35.94100 2.19100 28.01300
C  37.07100 1.85200 27.40600
C  36.79800 1.68800 25.85600
C  35.31000 2.08400 25.70900
C  34.87300 2.24100 27.16600
C  37.77800 2.48000 24.96000
C  34.37600 1.06600 24.83000
C  33.67000 -0.08600 25.47300
N  33.76000 2.95800 29.78500
C  33.02500 2.97000 28.59200
C  31.65300 3.35100 28.90700
C  31.64200 3.57600 30.35300
C  32.91700 3.32800 30.80300
C  30.54600 3.44200 27.95600
C  30.82200 3.96700 31.52100
O  29.60800 4.26000 31.62500
C  31.82800 3.81700 32.78100
C  31.86200 5.10000 33.48100
O  32.07700 6.17400 32.99700
O  31.64700 4.92700 34.83100
C  31.71200 6.08300 35.68000
H  38.47000 1.79800 33.69100
H  39.09300 1.27500 27.36100
H  32.83900 2.42000 26.57600
H  34.36300 4.26800 34.71500
H  36.71800 2.49300 35.25400
H  37.67600 4.68100 33.88500
H  37.68700 4.49700 35.61300
H  36.32200 5.38000 34.93700
H  34.58700 1.26300 35.33000
H  33.13300 1.81100 34.48500
H  33.57100 1.47800 37.13300
H  32.33700 2.57700 36.40000
H  41.33200 1.47100 32.48800
H  41.00700 -0.28600 32.48800
H  39.99900 0.64100 33.45800
H  42.91100 -0.37100 29.15200
H  41.91200 -1.03300 30.50200
H  42.57700 0.69400 30.58000
H  36.87100 0.63300 25.59300
H  35.18400 3.08500 25.29900
H  38.36700 3.16900 25.56600
H  37.25200 3.12200 24.25300
H  38.42700 1.87800 24.32500
H  35.06400 0.56200 24.15000
H  33.62200 1.64400 24.29700
H  33.81100 -0.92900 24.79600
H  32.58300 -0.08500 25.55300
H  34.19600 -0.30500 26.40300
H  30.79200 3.40700 26.89500
H  29.95200 4.34400 28.10800
H  29.74200 2.74100 28.17900
H  31.44200 2.94800 33.31300
H  30.90200 6.75100 35.39000
H  32.68500 6.53700 35.49000
H  31.61400 5.79500 36.72700

