158

Mg 17.26400 50.72700 26.20700
C  18.91400 48.95800 28.73000
C  14.71100 51.33800 28.66600
C  15.36200 51.84500 23.80000
C  19.27000 49.03900 23.86100
N  16.83000 50.13100 28.49000
C  17.73100 49.52700 29.31400
C  17.26800 49.76700 30.76000
C  15.76100 50.16600 30.59500
C  15.76400 50.59900 29.12400
C  14.71300 49.05000 30.75600
C  18.11100 50.82400 31.53100
C  18.51700 50.46700 32.97500
H  17.55800 50.87200 34.14900
N  15.37500 51.60800 26.23700
C  14.49000 51.89500 27.35900
C  13.37200 52.65200 26.87300
C  13.56900 52.84700 25.48400
C  14.79000 52.06000 25.14400
C  12.26100 53.17400 27.79900
C  12.80900 53.70500 24.48900
O  13.16700 53.75500 23.32100
C  11.61400 54.55900 24.99900
N  17.26000 50.39800 24.06200
C  16.45700 51.12700 23.33100
C  16.78500 51.00600 21.82200
C  18.01800 50.08700 21.82000
C  18.20200 49.80400 23.30800
C  15.60600 50.48200 20.94500
C  19.34100 50.68000 21.29000
C  20.18100 49.63500 20.53000
N  18.80900 49.50400 26.27900
C  19.54100 48.90700 25.20800
C  20.67400 48.20800 25.74400
C  20.58200 48.32600 27.17800
C  19.30500 48.93900 27.41300
C  21.73700 47.48100 24.89800
C  21.15300 47.95800 28.46600
O  22.27000 47.42100 28.68700
C  20.18600 48.52600 29.54700
C  19.88000 47.46300 30.52300
O  18.97200 46.63400 30.46600
O  20.72600 47.55900 31.61200
C  20.27300 46.77000 32.83100
H  13.94200 51.53900 29.41500
H  14.81700 52.32100 22.98200
H  19.97100 48.56600 23.17000
H  17.36100 48.80100 31.25500
H  15.47000 51.02600 31.19700
H  14.77400 48.27500 29.99300
H  13.73700 49.51300 30.60600
H  14.69700 48.57800 31.73900
H  17.48100 51.67500 31.78800
H  18.91700 51.33200 31.00100
H  19.55000 50.76900 33.14900
H  18.67800 49.38900 32.95300
H  12.16000 54.24800 27.64500
H  12.41800 52.83000 28.82100
H  11.38000 52.68100 27.38700
H  10.99400 53.86800 25.57000
H  11.17500 55.08100 24.14900
H  12.03200 55.30800 25.67100
H  17.03500 52.00300 21.46000
H  17.68500 49.18700 21.30200
H  14.90200 49.90900 21.54900
H  16.03300 49.85900 20.15800
H  15.00500 51.31100 20.57200
H  19.99600 50.95500 22.11700
H  19.19000 51.50400 20.59200
H  20.90400 49.29300 21.27100
H  20.68300 50.07400 19.66800
H  19.59800 48.74800 20.28400
H  22.24400 48.00200 24.08600
H  21.36200 46.50900 24.58000
H  22.47300 47.10100 25.60700
H  20.66500 49.32200 30.11600
H  20.43300 45.75000 32.48100
H  19.21100 46.74000 33.07600
H  20.84400 46.98200 33.73500
Mg -13.25300 16.79200 42.23800
C  -10.45600 14.41700 41.71000
C  -11.32300 19.05900 40.43700
C  -16.02800 18.51200 41.96200
C  -15.01600 13.97200 43.55000
N  -11.24400 16.66600 41.11400
C  -10.24500 15.67600 41.11400
C  -8.96700 16.12800 40.50400
C  -9.23900 17.62700 40.09200
C  -10.66200 17.82400 40.68900
C  -8.17700 18.72600 40.58400
C  -8.46500 15.11900 39.37200
C  -6.98500 14.56900 39.59800
H  -5.85700 15.11300 38.60500
N  -13.62900 18.68500 41.43500
C  -12.66000 19.45700 40.74400
C  -13.34000 20.71300 40.43800
C  -14.72500 20.63500 40.94700
C  -14.90400 19.21000 41.41400
C  -12.72000 21.79500 39.77300
C  -15.74300 21.74600 40.98500
O  -15.40200 22.81600 40.56800
C  -17.10100 21.61100 41.70900
N  -15.36100 16.19000 42.37800
C  -16.25500 17.19700 42.42200
C  -17.53100 16.74700 42.96900
C  -17.13400 15.35500 43.68100
C  -15.79300 15.08400 43.16300
C  -18.30300 17.78200 43.86300
C  -18.11100 14.17500 43.63000
C  -18.52800 13.57500 45.01600
N  -12.87100 14.63600 42.74000
C  -13.69000 13.74000 43.24100
C  -12.92100 12.54200 43.55300
C  -11.63000 12.75900 43.00700
C  -11.65600 14.07800 42.42800
C  -13.45600 11.25300 44.13600
C  -10.29000 12.22600 42.87600
O  -9.79300 11.13200 43.17500
C  -9.49300 13.25700 41.95100
C  -8.18900 13.46300 42.55900
O  -7.95600 14.33500 43.37200
O  -7.31800 12.48800 42.10000
C  -6.04900 12.50800 42.83100
H  -10.65500 19.74700 39.91500
H  -16.87800 19.07700 41.57300
H  -15.45800 13.16700 44.14000
H  -8.37100 16.06900 41.41500
H  -9.27000 17.72200 39.00600
H  -8.58700 19.35400 41.37500
H  -7.99000 19.33200 39.69700
H  -7.19800 18.36200 40.89400
H  -8.53700 15.59800 38.39600
H  -9.06300 14.20900 39.33800
H  -6.94900 13.48200 39.51600
H  -6.62500 14.81900 40.59600
H  -13.28400 21.91600 38.84800
H  -11.65800 21.69600 39.55000
H  -12.90800 22.72100 40.31700
H  -17.52600 22.61100 41.79100
H  -16.91900 21.18600 42.69600
H  -17.60700 20.91100 41.04500
H  -18.20100 16.57800 42.12500
H  -16.82600 15.58600 44.70100
H  -18.82200 17.41000 44.74700
H  -19.16000 18.25900 43.38700
H  -17.62200 18.58200 44.15200
H  -17.80100 13.41900 42.90800
H  -19.06200 14.43100 43.16400
H  -19.44300 14.03100 45.39500
H  -17.78200 13.88500 45.74700
H  -18.64300 12.49100 45.01700
H  -14.26600 10.98600 43.45800
H  -13.93300 11.31500 45.11300
H  -12.72500 10.44400 44.14400
H  -9.32000 12.59800 41.10000
H  -5.35200 13.23400 42.41000
H  -5.65800 11.54900 42.49000
H  -6.12700 12.61500 43.91300

