158

Mg -2.79100 17.44400 26.80800
C  -2.88400 15.61300 29.80200
C  -3.60000 20.23300 28.68300
C  -2.95300 19.09300 23.95200
C  -3.01800 14.40600 24.93300
N  -3.22700 17.77300 28.98600
C  -3.07300 16.92400 30.03900
C  -3.34000 17.57600 31.41500
C  -3.88100 19.02900 30.96200
C  -3.55700 19.06300 29.41000
C  -5.32300 19.29800 31.40300
C  -2.06800 17.71300 32.37500
C  -2.32500 17.87600 33.86100
H  -1.09200 17.61800 34.73000
N  -3.18700 19.40500 26.39600
C  -3.27900 20.46000 27.29100
C  -3.33600 21.70000 26.53100
C  -3.07300 21.40700 25.16400
C  -3.01900 19.91700 25.12300
C  -3.56700 23.06400 27.16600
C  -2.79700 22.33400 23.96600
O  -2.51200 21.92400 22.85900
C  -3.02700 23.75300 24.08500
N  -2.94000 16.85300 24.73300
C  -2.97500 17.78000 23.77600
C  -3.03500 17.00800 22.30900
C  -2.70600 15.51200 22.72800
C  -2.99200 15.57100 24.22800
C  -4.46700 17.26000 21.65600
C  -1.17600 15.22100 22.43100
C  -0.97900 13.79800 21.73500
N  -2.76500 15.45900 27.18400
C  -2.87500 14.37200 26.37400
C  -2.92900 13.16200 27.20600
C  -2.86900 13.64200 28.49800
C  -2.83100 15.01000 28.46900
C  -3.14200 11.77600 26.77000
C  -2.94700 13.14200 29.84300
O  -3.13100 11.99600 30.18200
C  -2.76000 14.34200 30.81800
C  -1.45400 14.31900 31.44800
O  -0.38100 14.52000 30.84600
O  -1.58700 13.93000 32.76600
C  -0.36000 13.66900 33.59400
H  -3.72900 21.17900 29.21300
H  -2.84200 19.56600 22.97400
H  -2.87400 13.44300 24.43800
H  -4.12800 16.95600 31.84300
H  -3.21200 19.80100 31.34000
H  -5.97700 19.33000 30.53100
H  -5.23800 20.27400 31.88100
H  -5.68500 18.55600 32.11400
H  -1.55100 18.61100 32.03700
H  -1.37500 16.91700 32.10200
H  -3.05500 17.16400 34.24700
H  -2.75300 18.87800 33.83400
H  -4.56800 23.46400 27.00900
H  -2.86400 23.79100 26.76000
H  -3.42500 23.13100 28.24500
H  -3.98300 23.92400 24.58000
H  -3.40100 24.15700 23.14400
H  -2.23700 24.30000 24.59900
H  -2.19900 17.43200 21.75300
H  -3.35700 14.76400 22.27500
H  -5.17000 17.41200 22.47500
H  -4.73500 16.39000 21.05500
H  -4.37100 18.18700 21.09000
H  -0.61200 15.13600 23.36000
H  -0.71000 15.87100 21.69000
H  -0.15000 13.83700 21.02900
H  -1.88500 13.57500 21.17000
H  -0.71500 13.00300 22.43200
H  -2.51300 11.20100 27.44900
H  -2.80300 11.62600 25.74500
H  -4.17200 11.43200 26.86500
H  -3.55000 14.45300 31.56000
H  -0.41500 14.08000 34.60200
H  0.56100 14.04900 33.15200
H  -0.30400 12.58300 33.66700
Mg -2.26500 34.25700 25.51800
C  -4.04000 32.79200 28.14900
C  -0.67100 36.28400 27.74400
C  -0.77300 35.80800 22.92200
C  -4.12700 32.28600 23.27500
N  -2.50400 34.67900 27.68800
C  -3.16900 33.80600 28.54700
C  -2.74400 34.05400 30.04500
C  -1.93700 35.44100 29.96000
C  -1.68600 35.49300 28.44500
C  -2.46400 36.74100 30.55100
C  -1.97700 32.83600 30.76000
C  -2.77100 32.14400 31.92000
H  -2.04500 31.89700 33.27300
N  -0.97000 35.80400 25.32700
C  -0.35200 36.44400 26.38700
C  0.66500 37.39800 25.89600
C  0.69600 37.13900 24.51700
C  -0.34800 36.20100 24.17200
C  1.55300 38.20200 26.76100
C  1.71600 37.60300 23.53500
O  1.75800 37.26500 22.33900
C  2.82000 38.50800 23.91000
N  -2.47100 34.11200 23.39500
C  -1.67000 34.80500 22.54500
C  -1.94500 34.37700 21.05500
C  -2.88400 33.21000 21.17600
C  -3.21900 33.22300 22.65200
C  -2.37400 35.50200 20.07600
C  -2.37800 31.76600 20.70100
C  -1.54600 30.86900 21.56700
N  -3.82000 32.89600 25.62100
C  -4.36500 32.08700 24.64600
C  -5.34300 31.17000 25.32400
C  -5.21000 31.45500 26.73000
C  -4.33200 32.44800 26.84400
C  -6.24700 30.15600 24.60400
C  -5.71600 31.11800 27.98800
O  -6.52200 30.28900 28.33700
C  -4.91900 31.93300 28.98800
C  -5.87800 32.67700 29.82000
O  -6.18200 33.79200 29.56400
O  -6.08800 32.03400 30.98500
C  -6.83900 32.80100 32.03600
H  -0.05300 36.66500 28.56000
H  -0.25700 36.23200 22.05800
H  -4.80200 31.75600 22.60000
H  -3.64000 34.14400 30.65900
H  -0.93500 35.33800 30.37600
H  -3.34400 36.56900 31.17000
H  -2.67100 37.44300 29.74300
H  -1.69400 37.18300 31.18400
H  -1.01400 33.23200 31.08400
H  -1.65900 32.22300 29.91700
H  -3.05600 31.15200 31.56800
H  -3.69300 32.69000 32.11600
H  2.55500 37.78500 26.66200
H  1.26400 38.20400 27.81200
H  1.62800 39.28000 26.62200
H  2.44900 39.28000 24.58500
H  3.13200 39.11700 23.06100
H  3.75700 38.05800 24.23700
H  -1.05200 33.90000 20.65000
H  -3.81800 33.42600 20.65700
H  -1.58800 35.99300 19.50300
H  -2.85600 36.31900 20.61300
H  -3.18000 35.24900 19.38800
H  -1.76200 31.99900 19.83200
H  -3.23700 31.27100 20.24800
H  -0.67600 30.64200 20.95100
H  -2.04500 29.93100 21.81000
H  -1.27500 31.37600 22.49300
H  -5.79000 30.01600 23.62500
H  -7.20700 30.59200 24.32800
H  -6.28500 29.26200 25.22700
H  -4.27300 31.24900 29.53800
H  -6.49400 33.81000 32.26000
H  -6.72500 32.32800 33.01200
H  -7.88300 32.83300 31.72400

