158

Mg 45.28300 4.05300 47.18500
C  43.41100 6.96800 46.26300
C  42.24900 2.30700 46.41300
C  46.94100 1.34400 47.87800
C  48.15400 6.03000 47.17700
N  43.06500 4.61500 46.47700
C  42.63800 5.79900 46.02600
C  41.19300 5.75400 45.50200
C  40.74700 4.28100 45.76200
C  42.08900 3.69100 46.28900
C  39.63900 4.22000 46.80700
C  41.14900 6.14500 44.00600
C  40.22300 7.24300 43.61500
H  40.38500 7.61500 42.09400
N  44.66500 2.11100 47.15400
C  43.40300 1.57500 46.79200
C  43.56700 0.15700 46.82700
C  44.82900 -0.20400 47.38700
C  45.53700 1.09300 47.56300
C  42.48400 -0.72500 46.40600
C  45.33300 -1.60400 47.62100
O  44.49400 -2.49000 47.53900
C  46.74700 -1.90600 48.05400
N  47.34800 3.71100 47.36800
C  47.76300 2.51800 47.83100
C  49.25600 2.65900 48.19300
C  49.62000 4.11800 47.92900
C  48.28900 4.65500 47.45400
C  49.65900 2.16700 49.57700
C  50.78600 4.36200 47.00700
C  50.67300 3.84700 45.49400
N  45.76600 6.07800 46.88100
C  46.91100 6.70300 46.96700
C  46.77400 8.13000 46.71700
C  45.38200 8.30600 46.49300
C  44.81200 7.05400 46.56600
C  47.94400 9.09200 46.60400
C  44.31100 9.25500 46.16700
O  44.28600 10.45900 46.01800
C  43.03800 8.42600 45.97600
C  41.99900 8.94100 47.02700
O  41.52100 8.29200 47.98100
O  41.49900 10.17500 46.61700
C  40.35000 10.58400 47.53200
H  41.29600 1.85200 46.13200
H  47.53000 0.45400 48.10900
H  49.01700 6.67700 47.34500
H  40.57100 6.43700 46.08000
H  40.39900 3.74800 44.87700
H  38.70700 4.17000 46.24500
H  39.59700 5.07200 47.48600
H  39.78500 3.30000 47.37300
H  40.86900 5.21600 43.51000
H  42.11300 6.40800 43.57000
H  40.45100 8.18700 44.11000
H  39.15500 7.02400 43.59100
H  42.96100 -1.26300 45.58700
H  41.56700 -0.26000 46.04300
H  42.19400 -1.33000 47.26500
H  46.82900 -2.99100 48.11600
H  47.12100 -1.49700 48.99300
H  47.42400 -1.66100 47.23600
H  49.67500 2.00000 47.43300
H  49.86600 4.68500 48.82700
H  50.44500 2.83200 49.93500
H  50.05900 1.15400 49.53100
H  48.77000 2.26800 50.20000
H  51.70800 3.96400 47.43100
H  51.02100 5.42600 47.02500
H  51.34000 3.07700 45.10600
H  50.76900 4.73900 44.87400
H  49.67900 3.44300 45.30400
H  48.56700 8.79200 45.76100
H  48.53300 9.28300 47.50100
H  47.57900 10.07300 46.30200
H  42.59900 8.56100 44.98800
H  39.91700 9.80600 48.16200
H  39.59000 10.92800 46.83000
H  40.61100 11.42000 48.18000
Mg 30.00500 57.71400 41.34200
C  27.31100 55.94400 40.06700
C  32.15200 55.36100 40.09200
C  32.52000 59.89400 41.94500
C  27.71800 60.30000 42.19900
N  29.68300 55.80200 40.30000
C  28.52500 55.25700 39.89000
C  28.76400 53.87600 39.14700
C  30.22200 53.57800 39.63200
C  30.71800 54.99700 40.04400
C  30.51100 52.33700 40.55700
C  28.66900 53.84800 37.60700
C  29.29000 55.05800 36.84700
H  28.31700 55.97500 36.06200
N  31.99800 57.65600 41.03500
C  32.69600 56.54700 40.54500
C  34.10800 56.90200 40.51900
C  34.26500 58.21400 41.00800
C  32.88400 58.63200 41.37700
C  35.07800 55.91900 39.98800
C  35.51700 59.05300 41.08300
O  36.53700 58.48900 40.84700
C  35.58600 60.49000 41.35100
N  30.11200 59.76500 41.96500
C  31.26500 60.36800 42.25000
C  31.08100 61.84700 42.75200
C  29.53600 61.94800 42.79800
C  29.11400 60.61700 42.23200
C  31.66600 62.09100 44.18000
C  28.94400 63.18800 42.11900
C  29.22600 64.53800 42.88100
N  27.86400 58.05400 41.32400
C  27.09200 59.09300 41.70200
C  25.73200 58.84600 41.41800
C  25.74400 57.57400 40.82500
C  27.09100 57.19600 40.71500
C  24.61700 59.89800 41.58600
C  24.94900 56.54100 40.22100
O  23.71000 56.43300 40.04300
C  25.92500 55.47600 39.71300
C  25.53400 54.19500 40.37100
O  25.52200 54.06000 41.58400
O  25.13700 53.23100 39.48100
C  24.65100 51.92400 40.09000
H  32.75800 54.56200 39.66000
H  33.26600 60.61700 42.27900
H  26.93200 61.02000 42.43900
H  28.09600 53.12000 39.56100
H  30.88000 53.36800 38.78800
H  31.41400 52.46200 41.15500
H  30.90200 51.56500 39.89400
H  29.56200 52.06000 41.01500
H  27.59900 53.76500 37.41400
H  29.21400 52.97200 37.25500
H  29.91100 54.56600 36.09800
H  29.90900 55.65500 37.51700
H  36.14900 56.11000 39.92100
H  34.66900 55.29500 39.19300
H  35.09200 55.16300 40.77400
H  34.75600 60.94700 40.81100
H  36.57800 60.72500 40.96800
H  35.47300 60.72700 42.40900
H  31.49200 62.51900 41.99900
H  29.15800 61.96900 43.82000
H  32.46900 61.36500 44.30700
H  30.97600 62.13200 45.02300
H  32.14200 63.04100 43.93700
H  27.86300 63.08200 42.20700
H  29.35900 63.26100 41.11400
H  29.72300 64.44000 43.84600
H  28.25700 64.98200 43.10600
H  29.76500 65.19900 42.20200
H  23.67800 59.36800 41.74700
H  24.57600 60.59600 40.75000
H  24.68500 60.49600 42.49500
H  25.66600 55.39000 38.65700
H  25.30400 51.36300 40.75800
H  24.51400 51.24400 39.24900
H  23.71000 52.12200 40.60300

