158

Mg 47.34900 34.34600 26.81800
C  45.56500 33.50700 29.73200
C  47.84700 37.51300 28.19900
C  48.75100 35.32000 23.89600
C  46.32800 31.31100 25.35600
N  46.84600 35.39000 28.85500
C  46.10700 34.82200 29.88600
C  45.93700 35.75200 31.07300
C  46.91500 36.90700 30.65000
C  47.17300 36.64500 29.15600
C  46.55900 38.35200 30.92100
C  46.25100 35.44100 32.58600
C  45.07500 35.57500 33.54400
H  45.47300 35.82700 35.01300
N  48.26200 36.05600 26.22200
C  48.35000 37.26500 26.91800
C  49.03500 38.25000 26.11700
C  49.33900 37.63200 24.82600
C  48.82200 36.25800 24.94300
C  49.52700 39.60800 26.65000
C  50.10500 38.18800 23.53900
O  50.30000 37.58300 22.47200
C  50.75500 39.51000 23.63300
N  47.61000 33.38900 25.00200
C  48.23600 33.99500 23.92900
C  48.32700 33.08100 22.72100
C  47.41200 31.89000 23.09000
C  47.06700 32.25400 24.58600
C  48.12400 33.75500 21.30900
C  48.23000 30.59000 22.89200
C  49.39400 30.29800 23.79300
N  46.36300 32.63600 27.46700
C  45.91500 31.52000 26.71600
C  45.07600 30.73400 27.59000
C  44.96300 31.48200 28.76700
C  45.66100 32.67000 28.65400
C  44.34800 29.40000 27.25500
C  44.24500 31.44800 30.01900
O  43.41500 30.64200 30.51900
C  44.60100 32.78900 30.69000
C  45.26500 32.26200 31.94700
O  46.43500 32.00600 32.20000
O  44.23100 31.94200 32.81700
C  44.65600 31.14000 33.97000
H  48.05900 38.48000 28.66000
H  49.16800 35.67400 22.95000
H  45.96800 30.40000 24.87400
H  44.98300 36.25600 30.91900
H  47.87200 36.57300 31.04900
H  46.47800 38.88000 29.97100
H  47.40000 38.75000 31.48800
H  45.58100 38.45800 31.39200
H  47.01700 36.07700 33.03000
H  46.58400 34.42700 32.80600
H  44.45000 34.69300 33.40500
H  44.48700 36.43000 33.21100
H  48.97400 40.43100 26.19500
H  50.60200 39.71300 26.50500
H  49.40200 39.58700 27.73200
H  50.05800 40.25600 24.01500
H  51.23500 39.76300 22.68800
H  51.51100 39.43400 24.41400
H  49.39100 32.84100 22.72400
H  46.43400 31.90100 22.61000
H  49.08200 33.61000 20.80900
H  47.73500 34.77100 21.37500
H  47.33700 33.21000 20.78800
H  48.66600 30.60200 21.89300
H  47.51600 29.77400 23.00600
H  50.23800 30.34000 23.10600
H  49.29400 29.28800 24.19100
H  49.53800 31.01800 24.59900
H  44.24100 29.33100 26.17300
H  43.37900 29.41700 27.75400
H  45.13300 28.76100 27.65800
H  43.69000 33.33200 30.94200
H  45.63600 31.31400 34.41300
H  44.39000 30.12600 33.67200
H  43.94500 31.20700 34.79400
Mg -5.80000 25.05300 26.23500
C  -4.07600 26.72500 28.76800
C  -7.37600 23.21900 28.74100
C  -7.23900 23.21300 23.79000
C  -3.87700 26.74700 23.90900
N  -5.73100 25.00800 28.44600
C  -4.93800 25.77800 29.26000
C  -5.34600 25.46800 30.73200
C  -6.12100 24.10600 30.69500
C  -6.43000 24.09100 29.20400
C  -5.22600 22.88100 31.18500
C  -6.24400 26.53900 31.41700
C  -6.19300 26.61300 32.98700
H  -5.75000 25.36700 33.77900
N  -7.19300 23.62700 26.25300
C  -7.76800 23.00100 27.35300
C  -8.77700 22.05000 26.97100
C  -8.73200 21.99100 25.48200
C  -7.64900 22.94400 25.09300
C  -9.61100 21.18800 27.94300
C  -9.56900 21.08100 24.56300
O  -9.50000 21.06400 23.35500
C  -10.62900 20.09500 25.13700
N  -5.41400 24.76700 24.18800
C  -6.16600 24.00800 23.38900
C  -5.63600 24.09200 21.94300
C  -4.89400 25.45000 21.91900
C  -4.69600 25.72200 23.43500
C  -4.81700 22.86600 21.40400
C  -5.60800 26.64500 21.15800
C  -4.69600 27.51800 20.30500
N  -4.36000 26.51400 26.26800
C  -3.64600 27.15900 25.25700
C  -2.79900 28.16300 25.78500
C  -2.95000 28.05000 27.15200
C  -3.87300 27.00500 27.38200
C  -2.00300 29.24900 25.06000
C  -2.62100 28.61100 28.43300
O  -1.97100 29.63700 28.67900
C  -3.24000 27.74400 29.52800
C  -2.16700 27.32500 30.51400
O  -0.98500 27.17900 30.29500
O  -2.72700 27.37800 31.78600
C  -1.78700 27.17200 32.86700
H  -7.76400 22.58300 29.54000
H  -7.61900 22.49800 23.05700
H  -3.42700 27.35700 23.12400
H  -4.48500 25.34800 31.39000
H  -7.03100 24.30000 31.26400
H  -4.27800 23.27000 31.55500
H  -4.96400 22.18200 30.39100
H  -5.67700 22.28800 31.98100
H  -7.17400 26.34300 30.88400
H  -5.92500 27.49400 31.00000
H  -7.17100 26.96100 33.32000
H  -5.47600 27.42000 33.13500
H  -10.64700 21.24800 27.60900
H  -9.59000 21.59300 28.95500
H  -9.29400 20.14500 27.95100
H  -11.08400 19.50200 24.34300
H  -11.35100 20.72900 25.65200
H  -10.20300 19.34700 25.80600
H  -6.54000 24.16100 21.33700
H  -3.86200 25.34900 21.58300
H  -5.59600 22.14900 21.14800
H  -4.13600 22.36000 22.08800
H  -4.24400 23.11600 20.51100
H  -6.08000 27.35100 21.84100
H  -6.37200 26.22300 20.50500
H  -5.18600 27.51200 19.33200
H  -3.70900 27.07700 20.16700
H  -4.53700 28.47600 20.80000
H  -1.96300 29.08500 23.98400
H  -0.99600 29.37600 25.45700
H  -2.56000 30.18600 25.03100
H  -3.78600 28.45400 30.14900
H  -0.90100 27.79700 32.75800
H  -1.53000 26.12200 33.00500
H  -2.18300 27.44900 33.84400

