158

Mg 45.62000 3.70600 46.97800
C  43.26300 6.25900 46.55000
C  43.09500 1.47600 46.91500
C  47.86200 1.30400 47.17500
C  48.09400 6.08800 46.46300
N  43.47400 3.90400 46.67100
C  42.67800 4.99500 46.69700
C  41.23000 4.58800 46.63000
C  41.26500 3.09000 47.15600
C  42.71200 2.80000 46.85700
C  40.78200 2.91900 48.59200
C  40.64900 4.64100 45.18300
C  39.51700 5.63600 44.81700
H  39.82500 6.52500 43.60500
N  45.47600 1.67300 47.01300
C  44.37400 0.91700 47.02600
C  44.69400 -0.48700 47.16300
C  46.11500 -0.56800 47.26600
C  46.54800 0.83500 47.08700
C  43.63300 -1.57700 46.99200
C  46.98700 -1.91500 47.32800
O  46.39200 -3.00600 47.27600
C  48.52700 -1.88200 47.45100
N  47.61200 3.68300 46.68100
C  48.33400 2.65200 47.02800
C  49.83600 2.85800 47.30300
C  49.88900 4.29800 46.68000
C  48.48600 4.77800 46.53600
C  50.15400 2.69100 48.80600
C  50.77000 4.58900 45.40600
C  49.95900 4.74300 44.10200
N  45.71700 5.77400 46.62500
C  46.76200 6.62600 46.44400
C  46.33900 8.02400 46.36700
C  44.96000 7.91600 46.35200
C  44.65000 6.52100 46.52400
C  47.32100 9.20200 46.26000
C  43.64000 8.63600 46.41700
O  43.47200 9.81900 46.33600
C  42.56800 7.67300 46.53500
C  41.75000 7.91300 47.84900
O  42.03200 7.44500 48.94500
O  40.61500 8.52900 47.49600
C  39.61800 8.89200 48.48600
H  42.26600 0.79300 47.11300
H  48.65700 0.61600 47.47100
H  48.84200 6.87400 46.58400
H  40.74800 5.17200 47.41300
H  40.59400 2.46700 46.56400
H  39.89100 2.29600 48.50700
H  40.46100 3.85000 49.06000
H  41.49100 2.45000 49.27400
H  40.33400 3.64800 44.86200
H  41.54300 4.96300 44.64900
H  39.38000 6.25000 45.70700
H  38.67500 4.94800 44.74500
H  43.65700 -1.87300 45.94400
H  42.69600 -1.16400 47.36700
H  44.00600 -2.39300 47.61100
H  48.72800 -1.40400 48.40900
H  49.02800 -1.37100 46.62800
H  48.84800 -2.92300 47.41400
H  50.42000 2.14500 46.72100
H  50.30000 4.86700 47.51400
H  50.81300 1.82300 48.83100
H  49.21000 2.55700 49.33400
H  50.80700 3.54200 48.99900
H  51.50500 3.80600 45.22000
H  51.25900 5.55000 45.57000
H  50.61900 4.68900 43.23600
H  49.52000 5.74000 44.14400
H  49.21000 3.96000 43.98900
H  47.44500 9.51100 47.29800
H  46.71800 9.91200 45.69500
H  48.17800 9.30200 45.59400
H  41.79500 7.73400 45.76900
H  39.67800 9.96600 48.65900
H  39.64900 8.35900 49.43600
H  38.67600 8.67900 47.98000
Mg 37.03000 48.70100 25.72800
C  37.00700 46.72700 28.60500
C  36.12700 51.52600 27.57900
C  36.52800 50.42400 22.87500
C  37.69900 45.78200 23.88700
N  36.44200 49.05800 27.84100
C  36.69700 48.10600 28.81700
C  36.72600 48.79900 30.19800
C  36.18000 50.24600 29.83100
C  36.27700 50.26300 28.31200
C  34.72000 50.47800 30.27800
C  38.06600 48.83300 30.99900
C  38.05700 48.06100 32.34200
H  37.88300 48.95200 33.55300
N  36.59500 50.74700 25.35500
C  36.21600 51.70800 26.19500
C  36.03600 53.01200 25.50000
C  36.21600 52.76800 24.09300
C  36.37300 51.27100 24.07500
C  35.88200 54.32300 26.32800
C  36.14000 53.74700 22.98200
O  36.26100 53.43400 21.77000
C  35.89400 55.23400 23.22100
N  37.14000 48.22000 23.68400
C  36.90100 49.06900 22.67400
C  36.97400 48.37200 21.32000
C  37.65000 46.96400 21.64100
C  37.46300 46.93300 23.14100
C  35.58400 48.37100 20.65600
C  39.13200 47.10800 21.20400
C  39.62300 45.97900 20.30800
N  37.34700 46.70200 26.04600
C  37.64700 45.62600 25.23400
C  37.66700 44.39800 25.95900
C  37.61200 44.86500 27.30100
C  37.25100 46.20800 27.32100
C  37.85400 43.16100 25.20500
C  37.55000 44.36300 28.64800
O  37.67600 43.24900 29.09700
C  37.06800 45.54300 29.50700
C  35.73000 45.17700 30.14000
O  34.91300 44.41000 29.60000
O  35.58300 45.78300 31.36000
C  34.27100 45.52100 31.89500
H  35.90900 52.40000 28.19600
H  36.30500 50.90500 21.92000
H  37.81200 44.97300 23.16200
H  36.02000 48.29600 30.85900
H  36.80100 51.07400 30.17600
H  34.03600 49.66200 30.04700
H  34.20500 51.25600 29.71500
H  34.78400 50.69100 31.34500
H  38.40600 49.86800 31.05000
H  38.83800 48.34100 30.40800
H  38.95300 47.46200 32.50400
H  37.30600 47.27200 32.30000
H  36.47600 55.09100 25.83300
H  36.24200 54.20100 27.35000
H  34.82800 54.54100 26.50000
H  35.52200 55.63300 22.27800
H  36.84900 55.70000 23.46600
H  35.07700 55.37300 23.92800
H  37.67100 48.92500 20.69000
H  37.15500 46.12900 21.14300
H  34.85400 49.07300 21.05800
H  35.11800 47.39800 20.49700
H  35.56500 48.69800 19.61700
H  39.68100 46.99000 22.13800
H  39.41900 48.06800 20.77300
H  40.61800 45.60500 20.54600
H  39.65500 46.36700 19.28900
H  38.91300 45.15200 20.29800
H  37.35600 42.44600 25.85900
H  38.90500 42.91400 25.05300
H  37.30100 43.14600 24.26500
H  37.79700 45.66900 30.30700
H  34.35200 45.76000 32.95500
H  34.00500 44.46700 31.81200
H  33.51700 46.18000 31.46300

