158

Mg 36.02100 49.22200 24.71800
C  35.99400 47.41800 27.75200
C  33.88900 51.55400 26.14500
C  35.43900 50.58000 21.65800
C  37.68200 46.69500 23.28000
N  34.95400 49.40600 26.70900
C  35.28000 48.63200 27.79700
C  34.84400 49.39000 29.09500
C  33.86600 50.41600 28.53900
C  34.28100 50.50100 27.00800
C  32.37400 50.09900 28.72400
C  36.01400 49.92700 29.89700
C  35.97100 49.91300 31.48400
H  34.71100 49.53200 32.29800
N  34.84600 50.88700 24.00500
C  34.18700 51.84200 24.83100
C  33.85800 53.01600 24.05200
C  34.36500 52.76600 22.74500
C  34.93500 51.37600 22.71800
C  33.34000 54.30600 24.65900
C  34.41000 53.71100 21.50700
O  35.00400 53.46700 20.47900
C  33.72200 55.17500 21.56200
N  36.27700 48.60200 22.71800
C  35.96100 49.28300 21.63300
C  36.60700 48.65700 20.28900
C  37.43000 47.48600 20.91100
C  37.10900 47.55000 22.36200
C  35.50500 48.26200 19.23800
C  38.97700 47.58200 20.54900
C  39.83000 48.60400 21.25000
N  36.79100 47.47600 25.30800
C  37.55100 46.60000 24.66100
C  38.02300 45.57400 25.53700
C  37.44800 45.90200 26.83000
C  36.66000 46.98300 26.60000
C  38.84300 44.40200 25.03700
C  37.37200 45.55300 28.15500
O  38.01600 44.69700 28.78500
C  36.40200 46.44800 28.76600
C  35.25000 45.64500 29.39800
O  34.44400 45.00900 28.74200
O  35.11000 45.86700 30.77700
C  34.07400 45.10500 31.51500
H  33.32200 52.41500 26.50600
H  35.43000 51.01300 20.65600
H  38.46000 46.03100 22.89500
H  34.26600 48.69500 29.70500
H  34.01500 51.41400 28.95200
H  32.04900 49.13200 29.10600
H  31.91200 50.16700 27.73900
H  32.05300 50.88900 29.40300
H  36.03400 51.00200 29.71300
H  36.92400 49.45900 29.52200
H  36.31900 50.78500 32.03700
H  36.72500 49.16400 31.72700
H  32.59700 54.86900 24.09300
H  34.18100 54.99000 24.77700
H  32.96000 54.28500 25.68000
H  32.64500 55.21200 21.72800
H  33.84600 55.76900 20.65700
H  34.26300 55.66800 22.36900
H  37.19100 49.47100 19.85900
H  37.05300 46.52900 20.55100
H  35.66100 48.60700 18.21600
H  34.47500 48.51800 19.49000
H  35.54300 47.17300 19.20100
H  39.06500 47.83500 19.49200
H  39.40100 46.58500 20.66700
H  39.76400 49.58400 20.77800
H  40.86700 48.26800 21.22400
H  39.43300 48.86800 22.23000
H  39.73100 44.58000 24.43100
H  38.22800 43.73400 24.43500
H  39.33000 43.94100 25.89700
H  36.91700 46.97700 29.56800
H  33.10400 45.60200 31.50900
H  34.26900 45.07200 32.58700
H  34.02400 44.04300 31.27600
Mg 6.66400 53.53800 39.59800
C  6.46100 49.81600 39.50600
C  10.00900 53.12500 38.85300
C  6.67300 56.71300 39.33100
C  3.22000 53.42500 40.09100
N  8.07600 51.70100 39.21000
C  7.78700 50.32900 39.35800
C  9.08400 49.48700 39.14000
C  10.21800 50.52400 39.32500
C  9.42400 51.86700 39.12300
C  10.94400 50.51900 40.69700
C  9.16800 48.80500 37.72700
C  8.92500 49.75600 36.52300
H  7.65300 49.69200 35.73500
N  8.11600 54.81900 39.03900
C  9.44500 54.44800 38.70200
C  10.08800 55.60700 38.38900
C  9.16800 56.75900 38.59500
C  7.94900 56.17700 39.06900
C  11.52400 55.66400 37.82200
C  9.53400 58.22500 38.34000
O  10.64700 58.50800 37.91300
C  8.59400 59.39200 38.61200
N  5.15500 54.86200 39.51300
C  5.44800 56.15400 39.61600
C  4.16600 57.04600 39.86800
C  3.11400 55.91500 40.19900
C  3.88400 54.63900 39.96800
C  4.30600 58.12600 41.00700
C  1.72900 56.01800 39.56700
C  0.57200 55.96500 40.54500
N  5.06200 51.93300 39.57600
C  3.73700 52.14800 39.90100
C  3.04500 50.85800 40.07300
C  4.11300 49.93100 39.95100
C  5.28300 50.62800 39.63700
C  1.57400 50.65200 40.44400
C  4.39200 48.58000 40.02700
O  3.64600 47.60100 40.13200
C  5.86900 48.42300 39.72400
C  6.00900 47.60900 38.57200
O  5.77500 47.93000 37.41800
O  6.46700 46.30800 38.91000
C  6.17100 45.13900 37.97600
H  11.08700 52.98700 38.74500
H  6.70600 57.80200 39.24600
H  2.16900 53.38000 40.38500
H  9.14200 48.65900 39.84600
H  10.98600 50.53300 38.55200
H  11.98900 50.39900 40.41000
H  10.83300 49.68300 41.38800
H  10.91400 51.40200 41.33500
H  8.35400 48.08100 37.71900
H  10.11800 48.27100 37.70300
H  9.78300 49.65900 35.85700
H  9.06100 50.76700 36.90600
H  12.24100 55.79100 38.63300
H  11.55500 56.48500 37.10600
H  11.89700 54.78600 37.29400
H  9.08200 60.35900 38.73200
H  8.25300 59.07000 39.59600
H  7.72000 59.35200 37.96200
H  4.05000 57.54400 38.90500
H  3.03700 55.89700 41.28600
H  4.40500 59.16400 40.68900
H  5.21900 57.76200 41.47800
H  3.51000 57.94900 41.73000
H  1.61400 55.18800 38.87000
H  1.69700 56.98200 39.05800
H  -0.38300 55.87600 40.02600
H  0.52100 56.91100 41.08500
H  0.56600 54.96100 40.97000
H  1.51000 49.59300 40.69000
H  0.82600 51.00800 39.73600
H  1.46300 51.25900 41.34300
H  6.24100 47.88200 40.59400
H  7.11000 44.76800 37.56500
H  5.34700 45.41200 37.31800
H  5.70600 44.34900 38.56600

