158

Mg 24.13000 -5.88600 45.68100
C  26.40300 -3.58900 44.27500
C  21.70600 -4.57100 43.70300
C  22.37200 -8.82500 45.95700
C  26.95300 -7.57300 47.02800
N  24.07200 -4.32500 44.26200
C  25.08500 -3.55000 43.81500
C  24.65800 -2.59400 42.66800
C  23.08200 -2.63400 42.82200
C  22.85800 -3.89200 43.70500
C  22.31800 -1.35600 43.25300
C  25.22100 -3.11400 41.34100
C  26.10300 -2.14000 40.42900
H  25.85800 -1.99100 38.93700
N  22.22300 -6.56600 45.07800
C  21.39400 -5.85400 44.22900
C  20.17900 -6.61600 43.98000
C  20.27600 -7.79800 44.81200
C  21.67400 -7.77600 45.34100
C  19.15800 -6.11100 42.98800
C  19.19600 -8.83100 45.01200
O  18.12900 -8.73300 44.48900
C  19.31400 -9.81200 46.03400
N  24.65200 -7.93000 46.37000
C  23.72200 -8.91400 46.41200
C  24.34500 -10.24200 47.00000
C  25.82400 -9.88000 47.12500
C  25.82200 -8.34200 46.93800
C  23.69100 -10.83900 48.31300
C  26.69400 -10.57700 45.98400
C  26.83500 -12.14700 46.06400
N  26.26700 -5.47700 45.94300
C  27.19900 -6.29900 46.50900
C  28.48100 -5.54900 46.41000
C  28.25300 -4.58500 45.47800
C  26.88500 -4.55400 45.20100
C  29.76200 -5.85700 47.03800
C  28.81900 -3.52200 44.66900
O  29.99800 -3.13300 44.64400
C  27.64700 -2.77700 43.91100
C  27.54300 -1.29600 44.44300
O  26.56100 -0.74600 44.87100
O  28.79600 -0.63500 44.41300
C  29.02300 0.61000 45.24100
H  20.89100 -4.03500 43.21200
H  21.80600 -9.74600 46.11500
H  27.76100 -8.17200 47.45300
H  25.04400 -1.59800 42.88600
H  22.75700 -2.76700 41.78900
H  22.98400 -0.56200 43.59000
H  21.49600 -1.58800 43.93000
H  21.90900 -0.87200 42.36600
H  24.42400 -3.59600 40.77600
H  25.84700 -3.96300 41.61800
H  27.12900 -2.49700 40.34100
H  26.14400 -1.14500 40.87200
H  18.59600 -6.97700 42.63800
H  19.62400 -5.47600 42.23400
H  18.38400 -5.46500 43.40200
H  18.37200 -10.33700 46.18600
H  19.65200 -9.41600 46.99100
H  19.98200 -10.51600 45.53800
H  24.40500 -10.96100 46.18300
H  26.27600 -10.10500 48.09100
H  23.16700 -11.78300 48.16000
H  22.93900 -10.22000 48.80200
H  24.44500 -11.02900 49.07800
H  27.67800 -10.10900 45.98300
H  26.09600 -10.23600 45.13900
H  26.57500 -12.42100 47.08700
H  27.85200 -12.40800 45.77200
H  26.24200 -12.80000 45.42200
H  30.14400 -6.85300 46.81600
H  29.68800 -5.71400 48.11600
H  30.48200 -5.09200 46.74500
H  27.92600 -2.68400 42.86100
H  29.87500 0.44300 45.90000
H  28.19100 0.88400 45.89000
H  29.37600 1.49500 44.71100
Mg 48.11500 16.31100 28.39000
C  45.93900 16.01900 31.01800
C  50.39100 18.10700 30.35500
C  49.74000 17.33100 25.57800
C  45.51900 14.81900 26.29800
N  48.14100 16.90800 30.40100
C  47.15300 16.65100 31.34900
C  47.63200 17.02100 32.78900
C  48.89800 17.86900 32.52400
C  49.23700 17.57700 31.00400
C  48.80500 19.38100 32.85500
C  47.70500 15.74300 33.74600
C  47.45900 16.04600 35.25500
H  47.69100 17.45200 35.79600
N  49.97500 17.33200 28.08300
C  50.76800 17.91200 29.02900
C  52.01700 18.21700 28.41500
C  51.85300 18.09900 26.99800
C  50.42800 17.57700 26.79700
C  53.19500 18.77900 29.15700
C  52.80200 18.24800 25.85400
O  52.45000 17.91000 24.70700
C  54.07800 18.88900 26.07900
N  47.62500 16.14700 26.19100
C  48.53300 16.66700 25.23800
C  48.08600 16.24500 23.78400
C  46.96900 15.21800 24.13000
C  46.64900 15.34500 25.65600
C  47.49600 17.42400 22.97700
C  47.32300 13.77900 23.65200
C  46.61800 13.29400 22.38400
N  46.14800 15.56100 28.56800
C  45.25100 14.96300 27.64100
C  44.06500 14.47900 28.41100
C  44.30400 14.87500 29.75900
C  45.55500 15.58100 29.79200
C  42.86500 13.79700 27.82200
C  43.80200 14.85300 31.13300
O  42.77600 14.26500 31.60500
C  44.76200 15.61200 31.96000
C  43.97900 16.72700 32.59000
O  43.97400 17.86900 32.15400
O  43.48600 16.38700 33.82500
C  43.01200 17.45600 34.67900
H  51.13900 18.57000 31.00200
H  50.15900 17.70300 24.64100
H  44.82000 14.16300 25.77400
H  46.94000 17.75200 33.20700
H  49.80300 17.46100 32.97400
H  49.83000 19.66500 33.09400
H  48.18400 19.59300 33.72500
H  48.49200 20.02500 32.03200
H  48.73600 15.41800 33.60900
H  47.06600 14.90900 33.45600
H  48.20800 15.44600 35.77200
H  46.44800 15.71800 35.49700
H  53.34200 18.61000 30.22400
H  53.42300 19.83400 29.00900
H  54.01000 18.14900 28.80200
H  54.35700 19.10500 25.04800
H  54.74800 18.15000 26.51700
H  53.95400 19.73400 26.75600
H  48.85000 15.76900 23.17000
H  46.03300 15.46600 23.63000
H  48.29600 17.62700 22.26500
H  47.29200 18.28900 23.60700
H  46.51500 17.16800 22.57800
H  47.09700 13.18500 24.53700
H  48.40800 13.87100 23.60900
H  46.45000 14.02100 21.58900
H  45.64800 12.96200 22.75200
H  47.14600 12.45000 21.94000
H  42.21700 13.33800 28.56900
H  43.16200 13.06900 27.06700
H  42.25200 14.55200 27.32900
H  44.97800 15.03000 32.85600
H  42.25800 18.00100 34.11200
H  43.88800 18.06800 34.89800
H  42.62400 17.08600 35.62800

