158

Mg 8.80700 3.39800 27.87800
C  10.21800 1.72200 30.68400
C  7.02400 5.43000 29.82600
C  7.42700 4.70100 25.07300
C  10.04800 0.64200 25.94800
N  8.56500 3.50000 29.95100
C  9.36300 2.80600 30.96100
C  9.08200 3.44200 32.36800
C  7.81300 4.35700 32.05200
C  7.80400 4.47700 30.53500
C  6.48500 3.71500 32.48000
C  10.34600 4.25700 32.84700
C  11.20600 3.59200 33.99400
H  11.27000 4.31800 35.34600
N  7.40900 4.90100 27.47100
C  6.81100 5.63700 28.45000
C  6.09100 6.76000 27.84100
C  6.25400 6.58800 26.44000
C  7.03900 5.31700 26.25200
C  5.25600 7.73000 28.64800
C  5.58400 7.43500 25.25900
O  5.85600 7.26600 24.04900
C  4.77800 8.60800 25.66700
N  8.53700 2.65100 25.82600
C  8.02400 3.47800 24.82600
C  8.37200 2.88600 23.44000
C  9.25000 1.61800 23.74500
C  9.30400 1.58000 25.24600
C  7.02100 2.51900 22.66200
C  10.76400 1.74400 23.27100
C  11.60000 0.39500 22.94000
N  9.93500 1.59400 28.18200
C  10.29600 0.63100 27.32300
C  11.18800 -0.34800 27.90500
C  11.18000 -0.01200 29.27600
C  10.37000 1.18300 29.37100
C  11.90100 -1.46600 27.21500
C  11.63300 -0.25800 30.60100
O  12.47400 -1.08700 30.96100
C  10.94000 0.78500 31.62500
C  10.05400 0.03500 32.62400
O  8.95800 -0.41400 32.35900
O  10.71800 -0.07200 33.79800
C  9.97000 -0.51400 35.01700
H  6.66100 6.12600 30.58500
H  7.06500 5.14300 24.14300
H  10.52400 -0.14800 25.36300
H  8.84800 2.58500 33.00000
H  7.91300 5.27400 32.63300
H  5.86200 3.36200 31.65800
H  5.94900 4.50800 33.00000
H  6.70900 2.94800 33.22100
H  10.08600 5.24500 33.22600
H  10.96600 4.43300 31.96800
H  12.26700 3.55700 33.74800
H  10.85500 2.57200 34.14800
H  5.73700 8.70400 28.73700
H  5.14400 7.50900 29.71000
H  4.22500 7.77900 28.29800
H  3.85200 8.47900 26.22700
H  4.69100 9.23900 24.78300
H  5.47900 9.17700 26.27900
H  8.93100 3.57300 22.80300
H  8.84400 0.65300 23.44100
H  6.15100 2.75700 23.27300
H  6.90400 1.43900 22.57200
H  6.98000 2.82100 21.61600
H  11.30500 2.33000 24.01300
H  10.75600 2.32000 22.34600
H  10.89700 -0.43100 23.04800
H  12.29400 0.23300 23.76500
H  12.07800 0.42100 21.96100
H  12.77500 -0.96800 26.79500
H  11.27900 -1.93700 26.45400
H  12.17600 -2.09000 28.06600
H  11.64200 1.37200 32.21800
H  9.86400 0.29000 35.74400
H  10.51400 -1.38400 35.38600
H  8.99500 -0.88600 34.70300
Mg 25.95700 0.66000 29.21100
C  27.73400 0.59600 32.15100
C  23.15000 0.81600 31.05200
C  24.21600 0.60700 26.38600
C  28.96300 -0.03300 27.42300
N  25.50300 0.58600 31.42900
C  26.39500 0.74400 32.46100
C  25.73400 0.91500 33.78900
C  24.17000 0.94200 33.37600
C  24.27900 0.83800 31.85200
C  23.25100 -0.15300 34.10800
C  26.23600 2.24800 34.42200
C  26.84000 2.08600 35.84300
H  26.26900 2.93500 36.95800
N  23.97300 0.78400 28.80500
C  22.93700 0.76000 29.71300
C  21.68000 0.83400 28.96700
C  21.96200 0.76100 27.57600
C  23.40000 0.74000 27.53700
C  20.39800 1.09300 29.71500
C  21.01200 0.84600 26.40600
O  21.37500 0.95900 25.23400
C  19.56600 0.76100 26.63000
N  26.46300 0.22800 27.14800
C  25.53800 0.38300 26.16500
C  26.24800 0.36900 24.85600
C  27.79000 0.36600 25.16700
C  27.74100 0.15500 26.64600
C  25.82200 -0.81000 23.91400
C  28.56800 1.68700 24.79800
C  28.69700 2.04600 23.23300
N  27.98500 0.28200 29.60700
C  29.04800 -0.02600 28.86100
C  30.14100 -0.35700 29.71100
C  29.77000 -0.05500 31.05700
C  28.41900 0.30100 30.91700
C  31.48200 -0.61100 29.26000
C  30.19300 0.09500 32.41600
O  31.30300 -0.03700 32.99900
C  28.86200 0.45900 33.25700
C  28.49900 -0.65100 34.05600
O  27.93200 -1.67800 33.69600
O  29.01900 -0.41700 35.32400
C  29.16400 -1.55500 36.26200
H  22.32600 0.95600 31.75500
H  23.73100 0.62000 25.40700
H  29.91900 -0.16700 26.91400
H  25.81000 0.02300 34.41100
H  23.68100 1.86100 33.70000
H  22.31600 0.24400 34.50200
H  23.77100 -0.53700 34.98600
H  22.98400 -1.03900 33.53200
H  25.40700 2.95400 34.37900
H  27.06400 2.67600 33.85800
H  27.89200 2.35800 35.76300
H  26.77200 1.09900 36.30200
H  19.64200 0.30800 29.67800
H  19.97700 2.01400 29.31300
H  20.49600 1.25700 30.78800
H  19.07500 0.50100 25.69200
H  19.16800 1.69000 27.03700
H  19.35000 -0.10200 27.26000
H  25.97600 1.29600 24.35100
H  28.30600 -0.51400 24.78300
H  26.66200 -1.43100 23.60000
H  25.43600 -0.41700 22.97400
H  24.93600 -1.27900 24.34200
H  29.57300 1.75500 25.21400
H  28.03100 2.48300 25.31400
H  28.01200 1.46600 22.61500
H  29.72900 1.89900 22.91200
H  28.32200 3.06500 23.13800
H  31.53600 -0.69300 28.17500
H  31.96900 -1.42000 29.80500
H  32.08600 0.27400 29.46000
H  28.95700 1.33400 33.89900
H  29.18300 -2.54800 35.81400
H  28.33000 -1.64100 36.95900
H  30.12000 -1.33400 36.73700

