158

Mg 24.66400 -8.29300 47.45300
C  27.11100 -6.19700 46.16600
C  22.59400 -7.30900 44.77500
C  22.65400 -10.96800 47.96000
C  27.18200 -9.86400 49.30700
N  24.86200 -7.06300 45.64100
C  25.93400 -6.16700 45.42300
C  25.63600 -5.24800 44.22000
C  24.14300 -5.54100 43.84200
C  23.84200 -6.74200 44.78800
C  23.19000 -4.30800 44.07200
C  26.72200 -5.31800 43.09000
C  27.55000 -3.96600 42.74300
H  27.64900 -3.52900 41.24400
N  22.77400 -8.90400 46.66600
C  22.08600 -8.33900 45.59800
C  20.76700 -9.00000 45.51200
C  20.70900 -9.93200 46.51000
C  22.09000 -9.96600 47.15700
C  19.79900 -8.59700 44.40500
C  19.50900 -10.75400 46.86500
O  18.54900 -10.75700 46.13700
C  19.41200 -11.72600 48.00400
N  24.79000 -10.08500 48.65000
C  23.83100 -11.00500 48.75800
C  24.22500 -12.24600 49.49600
C  25.72600 -11.94600 49.86800
C  25.90600 -10.47400 49.29100
C  23.32300 -12.56600 50.77600
C  26.72100 -12.96800 49.29400
C  27.42300 -13.80300 50.40000
N  26.70500 -7.92900 47.91400
C  27.57600 -8.71300 48.60100
C  28.86200 -8.11300 48.48300
C  28.72300 -7.05700 47.60300
C  27.39100 -7.08100 47.23400
C  30.21400 -8.55000 48.97600
C  29.44700 -6.03500 46.93900
O  30.55600 -5.60800 47.07000
C  28.40600 -5.40600 45.99700
C  28.23800 -3.99000 46.36900
O  27.57300 -3.55000 47.30400
O  28.88700 -3.17800 45.46700
C  28.71100 -1.71400 45.67500
H  21.90900 -6.74200 44.14000
H  21.95700 -11.78100 48.17400
H  27.99900 -10.42600 49.76400
H  25.66800 -4.28700 44.73400
H  24.09000 -5.86500 42.80200
H  22.79600 -4.13000 45.07200
H  22.26600 -4.31200 43.49400
H  23.69900 -3.39100 43.77600
H  26.43100 -5.62400 42.08500
H  27.41500 -6.12500 43.32800
H  28.54200 -4.25300 43.09200
H  27.14000 -3.17100 43.36500
H  18.75400 -8.57900 44.71200
H  19.87500 -9.30000 43.57500
H  19.96700 -7.68900 43.82700
H  19.83800 -11.16000 48.83200
H  19.95600 -12.62400 47.71200
H  18.40200 -11.98400 48.32500
H  24.25100 -13.06800 48.78200
H  25.74800 -11.78000 50.94500
H  22.70400 -13.41300 50.48000
H  22.57600 -11.79800 50.97200
H  23.86500 -12.90100 51.66000
H  27.49300 -12.48700 48.69300
H  26.14900 -13.60400 48.61900
H  26.72200 -14.41500 50.96800
H  27.99600 -13.11000 51.01400
H  28.15900 -14.45600 49.93100
H  30.26700 -9.42600 49.62200
H  30.72800 -7.73000 49.47900
H  30.75700 -8.71400 48.04600
H  28.77400 -5.62400 44.99400
H  29.53700 -1.21000 45.17400
H  28.73600 -1.54700 46.75100
H  27.73700 -1.35100 45.34500
Mg -1.68300 35.09000 26.75700
C  -3.00700 32.74800 29.16000
C  -0.91500 37.16700 29.23100
C  -0.85300 37.22300 24.25200
C  -2.88400 32.93000 24.30300
N  -1.96200 34.94400 28.97100
C  -2.38400 33.85400 29.71300
C  -2.14800 34.16800 31.22900
C  -1.66000 35.66400 31.23200
C  -1.47700 35.98700 29.70900
C  -2.59500 36.73600 31.96100
C  -1.33600 33.11100 31.93100
C  -1.95400 32.63700 33.32900
H  -0.97200 32.44800 34.54300
N  -0.84000 36.87700 26.78500
C  -0.52400 37.56300 27.90400
C  0.08400 38.76700 27.46800
C  0.00900 38.82800 26.03800
C  -0.56700 37.60200 25.61500
C  0.59200 39.84800 28.43700
C  0.49000 39.97500 25.08400
O  0.49800 39.94000 23.86600
C  1.06500 41.27800 25.71100
N  -1.75000 34.99100 24.59400
C  -1.42100 36.02800 23.81000
C  -1.90000 35.74700 22.28200
C  -2.17600 34.21300 22.30800
C  -2.30400 34.05800 23.79700
C  -3.25000 36.38600 21.83100
C  -0.94900 33.34400 21.80900
C  0.24300 33.04400 22.77900
N  -2.84700 33.29800 26.65700
C  -3.11700 32.54500 25.57200
C  -3.78100 31.35000 25.96700
C  -3.84400 31.40200 27.37500
C  -3.19400 32.59300 27.75200
C  -4.36100 30.24500 25.08700
C  -4.32200 30.76300 28.67700
O  -4.86500 29.74200 28.92000
C  -3.75800 31.60700 29.89000
C  -4.88100 32.24500 30.68100
O  -5.41200 33.33100 30.43900
O  -5.20400 31.44900 31.69400
C  -6.08500 32.04200 32.68400
H  -0.65300 37.89300 30.00400
H  -0.62400 37.89500 23.42300
H  -3.21900 32.18100 23.58300
H  -3.12000 34.11700 31.72000
H  -0.68000 35.81200 31.68600
H  -3.35900 36.29300 32.60000
H  -2.94700 37.46900 31.23500
H  -1.89100 37.16800 32.67200
H  -0.34100 33.55000 32.00600
H  -1.25400 32.24500 31.27500
H  -2.44300 31.67200 33.19400
H  -2.73200 33.35100 33.59900
H  1.58500 40.16100 28.11500
H  0.60700 39.48800 29.46500
H  -0.00100 40.76200 28.43100
H  0.99800 41.98900 24.88700
H  2.11000 41.19500 26.00800
H  0.43800 41.72900 26.48100
H  -1.14600 35.88500 21.50700
H  -3.06000 33.92000 21.74200
H  -3.22300 36.50900 20.74900
H  -3.26700 37.42000 22.17500
H  -4.06300 35.78800 22.24500
H  -0.73600 33.71700 20.80700
H  -1.30400 32.35300 21.52600
H  0.48400 33.86000 23.46000
H  1.16600 32.86100 22.22900
H  0.07700 32.16800 23.40600
H  -5.42400 30.37600 24.88700
H  -4.25400 29.30100 25.62200
H  -3.74500 30.14500 24.19300
H  -3.02900 31.17700 30.57700
H  -5.48600 32.69900 33.31500
H  -6.50500 31.25800 33.31400
H  -6.85900 32.64600 32.21000

