158

Mg 25.98300 0.86800 29.61100
C  27.98500 0.70200 32.42500
C  23.24500 1.15900 31.65400
C  24.17600 0.93500 26.76800
C  28.79700 0.09000 27.62200
N  25.67500 1.01900 31.84500
C  26.64500 1.03100 32.78200
C  26.15700 1.54300 34.10700
C  24.62000 1.27500 33.97700
C  24.44400 1.26100 32.40300
C  24.01800 0.02000 34.70800
C  26.54400 3.01900 34.50300
C  27.29500 3.11000 35.88000
H  26.59500 3.80100 37.02900
N  23.99900 0.90400 29.27800
C  23.00800 1.03300 30.26900
C  21.76000 1.13200 29.64100
C  22.02900 1.19400 28.23600
C  23.46600 0.98300 28.01300
C  20.40600 1.21000 30.43300
C  20.96300 1.21300 27.10300
O  21.25600 1.04700 25.90500
C  19.54400 1.67400 27.52900
N  26.49900 0.84300 27.39100
C  25.55300 0.74100 26.50200
C  26.15000 0.49300 25.09600
C  27.66000 0.32800 25.38000
C  27.68900 0.46700 26.86900
C  25.42400 -0.65400 24.39400
C  28.73500 1.27100 24.66200
C  29.52700 0.62800 23.49100
N  27.96400 0.42600 29.89900
C  28.96100 0.11300 29.03600
C  30.21600 -0.23500 29.80800
C  29.89300 0.16900 31.08800
C  28.50900 0.39100 31.16000
C  31.60900 -0.59500 29.28700
C  30.42600 0.33400 32.48100
O  31.53800 0.29600 32.93000
C  29.16800 0.71500 33.39500
C  29.01800 -0.21400 34.54000
O  28.68300 -1.38400 34.45500
O  29.36100 0.46300 35.67000
C  29.19700 -0.36700 36.84700
H  22.37700 1.15100 32.31700
H  23.57400 0.87800 25.85900
H  29.63700 -0.03600 26.93600
H  26.54000 0.88600 34.88700
H  23.92400 2.09200 34.16800
H  24.02100 -0.83600 34.03300
H  22.98300 0.07800 35.04700
H  24.66100 -0.04000 35.58600
H  25.69400 3.70000 34.54700
H  27.20800 3.39000 33.72300
H  28.22900 3.65000 35.72400
H  27.62000 2.10300 36.14500
H  19.97000 0.41500 29.82800
H  19.89900 2.17100 30.35800
H  20.48100 0.86200 31.46300
H  19.11200 0.79400 28.00600
H  18.99000 1.87400 26.61200
H  19.72800 2.57000 28.12200
H  26.00900 1.46700 24.62700
H  27.94300 -0.68400 25.09000
H  24.89700 -1.25200 25.13800
H  26.13500 -1.29600 23.87500
H  24.67600 -0.22300 23.72800
H  29.49100 1.51800 25.40700
H  28.24800 2.19100 24.33800
H  29.61400 1.33000 22.66200
H  29.01400 -0.28400 23.18500
H  30.55200 0.38500 23.77000
H  32.27600 -0.07700 29.97600
H  31.80600 -0.37500 28.23800
H  31.72400 -1.67400 29.38900
H  29.28000 1.70100 33.84700
H  28.15100 -0.28200 37.14100
H  29.83500 -0.04300 37.67000
H  29.48600 -1.41600 36.78000
Mg 9.63900 48.83100 26.47200
C  7.98900 48.73400 29.52700
C  12.49900 49.62500 28.01800
C  11.13700 48.42400 23.43800
C  6.44600 48.54400 24.85900
N  10.07300 49.16100 28.56300
C  9.34300 49.07700 29.69000
C  10.19100 49.34200 30.90100
C  11.43200 50.00300 30.30400
C  11.37200 49.56400 28.86800
C  11.50300 51.58300 30.53100
C  10.46100 48.19900 31.84100
C  9.95300 48.44000 33.30900
H  9.85700 47.24700 34.25400
N  11.55900 49.02800 25.80000
C  12.62900 49.31500 26.62100
C  13.84800 49.20800 25.83900
C  13.52100 48.87100 24.53300
C  12.00300 48.75700 24.51700
C  15.12100 49.51300 26.34600
C  14.38000 48.70700 23.30100
O  13.96900 48.39600 22.19200
C  15.95200 48.85200 23.48600
N  8.80800 48.62200 24.40500
C  9.69300 48.33900 23.30200
C  8.79700 47.85000 22.14900
C  7.29500 48.20800 22.53700
C  7.47900 48.45500 24.03100
C  9.20500 48.57700 20.80400
C  6.24900 47.10800 22.11700
C  5.72500 47.12100 20.66200
N  7.67800 48.72600 26.98700
C  6.48300 48.63900 26.24100
C  5.37900 48.50200 27.15300
C  5.93000 48.51900 28.43800
C  7.32200 48.62900 28.29700
C  4.04100 48.15000 26.74000
C  5.59300 48.35400 29.91900
O  4.57400 48.11800 30.57900
C  6.92700 48.55900 30.60100
C  7.06200 47.30200 31.40500
O  7.61200 46.26800 31.06300
O  6.34500 47.51700 32.58400
C  6.13400 46.35800 33.44700
H  13.47900 49.79100 28.47100
H  11.64400 48.21800 22.49300
H  5.43300 48.43800 24.46500
H  9.62400 50.11600 31.41900
H  12.32300 49.55500 30.74400
H  10.56700 52.04800 30.84100
H  11.78400 52.02800 29.57600
H  12.20200 52.01200 31.24800
H  11.54100 48.08300 31.93900
H  10.05100 47.27800 31.42600
H  9.04000 49.01900 33.45200
H  10.69900 49.04300 33.82600
H  15.16100 49.37300 27.42600
H  15.53700 50.50300 26.16300
H  15.84000 48.74900 26.05000
H  16.24100 49.80900 23.91900
H  16.49700 48.71100 22.55200
H  16.22100 48.04300 24.16500
H  8.87700 46.77400 21.99500
H  6.94400 49.13900 22.09100
H  8.65700 49.49900 20.61200
H  9.07000 47.91500 19.94800
H  10.18800 49.04900 20.82000
H  5.46100 47.10400 22.87000
H  6.74100 46.15500 22.31200
H  6.06700 48.07600 20.26400
H  4.63500 47.10400 20.67600
H  6.06700 46.23400 20.12900
H  3.97200 47.40200 25.95100
H  3.58600 49.04100 26.30600
H  3.47200 47.82300 27.61100
H  6.98400 49.44200 31.23800
H  5.26700 45.78100 33.12400
H  5.95300 46.79700 34.42800
H  7.06400 45.79000 33.48400

