158

Mg 1.76100 -2.19500 43.58200
C  5.11600 -1.26400 43.48600
C  0.92600 0.66800 41.92000
C  -1.34000 -3.40900 43.22500
C  2.69000 -5.33200 44.94200
N  2.88500 -0.51300 42.71000
C  4.23000 -0.44400 42.74300
C  4.68200 0.89300 42.03900
C  3.31500 1.64400 41.80600
C  2.32400 0.59400 42.21900
C  3.12000 3.02200 42.55000
C  5.62400 0.72700 40.82700
C  6.58600 1.90800 40.60300
H  6.36800 2.76300 39.32500
N  0.07400 -1.49000 42.75800
C  -0.09100 -0.29800 42.14300
C  -1.46600 -0.16600 41.72100
C  -2.14600 -1.33100 42.09200
C  -1.11800 -2.14200 42.69400
C  -2.06000 1.02300 41.04200
C  -3.63200 -1.59900 41.80400
O  -4.23900 -0.66100 41.32000
C  -4.32100 -2.91500 42.03800
N  0.87600 -4.16100 43.83300
C  -0.46300 -4.31800 43.76300
C  -0.93800 -5.75600 44.09500
C  0.40800 -6.35100 44.72800
C  1.38500 -5.17300 44.51200
C  -2.22400 -5.94000 44.92000
C  0.89000 -7.74500 44.32800
C  1.30100 -8.64300 45.49000
N  3.51600 -3.16200 44.21700
C  3.72900 -4.37200 44.78500
C  5.18600 -4.48000 45.08300
C  5.67600 -3.27400 44.68000
C  4.62500 -2.50800 44.10800
C  5.85500 -5.72000 45.65900
C  6.90200 -2.49400 44.65800
O  7.97600 -2.76500 45.12100
C  6.63900 -1.14500 43.82700
C  6.86400 0.06000 44.69800
O  6.52400 0.19400 45.82500
O  7.53100 0.98300 43.94200
C  7.71500 2.32200 44.45400
H  0.67800 1.62900 41.46600
H  -2.35300 -3.80700 43.30800
H  2.90700 -6.21300 45.55000
H  5.20300 1.45600 42.81300
H  3.22500 1.83600 40.73700
H  2.23400 3.54500 42.19000
H  3.94500 3.71400 42.37900
H  2.99000 2.82700 43.61500
H  4.90000 0.66200 40.01400
H  6.33500 -0.09600 40.89600
H  7.60800 1.53400 40.55000
H  6.42200 2.55800 41.46300
H  -2.51600 0.87100 40.06400
H  -1.29200 1.79400 40.97800
H  -2.79400 1.34700 41.78000
H  -5.27300 -2.87300 41.50900
H  -4.47900 -3.18400 43.08200
H  -3.67600 -3.66800 41.58400
H  -1.18700 -6.08500 43.08700
H  0.29600 -6.35400 45.81200
H  -2.83500 -6.69900 44.43100
H  -2.71700 -4.96800 44.91700
H  -2.05400 -6.31600 45.92900
H  1.74400 -7.69500 43.65100
H  0.05000 -8.07600 43.71700
H  0.77900 -9.57700 45.28300
H  1.04000 -8.26700 46.47900
H  2.37900 -8.80200 45.52600
H  5.71200 -6.56900 44.99100
H  5.27400 -6.01800 46.53200
H  6.92000 -5.59400 45.85100
H  7.24700 -1.21200 42.92500
H  7.51700 2.49200 45.51300
H  6.94200 2.93300 43.98800
H  8.70000 2.67300 44.15000
Mg 54.95900 24.44400 44.41400
C  52.33200 26.58800 43.44800
C  53.00000 21.89100 43.30900
C  57.68100 22.62600 44.31700
C  56.77700 27.30800 45.31900
N  52.97200 24.31400 43.52700
C  51.98700 25.27300 43.22900
C  50.61000 24.69000 42.81600
C  50.84500 23.16900 43.26600
C  52.32700 23.10800 43.45500
C  50.24200 22.74700 44.61200
C  50.39900 24.81900 41.24700
C  48.95900 24.52900 40.82400
H  48.83000 24.47700 39.25600
N  55.27000 22.45800 44.06300
C  54.35500 21.54400 43.57100
C  54.96200 20.28300 43.49400
C  56.33300 20.48300 43.90500
C  56.48400 21.88100 44.09900
C  54.19800 19.08700 43.07700
C  57.27800 19.33800 44.03300
O  56.90700 18.17600 43.71500
C  58.70600 19.47400 44.42600
N  57.02400 24.98200 44.60100
C  57.91700 23.94300 44.60500
C  59.28800 24.59500 44.78300
C  58.98100 26.00600 45.39400
C  57.48300 26.11900 45.10200
C  60.28500 23.71200 45.63200
C  59.91800 27.20600 45.01700
C  60.84100 27.60500 46.29600
N  54.65100 26.53900 44.46900
C  55.42200 27.52300 45.07600
C  54.73000 28.71100 45.07800
C  53.47900 28.42200 44.48100
C  53.55000 27.12100 44.08800
C  55.23800 30.03100 45.63300
C  52.18700 28.94300 44.10900
O  51.65600 30.02300 44.22900
C  51.45000 27.73400 43.37300
C  51.09200 28.19000 41.92100
O  51.89500 28.16400 41.03000
O  49.71200 28.23700 41.82400
C  49.27300 28.61400 40.47500
H  52.32800 21.03500 43.21900
H  58.58300 22.03900 44.13800
H  57.35100 28.08600 45.82700
H  49.71900 25.11100 43.28200
H  50.46500 22.50700 42.48800
H  51.00400 22.46200 45.33700
H  49.66800 21.83800 44.42800
H  49.65000 23.54700 45.05700
H  51.09300 24.11800 40.78300
H  50.83500 25.76000 40.90900
H  48.32100 25.31700 41.22500
H  48.71100 23.60900 41.35300
H  54.77100 18.57300 42.30500
H  53.25300 19.38600 42.62500
H  54.00400 18.46100 43.94900
H  59.21900 19.98400 43.61100
H  59.19000 18.51600 44.61700
H  58.75400 20.13800 45.29000
H  59.75900 24.71800 43.80800
H  58.97000 25.91500 46.48000
H  59.89200 22.69900 45.71800
H  60.35400 24.19400 46.60700
H  61.28200 23.60200 45.20600
H  59.28600 28.04700 44.73000
H  60.48100 26.95000 44.11900
H  61.75300 27.93500 45.79800
H  60.95400 26.79100 47.01200
H  60.40100 28.46400 46.80200
H  55.56000 30.75400 44.88400
H  56.21100 29.86200 46.09400
H  54.59900 30.49900 46.38100
H  50.56600 27.52400 43.97600
H  49.58400 29.63100 40.23700
H  48.21200 28.39500 40.35400
H  49.81400 27.87200 39.89000

