158

Mg 47.80700 16.31200 27.94900
C  45.91200 15.98800 30.91100
C  49.89700 18.40800 29.65400
C  49.23800 17.01500 24.98500
C  45.25700 14.46400 26.31800
N  47.89100 17.05400 30.06600
C  47.02600 16.78600 31.07800
C  47.52800 17.36800 32.46700
C  48.61000 18.36600 31.89400
C  48.82400 17.99500 30.41200
C  48.17500 19.80200 32.03900
C  48.02000 16.32600 33.51400
C  47.83800 16.83500 35.00400
H  47.63000 18.27600 35.35400
N  49.50900 17.42800 27.48100
C  50.24600 18.18500 28.33300
C  51.41600 18.73800 27.65500
C  51.20800 18.42500 26.23900
C  49.91600 17.63000 26.12100
C  52.55700 19.41600 28.41800
C  52.16000 18.72200 25.08800
O  51.89400 18.28500 23.95000
C  53.42100 19.55100 25.31000
N  47.37600 15.78700 25.97100
C  48.09000 16.20300 24.91700
C  47.54700 15.64100 23.61200
C  46.30800 14.80700 24.10000
C  46.35500 14.96800 25.59000
C  47.20000 16.68800 22.54400
C  46.35700 13.29900 23.65000
C  45.73300 13.13500 22.25200
N  45.89300 15.50600 28.45200
C  44.94500 14.77900 27.70300
C  43.82200 14.44900 28.50400
C  44.20800 14.81900 29.79200
C  45.43500 15.51100 29.70600
C  42.66700 13.56200 28.09000
C  43.73700 14.77200 31.17500
O  42.75800 14.31700 31.74800
C  44.89500 15.53000 31.90900
C  44.29700 16.73000 32.67100
O  44.03200 17.84100 32.17900
O  44.05100 16.30400 34.00000
C  43.48600 17.36900 34.87000
H  50.57600 19.05100 30.21700
H  49.68200 17.24600 24.01400
H  44.52200 13.75100 25.94000
H  46.64200 17.90900 32.79800
H  49.56700 18.24500 32.40000
H  47.40400 20.15600 32.72300
H  48.04400 20.28400 31.07100
H  49.04100 20.31000 32.46400
H  49.05500 16.09300 33.26500
H  47.39800 15.44900 33.33600
H  48.62600 16.52200 35.68700
H  46.97000 16.29500 35.38000
H  53.43700 18.78200 28.30300
H  52.46900 19.35300 29.50200
H  52.67700 20.42000 28.01200
H  53.58900 20.03500 24.34800
H  54.24100 18.91700 25.64900
H  53.17200 20.35400 26.00400
H  48.25300 14.93400 23.17600
H  45.40300 15.26900 23.70600
H  47.82700 16.63500 21.65400
H  47.41800 17.69100 22.91100
H  46.18200 16.61600 22.16000
H  45.92400 12.60200 24.36700
H  47.40900 13.01300 23.67200
H  44.87600 12.49300 22.45600
H  46.44500 12.74900 21.52300
H  45.32500 14.04800 21.81700
H  43.06300 12.74100 27.49300
H  42.01300 14.26400 27.57300
H  42.11200 13.13900 28.92800
H  45.29700 14.80100 32.61200
H  42.42900 17.39400 34.60600
H  44.06300 18.29300 34.83600
H  43.47400 17.09600 35.92500
Mg -11.63600 39.22900 42.16500
C  -10.10300 36.09200 41.44200
C  -9.07200 40.73900 40.37100
C  -13.53000 41.94600 41.98800
C  -14.40400 37.26200 43.27000
N  -9.86900 38.45300 40.98900
C  -9.39000 37.16400 40.85300
C  -8.16400 37.15200 39.92700
C  -7.76800 38.63800 39.89000
C  -9.00000 39.36500 40.49900
C  -6.42800 38.87600 40.62600
C  -8.44000 36.41500 38.61300
C  -7.37700 35.29600 38.19700
H  -6.47200 35.47400 37.00200
N  -11.22300 41.13200 41.49000
C  -10.13000 41.58000 40.78400
C  -10.29500 43.02600 40.55000
C  -11.57900 43.38100 41.15500
C  -12.20300 42.10900 41.53600
C  -9.35500 43.81900 39.75700
C  -12.11300 44.85700 41.07800
O  -11.32800 45.73900 40.68900
C  -13.43900 45.28300 41.49700
N  -13.75200 39.58900 42.59200
C  -14.24300 40.81700 42.59100
C  -15.69500 40.80200 43.10300
C  -16.01800 39.23200 43.35500
C  -14.70900 38.63400 43.06100
C  -15.98700 41.80800 44.24100
C  -17.17300 38.59300 42.65600
C  -18.25600 38.00000 43.57500
N  -12.15500 37.12400 42.38400
C  -13.24200 36.54300 42.96000
C  -13.07000 35.06100 43.10200
C  -11.85300 34.87200 42.56300
C  -11.33800 36.13000 42.13400
C  -13.99000 34.03900 43.73300
C  -10.87400 33.90500 42.23100
O  -10.78300 32.68500 42.36000
C  -9.73300 34.62600 41.44100
C  -8.43700 34.31100 42.04800
O  -7.72300 33.44600 41.72800
O  -8.02000 35.36700 42.80800
C  -6.63500 35.47700 43.20400
H  -8.14800 41.12800 39.94000
H  -14.15200 42.84400 42.01100
H  -15.22000 36.68800 43.71300
H  -7.29800 36.65200 40.35900
H  -7.62900 39.00400 38.87300
H  -6.63700 38.88400 41.69600
H  -6.12600 39.85500 40.25300
H  -5.73700 38.04300 40.50100
H  -8.25700 37.11500 37.79700
H  -9.47200 36.10500 38.45000
H  -7.92400 34.39300 37.92700
H  -6.71900 35.06800 39.03600
H  -8.64400 43.29400 39.12000
H  -8.88200 44.39400 40.55400
H  -9.91800 44.45000 39.06900
H  -14.10300 44.57400 41.00300
H  -13.50500 46.26900 41.03500
H  -13.54300 45.39500 42.57600
H  -16.22500 41.18100 42.23000
H  -16.14500 39.12800 44.43300
H  -15.14000 42.49000 44.32400
H  -16.10600 41.28100 45.18700
H  -16.90900 42.36400 44.07100
H  -16.70800 37.91500 41.94100
H  -17.66700 39.31200 42.00300
H  -19.26900 38.39400 43.48800
H  -18.00100 38.09600 44.63000
H  -18.15100 36.95900 43.27000
H  -13.47000 33.08300 43.79500
H  -14.92000 33.97600 43.16800
H  -14.16500 34.37300 44.75500
H  -9.72000 34.34900 40.38700
H  -5.83600 35.18200 42.52400
H  -6.44400 34.94700 44.13700
H  -6.32300 36.47700 43.50400

