158

Mg 42.64200 41.07900 26.06900
C  41.63300 43.50300 28.54800
C  43.54100 39.09400 28.73500
C  43.53400 39.02800 23.84500
C  41.78300 43.62700 23.57200
N  42.51800 41.26800 28.38300
C  42.01200 42.30600 29.16000
C  42.05200 42.00200 30.67600
C  42.87600 40.64500 30.65100
C  42.99300 40.31600 29.17700
C  44.18100 40.60400 31.43400
C  40.67500 41.93100 31.31800
C  40.75000 41.53900 32.84200
H  40.22500 42.56900 33.80300
N  43.52500 39.28600 26.21800
C  43.70800 38.62800 27.38800
C  44.23300 37.28800 26.95300
C  44.18600 37.25800 25.53200
C  43.79700 38.56300 25.11900
C  44.68400 36.18900 27.97400
C  44.52300 36.16500 24.56200
O  44.42300 36.24900 23.28400
C  44.94300 34.85200 25.12000
N  42.90700 41.39400 23.96200
C  43.09300 40.24500 23.25200
C  42.93100 40.51200 21.73700
C  42.15800 41.93100 21.77000
C  42.15900 42.33800 23.22800
C  44.23100 40.58300 20.80300
C  40.67900 41.78700 21.22900
C  39.79700 40.67000 21.79600
N  41.96300 43.17100 25.99400
C  41.68800 44.03200 24.95800
C  41.22100 45.30300 25.47900
C  41.14400 45.12500 26.86900
C  41.61700 43.80700 27.12300
C  40.88600 46.53400 24.61500
C  40.74500 45.79900 28.14000
O  40.28300 46.91500 28.32300
C  41.02800 44.71800 29.27100
C  41.79100 45.38000 30.38000
O  43.03100 45.56200 30.40700
O  40.93000 45.80200 31.32100
C  41.50400 46.29900 32.61200
H  44.01900 38.43900 29.46600
H  43.67100 38.37800 22.97900
H  41.45200 44.29000 22.77000
H  42.62400 42.72700 31.25500
H  42.16600 39.94500 31.09100
H  44.24400 41.39100 32.18500
H  45.11500 40.68400 30.87900
H  44.16200 39.69800 32.04100
H  39.92100 41.36000 30.77700
H  40.25300 42.93600 31.31000
H  41.78600 41.29500 33.07700
H  40.03800 40.72300 32.96200
H  44.46500 36.42500 29.01500
H  45.76000 36.01900 27.94600
H  44.27700 35.21100 27.71700
H  44.12000 34.21000 25.43600
H  45.69000 34.94200 25.90800
H  45.47900 34.45100 24.26000
H  42.20400 39.75300 21.44800
H  42.71000 42.68800 21.21200
H  43.90500 40.18100 19.84300
H  45.01300 39.86500 21.05100
H  44.65200 41.57900 20.66400
H  40.77400 41.56100 20.16700
H  40.27600 42.79100 21.36200
H  39.48000 39.95000 21.04200
H  38.89900 40.99200 22.32400
H  40.39300 40.12100 22.52500
H  41.82600 46.95700 24.26100
H  40.33500 47.25700 25.21700
H  40.20700 46.23700 23.81600
H  40.12200 44.36800 29.76700
H  42.26800 47.05700 32.43800
H  41.85100 45.52000 33.29000
H  40.71500 46.85200 33.12100
Mg 7.22400 53.59000 41.47500
C  7.00800 50.02100 40.89600
C  10.50500 53.44700 40.33700
C  7.01500 56.86700 40.86100
C  3.71900 53.52500 41.76400
N  8.51500 51.90100 40.54800
C  8.30000 50.57600 40.60300
C  9.56800 49.76000 40.29800
C  10.64500 50.91000 40.55200
C  9.89000 52.19900 40.45400
C  11.41700 50.73300 41.83700
C  9.55700 49.11300 38.89000
C  9.46400 50.00900 37.64500
H  8.05700 50.05400 37.03800
N  8.61200 54.98700 40.84600
C  9.89000 54.72000 40.49400
C  10.56300 56.05200 40.45300
C  9.54600 57.10200 40.54700
C  8.29200 56.35000 40.73400
C  12.04000 56.17100 40.37500
C  9.84100 58.52300 40.60600
O  10.98300 58.94700 40.41200
C  8.82700 59.60200 40.72200
N  5.48700 55.03900 41.19200
C  5.77200 56.32500 41.08100
C  4.62400 57.13300 41.60600
C  3.48700 56.12000 41.50300
C  4.22900 54.78300 41.51000
C  4.84600 57.75800 43.01800
C  2.56300 56.28400 40.17200
C  1.06400 55.87300 40.34300
N  5.72500 52.07200 41.61100
C  4.32800 52.25300 41.66500
C  3.76700 51.05000 41.69200
C  4.80400 50.10900 41.42100
C  5.96400 50.79000 41.39300
C  2.35800 50.67800 41.90000
C  5.06900 48.70500 41.27700
O  4.28500 47.71000 41.37500
C  6.51400 48.59300 40.91000
C  6.41000 48.06100 39.52500
O  6.13900 48.76100 38.59100
O  6.54300 46.74800 39.50500
C  6.46100 46.06100 38.14200
H  11.58200 53.33100 40.20600
H  7.03500 57.95800 40.89500
H  2.64500 53.36300 41.87400
H  9.53000 49.00700 41.08600
H  11.42300 50.80000 39.79600
H  12.41200 51.17900 41.83800
H  11.48900 49.72000 42.23200
H  10.95800 51.34900 42.61000
H  8.79900 48.33400 38.81800
H  10.53100 48.62400 38.86800
H  10.13400 49.56800 36.90700
H  9.89500 50.97000 37.92600
H  12.30700 55.42600 39.62600
H  12.47500 55.87500 41.33000
H  12.36900 57.15000 40.02600
H  8.11100 59.44400 39.91600
H  9.22300 60.60600 40.56600
H  8.34800 59.61100 41.70100
H  4.49000 57.99700 40.95500
H  2.85300 56.22100 42.38400
H  5.45400 57.05000 43.58100
H  3.89100 57.79100 43.54200
H  5.24500 58.77100 43.06100
H  2.94600 55.52100 39.49500
H  2.76800 57.25800 39.72800
H  0.95200 55.72700 41.41800
H  0.74200 55.01700 39.75100
H  0.42700 56.71800 40.08400
H  2.03400 50.95100 42.90500
H  2.07900 49.72400 41.45500
H  1.75000 51.38500 41.33600
H  7.14100 47.97500 41.55100
H  7.04400 45.15500 38.30600
H  7.05800 46.61400 37.41600
H  5.46200 46.00100 37.71100

