158

Mg -2.25900 17.36900 25.86400
C  -2.80200 15.17900 28.65000
C  -2.61100 20.00800 28.12800
C  -2.04700 19.41900 23.32700
C  -2.81400 14.61100 23.70600
N  -2.83500 17.53600 28.21300
C  -2.83300 16.50800 29.13500
C  -2.94500 17.03900 30.55200
C  -3.08000 18.61400 30.31100
C  -2.80200 18.76500 28.81800
C  -4.47100 19.11200 30.74000
C  -1.72600 16.54800 31.41300
C  -1.02500 17.37500 32.47000
H  -0.64500 16.58100 33.74800
N  -2.23500 19.40700 25.72800
C  -2.34500 20.33200 26.79200
C  -2.22400 21.70200 26.19400
C  -1.98300 21.60800 24.78400
C  -2.09800 20.05600 24.53800
C  -2.30700 22.94800 27.00800
C  -1.80600 22.62800 23.72700
O  -1.90100 22.39700 22.55500
C  -1.77200 24.03600 24.02200
N  -2.40500 17.08700 23.80400
C  -2.17100 18.11000 22.94000
C  -2.11500 17.65000 21.50300
C  -2.58200 16.14500 21.64700
C  -2.54500 15.87200 23.15000
C  -3.04200 18.47100 20.55700
C  -1.75300 15.10700 20.81000
C  -1.40100 15.45600 19.43700
N  -2.51600 15.26800 26.09800
C  -2.77400 14.32200 25.08600
C  -2.91100 12.98200 25.80900
C  -2.90700 13.30900 27.13400
C  -2.76900 14.70300 27.30800
C  -2.95800 11.67300 25.26100
C  -2.96100 12.75500 28.45500
O  -3.11600 11.57500 28.80100
C  -2.83900 13.92900 29.45500
C  -1.54300 13.71500 30.11700
O  -0.48400 14.15900 29.74100
O  -1.63100 12.97200 31.26300
C  -0.56100 12.73800 32.19700
H  -2.71300 20.88500 28.77000
H  -1.78100 20.13700 22.54900
H  -2.97100 13.70700 23.11400
H  -3.84800 16.56400 30.93700
H  -2.43000 19.28600 30.87100
H  -5.03500 18.33200 31.25000
H  -4.94800 19.29000 29.77600
H  -4.45700 20.00500 31.36500
H  -0.92000 16.42300 30.69000
H  -1.99600 15.58600 31.84700
H  -1.60200 18.26100 32.73400
H  -0.05300 17.79600 32.21000
H  -2.65300 22.72000 28.01700
H  -3.05300 23.64400 26.62400
H  -1.27700 23.30400 26.99200
H  -1.74100 24.72200 23.17600
H  -0.84800 24.14100 24.59000
H  -2.61300 24.29300 24.66600
H  -1.10100 17.63100 21.10300
H  -3.63700 15.98200 21.42300
H  -3.49500 19.38000 20.95400
H  -3.75100 17.81700 20.04800
H  -2.37700 18.84200 19.77700
H  -2.34100 14.19900 20.67700
H  -0.81300 14.86800 21.30800
H  -2.24400 15.95500 18.96000
H  -1.05300 14.64200 18.80100
H  -0.68100 16.27400 19.47500
H  -2.17500 11.08100 25.73300
H  -2.54800 11.65000 24.25100
H  -3.90500 11.13400 25.28700
H  -3.55900 13.89700 30.27300
H  -0.76000 13.16600 33.17900
H  0.39500 13.03200 31.76400
H  -0.58700 11.68000 32.45700
Mg 9.44100 47.19900 26.41100
C  7.65400 47.36600 29.42400
C  12.08800 48.57000 28.09300
C  11.05400 47.48700 23.44800
C  6.40600 46.83000 24.72000
N  9.76600 47.97600 28.59200
C  8.94000 47.83900 29.61600
C  9.63300 48.30600 30.92800
C  10.85300 49.08500 30.37400
C  10.90600 48.55600 28.94000
C  10.66200 50.62000 30.41400
C  10.00500 47.02700 31.74900
C  10.05100 47.28800 33.31300
H  9.98300 46.09700 34.27700
N  11.38900 47.75500 25.86200
C  12.35700 48.30400 26.71000
C  13.67800 48.25600 26.00800
C  13.39200 47.95900 24.60000
C  11.86400 47.69100 24.54400
C  14.99000 48.72800 26.67300
C  14.31100 47.94300 23.43000
O  13.90200 47.74400 22.31600
C  15.76100 48.19400 23.62900
N  8.78200 47.19800 24.42600
C  9.65200 47.31300 23.36500
C  8.92500 47.10900 22.01500
C  7.44100 46.93400 22.43800
C  7.51000 47.02800 23.91900
C  9.21400 48.29900 21.11400
C  6.69300 45.64600 22.00400
C  7.60600 44.32500 22.10800
N  7.43300 46.93900 26.92900
C  6.30600 46.83700 26.15900
C  5.09700 46.73800 27.10400
C  5.64100 46.88100 28.38100
C  6.99300 47.01900 28.22100
C  3.66700 46.42800 26.78400
C  5.22800 46.90900 29.74800
O  4.11600 46.89300 30.30700
C  6.59100 47.20100 30.52300
C  6.77400 46.07400 31.50000
O  6.94800 44.91500 31.06300
O  6.71900 46.46600 32.77900
C  6.90200 45.28300 33.69700
H  12.87600 49.06000 28.66900
H  11.52700 47.61700 22.47200
H  5.48300 46.66600 24.16000
H  8.96500 49.03500 31.38600
H  11.70300 48.69200 30.93200
H  9.82800 50.92900 31.04400
H  10.53200 50.87900 29.36300
H  11.58000 51.07900 30.78000
H  10.97500 46.69700 31.37900
H  9.31600 46.20700 31.54200
H  9.28200 47.96100 33.69300
H  10.96700 47.84300 33.51700
H  15.72500 47.92600 26.74000
H  14.86600 48.94000 27.73400
H  15.33500 49.64900 26.20400
H  16.36700 48.29400 22.72900
H  15.96200 47.22900 24.09500
H  16.01100 49.03600 24.27600
H  9.47300 46.33600 21.47600
H  6.99900 47.82900 22.00000
H  9.76600 49.08800 21.62600
H  8.26300 48.66000 20.72200
H  9.81200 48.02800 20.24400
H  6.53800 45.89500 20.95400
H  5.70700 45.42600 22.41400
H  7.88000 44.04900 21.09000
H  6.99500 43.57400 22.61000
H  8.56100 44.41200 22.62500
H  3.53200 46.19400 25.72800
H  3.01800 47.25600 27.06600
H  3.48000 45.52500 27.36500
H  6.39100 48.09500 31.11400
H  7.72700 44.63700 33.39700
H  6.03100 44.62800 33.70000
H  7.10400 45.62600 34.71200

