158

Mg 1.54600 -1.59000 43.64100
C  4.90800 -0.79100 42.76600
C  0.54600 1.20100 41.97000
C  -1.57700 -2.76000 43.99400
C  2.74200 -4.82900 44.76700
N  2.63800 -0.09100 42.37300
C  3.96100 0.17600 42.32000
C  4.27500 1.47300 41.67300
C  2.89800 2.20300 41.57400
C  1.94300 1.00700 41.94800
C  2.59900 3.45200 42.40800
C  4.95800 1.40800 40.27900
C  4.64900 0.16900 39.42100
H  4.41300 0.34300 37.87000
N  -0.26800 -0.84700 43.19400
C  -0.48300 0.36700 42.54500
C  -1.89100 0.49400 42.22300
C  -2.57400 -0.62200 42.83200
C  -1.48400 -1.45600 43.40400
C  -2.39600 1.54100 41.33600
C  -4.08600 -0.86200 42.79100
O  -4.78900 0.01600 42.31800
C  -4.76900 -1.95000 43.59100
N  0.71700 -3.58700 44.15800
C  -0.66800 -3.65800 44.37600
C  -1.02200 -5.06100 44.93600
C  0.42800 -5.82200 45.06500
C  1.33400 -4.66100 44.65700
C  -2.08600 -5.22700 46.01700
C  0.61500 -7.04100 44.17000
C  1.26400 -8.20800 44.91800
N  3.43900 -2.56500 43.94600
C  3.75500 -3.83400 44.44700
C  5.17000 -3.98800 44.41400
C  5.64800 -2.79300 43.77500
C  4.55300 -1.98600 43.54100
C  5.78700 -5.24900 44.77300
C  6.79400 -2.15400 43.28100
O  7.99200 -2.41800 43.33900
C  6.39700 -0.83700 42.61600
C  7.06900 0.31500 43.07900
O  7.82900 1.00600 42.40800
O  6.93800 0.39000 44.45600
C  7.67400 1.43300 45.17300
H  0.19400 2.12900 41.51300
H  -2.57600 -3.18700 44.10800
H  3.14100 -5.75300 45.19300
H  5.01400 1.96800 42.30400
H  2.56000 2.39000 40.55500
H  3.37600 3.65400 43.14500
H  1.62900 3.19900 42.83500
H  2.36600 4.21100 41.66100
H  6.03800 1.33500 40.40500
H  4.68300 2.28900 39.69800
H  3.69000 -0.26200 39.71000
H  5.33300 -0.67200 39.53800
H  -3.46600 1.57200 41.12800
H  -1.81700 1.44600 40.41700
H  -2.20800 2.51100 41.79700
H  -5.84500 -1.95500 43.42000
H  -4.50200 -2.01900 44.64600
H  -4.32300 -2.75900 43.01300
H  -1.50700 -5.60200 44.12400
H  0.66600 -6.04800 46.10400
H  -2.84200 -5.96800 45.75700
H  -2.62100 -4.28400 46.13400
H  -1.56300 -5.50600 46.93100
H  1.27400 -6.79000 43.33800
H  -0.28700 -7.40300 43.67800
H  1.18700 -8.00500 45.98600
H  2.31900 -8.26300 44.64900
H  0.75700 -9.16800 44.82200
H  5.81900 -5.81000 43.83900
H  5.42100 -5.86000 45.59900
H  6.75200 -4.89500 45.13500
H  6.68100 -0.97500 41.57300
H  8.17000 2.23400 44.62500
H  8.50200 0.87700 45.61100
H  7.13600 1.91700 45.98800
Mg 30.69700 58.52200 40.68000
C  28.11100 56.49900 39.31700
C  32.85600 56.23900 39.30000
C  33.17700 60.75500 41.18100
C  28.33000 60.96000 41.39400
N  30.46400 56.67500 39.45800
C  29.34600 56.04500 38.99600
C  29.66800 54.67400 38.20500
C  31.10200 54.48000 38.72300
C  31.54000 55.89300 39.18200
C  31.28500 53.38300 39.80500
C  29.60900 55.03600 36.64300
C  28.55500 54.34700 35.71000
H  27.92900 55.13800 34.61900
N  32.75700 58.47500 40.34400
C  33.44500 57.41900 39.82500
C  34.79300 57.56800 40.15600
C  34.94600 58.80000 40.79100
C  33.58600 59.47100 40.72000
C  35.96600 56.59100 39.94100
C  36.25000 59.33600 41.46900
O  37.30900 58.66400 41.33100
C  36.24800 60.63800 42.27400
N  30.78600 60.61000 41.11600
C  31.94000 61.31500 41.33200
C  31.71200 62.70300 41.91100
C  30.10000 62.83500 41.88600
C  29.68200 61.36300 41.44900
C  32.47600 62.90300 43.29100
C  29.51400 64.02300 41.16100
C  28.70600 65.03900 41.91100
N  28.67800 58.64500 40.58500
C  27.87100 59.72700 40.91600
C  26.49000 59.36300 40.76400
C  26.57200 58.13300 39.98100
C  27.87300 57.69300 39.99600
C  25.24400 60.09400 41.14500
C  25.71400 57.05600 39.32400
O  24.51200 56.93600 39.18000
C  26.79200 55.92900 38.95200
C  26.60000 54.65800 39.82300
O  27.15200 54.35300 40.85800
O  25.67000 53.90500 39.19600
C  25.06900 52.74200 39.68500
H  33.54900 55.51000 38.87600
H  33.98800 61.37600 41.56700
H  27.64600 61.79600 41.55600
H  29.00700 53.87700 38.54600
H  31.74100 54.17300 37.89500
H  30.38600 52.80700 40.02300
H  31.65300 53.74600 40.76400
H  31.98500 52.63900 39.42600
H  30.55200 54.75100 36.17700
H  29.45900 56.10000 36.45900
H  27.89500 53.91700 36.46400
H  29.11000 53.52400 35.26100
H  36.72500 56.91800 39.23000
H  35.55700 55.66000 39.54800
H  36.42300 56.14700 40.82500
H  37.17500 60.68000 42.84500
H  35.39200 60.61000 42.94800
H  36.12400 61.42000 41.52500
H  32.14000 63.50900 41.31500
H  29.69600 62.92200 42.89500
H  33.34700 63.45800 42.94300
H  32.82100 61.92600 43.63100
H  32.02400 63.45000 44.11800
H  28.91300 63.61300 40.34900
H  30.35300 64.56800 40.73000
H  27.82900 65.40300 41.37600
H  29.33800 65.92400 41.98700
H  28.40900 64.70800 42.90600
H  25.04600 60.67700 40.24500
H  25.40700 60.71900 42.02300
H  24.45100 59.35600 41.26200
H  26.65200 55.64400 37.90900
H  25.69500 52.28900 40.45300
H  24.93400 52.12200 38.79800
H  24.16700 53.09300 40.18700

