158

Mg 35.67600 1.54600 29.59500
C  33.37600 2.15800 32.09100
C  38.17400 1.75900 31.90000
C  37.84400 0.71900 27.15600
C  33.19700 2.13900 27.21200
N  35.76400 1.83900 31.73300
C  34.70100 1.91800 32.54200
C  35.11200 2.02300 34.04400
C  36.68600 2.14100 33.96800
C  36.89900 1.88400 32.47200
C  37.37300 3.44300 34.62300
C  34.68000 0.76100 34.88400
C  34.64000 0.86700 36.39200
H  35.38600 2.04200 37.10100
N  37.76200 1.24000 29.52900
C  38.56700 1.44500 30.58600
C  39.93800 1.05800 30.31400
C  39.83600 0.66100 28.88800
C  38.43700 0.85800 28.45200
C  41.14500 1.06600 31.17900
C  40.90800 0.20100 27.96200
O  40.75100 -0.10100 26.76800
C  42.38700 0.20000 28.36600
N  35.58400 1.60200 27.51700
C  36.54600 1.08300 26.75300
C  36.15900 1.20100 25.24600
C  34.73800 1.60100 25.29100
C  34.48800 1.85400 26.74800
C  37.05900 2.19000 24.51100
C  33.78400 0.61000 24.65000
C  33.51900 -0.65500 25.53000
N  33.71100 2.18500 29.57200
C  32.83800 2.33100 28.53300
C  31.46800 2.72400 29.09900
C  31.71900 2.70800 30.51700
C  33.01800 2.31200 30.71800
C  30.21400 2.96500 28.17600
C  31.03200 2.85200 31.76400
O  29.86800 3.03500 32.03200
C  32.11100 2.47500 32.84000
C  32.22000 3.70400 33.62600
O  32.68400 4.75600 33.19300
O  31.65400 3.53800 34.88600
C  31.62900 4.64700 35.87100
H  38.94700 1.77000 32.67100
H  38.56100 0.49600 26.36300
H  32.43300 2.41900 26.48400
H  34.66200 2.90500 34.50000
H  37.07000 1.27700 34.51100
H  38.04000 3.21700 35.45500
H  36.60700 4.20700 34.75800
H  38.00900 3.85100 33.83800
H  35.31300 -0.10800 34.70400
H  33.67500 0.44600 34.60200
H  34.92200 -0.07300 36.86500
H  33.60900 0.97100 36.73100
H  41.63500 2.04000 31.20700
H  41.96100 0.38100 30.94800
H  40.66800 0.90900 32.14600
H  42.54300 1.15300 28.87100
H  42.99600 0.17500 27.46200
H  42.69400 -0.61900 29.01700
H  36.29900 0.19600 24.84900
H  34.54400 2.56700 24.82600
H  36.40100 2.88900 23.99500
H  37.65000 1.58400 23.82400
H  37.79500 2.67600 25.15000
H  34.20500 0.22000 23.72300
H  32.89300 1.21200 24.46900
H  32.48100 -0.71500 25.85500
H  34.28300 -0.68100 26.30700
H  33.59500 -1.45200 24.79100
H  29.33100 2.36900 28.40900
H  30.48500 2.91500 27.12200
H  29.77800 3.92900 28.43700
H  31.79200 1.65000 33.47600
H  30.81200 4.38500 36.54300
H  31.54400 5.60600 35.35900
H  32.55600 4.70500 36.44300
Mg -8.90200 40.78400 41.15400
C  -8.14700 37.48900 40.47000
C  -5.96600 41.71500 39.58500
C  -10.04400 43.82900 41.07800
C  -12.18900 39.57300 42.22000
N  -7.28800 39.76900 40.05600
C  -7.22500 38.41000 39.94300
C  -5.97700 37.98400 39.12000
C  -5.11800 39.27500 39.19100
C  -6.19400 40.34700 39.56700
C  -3.98500 39.25800 40.33100
C  -6.34700 37.56200 37.73200
C  -5.87300 36.20100 37.29000
H  -4.91100 36.29600 36.04400
N  -8.12200 42.54100 40.50100
C  -6.86000 42.73600 40.02200
C  -6.64800 44.20400 39.97400
C  -7.76000 44.81800 40.45100
C  -8.73200 43.69300 40.65000
C  -5.35000 44.71300 39.48500
C  -8.02600 46.35800 40.65800
O  -7.14900 47.15800 40.41700
C  -9.28000 46.90600 41.18000
N  -10.94100 41.56400 41.54300
C  -11.02400 42.93900 41.47200
C  -12.46500 43.28600 41.65700
C  -13.22700 41.97000 42.18300
C  -12.09500 40.96200 41.96500
C  -12.86300 44.53800 42.46000
C  -14.56000 41.78500 41.44100
C  -15.79400 41.38800 42.29900
N  -9.88500 38.90600 41.47700
C  -11.18200 38.59400 41.89800
C  -11.26100 37.19300 42.08000
C  -10.07700 36.66900 41.50700
C  -9.31800 37.78100 41.17500
C  -12.48700 36.44600 42.63500
C  -9.32400 35.51100 41.19100
O  -9.52100 34.35200 41.49300
C  -8.05600 35.98600 40.45200
C  -6.88700 35.39800 41.13900
O  -6.38800 35.80100 42.17900
O  -6.65300 34.16000 40.54200
C  -5.60700 33.30300 41.12000
H  -4.92800 42.00500 39.41200
H  -10.53100 44.79200 40.91000
H  -13.20600 39.20500 42.36800
H  -5.48400 37.15200 39.62300
H  -4.61400 39.56600 38.26900
H  -3.99800 38.27200 40.79400
H  -4.22700 40.00200 41.09100
H  -3.01000 39.41700 39.87100
H  -6.00600 38.34800 37.05900
H  -7.40400 37.70000 37.50500
H  -6.72000 35.52200 37.19800
H  -5.23600 35.68500 38.00800
H  -4.56700 44.37800 40.16500
H  -5.35100 45.80000 39.40900
H  -5.15000 44.46800 38.44100
H  -9.64400 46.46400 42.10700
H  -10.08800 46.87500 40.44900
H  -9.08300 47.97000 41.31300
H  -12.83000 43.59800 40.67900
H  -13.39800 42.18200 43.23800
H  -11.98100 45.02100 42.88100
H  -13.50900 44.41600 43.33000
H  -13.23800 45.35600 41.84400
H  -14.47000 41.02800 40.66200
H  -14.77200 42.71900 40.92000
H  -16.03100 40.38000 41.96000
H  -16.61700 42.04200 42.01000
H  -15.49900 41.37100 43.34900
H  -13.31800 36.48200 41.93100
H  -12.75300 36.91500 43.58200
H  -12.36900 35.41400 42.96700
H  -8.02200 35.72500 39.39500
H  -5.09600 33.82300 41.93100
H  -4.88600 33.12200 40.32300
H  -6.04200 32.37100 41.47900

