158

Mg 35.03800 2.86900 29.11700
C  33.08400 3.93700 31.82700
C  37.86400 3.20100 31.09100
C  36.91400 1.90400 26.52600
C  32.19500 2.84100 27.18700
N  35.41800 3.28200 31.25700
C  34.45800 3.69400 32.17700
C  35.06800 3.63900 33.53500
C  36.57700 3.77300 33.26800
C  36.66000 3.43600 31.74800
C  37.27500 5.16700 33.65900
C  34.55500 2.52600 34.47900
C  34.35100 2.92400 35.93800
H  35.22700 3.98100 36.65900
N  37.14400 2.53500 28.84500
C  38.10500 2.80700 29.79200
C  39.39700 2.59100 29.15800
C  39.18500 2.13400 27.78300
C  37.68900 2.16900 27.64000
C  40.67100 2.97000 29.90500
C  40.11100 1.65000 26.68400
O  39.70200 1.33400 25.58800
C  41.53400 1.42300 26.93200
N  34.59200 2.40900 27.14800
C  35.52500 1.98500 26.29300
C  34.89500 1.49600 24.95400
C  33.37500 1.82200 25.18300
C  33.36500 2.49100 26.59100
C  35.61800 1.90400 23.67100
C  32.54400 0.50800 24.87000
C  32.37600 -0.56100 25.96000
N  33.07200 3.32900 29.32700
C  32.05100 3.27200 28.48000
C  30.85800 3.75800 29.01600
C  31.24100 4.02300 30.37400
C  32.57800 3.75100 30.50400
C  29.52600 3.68500 28.40300
C  30.69600 4.54900 31.66900
O  29.64000 5.02700 31.95600
C  31.87300 4.23300 32.69200
C  32.04700 5.40600 33.52900
O  32.38700 6.54500 33.11400
O  31.67800 5.13800 34.85700
C  31.50900 6.30600 35.75000
H  38.76300 3.27200 31.70700
H  37.47100 1.41600 25.72400
H  31.30600 2.90400 26.55500
H  34.78500 4.56300 34.03900
H  37.04100 2.92900 33.78000
H  37.86200 4.98000 34.55900
H  36.48300 5.83100 34.00600
H  37.84900 5.52200 32.80300
H  35.30100 1.73200 34.45000
H  33.60600 2.15000 34.09500
H  34.35400 2.03900 36.57500
H  33.33400 3.31600 35.95800
H  41.00500 2.18100 30.58000
H  40.65600 3.89100 30.48700
H  41.44400 2.97600 29.13600
H  42.08100 2.36500 26.90300
H  41.89600 0.76600 26.14100
H  41.54700 0.87800 27.87600
H  35.03400 0.43800 25.17900
H  33.14700 2.53900 24.39400
H  36.18000 2.82100 23.84300
H  34.78900 1.97800 22.96800
H  36.25300 1.16300 23.18500
H  32.97600 -0.00600 24.01200
H  31.53100 0.82300 24.62000
H  32.92000 -1.48500 25.76500
H  31.30600 -0.71200 26.10900
H  32.83900 -0.26600 26.90100
H  28.81500 4.21600 29.03600
H  29.17400 2.66500 28.25000
H  29.49000 4.22900 27.46000
H  31.58000 3.45600 33.39900
H  30.48700 6.64600 35.92100
H  31.99700 7.24900 35.50100
H  31.89200 6.02000 36.72900
Mg 17.20500 50.74800 26.34400
C  19.13800 49.65300 28.98600
C  14.71600 51.50700 28.65400
C  15.46000 51.86200 23.80000
C  19.82300 49.71500 24.12500
N  17.06100 50.65400 28.60000
C  17.93700 50.16000 29.47200
C  17.45300 50.33300 30.95600
C  15.89100 50.38000 30.64200
C  15.83800 50.90600 29.23300
C  15.12700 49.06400 30.89500
C  18.03800 51.55300 31.62200
C  18.46600 51.25600 33.02600
H  17.47000 51.83500 34.13200
N  15.43600 51.72100 26.24300
C  14.58200 52.02000 27.30100
C  13.47300 52.87800 26.69400
C  13.65500 52.95300 25.28600
C  14.86800 52.14200 25.07700
C  12.43000 53.53400 27.64600
C  12.91400 53.76600 24.24900
O  13.20700 53.79200 23.08100
C  11.81300 54.56900 24.74200
N  17.58400 50.60500 24.20300
C  16.65100 51.25600 23.38400
C  17.08500 51.15200 21.86800
C  18.53200 50.67500 22.03600
C  18.70500 50.28400 23.49800
C  16.08900 50.21600 21.06800
C  19.71700 51.59800 21.54500
C  20.30600 51.52600 20.12000
N  19.05100 49.69500 26.46800
C  20.02100 49.40700 25.54300
C  21.25700 48.89000 26.23200
C  20.92100 49.04400 27.51500
C  19.61100 49.55800 27.67800
C  22.57500 48.38400 25.60900
C  21.47500 48.84900 28.79200
O  22.62100 48.42900 29.07700
C  20.32800 49.15300 29.83400
C  20.05400 47.97100 30.61200
O  19.33700 47.00900 30.37800
O  20.72700 48.06400 31.75600
C  20.34600 47.10700 32.82900
H  13.80900 51.71300 29.22600
H  14.92800 52.22700 22.91900
H  20.67400 49.41000 23.51300
H  17.64800 49.44700 31.56000
H  15.44100 51.05200 31.37200
H  14.28400 49.13700 31.58100
H  15.83300 48.42100 31.42000
H  14.67500 48.64900 29.99400
H  17.33400 52.37300 31.48300
H  18.92800 51.81600 31.05000
H  19.39400 51.82700 33.05900
H  18.70800 50.20200 33.16100
H  11.45500 53.10300 27.41600
H  12.26200 54.58000 27.38700
H  12.62700 53.51600 28.71800
H  11.30300 55.02300 23.89300
H  12.15700 55.37500 25.39000
H  11.09300 53.88400 25.19000
H  16.98200 52.12900 21.39600
H  18.70400 49.75400 21.47800
H  16.52700 49.24700 20.82700
H  15.86300 50.75200 20.14600
H  15.22300 50.23000 21.73000
H  20.54000 51.30900 22.19800
H  19.45100 52.64100 21.71700
H  19.63600 50.91000 19.52000
H  21.33400 51.17400 20.03100
H  20.42500 52.58100 19.87300
H  22.29400 47.98100 24.63600
H  23.09300 47.61400 26.18100
H  23.20800 49.22900 25.33700
H  20.63200 49.92000 30.54600
H  19.36600 47.23300 33.29100
H  21.07700 47.16000 33.63500
H  20.46200 46.07200 32.50700

