158

Mg 27.17500 50.10300 26.52900
C  25.11200 51.12800 29.19400
C  29.37600 49.10300 28.74500
C  29.23400 49.61700 23.93900
C  24.91400 51.69800 24.32500
N  27.25800 50.36600 28.72400
C  26.24000 50.59000 29.58800
C  26.65100 50.13000 30.98900
C  28.10000 49.65900 30.83400
C  28.20600 49.63500 29.32800
C  29.19100 50.63500 31.49300
C  25.73600 49.01000 31.53000
C  25.35500 49.08200 33.06800
H  26.30200 49.52800 34.15100
N  29.07800 49.41100 26.32400
C  29.81800 48.96000 27.36700
C  31.02800 48.29000 26.84700
C  30.99800 48.45900 25.46200
C  29.70400 49.17400 25.17600
C  32.03700 47.70200 27.76600
C  32.07900 48.14800 24.39000
O  31.94600 48.48400 23.21400
C  33.36800 47.55600 24.95600
N  27.10400 50.59800 24.47800
C  28.04700 50.37700 23.61400
C  27.62800 50.55800 22.14500
C  26.07000 50.85300 22.29500
C  25.98000 51.01000 23.83100
C  28.48900 51.71100 21.54700
C  25.15600 49.76300 21.72400
C  23.89700 50.27400 21.03100
N  25.48900 51.31400 26.70600
C  24.63200 51.83000 25.72300
C  23.45800 52.44900 26.29500
C  23.60400 52.14300 27.62800
C  24.80100 51.48200 27.84300
C  22.42300 53.19600 25.55900
C  22.94800 52.11200 28.96600
O  21.86600 52.52300 29.23100
C  23.95800 51.50900 30.03900
C  24.25900 52.56900 31.05500
O  24.97400 53.56800 30.88600
O  23.59500 52.25900 32.18400
C  24.13000 53.01800 33.29500
H  30.11100 48.70300 29.44600
H  29.80600 49.38300 23.03800
H  24.20700 52.14400 23.62200
H  26.60800 50.93600 31.72000
H  28.22300 48.61500 31.11900
H  28.65800 51.47100 31.94500
H  29.81300 50.91700 30.64400
H  29.79700 50.25800 32.31700
H  26.24000 48.04800 31.43400
H  24.73800 49.01100 31.09100
H  24.90100 48.10300 33.22500
H  24.58900 49.85700 33.05200
H  32.31500 46.68500 27.49200
H  31.75000 47.68500 28.81700
H  32.89300 48.37600 27.73600
H  34.09500 47.54600 24.14400
H  33.23400 46.51900 25.26300
H  33.81400 48.07300 25.80500
H  27.79400 49.64500 21.57300
H  25.76000 51.82800 21.91800
H  29.44800 51.87600 22.03800
H  27.92000 52.62800 21.70000
H  28.68000 51.51500 20.49200
H  24.77100 49.08500 22.48600
H  25.66000 49.14000 20.98500
H  23.92100 51.36400 21.00100
H  23.04400 49.88600 21.58700
H  23.76500 49.95700 19.99700
H  21.59200 52.59800 25.18400
H  22.87600 53.78300 24.76100
H  22.03900 53.85500 26.33800
H  23.37600 50.72000 30.51400
H  25.11600 52.61600 33.52500
H  23.49400 52.80000 34.15300
H  24.21700 54.10300 33.35100
Mg -12.58000 16.24900 41.17700
C  -9.69300 14.30400 40.91000
C  -10.84600 18.93600 39.93300
C  -15.46500 17.83800 40.66700
C  -14.29700 13.33300 41.88400
N  -10.45300 16.53100 40.50400
C  -9.45700 15.58100 40.40700
C  -8.18400 16.26700 40.00500
C  -8.62700 17.84000 39.89100
C  -10.07500 17.76600 40.19800
C  -7.89200 18.96600 40.64600
C  -7.50100 15.68900 38.72500
C  -5.91600 15.83700 38.69000
H  -5.29300 16.55200 37.51800
N  -13.08400 18.15800 40.48700
C  -12.26400 19.16200 40.09200
C  -13.06400 20.35900 39.74000
C  -14.40100 20.08200 40.04900
C  -14.36400 18.62700 40.42800
C  -12.38600 21.67700 39.29200
C  -15.57800 21.15700 40.07100
O  -15.32500 22.29600 39.83000
C  -17.02500 20.78700 40.39000
N  -14.60000 15.68300 41.21900
C  -15.64000 16.55000 41.03500
C  -17.00300 15.88100 41.20700
C  -16.69500 14.45500 41.62400
C  -15.13000 14.46900 41.53200
C  -18.03000 16.69300 42.15800
C  -17.33000 13.37000 40.76100
C  -18.24300 12.50500 41.61600
N  -12.11800 14.22200 41.57900
C  -12.90700 13.17900 41.88300
C  -12.14500 12.02700 42.24200
C  -10.82800 12.40600 41.92100
C  -10.88600 13.75500 41.33400
C  -12.59900 10.80300 42.95700
C  -9.36600 11.95800 41.88800
O  -8.77500 10.89600 42.03300
C  -8.68500 13.20700 41.09300
C  -7.54000 13.67100 41.94800
O  -7.62400 14.14700 43.04300
O  -6.38500 13.36500 41.29300
C  -5.19500 14.01200 41.89300
H  -10.27700 19.78800 39.55300
H  -16.36200 18.29600 40.24400
H  -14.88700 12.48000 42.22500
H  -7.50300 16.12700 40.84500
H  -8.60100 18.11700 38.83700
H  -6.93600 18.58700 41.00800
H  -8.47400 19.26000 41.51900
H  -7.64700 19.83000 40.02800
H  -7.88800 16.26800 37.88600
H  -7.86500 14.66600 38.63200
H  -5.39900 14.90300 38.90700
H  -5.63700 16.43400 39.55800
H  -11.97900 22.28300 40.10200
H  -13.05600 22.25700 38.65800
H  -11.47400 21.63000 38.69700
H  -17.64900 20.48100 39.55000
H  -17.47900 21.69300 40.79200
H  -17.10800 20.08900 41.22200
H  -17.44800 15.92900 40.21300
H  -17.01200 14.32200 42.65800
H  -17.51500 17.57200 42.54600
H  -18.31100 16.09200 43.02300
H  -18.94700 17.03400 41.67600
H  -16.51100 12.71600 40.46100
H  -17.92700 13.67000 39.90000
H  -18.65700 13.02400 42.48100
H  -17.72600 11.61200 41.96600
H  -19.03400 12.20300 40.93000
H  -13.59000 10.87600 43.40600
H  -11.87900 10.40800 43.67500
H  -12.60800 10.00300 42.21600
H  -8.39900 12.77600 40.13400
H  -5.30100 15.09400 41.80800
H  -4.24200 13.78200 41.41700
H  -5.15200 13.84300 42.96900

