158

Mg 24.75200 -6.47900 46.80200
C  27.42500 -4.39600 45.84400
C  22.77100 -4.79500 44.66000
C  22.45900 -9.00400 46.98200
C  27.09000 -8.57200 48.37700
N  25.07200 -4.88200 45.37800
C  26.24900 -4.13800 45.15800
C  26.05400 -3.02900 44.14500
C  24.46700 -2.89600 44.09800
C  24.07800 -4.29700 44.68800
C  23.75800 -1.84300 44.95500
C  26.75600 -3.35400 42.73900
C  27.68300 -2.28300 42.01700
H  27.18400 -2.10300 40.56200
N  22.79400 -6.78500 46.15300
C  22.16300 -5.91600 45.27200
C  20.81900 -6.42700 45.03600
C  20.75000 -7.67400 45.68600
C  21.98500 -7.83700 46.33500
C  19.88300 -5.70500 44.24900
C  19.44700 -8.54800 45.65400
O  18.46300 -8.18700 45.06900
C  19.32700 -9.99700 46.37400
N  24.74800 -8.52600 47.71500
C  23.67100 -9.29800 47.65000
C  23.99400 -10.66100 48.15800
C  25.42200 -10.44400 48.83700
C  25.80300 -9.14400 48.22700
C  23.00300 -11.42200 49.06100
C  26.42200 -11.55100 48.35600
C  27.43500 -12.10300 49.38500
N  26.84100 -6.38300 47.21600
C  27.63300 -7.27800 47.87700
C  29.02900 -6.80300 47.92100
C  28.96300 -5.63300 47.19900
C  27.68900 -5.41100 46.75400
C  30.19100 -7.54100 48.52800
C  29.77700 -4.49700 46.79400
O  30.91900 -4.19400 47.01200
C  28.83800 -3.72100 45.77100
C  28.77600 -2.26100 46.06900
O  28.34400 -1.81900 47.11100
O  29.46100 -1.64200 45.06200
C  29.48400 -0.15900 45.26500
H  22.21500 -4.18900 43.94200
H  21.71800 -9.80500 46.94800
H  27.73400 -9.27500 48.91000
H  26.48900 -2.11800 44.55600
H  24.19400 -2.88000 43.04300
H  24.52100 -1.19900 45.39100
H  23.16700 -2.32500 45.73400
H  23.16000 -1.13800 44.37800
H  26.12100 -3.91700 42.05500
H  27.54000 -4.07100 42.98200
H  28.71600 -2.61900 41.93900
H  27.57100 -1.29600 42.46700
H  19.34500 -6.28400 43.49900
H  20.40300 -4.95600 43.65200
H  19.06800 -5.25000 44.81100
H  18.27800 -10.28500 46.29600
H  19.57300 -9.84900 47.42500
H  19.90900 -10.72000 45.80300
H  24.08800 -11.11900 47.17300
H  25.51100 -10.39300 49.92200
H  22.08700 -10.83400 49.11600
H  23.32300 -11.69400 50.06700
H  22.78200 -12.36100 48.55300
H  27.08500 -11.15800 47.58600
H  25.91600 -12.37200 47.84700
H  27.64400 -13.17300 49.37800
H  27.12100 -11.75900 50.37000
H  28.40600 -11.67300 49.14100
H  30.43500 -7.02700 49.45800
H  31.02800 -7.63600 47.83600
H  29.90300 -8.49800 48.96300
H  29.21000 -3.82100 44.75100
H  30.22700 0.19200 44.54800
H  29.82100 0.15200 46.25400
H  28.47000 0.15200 45.01700
Mg 30.87000 58.07400 39.74500
C  27.96500 55.98800 38.96700
C  32.84500 55.40400 39.03100
C  33.44100 60.31200 39.75400
C  28.58000 60.77300 40.22600
N  30.45800 55.92900 39.04900
C  29.21700 55.30900 38.88700
C  29.43100 53.81600 38.44700
C  30.87600 53.58700 38.85300
C  31.49100 55.06400 38.88800
C  31.22500 52.87600 40.19100
C  29.18700 53.71200 36.94500
C  28.16400 52.79500 36.40100
H  27.26000 53.35700 35.33000
N  32.79700 57.87400 39.37300
C  33.46300 56.67800 39.20600
C  34.92000 56.96700 39.08600
C  35.10400 58.37700 39.16600
C  33.76600 58.91700 39.42400
C  35.93300 55.94200 38.96500
C  36.43900 59.19600 39.14000
O  37.52500 58.55400 39.26300
C  36.47100 60.74000 39.10800
N  30.99900 60.22900 39.99200
C  32.19000 60.87000 40.01400
C  32.08100 62.36100 40.46600
C  30.51200 62.44300 40.60900
C  29.94000 61.05900 40.15000
C  32.89500 62.73400 41.80500
C  29.93900 63.56200 39.74600
C  29.98300 63.24400 38.26000
N  28.71000 58.39100 39.73800
C  27.96600 59.52300 39.91200
C  26.49700 59.17600 39.75100
C  26.50300 57.82800 39.34700
C  27.84400 57.37900 39.42700
C  25.34300 60.10000 39.89800
C  25.59800 56.67700 38.92500
O  24.41200 56.62100 38.78100
C  26.56400 55.45600 38.72800
C  26.18300 54.31500 39.56200
O  26.33400 54.24700 40.76700
O  25.50800 53.34200 38.89800
C  24.99700 52.16800 39.71500
H  33.54900 54.57200 39.09800
H  34.18000 61.11600 39.74400
H  27.91300 61.60600 40.45500
H  28.65500 53.20200 38.90500
H  31.41600 53.06600 38.06200
H  32.17700 52.34500 40.18100
H  30.40900 52.23100 40.51600
H  31.29000 53.56900 41.02900
H  30.05900 53.37100 36.38700
H  28.84900 54.66800 36.54500
H  27.42900 52.46500 37.13500
H  28.57800 51.88400 35.96800
H  35.55400 55.13700 38.33500
H  36.28700 55.51400 39.90200
H  36.86700 56.32400 38.55300
H  36.09500 60.98400 40.10200
H  35.89800 61.08200 38.24600
H  37.49100 61.08700 38.94600
H  32.49600 62.89400 39.61100
H  30.11100 62.54400 41.61700
H  33.41800 61.88900 42.25500
H  32.37600 63.18900 42.64900
H  33.70200 63.41000 41.52500
H  30.73400 64.28000 39.94600
H  28.94500 63.87400 40.06400
H  29.00000 62.89400 37.94300
H  30.62600 62.38600 38.06600
H  30.22700 64.17600 37.75000
H  25.54000 60.97400 39.27700
H  25.16000 60.33900 40.94600
H  24.48800 59.59600 39.44900
H  26.53100 55.07500 37.70800
H  24.16100 52.43900 40.36000
H  25.76800 51.76600 40.37200
H  24.49900 51.47700 39.03400

