158

Mg 42.63400 41.94600 26.04500
C  41.75400 44.23700 28.37300
C  43.89400 39.94700 28.72400
C  43.91900 39.68900 23.76600
C  42.27100 44.32100 23.55300
N  42.75900 42.16100 28.27300
C  42.19300 43.07100 28.96600
C  42.05200 42.59400 30.45300
C  43.05500 41.43600 30.57400
C  43.19500 41.10400 29.08600
C  44.29900 41.67400 31.38500
C  40.56700 42.38000 30.84900
C  40.40800 41.64400 32.25300
H  39.98500 42.61900 33.38800
N  43.68000 40.05200 26.25700
C  44.03100 39.40100 27.41600
C  44.53800 38.11900 27.07900
C  44.38200 37.89000 25.60400
C  44.00300 39.24700 25.13600
C  45.18900 37.23000 28.06500
C  44.70800 36.70400 24.77600
O  44.70500 36.75800 23.57400
C  45.05100 35.45000 25.49600
N  43.02300 42.02700 24.00200
C  43.40600 40.91400 23.26900
C  43.31400 41.16300 21.82200
C  42.67300 42.57100 21.71700
C  42.69800 43.07000 23.18100
C  44.65700 40.92300 21.07500
C  41.15300 42.66200 21.18000
C  40.13600 42.09600 22.19500
N  42.07600 43.89600 25.96100
C  41.88100 44.75000 24.84300
C  41.21000 45.98100 25.33700
C  41.17000 45.84700 26.75700
C  41.69800 44.60000 27.05400
C  40.84600 47.11900 24.50600
C  40.73800 46.46500 28.03300
O  40.21400 47.53000 28.38700
C  41.20000 45.42200 29.18600
C  42.33400 45.93100 30.06100
O  43.49500 46.06200 29.74000
O  41.98700 46.03900 31.37900
C  43.04200 46.49000 32.32500
H  44.17700 39.35900 29.60000
H  44.26800 39.05500 22.94900
H  42.20200 45.04700 22.74100
H  42.34200 43.43800 31.07900
H  42.55000 40.62900 31.10300
H  45.25900 41.35000 30.98400
H  44.18700 41.07400 32.28800
H  44.34000 42.71700 31.70200
H  40.11700 41.78100 30.05700
H  40.06700 43.34700 30.87900
H  41.31100 41.19200 32.66300
H  39.70700 40.81800 32.13000
H  44.60000 36.35800 28.35000
H  45.44500 37.80500 28.95500
H  46.11000 36.83800 27.63200
H  44.26100 35.05800 26.13500
H  46.01800 35.47300 26.00000
H  45.10800 34.61500 24.79800
H  42.71200 40.34500 21.42700
H  43.22100 43.28300 21.10000
H  45.00700 41.84500 20.61000
H  44.49800 40.20900 20.26800
H  45.43300 40.48800 21.70400
H  41.03200 42.15100 20.22500
H  40.97000 43.70900 20.93800
H  40.69300 41.51400 22.93000
H  39.42600 41.36000 21.82000
H  39.50700 42.86100 22.64900
H  41.63200 47.73600 24.07100
H  40.37800 47.86400 25.14900
H  40.20500 46.91200 23.64900
H  40.33500 45.20700 29.81400
H  43.56600 45.56000 32.54300
H  42.78200 46.98900 33.25800
H  43.70100 47.21300 31.84400
Mg 10.70900 47.95800 25.64800
C  7.97100 48.10900 27.89400
C  12.72500 49.23700 28.04400
C  13.02800 47.92200 23.30400
C  8.19200 47.44100 22.97500
N  10.37000 48.62300 27.70000
C  9.28700 48.36900 28.47800
C  9.53800 48.46400 30.04700
C  10.99300 49.22700 29.97600
C  11.38500 49.08100 28.44200
C  11.00100 50.72800 30.29500
C  9.45300 47.15800 30.90600
C  10.10400 47.07100 32.33400
H  9.39200 46.53800 33.51900
N  12.59000 48.44700 25.67100
C  13.26900 48.93400 26.79500
C  14.67000 49.10900 26.38100
C  14.84500 48.65900 25.04900
C  13.45900 48.25200 24.64300
C  15.67100 49.71000 27.30800
C  16.10600 48.58900 24.22500
O  16.15900 48.12200 23.11200
C  17.38500 48.98100 24.84100
N  10.54800 47.67400 23.40800
C  11.72500 47.78600 22.77600
C  11.51700 47.29200 21.32600
C  9.97900 47.28700 21.15500
C  9.51500 47.39700 22.58700
C  12.17800 48.15100 20.21900
C  9.45500 45.98500 20.48800
C  8.49400 46.12100 19.27000
N  8.56200 47.78800 25.41500
C  7.75100 47.61600 24.29100
C  6.37800 47.54200 24.73000
C  6.40600 47.64000 26.14600
C  7.79200 47.73300 26.50000
C  5.14700 47.33900 23.78500
C  5.59300 47.61900 27.38700
O  4.34100 47.56100 27.41000
C  6.58100 47.92800 28.56800
C  6.48000 46.69200 29.28800
O  7.14900 45.68300 29.06100
O  5.63400 46.87100 30.28300
C  5.54500 45.78600 31.22700
H  13.42300 49.50000 28.84100
H  13.77000 47.95100 22.50300
H  7.46100 47.27200 22.18100
H  8.61800 48.95900 30.35800
H  11.67600 48.73300 30.66600
H  10.79800 50.91500 31.35000
H  10.24500 51.16000 29.63900
H  11.87800 51.34600 30.10500
H  9.66600 46.31500 30.24800
H  8.37800 47.05900 31.05900
H  10.32700 48.11400 32.55700
H  11.06500 46.56200 32.26600
H  15.25800 49.93800 28.29000
H  16.07900 50.61600 26.85900
H  16.46900 48.99400 27.50600
H  17.56400 48.31000 25.68100
H  17.15000 49.91200 25.35600
H  18.20500 49.03600 24.12500
H  11.87700 46.26300 21.31100
H  9.65100 48.18600 20.63200
H  11.46700 48.73900 19.63900
H  12.48900 47.34000 19.56100
H  13.05100 48.74700 20.48600
H  8.79700 45.43900 21.16300
H  10.34200 45.46600 20.12400
H  7.59900 45.51600 19.41400
H  9.04500 45.68800 18.43500
H  8.20100 47.12500 18.96600
H  4.65900 48.30500 23.91900
H  4.49700 46.53200 24.12400
H  5.41600 47.25600 22.73200
H  6.28800 48.77700 29.18600
H  5.22700 44.89200 30.69100
H  4.83100 46.10600 31.98700
H  6.50500 45.56300 31.69200

