158

Mg 27.18400 50.50000 26.61300
C  25.10000 51.48700 29.39100
C  29.37500 49.44600 29.11500
C  28.94700 49.45800 24.26200
C  24.68400 51.67100 24.50200
N  27.24000 50.53100 28.96600
C  26.28800 50.96200 29.87700
C  26.50700 50.48200 31.30100
C  27.89700 49.84600 31.16500
C  28.21000 49.95300 29.65400
C  29.00000 50.55400 32.03500
C  25.45900 49.52400 31.84000
C  24.77900 49.94800 33.19400
H  25.74900 50.45000 34.30600
N  28.92800 49.58100 26.66700
C  29.72500 49.24800 27.78100
C  30.91400 48.54000 27.25700
C  30.84000 48.55800 25.82600
C  29.52200 49.18800 25.51600
C  32.00500 47.92200 28.15400
C  31.91700 48.14100 24.88400
O  31.75600 48.09000 23.67500
C  33.33800 47.63200 25.32400
N  26.93900 50.72100 24.58200
C  27.81300 50.11400 23.82500
C  27.46500 50.33700 22.36100
C  25.93100 50.77800 22.46000
C  25.75900 50.98800 23.95500
C  28.40000 51.28200 21.57700
C  24.95200 49.62900 21.87100
C  23.70900 50.17900 21.18500
N  25.39900 51.64500 26.84500
C  24.44900 51.98100 25.91000
C  23.28500 52.49600 26.51100
C  23.53600 52.35500 27.85100
C  24.78900 51.82500 28.03900
C  22.04300 52.91100 25.79400
C  22.87900 52.51400 29.14800
O  21.75200 52.99000 29.38300
C  23.89600 51.98200 30.15100
C  24.25000 53.08100 31.06500
O  25.26500 53.74000 31.10800
O  23.30900 53.16100 32.03400
C  23.50100 54.05000 33.22200
H  29.98000 48.94000 29.87000
H  29.45600 48.90400 23.47000
H  23.79600 51.94700 23.92900
H  26.55400 51.35800 31.94700
H  27.88700 48.81100 31.50500
H  29.13800 50.07100 33.00300
H  28.69900 51.59700 32.12900
H  29.96300 50.65900 31.53700
H  25.95700 48.58900 32.09500
H  24.76700 49.21400 31.05700
H  24.29600 49.11900 33.71200
H  23.93000 50.59600 32.97700
H  32.29400 46.91800 27.84200
H  31.57900 47.66000 29.12200
H  32.83400 48.62900 28.16300
H  33.80700 48.17600 26.14400
H  34.01300 47.58300 24.46900
H  33.14300 46.60600 25.63600
H  27.58700 49.36600 21.88000
H  25.85200 51.73400 21.94300
H  29.14200 51.67700 22.27100
H  27.81600 52.17200 21.34000
H  28.84800 50.87400 20.67100
H  24.58100 49.07800 22.73500
H  25.56900 49.04100 21.19100
H  23.60100 49.81400 20.16300
H  23.64900 51.26700 21.21300
H  22.76000 49.78700 21.54900
H  21.78500 52.19400 25.01400
H  22.28700 53.81400 25.23500
H  21.17200 53.11700 26.41600
H  23.50300 51.22200 30.82600
H  22.64300 53.89700 33.87600
H  23.61300 55.10100 32.95700
H  24.39100 53.82100 33.80800
Mg 9.58800 47.85800 24.76400
C  7.61400 48.17200 27.63200
C  12.11500 49.44500 26.45900
C  11.46600 47.89700 21.99300
C  6.71000 47.12500 22.92700
N  9.78300 48.76100 26.82100
C  8.88000 48.66100 27.86800
C  9.51800 49.02000 29.24700
C  10.85900 49.78600 28.64600
C  10.96800 49.27800 27.24700
C  10.73900 51.31900 28.58900
C  9.84100 47.78300 30.18000
C  9.22500 47.83000 31.62400
H  9.31700 46.58300 32.53900
N  11.57000 48.39100 24.36400
C  12.48900 48.95100 25.21900
C  13.74200 48.96800 24.55800
C  13.60900 48.34900 23.27500
C  12.14800 48.14600 23.16900
C  14.96800 49.49800 25.24600
C  14.60300 48.11000 22.18100
O  14.32900 47.69900 21.03000
C  16.07800 48.29100 22.47700
N  9.14500 47.67400 22.74500
C  10.10700 47.65600 21.76500
C  9.60800 47.12900 20.42200
C  8.06900 46.80500 20.72100
C  7.92000 47.24600 22.22500
C  9.77100 48.14000 19.18700
C  7.70600 45.32400 20.47700
C  7.93400 44.35400 21.67200
N  7.54500 47.64500 25.12900
C  6.41400 47.36400 24.32100
C  5.21800 47.36700 25.09500
C  5.64300 47.55500 26.39300
C  7.02300 47.77500 26.35800
C  3.93600 46.95800 24.58400
C  5.19700 47.61000 27.76100
O  4.08300 47.41800 28.21200
C  6.45500 47.99100 28.57200
C  6.60300 46.88000 29.60500
O  7.24600 45.83100 29.39200
O  6.04100 47.18600 30.81200
C  5.84700 46.09100 31.77800
H  12.81000 49.98400 27.10700
H  12.09900 47.79200 21.11000
H  5.74200 46.90400 22.47200
H  8.88400 49.67400 29.84400
H  11.70800 49.49900 29.26500
H  10.73500 51.62400 29.63600
H  9.73500 51.62600 28.29700
H  11.54500 51.77400 28.01300
H  10.90500 47.89500 30.38700
H  9.64800 46.86400 29.62600
H  8.15700 47.86500 31.41000
H  9.47900 48.77300 32.10900
H  15.24000 50.37800 24.66300
H  15.68300 48.67700 25.29900
H  14.87700 50.03700 26.18900
H  16.73900 47.84300 21.73500
H  16.37200 47.89300 23.44800
H  16.21900 49.35800 22.65100
H  10.27400 46.30000 20.18000
H  7.39400 47.41300 20.11900
H  8.87200 48.18500 18.57300
H  10.68000 48.01100 18.60000
H  9.78300 49.15700 19.57800
H  8.21300 44.92400 19.59800
H  6.63600 45.42500 20.29300
H  8.72700 44.65700 22.35500
H  8.20200 43.36300 21.30700
H  6.98700 44.27000 22.20600
H  3.71900 47.70700 23.82200
H  3.19200 47.06600 25.37300
H  3.96500 45.92200 24.24800
H  6.20900 48.90400 29.11400
H  6.48400 46.21700 32.65300
H  6.14300 45.14600 31.32200
H  4.81100 45.95400 32.08700

