158

Mg 26.64700 50.40500 26.90700
C  24.51800 51.56000 29.51700
C  28.79100 49.21300 29.48000
C  28.85400 49.48600 24.63200
C  24.52400 51.78400 24.57100
N  26.71100 50.50700 29.20800
C  25.66800 50.91700 30.04200
C  25.93300 50.55300 31.50400
C  27.34000 50.00300 31.47500
C  27.62400 49.90900 29.95900
C  28.40700 50.80300 32.27300
C  24.87400 49.58600 32.14600
C  24.18500 50.21700 33.36200
H  24.20500 49.43800 34.68300
N  28.51600 49.58100 27.02700
C  29.17900 49.09100 28.12500
C  30.37900 48.45400 27.69600
C  30.49100 48.51700 26.29200
C  29.30900 49.27000 25.93700
C  31.40600 47.80800 28.67700
C  31.63200 48.01900 25.35800
O  31.61400 48.21100 24.19200
C  32.86600 47.22900 25.85900
N  26.69800 50.72700 24.89700
C  27.67400 50.15800 24.15600
C  27.28500 50.23900 22.64800
C  25.92600 51.07400 22.67700
C  25.69100 51.22100 24.11100
C  28.45200 50.99800 21.79100
C  24.77400 50.42600 21.84200
C  23.67900 49.51100 22.54100
N  24.85000 51.41700 26.95000
C  24.09500 52.00000 25.93800
C  22.83500 52.49400 26.49100
C  23.02700 52.47100 27.87300
C  24.26500 51.74800 28.07800
C  21.66000 52.98700 25.68400
C  22.47700 52.82400 29.12900
O  21.55400 53.55500 29.45500
C  23.38800 52.17500 30.22600
C  23.98400 53.25300 31.04400
O  24.91200 54.04900 30.85100
O  23.28100 53.30000 32.20900
C  23.66900 54.25300 33.25400
H  29.39400 48.75900 30.27000
H  29.37000 48.93300 23.84400
H  23.73700 52.14400 23.90600
H  25.95500 51.51400 32.01700
H  27.32800 49.01500 31.93600
H  29.33500 50.23100 32.30000
H  28.07500 50.98200 33.29600
H  28.49900 51.76400 31.76600
H  25.24800 48.60600 32.44200
H  24.11100 49.40500 31.38900
H  23.12000 50.35400 33.17500
H  24.53900 51.22300 33.58400
H  32.39600 48.26300 28.65000
H  31.61900 46.78900 28.35200
H  31.08700 47.77600 29.71900
H  32.73900 46.15000 25.95600
H  33.05900 47.72300 26.81100
H  33.70000 47.44300 25.19100
H  27.12000 49.26300 22.19300
H  26.12400 52.01500 22.16300
H  28.11100 51.72700 21.05600
H  28.95700 50.27100 21.15500
H  29.16900 51.42800 22.49000
H  25.28200 49.70400 21.20300
H  24.33700 51.13900 21.14200
H  22.82100 50.17700 22.44800
H  23.84800 49.21100 23.57500
H  23.67700 48.55000 22.02700
H  20.90600 52.26500 25.37000
H  22.06900 53.58700 24.87000
H  21.16700 53.69300 26.35100
H  22.86500 51.46900 30.87100
H  24.71800 54.03700 33.46100
H  23.12100 54.14300 34.18900
H  23.36400 55.26600 32.99200
Mg 9.12800 47.35600 28.17300
C  7.25800 46.98500 31.15300
C  11.96400 47.99700 30.19400
C  10.87300 48.19200 25.45000
C  6.03600 47.92400 26.36000
N  9.51000 47.49300 30.35700
C  8.64200 47.13100 31.40600
C  9.31300 47.29800 32.78000
C  10.69400 47.88800 32.38600
C  10.73200 47.74400 30.85600
C  10.75900 49.42600 32.72300
C  9.49800 46.01400 33.65800
C  9.23400 46.19300 35.11400
H  9.63300 45.13300 36.11100
N  11.21400 47.78200 27.85000
C  12.20400 47.93000 28.78400
C  13.41900 48.06200 28.06000
C  13.14200 48.10000 26.67900
C  11.67100 48.02200 26.56600
C  14.73600 48.19600 28.71400
C  14.12000 48.05000 25.42600
O  13.69700 47.78500 24.29300
C  15.66900 48.24800 25.61200
N  8.54500 48.01500 26.29700
C  9.46900 48.32400 25.38700
C  8.87600 48.56500 24.00800
C  7.30000 48.22800 24.20000
C  7.25800 48.09300 25.71400
C  9.18700 49.90500 23.28900
C  6.70700 47.01500 23.35700
C  6.10400 47.32800 21.96600
N  7.09000 47.37700 28.60400
C  5.96100 47.57700 27.76000
C  4.73900 47.36600 28.54300
C  5.21700 47.10200 29.86700
C  6.59200 47.13200 29.85400
C  3.42600 47.38500 28.01300
C  4.81300 46.79200 31.25800
O  3.65000 46.55700 31.66900
C  6.13100 46.63100 32.13400
C  6.08000 45.29700 32.63200
O  6.56600 44.31800 32.06600
O  5.49500 45.19000 33.88700
C  5.78100 43.94000 34.54700
H  12.88100 48.04200 30.78500
H  11.31900 48.40900 24.47700
H  5.14200 48.05500 25.74600
H  8.71600 48.03100 33.32200
H  11.54100 47.36600 32.83200
H  9.90900 49.95300 33.15700
H  10.99800 49.96800 31.80900
H  11.61000 49.73200 33.33200
H  10.52400 45.66800 33.53500
H  8.96900 45.23800 33.10400
H  8.14800 46.28300 35.10700
H  9.59600 47.21500 35.22400
H  15.22600 49.01700 28.19100
H  15.42800 47.37200 28.54000
H  14.61000 48.34600 29.78600
H  15.87800 49.22500 26.04700
H  16.05400 48.35300 24.59700
H  16.09200 47.41100 26.16700
H  9.27500 47.85300 23.28600
H  6.74500 49.11000 23.88100
H  10.19300 50.19400 23.59500
H  8.48700 50.70500 23.52900
H  9.17400 49.96000 22.20100
H  6.01600 46.40600 23.94000
H  7.54500 46.39500 23.04100
H  6.31400 48.30100 21.52400
H  5.02200 47.26400 21.85100
H  6.56600 46.58700 21.31300
H  2.97800 46.51300 28.49000
H  3.36900 47.19800 26.94100
H  2.96900 48.32400 28.32600
H  6.19200 47.30500 32.98800
H  6.75300 43.89600 35.03900
H  5.72300 43.08500 33.87300
H  4.93100 43.77500 35.20900

