158

Mg 0.22900 7.77900 27.37900
C  1.08400 9.81700 30.13100
C  0.25800 5.12200 29.50700
C  -0.06000 5.80200 24.69800
C  0.79000 10.57600 25.32100
N  0.71400 7.58500 29.58700
C  0.94200 8.47300 30.49600
C  0.73100 7.99300 31.94000
C  0.71000 6.48200 31.77900
C  0.49100 6.37100 30.20300
C  1.99700 5.66200 32.20600
C  -0.66500 8.43700 32.45600
C  -0.81200 8.37600 33.96300
H  0.41500 8.01100 34.86500
N  -0.00100 5.69500 27.22100
C  -0.02300 4.80500 28.17300
C  -0.33600 3.53100 27.62500
C  -0.44000 3.69200 26.23600
C  -0.18800 5.12000 25.99100
C  -0.42200 2.36900 28.53100
C  -0.71700 2.66300 25.16400
O  -0.74300 2.97200 24.02800
C  -0.98400 1.22900 25.53000
N  0.24700 8.18800 25.43100
C  0.10000 7.21200 24.44900
C  0.13100 7.72900 22.98200
C  0.15400 9.31100 23.20400
C  0.47900 9.37700 24.71000
C  1.35200 7.18600 22.28400
C  -1.22800 10.08000 23.03100
C  -1.31600 10.91500 21.70200
N  0.80600 9.78800 27.62500
C  0.89400 10.83600 26.71500
C  1.26500 12.06600 27.38700
C  1.31300 11.66900 28.71100
C  1.00900 10.31100 28.85200
C  1.38900 13.47800 26.79100
C  1.65400 12.21300 30.00200
O  2.13500 13.31600 30.30400
C  1.16000 11.05800 31.00600
C  2.09500 10.95600 32.21600
O  3.07600 10.23700 32.26700
O  1.77100 11.92400 33.18000
C  2.86800 12.25200 34.13100
H  0.26500 4.27100 30.19100
H  -0.37800 5.27800 23.79400
H  0.97400 11.45400 24.69800
H  1.58100 8.24100 32.57500
H  -0.12100 5.94000 32.22900
H  1.82200 4.62600 31.91500
H  2.30900 5.86300 33.23100
H  2.82300 5.93500 31.54900
H  -1.42400 7.76500 32.05400
H  -0.67700 9.47000 32.10700
H  -1.66600 7.75800 34.24200
H  -1.12500 9.35200 34.33400
H  -0.75600 2.65600 29.52800
H  0.50400 1.82800 28.72100
H  -1.11200 1.56400 28.27700
H  -1.87400 1.18400 26.15700
H  -0.21800 0.89000 26.22800
H  -1.04400 0.61200 24.63400
H  -0.73600 7.38500 22.41800
H  0.92400 9.78900 22.59700
H  1.05900 6.42600 21.55900
H  2.08700 6.77800 22.97700
H  1.84400 8.02000 21.78200
H  -1.44700 10.76200 23.85300
H  -2.06100 9.37700 23.06600
H  -0.63500 10.38300 21.03700
H  -0.93100 11.92000 21.87200
H  -2.32100 10.98000 21.28600
H  1.78300 13.33900 25.78400
H  2.18300 13.92700 27.38800
H  0.43800 14.00200 26.88600
H  0.13300 11.34100 31.23700
H  3.75900 12.46600 33.54100
H  3.01400 11.30200 34.64600
H  2.72400 13.15600 34.72200
Mg -2.04500 34.68900 27.50700
C  -3.72900 33.20800 30.22900
C  -0.72500 36.96600 29.71100
C  -0.80100 36.29700 24.98200
C  -3.80100 32.54400 25.38600
N  -2.38300 35.15300 29.67400
C  -2.89800 34.25600 30.58500
C  -2.71800 34.73300 32.06300
C  -1.89100 36.08400 31.94300
C  -1.63600 36.10700 30.35300
C  -2.65300 37.43500 32.48000
C  -1.99000 33.70500 33.00000
C  -1.42900 34.28200 34.37000
H  -1.59700 33.46400 35.56300
N  -0.94100 36.37000 27.40100
C  -0.41800 37.16900 28.39300
C  0.42500 38.25200 27.81600
C  0.34000 38.03600 26.38200
C  -0.55100 36.83600 26.19300
C  1.01400 39.40100 28.69900
C  1.00300 38.91000 25.24400
O  0.97200 38.70600 24.05600
C  1.77400 40.15800 25.55600
N  -2.30100 34.47300 25.43500
C  -1.57500 35.18300 24.59500
C  -1.76000 34.71400 23.14800
C  -2.67000 33.44600 23.30100
C  -2.83700 33.40800 24.81200
C  -2.21600 35.80400 22.18400
C  -1.87400 32.07800 22.89600
C  -2.67200 30.97600 22.28400
N  -3.54000 33.20300 27.74500
C  -4.15600 32.42700 26.77100
C  -5.03600 31.46100 27.36400
C  -4.90300 31.71200 28.77900
C  -4.03500 32.81000 28.87300
C  -5.81000 30.48400 26.72700
C  -5.29800 31.28000 30.06300
O  -5.98500 30.34900 30.47200
C  -4.45400 32.18600 31.07200
C  -5.34900 32.71800 32.08500
O  -6.18300 33.57000 31.83700
O  -5.22000 32.01400 33.22100
C  -6.30100 32.00800 34.13000
H  -0.10000 37.58100 30.36300
H  -0.40200 36.88100 24.15100
H  -4.34200 31.86500 24.72400
H  -3.70200 34.79500 32.52700
H  -0.94400 36.05300 32.48200
H  -2.15200 37.71600 33.40600
H  -3.69600 37.22600 32.71700
H  -2.57000 38.26900 31.78300
H  -1.11700 33.30600 32.48300
H  -2.55300 32.79100 33.19100
H  -1.81700 35.24800 34.69400
H  -0.36300 34.47600 34.24900
H  2.06000 39.13300 28.84900
H  0.46800 39.36800 29.64200
H  0.89200 40.35700 28.19100
H  1.09500 40.86600 26.03100
H  2.13600 40.66800 24.66400
H  2.61600 39.85000 26.17600
H  -0.76100 34.39500 22.85300
H  -3.63700 33.55300 22.80800
H  -2.20900 36.79000 22.64900
H  -3.14900 35.56900 21.67000
H  -1.42000 35.81700 21.44000
H  -1.25400 31.69700 23.70700
H  -1.12000 32.25000 22.12800
H  -3.71600 31.28200 22.21300
H  -2.45700 30.10100 22.89800
H  -2.32000 30.70400 21.28900
H  -5.82300 29.60600 27.37300
H  -5.36300 30.24400 25.76300
H  -6.80900 30.81900 26.44700
H  -3.72900 31.54000 31.56700
H  -5.99400 32.63900 34.96400
H  -6.56100 31.01200 34.48900
H  -7.15600 32.51000 33.67700

