158

Mg 46.47700 17.02700 29.00400
C  44.83500 16.48300 31.98300
C  48.80600 18.97900 30.68000
C  47.80000 18.11500 25.98700
C  43.82600 15.58500 27.28500
N  46.80800 17.56800 31.13200
C  46.04100 17.16100 32.15400
C  46.56600 17.68900 33.47400
C  47.73300 18.71700 32.98700
C  47.82000 18.42400 31.52500
C  47.45600 20.24900 33.18500
C  47.13400 16.51100 34.34200
C  47.40500 16.82400 35.78100
H  46.99600 18.19100 36.34700
N  48.20000 18.13500 28.46800
C  49.09900 18.79500 29.26300
C  50.17900 19.28000 28.51300
C  49.83600 19.12900 27.11100
C  48.54600 18.45600 27.13800
C  51.37600 19.85000 29.18500
C  50.62800 19.49800 25.84800
O  50.12500 19.41900 24.69700
C  52.04100 20.09200 26.00800
N  45.96300 16.86300 26.99800
C  46.59000 17.42100 25.91500
C  45.97500 17.04400 24.62500
C  44.80300 16.14500 25.00500
C  44.89600 16.12300 26.53500
C  45.46300 18.12300 23.64100
C  44.82400 14.72800 24.44600
C  45.53400 13.75800 25.29800
N  44.77400 16.08700 29.47500
C  43.83100 15.49900 28.70300
C  42.72800 14.98200 29.48700
C  43.09000 15.38200 30.81800
C  44.29400 16.07800 30.75300
C  41.51900 14.28600 29.02100
C  42.72900 15.38800 32.20000
O  41.70700 15.09200 32.78500
C  43.79700 16.15500 32.99300
C  43.08400 17.32600 33.66000
O  42.67600 18.32200 33.13000
O  43.10900 17.13200 35.03200
C  42.47400 18.20700 35.86400
H  49.51500 19.63100 31.19500
H  48.09700 18.30200 24.95300
H  43.01800 15.09500 26.73700
H  45.77700 18.28100 33.93800
H  48.71100 18.53000 33.43000
H  46.59100 20.31600 33.84500
H  47.29100 20.66700 32.19200
H  48.22800 20.80700 33.71400
H  48.09600 16.30300 33.87500
H  46.45100 15.67600 34.18700
H  48.48300 16.78900 35.93800
H  46.97900 15.98400 36.32900
H  51.52800 19.56000 30.22500
H  51.43000 20.93800 29.22300
H  52.25100 19.43800 28.68300
H  52.01700 21.06800 26.49400
H  52.61300 20.12500 25.08100
H  52.65800 19.37600 26.55100
H  46.77700 16.44400 24.19500
H  43.83000 16.56600 24.75300
H  46.15400 18.96500 23.61000
H  44.47800 18.56600 23.78900
H  45.39800 17.65700 22.65800
H  45.23100 14.62300 23.44000
H  43.78400 14.44000 24.29100
H  46.47500 14.20400 25.62000
H  45.95400 13.02900 24.60500
H  45.00000 13.27100 26.11400
H  41.70800 13.26200 28.69800
H  41.01200 14.94200 28.31300
H  40.90800 14.12100 29.90800
H  44.16400 15.39000 33.67700
H  41.40000 18.03100 35.92100
H  42.77700 19.19700 35.52300
H  42.85200 18.26600 36.88400
Mg 5.98800 53.44900 40.74100
C  5.67800 49.87700 40.75300
C  8.87000 52.99600 39.09800
C  5.65500 56.52900 39.52800
C  2.56200 53.49200 41.73100
N  7.07200 51.65900 39.99000
C  6.83300 50.35700 40.16000
C  7.92600 49.47400 39.51700
C  9.08100 50.47300 39.60000
C  8.33200 51.81900 39.56300
C  10.06000 50.37800 40.75800
C  7.64600 48.99400 38.00400
C  6.68200 49.82200 37.15700
H  7.14800 51.04800 36.47700
N  7.20600 54.72800 39.66200
C  8.38500 54.32000 39.01100
C  8.96800 55.36700 38.21400
C  8.00000 56.40200 38.33900
C  6.84300 55.93100 39.17400
C  10.46500 55.33600 37.62900
C  8.14200 57.74700 37.59400
O  9.00700 57.95000 36.75100
C  7.12200 58.81800 37.76300
N  4.26100 54.80500 40.56900
C  4.42200 56.07900 40.13700
C  3.23900 57.02200 40.41900
C  2.23600 55.97100 41.02600
C  3.04600 54.66700 41.14100
C  3.65000 58.25100 41.24300
C  0.96100 55.73200 40.21400
C  -0.29500 55.48800 41.10600
N  4.48500 52.02800 41.46700
C  3.21200 52.25600 41.85400
C  2.70300 51.03900 42.43700
C  3.57800 50.02200 41.90600
C  4.67300 50.70900 41.35100
C  1.38800 50.87700 43.19900
C  3.83300 48.60600 41.77900
O  3.26400 47.66000 42.31700
C  5.19600 48.48700 40.98400
C  4.75600 47.77300 39.80000
O  4.05200 48.20600 38.88200
O  5.28100 46.47900 39.87700
C  4.98500 45.59300 38.76200
H  9.84400 52.83800 38.63100
H  5.50600 57.57100 39.23700
H  1.53100 53.48800 42.09100
H  8.07800 48.61800 40.17400
H  9.63100 50.38100 38.66400
H  11.01700 49.95700 40.45200
H  9.72600 49.71000 41.55100
H  10.30500 51.36300 41.15600
H  7.31300 47.95600 38.01900
H  8.61300 49.06600 37.50500
H  5.82200 50.11700 37.75900
H  6.33600 49.11500 36.40300
H  10.97000 54.37500 37.72700
H  11.02200 56.15000 38.09300
H  10.49500 55.50800 36.55300
H  6.97000 59.04900 38.81700
H  6.20300 58.42600 37.32700
H  7.58800 59.64300 37.22400
H  2.82200 57.25900 39.44000
H  2.14200 56.21300 42.08400
H  2.93900 58.31300 42.06700
H  3.52300 59.08200 40.54900
H  4.70300 58.34900 41.50800
H  1.06200 54.90500 39.51200
H  0.75500 56.55600 39.53000
H  -0.09000 55.30900 42.16100
H  -0.82600 54.62500 40.70700
H  -0.84500 56.41800 40.96000
H  0.95200 51.83100 43.49400
H  1.36100 50.11500 43.97800
H  0.69800 50.53700 42.42600
H  5.87300 47.86500 41.56900
H  5.33800 45.94200 37.79100
H  3.92900 45.32500 38.76800
H  5.51300 44.64600 38.88000

