158

Mg 30.63100 59.09400 40.90800
C  28.19500 57.13700 39.45700
C  33.02000 56.85000 39.64200
C  33.13500 61.39200 41.47900
C  28.28700 61.56800 41.35600
N  30.62200 57.18800 39.68500
C  29.48100 56.63600 39.27300
C  29.82200 55.46500 38.38000
C  31.34900 55.15900 38.67400
C  31.72900 56.42000 39.43000
C  31.71200 53.97900 39.64500
C  29.56700 55.72900 36.90800
C  28.67200 54.67600 36.11700
H  27.69500 55.38600 35.11400
N  32.68500 59.05900 40.71400
C  33.48900 58.00700 40.23100
C  34.93200 58.29000 40.46100
C  34.97700 59.58600 41.08000
C  33.56000 60.05400 41.14600
C  35.95900 57.26600 40.02000
C  36.27700 60.29700 41.56600
O  37.38800 59.72500 41.48700
C  36.21500 61.54100 42.33800
N  30.74100 61.34400 41.13300
C  31.85900 61.98200 41.64400
C  31.48900 63.35400 42.31800
C  29.95400 63.37600 42.15700
C  29.62800 61.99500 41.51600
C  32.06800 63.39300 43.70700
C  29.24700 64.57200 41.35500
C  29.31900 64.62700 39.83800
N  28.59300 59.31800 40.64800
C  27.73600 60.35000 40.92500
C  26.36500 59.92300 40.57800
C  26.50300 58.65000 39.93900
C  27.90800 58.35200 40.05800
C  25.21700 60.80800 40.71700
C  25.78500 57.59400 39.29500
O  24.57200 57.44200 38.98900
C  26.93400 56.47500 39.02100
C  26.51000 55.22700 39.72200
O  26.97700 54.92500 40.81900
O  25.45900 54.64100 39.07800
C  25.02800 53.30100 39.64400
H  33.75000 56.10300 39.32300
H  33.96100 62.09000 41.63200
H  27.48100 62.29400 41.48100
H  29.18400 54.61900 38.63600
H  32.02600 55.23600 37.82400
H  32.19700 53.15600 39.12000
H  30.76000 53.68500 40.08800
H  32.44600 54.32300 40.37300
H  30.51900 55.81200 36.38400
H  29.34400 56.77800 36.71200
H  28.01700 54.02100 36.69100
H  29.35400 54.02600 35.56800
H  36.97500 57.56400 40.27700
H  35.94300 57.21400 38.93200
H  35.64900 56.27400 40.35100
H  37.22300 61.83900 42.62700
H  35.47000 61.61100 43.13100
H  35.91800 62.34700 41.66700
H  31.92800 64.24600 41.87100
H  29.52900 63.33600 43.16000
H  31.59700 62.66700 44.36900
H  31.68200 64.29000 44.19100
H  33.15700 63.38900 43.74900
H  29.70700 65.45200 41.80600
H  28.19500 64.54500 41.63900
H  29.50300 65.67300 39.59300
H  28.38300 64.20600 39.47100
H  30.16500 64.08100 39.42200
H  24.39600 60.22300 40.30200
H  25.20400 61.70700 40.10100
H  25.08400 61.21100 41.72100
H  26.94200 56.28900 37.94700
H  24.19400 52.93400 39.04400
H  24.76100 53.43400 40.69200
H  25.74300 52.48100 39.70600
Mg 1.58900 43.14000 25.54100
C  3.24000 43.12700 28.62300
C  -1.21400 41.94200 27.24700
C  0.29900 42.54900 22.53100
C  4.58000 43.96700 24.01600
N  1.03100 42.77500 27.74800
C  1.83100 42.88500 28.84800
C  1.05600 42.55800 30.10200
C  -0.24800 41.95000 29.54900
C  -0.19100 42.27400 28.09900
C  -0.40900 40.40300 29.83200
C  1.00000 43.80800 30.96800
C  1.54300 43.69100 32.39800
H  0.58100 43.03800 33.42200
N  -0.20600 42.32600 24.93100
C  -1.26100 41.90100 25.80400
C  -2.43700 41.54800 24.93400
C  -2.02800 41.70800 23.54200
C  -0.59100 42.19700 23.61300
C  -3.66700 41.13400 25.60500
C  -2.82600 41.59200 22.20200
O  -2.42200 41.68000 21.05600
C  -4.29700 41.39700 22.28000
N  2.37300 43.17400 23.55300
C  1.60200 43.01700 22.49300
C  2.38100 43.32400 21.14100
C  3.64100 44.06500 21.70400
C  3.51600 43.74000 23.20900
C  2.57200 42.11700 20.15600
C  3.63700 45.62400 21.26400
C  4.67200 45.97900 20.22100
N  3.48300 43.55000 26.10000
C  4.63300 43.78200 25.38600
C  5.77600 43.98000 26.27900
C  5.24700 43.68100 27.52400
C  3.87000 43.43700 27.41300
C  7.23300 44.28300 25.88500
C  5.72300 43.35400 28.83700
O  6.88000 43.21200 29.30400
C  4.35800 43.16400 29.66800
C  4.50300 41.85600 30.46100
O  4.52100 40.70400 30.01700
O  4.69600 42.21500 31.83400
C  4.67300 41.23000 32.88100
H  -2.05300 41.56800 27.83700
H  -0.17200 42.54200 21.54600
H  5.41700 44.32200 23.41200
H  1.75100 41.88900 30.60800
H  -1.04900 42.52800 30.01000
H  0.48900 40.08900 30.36500
H  -0.41700 39.89000 28.87000
H  -1.29500 40.11200 30.39500
H  -0.04500 44.07300 31.13100
H  1.46500 44.66600 30.48300
H  1.78900 44.72700 32.63000
H  2.43900 43.08000 32.29200
H  -3.45700 40.79000 26.61800
H  -4.06200 40.25100 25.10200
H  -4.49100 41.82500 25.78600
H  -4.77700 41.58200 21.31900
H  -4.77500 42.11000 22.95100
H  -4.46600 40.42700 22.74600
H  1.75500 43.99100 20.54800
H  4.63900 43.70600 21.45500
H  3.60900 41.86500 20.37400
H  2.65100 42.48800 19.13400
H  1.86600 41.30300 20.32100
H  3.81400 46.15700 22.19800
H  2.68800 45.95700 20.84500
H  4.11400 46.29100 19.33800
H  5.34900 45.13900 20.06800
H  5.27000 46.82000 20.57100
H  7.44600 45.33600 25.70200
H  7.43900 43.78200 24.93900
H  7.87700 43.97400 26.70900
H  4.16400 44.00200 30.33700
H  5.13400 41.55900 33.81300
H  5.21600 40.36400 32.50300
H  3.67800 40.80900 33.02900

