158

Mg 0.88300 7.68900 26.30200
C  1.80300 9.81500 28.98200
C  1.36600 5.03900 28.38600
C  0.29800 5.67300 23.72100
C  1.20200 10.49100 24.18500
N  1.44400 7.51200 28.46300
C  1.64800 8.46900 29.38100
C  1.84000 7.89200 30.82200
C  1.95700 6.34300 30.59800
C  1.50100 6.22600 29.01400
C  3.47600 5.88000 30.84300
C  0.74000 8.35100 31.87100
C  1.24000 8.70600 33.20100
H  2.29500 7.85800 33.95700
N  0.82800 5.62900 26.02800
C  1.13000 4.71000 26.99000
C  1.00400 3.39300 26.35300
C  0.56500 3.52000 25.04800
C  0.44000 4.97100 24.88100
C  1.21200 2.19800 27.15800
C  0.20100 2.49800 23.96000
O  -0.35300 2.67100 22.86900
C  0.38700 1.11200 24.38800
N  0.73900 8.02200 24.27400
C  0.39900 7.03100 23.41900
C  0.37800 7.51600 21.96000
C  0.53800 9.09100 22.12100
C  0.89800 9.24600 23.60300
C  1.53300 6.92400 21.10800
C  -0.75700 9.88900 21.64000
C  -0.61200 11.08700 20.65400
N  1.33000 9.78700 26.50900
C  1.40300 10.83800 25.53500
C  1.78500 12.05400 26.19100
C  1.92200 11.70400 27.58500
C  1.65300 10.35400 27.68200
C  1.89300 13.38000 25.59400
C  2.43600 12.21100 28.85500
O  2.94800 13.28100 29.12900
C  2.13800 11.04000 29.85400
C  3.49700 10.87000 30.55800
O  4.42600 10.08700 30.22600
O  3.46200 11.67300 31.65500
C  4.44800 11.34800 32.63600
H  1.59800 4.22200 29.07300
H  0.17300 4.97200 22.89300
H  1.26100 11.33600 23.49500
H  2.80200 8.29400 31.14000
H  1.31400 5.66100 31.15600
H  4.00700 6.53200 31.53600
H  4.19100 5.74900 30.03100
H  3.40600 4.89000 31.29200
H  -0.16100 7.73800 31.91700
H  0.28300 9.24500 31.44800
H  0.41900 8.77800 33.91500
H  1.73000 9.68000 33.20700
H  1.90600 2.47700 27.95000
H  1.86000 1.50200 26.62400
H  0.22900 1.80100 27.41000
H  1.41600 0.76500 24.29000
H  -0.01200 0.43800 23.62900
H  -0.01100 0.73300 25.32900
H  -0.63400 7.16600 21.75800
H  1.35400 9.39200 21.46400
H  1.12700 5.93600 20.89300
H  2.43900 6.77600 21.69600
H  1.62400 7.39400 20.12900
H  -1.27600 10.17800 22.55400
H  -1.38200 9.20600 21.06400
H  0.47300 11.19100 20.66900
H  -1.06300 11.95300 21.13800
H  -0.86900 10.68100 19.67600
H  1.61000 14.15400 26.30800
H  1.19000 13.57400 24.78400
H  2.91500 13.57000 25.26600
H  1.25800 11.16000 30.48600
H  5.43300 11.26400 32.17800
H  4.18100 10.36800 33.02900
H  4.47200 12.06000 33.46200
Mg 8.77000 3.33800 27.83000
C  10.11500 2.01300 30.66500
C  7.22100 5.75300 29.70200
C  7.04500 4.34100 25.05400
C  10.06300 0.65500 26.01800
N  8.79100 3.88100 29.93900
C  9.47100 3.25700 30.92400
C  9.26900 3.83400 32.35800
C  8.31900 5.01300 32.05900
C  8.10500 4.93800 30.49100
C  7.03200 5.13700 32.88700
C  10.63600 4.22400 33.07300
C  10.51100 5.26600 34.19400
H  11.22800 4.87700 35.50400
N  7.40800 4.92900 27.40200
C  6.88400 5.76200 28.34600
C  6.05400 6.74900 27.69600
C  5.98600 6.41900 26.32500
C  6.78400 5.16100 26.16000
C  5.43800 7.99800 28.28900
C  5.16700 7.03500 25.24500
O  5.34400 6.77200 24.06100
C  4.08500 8.15600 25.58000
N  8.53200 2.61300 25.84400
C  7.79900 3.21900 24.89500
C  7.89400 2.42300 23.59400
C  9.05300 1.50700 23.81700
C  9.24900 1.55700 25.34900
C  6.58300 1.62600 23.15800
C  10.36200 1.88700 23.02000
C  11.32600 0.72400 22.82500
N  10.04000 1.73800 28.17100
C  10.38300 0.71200 27.39300
C  11.16400 -0.24400 28.18400
C  11.07700 0.25900 29.43900
C  10.31200 1.41400 29.38000
C  11.75900 -1.56300 27.78100
C  11.57200 -0.02200 30.78700
O  12.40100 -0.81200 31.17400
C  10.94100 1.11600 31.60200
C  10.25900 0.51800 32.80300
O  9.21300 -0.12200 32.73200
O  11.09800 0.84200 33.89400
C  10.50000 0.23700 35.10100
H  6.80100 6.62800 30.20300
H  6.45200 4.65500 24.19200
H  10.44800 -0.24100 25.52700
H  8.74600 3.07300 32.93800
H  8.77800 5.99000 32.20900
H  6.14700 5.01200 32.26400
H  7.00600 6.13200 33.33100
H  6.87300 4.43300 33.70400
H  11.27400 4.59800 32.27100
H  11.08000 3.36300 33.57100
H  9.45500 5.33300 34.45700
H  10.78300 6.20800 33.71800
H  6.04400 8.34900 29.12400
H  4.41800 7.74900 28.58000
H  5.41900 8.90700 27.68900
H  3.62900 7.89400 26.53500
H  3.55700 8.31900 24.64000
H  4.70900 9.04300 25.68200
H  8.11200 3.19200 22.85200
H  8.88000 0.47400 23.51400
H  5.74700 2.25200 22.84500
H  6.26600 0.92900 23.93300
H  6.78100 0.96700 22.31200
H  10.92400 2.62400 23.59500
H  10.18200 2.38300 22.06600
H  12.00300 0.70800 23.67900
H  11.87700 0.95900 21.91400
H  10.73400 -0.19000 22.78600
H  11.43100 -1.97000 26.82500
H  11.58900 -2.37500 28.48900
H  12.83900 -1.42500 27.73500
H  11.73000 1.77100 31.97100
H  9.88800 -0.63300 34.86600
H  9.98300 0.98000 35.70800
H  11.26500 -0.20000 35.74400

