158

Mg 26.45900 50.16700 26.55400
C  24.35100 51.02900 29.15300
C  29.04200 49.46400 28.79000
C  28.81200 50.00100 23.98700
C  24.17400 51.52100 24.21800
N  26.62100 50.17100 28.72200
C  25.55700 50.43900 29.61400
C  26.06600 50.37100 31.13900
C  27.53400 49.83100 30.90100
C  27.78900 49.84200 29.38200
C  28.65000 50.54600 31.67900
C  25.19500 49.45700 32.10900
C  24.88600 50.14000 33.52000
H  24.88100 49.16200 34.76700
N  28.63000 49.76200 26.42200
C  29.42300 49.44200 27.47100
C  30.71000 49.05600 27.02800
C  30.74600 49.32500 25.62000
C  29.39500 49.74900 25.25600
C  31.88000 48.52700 27.88900
C  31.86800 49.16700 24.55500
O  31.70800 49.31400 23.35800
C  33.17100 48.52300 24.90200
N  26.43400 50.55200 24.47200
C  27.50400 50.34300 23.56600
C  27.10300 50.63500 22.11600
C  25.59400 51.02400 22.23200
C  25.36700 51.00700 23.77500
C  28.06200 51.72100 21.55800
C  24.56500 50.05500 21.54600
C  23.63900 50.65200 20.48000
N  24.63700 51.05600 26.60700
C  23.84400 51.56600 25.58700
C  22.67400 52.21100 26.16500
C  22.88400 52.10100 27.60400
C  24.01200 51.33400 27.77000
C  21.61600 53.02800 25.50400
C  22.25600 52.33100 28.94400
O  21.20500 52.89500 29.15300
C  23.27400 51.65700 29.92600
C  23.69100 52.76800 30.82800
O  24.52700 53.58300 30.53000
O  22.90100 52.82300 31.96200
C  23.27200 53.73600 33.01000
H  29.81900 49.18200 29.50300
H  29.48300 49.95300 23.12700
H  23.53800 52.00900 23.47700
H  26.10900 51.37700 31.55600
H  27.71700 48.78400 31.14100
H  29.15400 49.80200 32.29600
H  28.25600 51.37500 32.26700
H  29.46600 51.00700 31.12300
H  25.81300 48.59100 32.34600
H  24.21900 49.35200 31.63500
H  23.97600 50.73400 33.44100
H  25.61200 50.94700 33.61200
H  31.57600 48.47600 28.93400
H  32.67400 49.25500 27.71700
H  32.14200 47.54600 27.49200
H  32.88900 47.48800 25.09700
H  33.59000 48.98100 25.79800
H  33.80900 48.58400 24.02100
H  27.20100 49.78900 21.43600
H  25.47200 52.06200 21.92200
H  28.91600 51.90700 22.21100
H  27.56800 52.68100 21.41000
H  28.49900 51.39700 20.61300
H  23.97500 49.53600 22.30100
H  25.19300 49.26400 21.13700
H  23.78800 50.05100 19.58300
H  23.80700 51.67300 20.13600
H  22.60900 50.41100 20.74000
H  20.77000 52.92000 26.18300
H  21.28700 52.59100 24.56100
H  21.97300 54.05200 25.39100
H  22.77500 50.85800 30.47400
H  23.64100 54.70900 32.68700
H  24.09700 53.21500 33.49800
H  22.63500 53.86700 33.88500
Mg -1.94900 34.08200 26.30400
C  -3.56300 32.75000 29.00400
C  -0.03200 36.03200 28.56400
C  -0.49100 35.51300 23.73100
C  -3.69700 32.03200 24.11900
N  -1.89500 34.36800 28.53000
C  -2.60800 33.68500 29.42800
C  -2.20800 33.99300 30.90300
C  -1.27200 35.23600 30.65300
C  -1.04700 35.19600 29.11600
C  -1.80000 36.52400 31.21300
C  -1.57700 32.73700 31.56000
C  -2.45100 32.13800 32.64600
H  -1.86000 32.02800 34.00900
N  -0.36600 35.53700 26.11700
C  0.29300 36.22700 27.19100
C  1.22100 37.19900 26.61500
C  1.11300 37.04000 25.15400
C  0.01600 36.03600 24.89900
C  1.93600 38.25400 27.47900
C  1.96700 37.67200 24.07900
O  1.86900 37.56600 22.87000
C  3.22000 38.46300 24.55300
N  -2.26100 33.96600 24.22500
C  -1.52100 34.61600 23.41000
C  -1.62300 34.19400 21.88300
C  -2.41200 32.83800 22.01600
C  -2.87300 32.94400 23.53300
C  -2.28300 35.25500 20.87900
C  -1.43500 31.55500 21.85500
C  -1.95000 30.27400 21.30100
N  -3.43000 32.67800 26.46800
C  -3.94100 31.84800 25.51900
C  -4.91800 30.96600 26.13500
C  -4.74400 31.23100 27.51000
C  -3.88100 32.34800 27.64500
C  -5.83700 30.07700 25.52900
C  -5.13500 30.80500 28.82900
O  -5.85600 29.91000 29.17400
C  -4.45000 31.84300 29.82400
C  -5.46300 32.49700 30.69500
O  -6.03400 33.57400 30.41400
O  -5.71500 31.76900 31.84500
C  -6.77700 32.25400 32.66900
H  0.60800 36.59400 29.24700
H  0.06900 35.87700 22.86700
H  -4.15400 31.22800 23.53900
H  -3.16800 34.16900 31.38700
H  -0.30800 35.01800 31.11200
H  -2.88500 36.59500 31.13200
H  -1.41700 37.29200 30.54000
H  -1.40900 36.74400 32.20600
H  -0.65500 33.05400 32.04700
H  -1.49100 31.99300 30.76900
H  -2.75000 31.13800 32.33100
H  -3.38500 32.69000 32.75300
H  1.53300 38.34000 28.48700
H  1.78800 39.20500 26.96800
H  2.98000 37.95500 27.57400
H  3.65400 38.84400 23.62900
H  3.74400 37.64800 25.05200
H  2.83200 39.29100 25.14700
H  -0.59600 34.06300 21.54200
H  -3.27900 32.77700 21.35800
H  -3.01000 34.67400 20.31200
H  -1.55000 35.65500 20.17900
H  -2.92900 35.99000 21.35900
H  -0.80500 31.27700 22.69900
H  -0.67500 31.89900 21.15400
H  -1.53000 30.19700 20.29800
H  -3.03100 30.25600 21.16500
H  -1.58100 29.46600 21.93400
H  -5.47800 29.60100 24.61600
H  -6.81900 30.54500 25.45900
H  -5.81200 29.24000 26.22600
H  -3.77500 31.36200 30.53100
H  -7.48000 31.42300 32.72900
H  -7.27600 33.13600 32.26700
H  -6.57100 32.52400 33.70500

