158

Mg 1.00000 44.02800 25.09400
C  2.89400 43.57600 27.97600
C  -1.70900 43.20900 26.98300
C  -0.74600 43.87600 22.26500
C  3.96700 44.10200 23.16300
N  0.66000 43.66000 27.31000
C  1.59900 43.52300 28.31100
C  0.84600 43.28700 29.64800
C  -0.63300 43.16100 29.26000
C  -0.54500 43.32300 27.76000
C  -1.36200 41.87100 29.73100
C  1.16100 44.50300 30.55800
C  1.54900 44.16700 32.03100
H  0.90100 42.90000 32.72400
N  -1.03700 43.83200 24.68100
C  -1.94900 43.40200 25.55900
C  -3.20700 43.14200 24.84100
C  -3.02200 43.64700 23.53400
C  -1.58400 43.84600 23.42900
C  -4.37600 42.53700 25.48300
C  -3.94900 43.76700 22.28900
O  -3.54500 44.14500 21.19000
C  -5.30600 43.20300 22.43200
N  1.54400 43.95100 23.02100
C  0.63200 43.93800 22.04300
C  1.28200 43.62500 20.63900
C  2.69300 44.19500 20.90000
C  2.77800 44.08500 22.41700
C  1.12600 42.08900 20.22300
C  2.86400 45.63100 20.39200
C  4.24500 46.06700 20.05300
N  2.93800 43.88500 25.44600
C  4.03100 43.92200 24.57400
C  5.20900 43.93600 25.39500
C  4.87600 43.78800 26.72200
C  3.44100 43.78800 26.68200
C  6.53500 44.02000 24.77100
C  5.41300 43.47600 28.05400
O  6.55400 43.26000 28.40900
C  4.08200 43.43200 28.93400
C  4.07300 42.24800 29.87500
O  3.69000 41.13000 29.64000
O  4.75600 42.69800 30.99000
C  5.11000 41.54600 31.89700
H  -2.62000 42.88500 27.49200
H  -1.29400 43.65000 21.34800
H  4.84800 44.09300 22.51800
H  1.28000 42.41700 30.14000
H  -1.14400 44.04500 29.64400
H  -2.06600 42.20800 30.49200
H  -0.79800 41.13400 30.30200
H  -1.82100 41.32600 28.90600
H  0.25200 45.10300 30.60300
H  2.00300 45.11800 30.23900
H  1.28600 45.10100 32.52700
H  2.63000 44.12800 32.16400
H  -5.08300 43.36700 25.51000
H  -4.23400 42.17600 26.50100
H  -4.71900 41.67600 24.90900
H  -5.93400 43.38000 21.55900
H  -5.71600 43.80500 23.24300
H  -5.29900 42.12700 22.60500
H  0.75200 44.23300 19.90600
H  3.45800 43.67100 20.32700
H  0.71200 41.56200 21.08200
H  2.10200 41.61200 20.14000
H  0.62600 42.02300 19.25700
H  2.41300 46.24800 21.16800
H  2.32900 45.81900 19.46100
H  5.02500 45.43600 20.47900
H  4.54400 46.91700 20.66600
H  4.36000 46.53200 19.07400
H  7.20000 43.72300 25.58100
H  6.94500 44.98100 24.46000
H  6.56200 43.16400 24.09700
H  4.15000 44.30500 29.58400
H  6.04600 41.13900 31.51500
H  4.40800 40.71400 31.95100
H  5.28200 41.96800 32.88700
Mg -5.38100 25.85600 26.43100
C  -3.89900 27.03100 29.40600
C  -7.34000 23.83700 28.26100
C  -6.21200 24.35300 23.55600
C  -3.08800 27.77700 24.63800
N  -5.52700 25.41700 28.62100
C  -4.90100 26.09000 29.61200
C  -5.52100 25.67700 30.90800
C  -6.46800 24.55000 30.56300
C  -6.49300 24.60500 29.08400
C  -6.03100 23.11100 31.04200
C  -6.13100 26.87600 31.70800
C  -5.84200 26.98600 33.25200
H  -5.29100 25.65400 33.92800
N  -6.64900 24.37100 25.92500
C  -7.48500 23.77500 26.84100
C  -8.39300 22.91000 26.16400
C  -8.13000 23.02300 24.78700
C  -6.91300 23.95000 24.67200
C  -9.24800 21.97800 26.89300
C  -8.77300 22.39400 23.62700
O  -8.46000 22.58500 22.45700
C  -9.94600 21.44400 23.82400
N  -4.74300 26.06400 24.47400
C  -5.21700 25.33200 23.39300
C  -4.39400 25.42500 22.13800
C  -3.69500 26.82900 22.44900
C  -3.81400 26.94400 23.98300
C  -3.36700 24.33800 21.90600
C  -4.32100 28.08700 21.74000
C  -3.81100 28.46000 20.33400
N  -3.89900 27.25700 26.88100
C  -2.99400 27.95800 26.05900
C  -2.16800 28.89100 26.87100
C  -2.54000 28.51400 28.15600
C  -3.49400 27.53500 28.17100
C  -1.23100 29.91900 26.40700
C  -2.20100 28.70000 29.56700
O  -1.35300 29.49500 30.01600
C  -3.11500 27.88800 30.43100
C  -2.25900 27.14900 31.36100
O  -1.63600 26.15500 31.01000
O  -2.28200 27.77900 32.58300
C  -1.64400 27.01700 33.63800
H  -8.04000 23.20300 28.81100
H  -6.43600 23.84400 22.61600
H  -2.43400 28.48500 24.12500
H  -4.60600 25.41300 31.43800
H  -7.42500 24.60800 31.08100
H  -5.32600 23.08900 31.87400
H  -5.40000 22.74500 30.23200
H  -6.97200 22.58600 31.20600
H  -7.21700 26.83500 31.62500
H  -5.78600 27.77800 31.20300
H  -6.81000 27.11100 33.73800
H  -5.17800 27.80600 33.52400
H  -10.13200 21.61200 26.37200
H  -9.76000 22.51400 27.69200
H  -8.76600 21.13000 27.38000
H  -9.53700 20.57900 24.34500
H  -10.35700 20.95800 22.93900
H  -10.72900 21.97600 24.36500
H  -4.93700 25.62800 21.21500
H  -2.64800 26.68500 22.18100
H  -3.81000 23.43500 21.48500
H  -2.87800 24.08000 22.84500
H  -2.57300 24.55300 21.19100
H  -4.36700 28.92500 22.43500
H  -5.38800 27.89200 21.63000
H  -3.78500 27.65000 19.60400
H  -2.76200 28.69900 20.51000
H  -4.21100 29.34000 19.83100
H  -1.56200 30.86500 25.97700
H  -0.58400 29.41300 25.69100
H  -0.66900 30.16500 27.30800
H  -3.68900 28.66100 30.94200
H  -2.02800 27.47500 34.55000
H  -0.57300 27.08700 33.44800
H  -1.89400 25.95700 33.67400

