158

Mg 35.09800 2.85500 29.51100
C  33.00100 3.92600 32.12900
C  37.74300 3.04400 31.69500
C  37.32000 2.59400 26.92600
C  32.48600 3.39700 27.23000
N  35.23900 3.42700 31.70100
C  34.26400 3.72300 32.58800
C  34.81300 3.78500 34.02500
C  36.41700 3.71300 33.80300
C  36.47900 3.31300 32.34900
C  37.15300 5.06400 34.10400
C  34.32000 2.52000 34.86900
C  34.39400 2.54600 36.45000
H  35.15900 3.64400 37.04900
N  37.21400 2.58500 29.39400
C  38.04400 2.61700 30.39500
C  39.34200 2.18200 29.95600
C  39.34900 2.11600 28.54400
C  37.93900 2.39600 28.19200
C  40.52400 2.19100 30.93400
C  40.45500 1.86300 27.54700
O  40.15000 1.71900 26.39500
C  41.98700 1.63100 27.97800
N  34.91500 3.09500 27.37800
C  35.98900 2.93800 26.46400
C  35.46000 2.74200 25.04700
C  33.95700 3.00900 25.17900
C  33.73500 3.15300 26.67000
C  36.12000 3.45500 23.79100
C  32.94900 1.98300 24.51500
C  33.05100 0.53900 25.24600
N  33.18400 3.42400 29.60400
C  32.24300 3.62300 28.56500
C  31.00600 4.05400 29.16600
C  31.26100 4.06600 30.57600
C  32.61200 3.80000 30.79000
C  29.74200 4.37500 28.45700
C  30.59100 4.26800 31.86500
O  29.46600 4.44400 32.17300
C  31.73500 4.19200 32.88900
C  31.76000 5.45800 33.70000
O  32.27100 6.47500 33.32000
O  31.17000 5.26500 34.92700
C  31.20500 6.38400 35.93200
H  38.59100 2.97900 32.38000
H  37.96400 2.35100 26.07800
H  31.62500 3.36400 26.55900
H  34.48900 4.68200 34.55200
H  36.86700 2.88500 34.35000
H  37.76300 5.38000 33.25800
H  37.87900 4.93600 34.90600
H  36.50700 5.89600 34.38300
H  34.88200 1.65800 34.50700
H  33.28000 2.33400 34.60100
H  34.71200 1.57000 36.81700
H  33.39100 2.70800 36.84400
H  40.89700 3.16900 31.23700
H  41.33200 1.59000 30.51700
H  40.32600 1.54200 31.78700
H  42.58300 1.29000 27.13200
H  42.09200 0.88100 28.76200
H  42.40200 2.57700 28.32800
H  35.47500 1.65800 24.93400
H  33.71300 3.99000 24.76900
H  36.19700 2.73300 22.97800
H  37.15400 3.72900 24.00100
H  35.46400 4.31100 23.63300
H  33.19600 1.76400 23.47600
H  31.92000 2.32400 24.62400
H  33.38600 -0.15100 24.47200
H  32.11900 0.23800 25.72400
H  33.89300 0.49200 25.93600
H  29.33500 3.50300 27.94500
H  29.97100 5.12800 27.70300
H  28.96800 4.78500 29.10500
H  31.44900 3.44200 33.62600
H  31.22700 6.04400 36.96800
H  30.35800 7.04900 35.76500
H  32.07200 7.03700 35.84300
Mg -2.62800 33.78200 25.80300
C  -4.31200 32.46800 28.58700
C  -1.02600 36.08000 27.80800
C  -1.11200 34.94700 23.04000
C  -4.56300 31.54600 23.72800
N  -2.84900 34.39200 27.91700
C  -3.48500 33.55800 28.91300
C  -2.96700 33.86000 30.32000
C  -2.15500 35.28500 30.08400
C  -2.01200 35.30900 28.49800
C  -3.01100 36.52100 30.50200
C  -2.12600 32.79900 31.15600
C  -1.71200 33.24500 32.59000
H  -2.04300 32.36000 33.82300
N  -1.33900 35.33600 25.46900
C  -0.68800 36.11200 26.44500
C  0.34400 36.80700 25.85400
C  0.42300 36.48200 24.49500
C  -0.64800 35.50900 24.30200
C  1.13100 37.88700 26.47400
C  1.39000 36.97600 23.41500
O  1.21000 36.70900 22.21800
C  2.62900 37.76800 23.73900
N  -2.95500 33.37700 23.67800
C  -2.16000 34.00100 22.77900
C  -2.41400 33.55400 21.33900
C  -3.43700 32.42700 21.57700
C  -3.58100 32.31100 23.05300
C  -2.96100 34.74600 20.54500
C  -3.19200 31.02300 20.84700
C  -2.40700 29.88400 21.57900
N  -4.03100 32.18300 26.05000
C  -4.76900 31.41000 25.11900
C  -5.66700 30.49600 25.91800
C  -5.45700 30.85900 27.24800
C  -4.48100 31.88900 27.30300
C  -6.70000 29.53500 25.37800
C  -5.88100 30.52300 28.56900
O  -6.66200 29.67300 29.00600
C  -5.05600 31.58200 29.53000
C  -6.02800 32.16000 30.44900
O  -6.84300 33.08000 30.31000
O  -6.00700 31.37600 31.60200
C  -6.95200 31.69400 32.62700
H  -0.33500 36.55900 28.50400
H  -0.56600 35.21000 22.13100
H  -5.18000 30.93800 23.06300
H  -3.74900 34.09700 31.04100
H  -1.20500 35.35700 30.61400
H  -2.41500 37.00100 31.27800
H  -4.02400 36.20000 30.74400
H  -3.24100 37.37600 29.86700
H  -1.25600 32.47000 30.58900
H  -2.76900 31.93200 31.30600
H  -2.08600 34.23300 32.86000
H  -0.62500 33.30200 32.52600
H  0.78900 38.06800 27.49300
H  1.01000 38.83300 25.94800
H  2.17100 37.57600 26.57300
H  2.47300 38.79700 24.06400
H  3.24800 37.83900 22.84500
H  3.28100 37.18300 24.38800
H  -1.52200 33.17900 20.83800
H  -4.46300 32.64400 21.28200
H  -3.49900 35.44500 21.18500
H  -3.72600 34.39800 19.85100
H  -2.12600 35.17200 19.98800
H  -2.81300 31.18700 19.83800
H  -4.15500 30.59200 20.57300
H  -1.75000 30.16800 22.40100
H  -1.63200 29.55700 20.88600
H  -3.03600 29.06600 21.93100
H  -7.64100 30.02600 25.62700
H  -6.54900 28.54200 25.80300
H  -6.71400 29.47700 24.29000
H  -4.38600 30.89300 30.04400
H  -6.92800 32.77000 32.80200
H  -6.69100 31.31400 33.61500
H  -7.93900 31.29800 32.38900

