158

Mg 17.10200 -2.20200 27.25200
C  16.11500 -0.50200 30.20000
C  18.69500 -4.41500 29.33200
C  17.94200 -3.76000 24.47300
C  15.53000 0.39500 25.45100
N  17.23500 -2.54300 29.51500
C  16.85700 -1.64600 30.48100
C  17.39600 -2.10000 31.91700
C  18.27200 -3.29500 31.58300
C  18.08200 -3.42900 30.03600
C  19.71100 -3.39500 32.14300
C  16.20900 -2.38200 32.89200
C  16.25900 -1.75300 34.33400
H  17.53200 -0.91100 34.69200
N  18.13800 -3.95500 26.97400
C  18.68600 -4.72600 27.96400
C  19.22200 -5.90400 27.28600
C  19.07200 -5.75200 25.88300
C  18.38500 -4.42700 25.69900
C  19.83900 -7.11200 28.01100
C  19.39400 -6.63500 24.66900
O  18.98700 -6.40900 23.56700
C  19.94200 -8.00600 24.94000
N  16.81000 -1.75800 25.32500
C  17.25700 -2.51600 24.31800
C  17.12500 -1.80500 22.94200
C  16.05200 -0.76700 23.31600
C  16.21500 -0.65400 24.81600
C  18.44900 -1.35700 22.25000
C  14.60800 -0.97900 22.84400
C  13.58700 -1.67700 23.76700
N  16.04900 -0.34600 27.69500
C  15.42300 0.48100 26.83500
C  14.72900 1.52800 27.60500
C  14.95400 1.18000 28.92200
C  15.80800 0.00300 28.90700
C  14.03900 2.74200 27.02100
C  14.72300 1.53000 30.29000
O  14.07600 2.49100 30.66000
C  15.50300 0.48300 31.16100
C  16.59900 1.20800 31.91300
O  17.78800 1.38800 31.55500
O  16.00900 1.82000 32.90500
C  16.75000 2.97900 33.44400
H  19.31400 -5.07600 29.94200
H  18.23700 -4.11000 23.48200
H  15.03800 1.21700 24.92800
H  17.98000 -1.23100 32.22000
H  17.78500 -4.13300 32.08000
H  20.43000 -3.56100 31.34000
H  19.73800 -4.23100 32.84100
H  20.11700 -2.51400 32.64100
H  16.24700 -3.44800 33.11200
H  15.29000 -2.40500 32.30700
H  16.30500 -2.57200 35.05100
H  15.37200 -1.12500 34.40900
H  20.82100 -7.39100 27.62900
H  19.01600 -7.82400 27.95200
H  19.91600 -6.87200 29.07100
H  21.03100 -8.04000 24.96300
H  19.59100 -8.63700 24.12400
H  19.62500 -8.56300 25.82200
H  16.67600 -2.67100 22.45500
H  16.35400 0.17100 22.85000
H  18.88900 -2.05400 21.53700
H  19.28400 -1.15700 22.92200
H  18.31100 -0.43000 21.69400
H  14.62500 -1.40000 21.83800
H  14.24500 0.04000 22.70900
H  14.09900 -2.23100 24.55300
H  12.93100 -2.38500 23.26000
H  12.99700 -0.88200 24.22500
H  13.95900 3.51200 27.78900
H  13.08100 2.44000 26.60000
H  14.62300 3.10000 26.17300
H  14.82900 -0.06900 31.81600
H  17.24000 3.51900 32.63400
H  17.56200 2.77600 34.14200
H  16.08200 3.57300 34.06900
Mg 8.29100 47.28600 28.42000
C  6.89100 46.89800 31.71200
C  11.28100 47.81700 29.94000
C  9.53300 48.16900 25.44700
C  5.02200 47.89900 27.25100
N  8.90100 47.41900 30.54300
C  8.23900 47.14500 31.76200
C  9.15500 47.45800 32.95500
C  10.45100 48.10900 32.38400
C  10.19300 47.75400 30.82200
C  10.63600 49.63600 32.57800
C  9.47500 46.19100 33.82200
C  9.23200 46.34800 35.29000
H  9.84700 45.23900 36.19200
N  10.22900 47.82500 27.80300
C  11.36300 47.72200 28.54800
C  12.52700 47.91100 27.64900
C  11.99400 48.02900 26.30500
C  10.50700 48.00800 26.46600
C  14.01600 47.74700 28.06500
C  12.75700 48.16700 24.99400
O  12.18700 48.21900 23.93400
C  14.28000 48.24100 24.95900
N  7.45600 48.02100 26.74300
C  8.12400 48.08500 25.54600
C  7.23600 48.03700 24.31200
C  5.84400 48.25500 24.96500
C  6.14600 48.08800 26.43500
C  7.40900 48.99000 23.13000
C  4.75500 47.26500 24.37600
C  3.43500 47.92000 24.07800
N  6.26900 47.19100 29.23500
C  5.08000 47.40500 28.57200
C  3.99600 47.14300 29.48100
C  4.67000 46.90000 30.71200
C  6.07800 47.03200 30.55100
C  2.54300 47.13000 29.24000
C  4.52700 46.51300 32.11400
O  3.53600 46.23700 32.73600
C  5.93300 46.48700 32.83700
C  6.24500 45.07600 33.18100
O  6.72100 44.20300 32.44900
O  5.71300 44.75700 34.42700
C  6.08700 43.40200 34.88300
H  12.28000 47.94800 30.36200
H  9.92400 48.37800 24.45000
H  4.04800 47.92800 26.75900
H  8.64600 48.19900 33.57200
H  11.37700 47.62400 32.69300
H  10.13300 50.03000 33.46100
H  10.28300 50.20300 31.71600
H  11.71600 49.76600 32.63900
H  10.49300 45.82000 33.70700
H  8.91500 45.37000 33.37200
H  8.17200 46.32400 35.54400
H  9.55100 47.34500 35.59500
H  14.53600 48.67300 27.82000
H  14.47000 46.82600 27.70100
H  14.20800 47.76800 29.13800
H  14.72500 48.91300 25.69300
H  14.45600 48.53500 23.92400
H  14.48800 47.19200 25.16900
H  7.37300 47.03000 23.91900
H  5.52900 49.29800 24.96500
H  6.53000 49.63200 23.06700
H  7.43600 48.51800 22.14800
H  8.38100 49.47700 23.21600
H  4.54100 46.42100 25.03100
H  4.98300 46.85400 23.39200
H  3.18400 47.91800 23.01700
H  3.44900 49.00500 24.17800
H  2.63300 47.54300 24.71200
H  2.25000 48.13400 28.93100
H  2.00900 46.75300 30.11200
H  2.25100 46.54000 28.37100
H  5.95500 47.13100 33.71700
H  5.91200 43.32400 35.95600
H  7.14000 43.23300 34.65600
H  5.37700 42.70900 34.43200

