158

Mg 36.05600 1.77800 29.56700
C  33.84800 2.92500 32.05000
C  38.48400 1.62600 32.00600
C  38.19500 1.20600 27.17800
C  33.49300 2.46200 27.23400
N  36.12300 2.42900 31.71500
C  35.14100 2.69900 32.55100
C  35.52200 2.75000 34.02000
C  37.10200 2.73700 33.92900
C  37.24400 2.15300 32.49300
C  37.76600 4.16700 34.05600
C  34.75400 1.58000 34.73600
C  34.21200 1.83000 36.03800
H  34.79500 2.98100 36.82200
N  37.98300 1.27400 29.59700
C  38.74100 1.19800 30.68900
C  39.94900 0.57000 30.38000
C  39.94000 0.42000 28.91500
C  38.68800 1.03700 28.49400
C  40.92700 -0.01900 31.41600
C  40.82900 -0.30400 27.96500
O  40.64700 -0.57500 26.77200
C  42.10700 -0.80800 28.41500
N  35.87200 2.02700 27.52800
C  36.90400 1.57500 26.66100
C  36.50800 1.69400 25.16000
C  34.92400 1.73900 25.27400
C  34.74400 2.11800 26.74700
C  37.12400 2.97500 24.53500
C  34.32900 0.34200 24.99800
C  33.37700 0.18100 23.86200
N  34.02900 2.46400 29.57600
C  33.12900 2.68600 28.53500
C  31.88700 3.19900 29.11000
C  32.15700 3.28900 30.49600
C  33.48300 2.83300 30.69100
C  30.53400 3.38200 28.43300
C  31.51700 3.65200 31.67100
O  30.37000 4.02300 31.88400
C  32.61900 3.49500 32.82600
C  32.84900 4.73900 33.52100
O  33.67600 5.54700 33.20200
O  31.96500 4.80100 34.61300
C  32.14300 5.87800 35.62200
H  39.30700 1.53900 32.71800
H  38.97200 0.90300 26.47300
H  32.63400 2.59900 26.57400
H  35.37100 3.74600 34.43700
H  37.57200 2.14000 34.71100
H  38.71800 3.96100 33.56700
H  37.81100 4.55300 35.07500
H  37.21900 4.98200 33.58200
H  35.25300 0.63600 34.95300
H  33.94500 1.17700 34.12700
H  34.34300 0.97800 36.70400
H  33.13700 2.00500 36.00100
H  40.87500 -1.10600 31.48500
H  40.80800 0.40400 32.41300
H  41.93000 0.32600 31.16600
H  42.62000 -1.39100 27.65000
H  41.93800 -1.46900 29.26500
H  42.75300 0.00700 28.74200
H  36.78200 0.77100 24.64900
H  34.41500 2.50300 24.68600
H  36.26900 3.54400 24.16800
H  37.73700 2.57900 23.72500
H  37.81400 3.51000 25.18700
H  33.72300 0.07600 25.86300
H  35.15700 -0.33500 24.78800
H  32.40500 -0.23400 24.12800
H  33.86800 -0.50000 23.16700
H  33.19600 1.18000 23.46500
H  30.36800 4.46000 28.43600
H  29.79200 2.85200 29.03000
H  30.52000 2.99500 27.41400
H  32.08100 2.86400 33.53300
H  31.36600 6.63800 35.53500
H  33.05800 6.46700 35.68600
H  32.03400 5.47800 36.63000
Mg 49.03200 45.13300 42.07000
C  45.96600 45.74000 40.48200
C  48.96200 42.00100 40.95600
C  52.34500 44.99000 42.83400
C  49.25000 48.60200 42.67600
N  47.55100 43.92100 40.97200
C  46.37800 44.36400 40.43500
C  45.69100 43.24000 39.67500
C  46.60000 41.99200 40.02500
C  47.79100 42.63200 40.67000
C  45.98800 40.88000 40.98400
C  45.65500 43.64900 38.16800
C  44.26700 43.54600 37.53600
H  44.16900 42.56100 36.30700
N  50.41100 43.62800 41.95400
C  50.14900 42.37800 41.54000
C  51.34700 41.55000 41.61100
C  52.33600 42.41000 42.20600
C  51.73900 43.72600 42.43200
C  51.48100 40.02400 41.23400
C  53.77900 41.97900 42.50400
O  54.02900 40.76300 42.38400
C  54.96200 42.85700 42.85000
N  50.66100 46.66600 42.31000
C  51.84300 46.28400 42.67300
C  52.78600 47.51800 42.89800
C  51.79600 48.62400 43.04000
C  50.48800 47.96600 42.70600
C  53.76000 47.48600 44.16400
C  52.06600 49.95400 42.30400
C  52.09300 51.28400 43.12700
N  47.80300 46.78000 41.83200
C  48.10700 48.08400 42.12400
C  46.95300 48.91200 41.69300
C  46.07300 47.99000 41.05500
C  46.64300 46.75900 41.12500
C  46.83600 50.45700 41.88100
C  44.86800 47.90000 40.32500
O  44.11400 48.73200 39.83800
C  44.67600 46.42600 40.02700
C  43.44000 45.95900 40.75500
O  42.43200 45.56200 40.12000
O  43.64600 45.93600 42.05800
C  42.59600 45.39200 42.88000
H  48.99000 40.93400 40.72300
H  53.42000 44.90000 43.00600
H  49.26400 49.68200 42.83700
H  44.72200 43.05300 40.13900
H  47.04800 41.46100 39.18500
H  45.90600 39.92100 40.47400
H  44.97000 41.16700 41.24600
H  46.49800 40.70600 41.93200
H  46.29600 42.98300 37.58900
H  46.14600 44.60800 38.00400
H  44.00500 44.54800 37.19700
H  43.57700 43.21600 38.31400
H  50.62900 39.81200 40.58800
H  51.29100 39.45800 42.14600
H  52.39000 39.84700 40.65900
H  54.89400 43.22800 43.87300
H  55.05200 43.69900 42.16400
H  55.84400 42.21800 42.80600
H  53.45900 47.69200 42.05900
H  51.68700 48.82100 44.10600
H  53.77500 46.41800 44.38400
H  53.37400 48.01000 45.03900
H  54.78400 47.76300 43.91600
H  51.37400 50.03100 41.46600
H  52.98400 49.79900 41.73900
H  53.03400 51.82800 43.05200
H  51.85200 51.07400 44.16900
H  51.29500 51.98300 42.87500
H  46.48500 50.87700 40.93800
H  47.76500 50.94500 42.17600
H  46.01400 50.68100 42.56000
H  44.38900 46.27900 38.98600
H  42.18400 46.19300 43.49400
H  42.96300 44.62700 43.56400
H  41.68400 45.01500 42.41600

