158

Mg 7.88000 3.77600 27.42400
C  9.36500 2.49700 30.28800
C  5.98400 5.84500 29.51400
C  6.52700 4.99200 24.70800
C  9.15500 1.11400 25.59300
N  7.62500 4.02700 29.70300
C  8.40300 3.48400 30.61700
C  8.31900 4.31000 31.88000
C  7.13500 5.29000 31.68100
C  6.85400 5.02600 30.17200
C  5.94400 5.19100 32.59600
C  9.59100 5.07000 32.35100
C  9.56100 5.62600 33.77500
H  10.49000 5.12300 34.92400
N  6.49800 5.20300 27.16400
C  5.81400 5.92400 28.11600
C  4.97300 6.91000 27.48300
C  5.09500 6.71600 26.04900
C  6.04900 5.56900 25.93300
C  4.10000 7.91800 28.26700
C  4.41400 7.35500 24.87700
O  4.59600 7.13800 23.66800
C  3.57500 8.57600 25.18300
N  7.80700 3.08500 25.44600
C  7.26900 3.77200 24.46700
C  7.61400 3.26100 23.02300
C  8.42100 2.05400 23.32800
C  8.46900 2.07500 24.88600
C  6.37500 3.16600 22.09900
C  9.80100 2.06900 22.64900
C  10.97000 2.88300 23.26700
N  9.12000 2.20700 27.78900
C  9.53600 1.16300 26.94200
C  10.45800 0.30400 27.69800
C  10.42500 0.80900 29.04700
C  9.59900 1.95000 28.99600
C  11.16600 -0.88900 27.20100
C  10.91900 0.58000 30.40000
O  11.73800 -0.27000 30.78400
C  10.27500 1.66200 31.24500
C  9.60800 1.10500 32.42600
O  8.44500 0.67700 32.37300
O  10.43100 1.14200 33.58900
C  9.88300 0.29900 34.66400
H  5.37800 6.49100 30.15300
H  6.06900 5.46200 23.83500
H  9.62500 0.31700 25.01200
H  8.05000 3.56400 32.62700
H  7.47200 6.32500 31.63900
H  5.46800 6.11600 32.92100
H  6.23600 4.71800 33.53400
H  5.18800 4.50700 32.21100
H  9.71700 5.80600 31.55800
H  10.48100 4.44200 32.31500
H  8.53200 5.59900 34.13300
H  9.94800 6.63500 33.63600
H  4.42500 8.95000 28.13800
H  4.17400 7.69200 29.33100
H  3.05900 7.83300 27.95600
H  3.14200 8.95300 24.25700
H  4.22300 9.33100 25.62800
H  2.75500 8.36300 25.86900
H  8.36300 3.93300 22.60400
H  7.86300 1.21400 22.91400
H  5.42000 3.38900 22.57500
H  6.34300 2.13700 21.74200
H  6.49500 3.86200 21.26900
H  9.76100 2.33600 21.59300
H  10.03200 1.00400 22.65800
H  11.85400 2.37500 23.65300
H  10.60700 3.70600 23.88300
H  11.40900 3.47300 22.46300
H  10.63100 -1.33100 26.36100
H  11.34900 -1.63800 27.97100
H  12.09100 -0.46900 26.80500
H  11.14300 2.21800 31.60000
H  9.12500 -0.41300 34.33900
H  9.62100 0.98100 35.47300
H  10.68900 -0.37100 34.96400
Mg 44.69300 5.92400 47.74200
C  42.49000 8.66500 47.25000
C  41.94300 3.81800 46.92100
C  46.72100 3.38800 47.53700
C  47.30400 8.22000 47.98900
N  42.49600 6.21700 47.17500
C  41.84600 7.48200 47.05000
C  40.33400 7.30800 46.68800
C  40.14400 5.77200 46.71700
C  41.60600 5.19700 46.93900
C  39.06300 5.11200 47.59300
C  39.96200 8.02400 45.35900
C  41.13500 7.90000 44.24100
H  40.69100 7.56900 42.81200
N  44.36900 3.76600 47.45900
C  43.18200 3.14900 47.22400
C  43.44600 1.69700 47.17600
C  44.85300 1.51900 47.39400
C  45.39300 2.92900 47.51800
C  42.43000 0.66100 46.86200
C  45.59200 0.14800 47.23700
O  44.93900 -0.79300 46.88200
C  47.13100 0.04000 47.36800
N  46.69400 5.81300 47.92900
C  47.29800 4.68300 47.79600
C  48.84200 4.80100 47.84000
C  49.03400 6.34400 47.86500
C  47.64600 6.85200 48.03700
C  49.55400 3.96200 48.99600
C  49.87200 6.88600 46.63500
C  49.06700 6.83300 45.31600
N  44.88000 7.90500 47.73000
C  45.98100 8.75600 47.87100
C  45.63900 10.17700 47.70000
C  44.22600 10.17200 47.55200
C  43.85800 8.77200 47.45400
C  46.49000 11.34100 47.63500
C  43.01200 11.04400 47.43400
O  42.88800 12.25400 47.46500
C  41.87300 10.08400 47.27700
C  40.78300 10.36200 48.38000
O  40.71300 9.72100 49.40200
O  39.81600 11.27300 47.97400
C  38.57400 11.33500 48.76300
H  41.11800 3.14500 46.67700
H  47.44500 2.60300 47.31000
H  48.05200 9.01600 48.00700
H  39.60900 7.79300 47.34200
H  40.01900 5.45900 45.68100
H  38.18800 5.76000 47.65500
H  39.35400 4.73800 48.57400
H  38.82700 4.28800 46.92000
H  39.64400 9.03200 45.62700
H  39.04400 7.63800 44.91600
H  41.70500 7.00500 44.49100
H  41.76500 8.78600 44.16300
H  42.76500 0.27600 45.89900
H  41.54800 1.20000 46.51400
H  42.14900 -0.14200 47.54300
H  47.34900 -0.99400 47.09900
H  47.37500 0.23600 48.41300
H  47.63900 0.69600 46.66200
H  49.11800 4.30200 46.91100
H  49.62400 6.68700 48.71500
H  49.99000 3.06600 48.55400
H  48.86100 3.80000 49.82100
H  50.38200 4.57200 49.35700
H  50.71100 6.21000 46.46300
H  50.29000 7.88100 46.79100
H  48.95400 7.83500 44.90200
H  48.13000 6.29800 45.47200
H  49.52200 6.18100 44.56900
H  47.33700 11.36200 48.32200
H  45.86200 12.23200 47.63500
H  46.92100 11.28100 46.63600
H  41.32000 10.27200 46.35700
H  38.16200 12.33800 48.64900
H  38.85300 11.07100 49.78300
H  37.76000 10.68300 48.44600

