158

Mg 25.70700 -0.15400 29.52700
C  27.50400 -0.32100 32.48400
C  22.78500 0.05100 31.50500
C  23.86400 0.07400 26.76400
C  28.61100 -0.60800 27.75000
N  25.18900 -0.24700 31.75700
C  26.16200 -0.19500 32.71200
C  25.46800 -0.14400 34.13300
C  23.96900 -0.20500 33.84100
C  23.97400 -0.11300 32.29600
C  23.15500 -1.38900 34.43200
C  25.91800 0.85900 35.18000
C  24.90400 1.61300 36.02300
H  25.37500 2.23700 37.34200
N  23.65300 0.03000 29.17400
C  22.61600 0.14900 30.13200
C  21.37200 0.17000 29.39600
C  21.67200 0.12600 28.00400
C  23.09600 0.13700 27.92000
C  20.04600 0.19100 30.06100
C  20.65000 0.22700 26.85900
O  20.97200 0.15500 25.66300
C  19.22500 0.38400 27.23100
N  26.13300 -0.35000 27.58700
C  25.24000 -0.11200 26.63900
C  25.89200 -0.19600 25.24000
C  27.39400 -0.13100 25.57300
C  27.38600 -0.32900 27.10800
C  25.39300 -1.37100 24.34800
C  28.17100 1.22600 25.24700
C  29.45500 0.95000 24.57000
N  27.67600 -0.55000 29.91800
C  28.83900 -0.69500 29.11200
C  30.01100 -0.86300 29.84600
C  29.57700 -0.63200 31.21700
C  28.15500 -0.55000 31.21900
C  31.34900 -0.97600 29.37400
C  29.96900 -0.48300 32.60400
O  31.10500 -0.43400 33.04400
C  28.63700 -0.28200 33.50300
C  28.50800 -1.31200 34.46800
O  28.21100 -2.46200 34.20500
O  28.87200 -0.83700 35.68800
C  28.91200 -1.78300 36.78500
H  21.90300 -0.03900 32.14300
H  23.25000 0.42800 25.93300
H  29.40900 -0.62300 27.00500
H  25.69500 -1.07800 34.64700
H  23.41400 0.71200 34.03800
H  22.49100 -1.03600 35.22100
H  23.91000 -2.05700 34.84500
H  22.58600 -1.94000 33.68300
H  26.48400 1.57600 34.58500
H  26.64200 0.46200 35.89200
H  24.14300 0.88300 36.30100
H  24.35200 2.36000 35.45300
H  19.53500 -0.75200 29.86700
H  19.46400 1.07000 29.78500
H  20.14600 0.28300 31.14200
H  19.03900 -0.51300 27.82200
H  18.49300 0.35800 26.42300
H  19.18800 1.31400 27.79700
H  25.60400 0.75900 24.80100
H  27.90800 -0.97000 25.10400
H  25.17500 -1.09000 23.31800
H  24.50400 -1.87200 24.73200
H  26.15100 -2.14100 24.49000
H  28.35400 1.75000 26.18500
H  27.53400 1.97000 24.76800
H  30.28300 1.08600 25.26600
H  29.51300 1.59600 23.69400
H  29.59100 -0.06700 24.19900
H  31.83200 -1.72100 30.00700
H  31.87800 -0.03800 29.54500
H  31.43700 -1.23400 28.31900
H  28.56900 0.71200 33.94600
H  29.29700 -2.74000 36.43200
H  27.93000 -1.79600 37.25800
H  29.49200 -1.43100 37.63800
Mg -5.20500 25.32100 25.84700
C  -3.55300 26.53100 28.61000
C  -6.42900 22.84300 27.69100
C  -6.08900 23.91900 22.90700
C  -3.09400 27.55000 23.84800
N  -5.01100 24.77000 27.92100
C  -4.45400 25.52000 28.93000
C  -5.02400 25.10600 30.29800
C  -5.63800 23.71600 29.98000
C  -5.65600 23.69200 28.39500
C  -4.68400 22.59300 30.51900
C  -5.90800 26.24400 31.00300
C  -5.39500 26.63200 32.44100
H  -5.41600 25.44600 33.47000
N  -6.37300 23.76700 25.36800
C  -6.74600 22.82300 26.29500
C  -7.47600 21.74900 25.62000
C  -7.49800 22.13600 24.19200
C  -6.62500 23.35900 24.08000
C  -8.04100 20.52000 26.37400
C  -8.19100 21.38300 23.04800
O  -8.15500 21.81600 21.91000
C  -8.82100 20.04400 23.20300
N  -4.84000 25.84800 23.66100
C  -5.33600 25.03400 22.71300
C  -4.90000 25.53000 21.28300
C  -3.71900 26.50500 21.62200
C  -3.90300 26.71100 23.14400
C  -4.39600 24.37400 20.33900
C  -3.68800 27.76100 20.65700
C  -4.72800 28.85000 20.80300
N  -3.76300 26.81600 26.07900
C  -3.00000 27.63100 25.23600
C  -2.04800 28.45700 25.99700
C  -2.26400 28.09300 27.33100
C  -3.21500 27.02000 27.30400
C  -1.12700 29.43000 25.49800
C  -1.93800 28.37700 28.75500
O  -1.07200 29.20500 29.19100
C  -2.71600 27.38800 29.56800
C  -1.90100 26.53200 30.46200
O  -1.32000 25.51700 30.19400
O  -1.79400 27.17300 31.69000
C  -1.21600 26.55400 32.83900
H  -6.79000 21.93700 28.18100
H  -6.29400 23.33800 22.00500
H  -2.35900 28.11100 23.26700
H  -4.15300 24.95200 30.93500
H  -6.64900 23.49500 30.32400
H  -4.34400 22.83800 31.52500
H  -3.76600 22.55800 29.93200
H  -5.15900 21.61300 30.47200
H  -6.94000 25.90400 31.08600
H  -5.91200 27.10300 30.33100
H  -5.94500 27.50700 32.78600
H  -4.35400 26.95300 32.41200
H  -9.10900 20.36600 26.21500
H  -7.85000 20.45800 27.44600
H  -7.51000 19.67800 25.92900
H  -8.10100 19.27300 23.47900
H  -9.10000 19.66400 22.22000
H  -9.71600 20.07600 23.82500
H  -5.60800 26.14000 20.72300
H  -2.80300 25.93200 21.47600
H  -5.21200 23.78800 19.91700
H  -3.77400 23.66300 20.88300
H  -3.78300 24.69200 19.49500
H  -3.87700 27.47300 19.62300
H  -2.70200 28.22500 20.62700
H  -5.23800 28.83800 21.76600
H  -5.40900 28.78900 19.95300
H  -4.32500 29.85600 20.68500
H  -1.58900 30.11000 24.78200
H  -0.19900 29.06300 25.05900
H  -0.84800 30.08900 26.32000
H  -3.39800 27.93900 30.21600
H  -1.94200 25.87600 33.28600
H  -1.01900 27.34000 33.56900
H  -0.27700 26.07100 32.56700

