158

Mg 48.65900 45.54300 43.83400
C  45.09100 45.56800 42.83200
C  48.77100 42.34100 42.87600
C  51.86300 45.91500 43.80000
C  48.36700 49.15100 44.17600
N  47.12000 44.18500 42.84000
C  45.80900 44.36600 42.51000
C  45.24100 43.05100 42.01300
C  46.32800 42.02200 42.40000
C  47.53300 42.90200 42.80700
C  45.91600 41.09200 43.58100
C  44.65800 42.98800 40.61900
C  45.64900 43.07300 39.43200
H  45.36900 42.29100 38.09700
N  50.16500 44.21300 43.46200
C  50.03200 42.93900 43.01400
C  51.27900 42.31700 42.95700
C  52.19200 43.35400 43.18100
C  51.46100 44.55800 43.54000
C  51.51400 40.89800 42.50700
C  53.75500 43.07000 43.13200
O  54.16400 41.96800 42.89400
C  54.65400 44.11000 43.44700
N  49.93200 47.33400 43.77700
C  51.25800 47.16600 43.81400
C  52.04700 48.45600 43.83700
C  50.88300 49.56300 43.74200
C  49.57500 48.62300 43.77400
C  53.00900 48.77400 45.04600
C  51.01500 50.43500 42.50700
C  51.04300 52.00400 42.76900
N  47.05800 46.99100 43.73100
C  47.14600 48.39100 43.93200
C  45.82400 48.93700 43.71000
C  44.98200 47.88300 43.31800
C  45.75000 46.70300 43.32300
C  45.41600 50.38400 43.71400
C  43.63900 47.51900 42.81700
O  42.73000 48.20300 42.42000
C  43.63400 45.90500 42.55300
C  42.68400 45.21400 43.44800
O  42.14100 44.07900 43.17000
O  42.26800 45.99300 44.53400
C  41.39600 45.41400 45.56000
H  48.83400 41.25500 42.78300
H  52.94900 45.91200 43.91400
H  48.36000 50.19200 44.50700
H  44.33400 42.91000 42.60100
H  46.50700 41.36900 41.54600
H  44.88300 41.28500 43.86900
H  46.55400 41.32900 44.43200
H  46.02400 40.02900 43.36200
H  43.83400 43.68600 40.47100
H  44.13000 42.04100 40.50600
H  46.63500 42.96400 39.88200
H  45.53500 44.08800 39.05000
H  52.28100 40.83600 41.73500
H  50.61100 40.33400 42.27800
H  51.92500 40.30100 43.32200
H  54.57800 45.02300 42.85600
H  55.68500 43.75900 43.41600
H  54.40700 44.34900 44.48100
H  52.63900 48.52900 42.92500
H  50.89900 50.28900 44.55400
H  52.59000 49.57300 45.65800
H  53.90500 49.18400 44.57900
H  53.25700 47.92400 45.68300
H  50.10400 50.28400 41.92800
H  51.74200 50.11200 41.76200
H  51.88100 52.48800 42.26600
H  51.17900 52.20700 43.83100
H  50.08800 52.46800 42.52100
H  44.71600 50.80300 44.43700
H  44.83700 50.41900 42.79100
H  46.23300 51.10600 43.70600
H  43.23200 45.68000 41.56500
H  41.40600 45.68300 46.61600
H  41.34500 44.33800 45.39200
H  40.36800 45.58600 45.24000
Mg 36.46900 49.93500 25.38100
C  36.61700 48.13700 28.38400
C  35.06000 52.53200 27.28700
C  35.61300 51.50200 22.54600
C  37.41700 47.14600 23.68300
N  35.81200 50.24400 27.65400
C  36.13700 49.36400 28.63100
C  36.00800 50.02700 29.99000
C  35.08400 51.27800 29.60800
C  35.39000 51.41900 28.10300
C  33.53700 51.07200 29.98600
C  37.29800 50.33500 30.77500
C  37.17800 50.18700 32.33000
H  35.83800 50.37800 32.95700
N  35.63400 51.81400 24.94600
C  35.21600 52.70500 25.89800
C  34.75500 53.91600 25.19600
C  34.77900 53.56800 23.79500
C  35.35300 52.32100 23.68500
C  34.35900 55.23000 25.90300
C  34.21400 54.36800 22.67600
O  34.25800 53.99900 21.49900
C  33.53100 55.68700 22.82400
N  36.35600 49.32600 23.43300
C  36.00500 50.16200 22.38700
C  36.37900 49.53500 21.02300
C  37.22000 48.28600 21.41500
C  37.01000 48.21300 22.97100
C  35.20200 49.16400 20.06700
C  38.64900 48.44500 20.97900
C  38.93000 47.36300 19.90200
N  36.91900 47.97300 25.87300
C  37.36700 46.95200 25.07800
C  37.63100 45.74100 25.77700
C  37.41800 46.16800 27.15200
C  37.00300 47.54500 27.13300
C  38.06100 44.50900 25.14000
C  37.36200 45.75200 28.53500
O  37.55300 44.68900 29.05100
C  36.85200 47.00200 29.40000
C  35.69400 46.64000 30.24000
O  34.48800 46.69800 29.95900
O  36.13200 46.41000 31.52000
C  35.01700 46.35200 32.54300
H  34.43700 53.26300 27.80600
H  35.29900 51.97700 21.61500
H  37.79000 46.42600 22.95200
H  35.38900 49.38900 30.62100
H  35.30400 52.19500 30.15500
H  33.44300 50.02800 30.28600
H  32.91200 51.33900 29.13400
H  33.25600 51.83000 30.71700
H  37.60600 51.36000 30.56900
H  38.11800 49.75600 30.35000
H  37.77800 50.92300 32.86400
H  37.52200 49.19600 32.62600
H  33.27200 55.30800 25.92800
H  34.75600 56.09600 25.37300
H  34.83400 55.21300 26.88400
H  32.68600 55.63000 23.51000
H  33.15500 55.87000 21.81700
H  34.30900 56.39300 23.11100
H  37.01500 50.24900 20.50000
H  36.59700 47.44000 21.12800
H  34.24200 49.61400 20.31700
H  35.01400 48.09100 20.07000
H  35.48700 49.49400 19.06700
H  39.36300 48.26500 21.78300
H  38.91900 49.42800 20.59500
H  38.71600 47.73400 18.89900
H  38.43300 46.40400 20.05400
H  40.00900 47.21700 19.86000
H  37.47800 44.34600 24.23300
H  37.69900 43.69300 25.76600
H  39.11400 44.39500 24.88300
H  37.68700 47.16400 30.08100
H  34.30800 47.17200 32.43300
H  35.46700 46.51200 33.52300
H  34.39700 45.45800 32.47800

