158

Mg 16.81600 -1.34600 27.88000
C  15.90000 0.81000 30.28300
C  18.80900 -3.02800 30.05600
C  18.26400 -3.11300 25.25500
C  15.21700 0.72900 25.39000
N  17.46100 -0.96400 29.87100
C  16.82700 -0.12600 30.76600
C  17.27700 -0.43300 32.19100
C  18.58400 -1.37600 32.00300
C  18.27400 -1.83600 30.49800
C  19.99300 -0.75900 32.10800
C  16.09000 -1.08500 32.97700
C  15.86100 -0.55100 34.38600
H  17.00900 0.13100 35.12100
N  18.06200 -3.09800 27.73300
C  18.79600 -3.64800 28.80100
C  19.50300 -4.77100 28.26000
C  19.40400 -4.76300 26.88400
C  18.54300 -3.62800 26.52800
C  20.31500 -5.67700 29.16800
C  20.12800 -5.74000 25.88000
O  19.95900 -5.66300 24.68400
C  21.05000 -6.79600 26.43700
N  16.78500 -1.18000 25.69900
C  17.52100 -1.99900 24.86800
C  17.40500 -1.59200 23.35300
C  16.24800 -0.51900 23.44600
C  16.03800 -0.29900 24.94600
C  18.68700 -1.02300 22.70500
C  14.86800 -0.92600 22.81500
C  14.85400 -0.78000 21.30100
N  15.74200 0.31400 27.83000
C  15.14900 1.12400 26.78900
C  14.33400 2.19300 27.34800
C  14.58800 2.06100 28.70600
C  15.48500 0.95900 28.94600
C  13.36300 3.08200 26.66300
C  14.27900 2.66900 29.97900
O  13.41000 3.52200 30.28200
C  15.11200 1.87000 30.97200
C  16.01200 2.88600 31.54800
O  17.19800 2.99300 31.24300
O  15.38800 3.53100 32.59200
C  16.20500 4.42800 33.42300
H  19.38500 -3.43700 30.88900
H  18.85500 -3.53000 24.43800
H  14.68900 1.34500 24.65900
H  17.65200 0.48400 32.64700
H  18.53900 -2.19900 32.71600
H  20.55900 -1.26100 32.89400
H  19.97400 0.23400 32.55800
H  20.54200 -0.60700 31.17900
H  16.22800 -2.16100 32.86900
H  15.16800 -0.76000 32.49600
H  15.49500 -1.38000 34.99300
H  15.01700 0.13700 34.34400
H  21.38500 -5.48600 29.07900
H  20.16000 -6.73800 28.97300
H  20.14800 -5.43100 30.21700
H  21.45100 -7.45900 25.67100
H  20.38000 -7.45800 26.98600
H  21.83100 -6.29000 27.00500
H  17.13000 -2.44500 22.73400
H  16.55700 0.44100 23.03100
H  19.45500 -0.92600 23.47200
H  18.49200 0.00200 22.39000
H  19.09200 -1.55900 21.84600
H  14.11900 -0.32800 23.33500
H  14.67500 -1.96800 23.07000
H  14.31000 0.14800 21.12400
H  14.49700 -1.70700 20.85200
H  15.79500 -0.58600 20.78700
H  12.68400 2.33000 26.26300
H  13.74100 3.58900 25.77500
H  12.96500 3.81600 27.36400
H  14.54600 1.63900 31.87400
H  15.58400 5.23200 33.82000
H  17.15500 4.60700 32.91900
H  16.37100 3.87800 34.34900
Mg -2.28200 34.36000 27.61300
C  -3.88900 32.54800 30.11900
C  -0.80200 36.27100 30.12300
C  -0.84800 36.26700 25.15300
C  -4.17300 32.60200 25.19500
N  -2.38000 34.37800 29.82200
C  -3.16800 33.63700 30.65000
C  -2.91700 33.91600 32.22900
C  -2.04900 35.21900 32.10400
C  -1.61800 35.27500 30.60700
C  -2.58700 36.63800 32.50100
C  -2.34500 32.67700 33.00000
C  -3.08800 32.14600 34.27600
H  -2.33200 32.14700 35.63500
N  -1.04600 36.07000 27.66700
C  -0.51600 36.66700 28.75900
C  0.38700 37.69800 28.34100
C  0.48500 37.67400 26.89500
C  -0.52200 36.66400 26.49900
C  1.15500 38.54800 29.29400
C  1.34900 38.54900 25.98900
O  1.34700 38.40600 24.75700
C  2.00400 39.74800 26.47600
N  -2.51800 34.48800 25.46900
C  -1.75700 35.28700 24.71000
C  -2.15000 35.12600 23.25400
C  -2.93000 33.78600 23.25800
C  -3.23100 33.60800 24.73700
C  -3.00700 36.36000 22.81600
C  -2.05600 32.68600 22.77500
C  -2.22400 32.27800 21.31600
N  -3.62000 32.84000 27.57500
C  -4.36800 32.26000 26.51200
C  -5.24400 31.26600 27.03500
C  -5.08100 31.31700 28.45300
C  -4.08900 32.29200 28.75100
C  -6.14000 30.39000 26.18700
C  -5.60500 30.79600 29.71800
O  -6.36600 29.89500 29.98500
C  -4.82000 31.58600 30.83800
C  -5.87400 32.19000 31.73500
O  -6.76600 32.95400 31.36800
O  -5.67100 31.73000 33.02800
C  -6.82600 31.76400 33.90900
H  -0.38900 36.90200 30.91200
H  -0.45100 36.83800 24.31000
H  -4.81200 32.21700 24.39700
H  -3.89700 34.23100 32.58600
H  -1.25900 35.08400 32.84300
H  -1.79400 37.14200 33.05400
H  -3.46000 36.61900 33.15300
H  -2.79000 37.12000 31.54400
H  -1.36600 32.91000 33.41800
H  -2.20200 31.79800 32.37100
H  -3.31000 31.10500 34.04400
H  -3.99300 32.73400 34.43200
H  0.53400 38.75800 30.16500
H  1.56700 39.50000 28.95800
H  1.97700 37.94600 29.68000
H  1.35400 40.38200 27.07900
H  2.38200 40.31200 25.62400
H  2.81100 39.34300 27.08700
H  -1.29700 35.11300 22.57600
H  -3.93100 33.87600 22.83700
H  -2.59100 36.93600 21.99000
H  -3.06500 37.01700 23.68500
H  -3.98800 35.99200 22.51500
H  -2.09200 31.87600 23.50400
H  -1.00400 32.96900 22.81800
H  -1.26700 32.56200 20.87900
H  -3.07800 32.81800 20.90700
H  -2.47500 31.22500 21.19000
H  -5.42400 29.75100 25.67100
H  -6.56700 30.94600 25.35200
H  -6.80600 29.86100 26.86900
H  -4.24200 30.78800 31.30400
H  -7.07800 30.85300 34.45200
H  -7.66900 31.98700 33.25500
H  -6.74300 32.60600 34.59600

