158

Mg -2.10800 17.58600 26.94000
C  -2.48300 15.29900 29.55600
C  -2.89100 20.19200 28.94000
C  -2.22000 19.50400 24.19200
C  -2.11200 14.65300 24.74800
N  -2.60100 17.72000 28.95300
C  -2.51600 16.65500 29.89200
C  -2.79100 17.04600 31.30300
C  -3.24200 18.49400 31.04700
C  -2.97600 18.89600 29.50700
C  -4.62000 19.01100 31.58300
C  -1.71900 16.66400 32.37300
C  -1.46300 17.56000 33.61900
H  -1.35500 16.86600 35.01400
N  -2.35300 19.67500 26.60600
C  -2.56500 20.55000 27.60900
C  -2.38000 21.87900 27.02700
C  -2.25300 21.74100 25.59800
C  -2.31200 20.29100 25.39400
C  -2.57400 23.12500 27.91500
C  -2.12700 22.78600 24.44400
O  -2.14200 22.47300 23.25800
C  -1.97200 24.21000 24.76900
N  -2.44200 17.15600 24.78500
C  -2.28900 18.16500 23.92900
C  -2.21300 17.69000 22.50800
C  -2.32100 16.16300 22.65100
C  -2.20200 15.98200 24.16800
C  -3.24700 18.31800 21.46900
C  -1.24600 15.30100 21.84400
C  0.22800 15.46900 22.17900
N  -2.18200 15.40000 27.03700
C  -2.15700 14.35800 26.07100
C  -2.36500 13.07400 26.72400
C  -2.40000 13.36600 28.13400
C  -2.30400 14.76300 28.24700
C  -2.43500 11.77600 26.09300
C  -2.52600 12.83800 29.47100
O  -2.55000 11.66400 29.81400
C  -2.63700 14.02500 30.46600
C  -1.47700 13.77800 31.29500
O  -0.30600 14.16900 31.15700
O  -1.94200 12.99900 32.28800
C  -0.91800 12.73900 33.32700
H  -3.01100 20.94100 29.72600
H  -2.02000 20.13000 23.31900
H  -2.05500 13.76600 24.11400
H  -3.71800 16.58300 31.64200
H  -2.47400 19.12100 31.50000
H  -5.26500 19.26800 30.74200
H  -4.54100 19.95400 32.12400
H  -5.03300 18.34200 32.33800
H  -0.77800 16.56800 31.83100
H  -1.89900 15.69600 32.84100
H  -2.31300 18.24200 33.61600
H  -0.51600 18.07600 33.46700
H  -3.18100 22.82100 28.76800
H  -3.16300 23.81000 27.30500
H  -1.74000 23.74500 28.24500
H  -1.13500 24.46600 25.41900
H  -2.82600 24.47700 25.39200
H  -1.81400 24.83100 23.88800
H  -1.20700 17.80900 22.10500
H  -3.29600 15.75800 22.38100
H  -3.90000 17.51500 21.12900
H  -2.66300 18.53200 20.57400
H  -3.79800 19.21400 21.75500
H  -1.46900 15.52700 20.80100
H  -1.50900 14.26400 22.05100
H  0.51800 16.09100 21.33200
H  0.83600 14.57900 22.01700
H  0.45000 15.95200 23.13000
H  -3.50900 11.65600 25.95500
H  -2.07900 11.09100 26.86200
H  -1.78900 11.85900 25.21900
H  -3.58800 14.00800 30.99800
H  0.03900 13.19700 33.08000
H  -0.78800 11.66200 33.43500
H  -1.32000 13.23900 34.20800
Mg 40.98400 9.10600 29.43700
C  43.06500 10.08700 32.04800
C  38.71700 7.83600 31.69600
C  39.14000 7.92200 26.83400
C  43.63400 9.52400 27.26800
N  40.95300 8.77700 31.57800
C  41.84600 9.40300 32.49300
C  41.24000 9.33500 33.95600
C  39.97800 8.48700 33.78300
C  39.88100 8.34700 32.24600
C  39.85500 7.22100 34.64600
C  40.91000 10.79000 34.58700
C  40.21200 10.79600 35.98800
H  40.90400 11.56400 37.05200
N  39.07200 8.18200 29.38100
C  38.26200 7.74000 30.38900
C  37.08300 7.27100 29.86400
C  37.12100 7.44100 28.51000
C  38.55100 7.82700 28.15800
C  36.01100 6.77400 30.76900
C  36.08000 7.23400 27.42000
O  36.19500 7.22900 26.20800
C  34.62300 6.96000 27.94900
N  41.42200 8.60000 27.35800
C  40.44900 8.20500 26.44100
C  40.90200 8.36900 24.98600
C  42.34200 8.90000 25.16800
C  42.52900 9.06200 26.71700
C  40.82400 7.16600 23.99900
C  42.62900 10.17600 24.32500
C  42.03400 11.49800 24.92600
N  42.97200 9.71300 29.56500
C  43.94000 9.95000 28.61500
C  45.04800 10.64300 29.21700
C  44.71300 10.74200 30.54300
C  43.48200 10.05600 30.75000
C  46.19700 11.25900 28.50000
C  45.16800 11.27500 31.79600
O  46.17800 11.84900 32.07800
C  44.09400 10.83500 32.88500
C  44.65900 9.89300 33.85300
O  45.22500 8.84400 33.56500
O  44.59300 10.42400 35.09600
C  44.83700 9.50800 36.21800
H  38.06200 7.43000 32.47000
H  38.53900 7.48700 26.03300
H  44.32900 9.81000 26.47600
H  41.96700 8.90300 34.64400
H  39.10000 9.09700 33.99600
H  40.81900 6.97000 35.08900
H  39.63400 6.31600 34.07900
H  39.05600 7.38100 35.37000
H  40.23200 11.32900 33.92600
H  41.81300 11.40100 34.55700
H  40.12400 9.72800 36.18500
H  39.20200 11.16600 35.81000
H  36.25500 6.79900 31.83100
H  35.71100 5.74200 30.58500
H  35.07400 7.31300 30.62800
H  33.94200 7.07900 27.10700
H  34.34200 7.70000 28.69900
H  34.44700 5.95600 28.33700
H  40.36400 9.26100 24.66500
H  43.13100 8.22400 24.83700
H  41.76800 6.93000 23.50800
H  40.15800 7.40000 23.16800
H  40.48100 6.28100 24.53500
H  42.15000 10.05000 23.35400
H  43.68800 10.31300 24.10700
H  42.78300 12.08100 25.46100
H  41.30500 11.19400 25.67600
H  41.51800 11.94500 24.07600
H  46.56500 12.13000 29.04400
H  45.81400 11.48400 27.50500
H  47.08600 10.63200 28.42900
H  43.78900 11.75000 33.39300
H  45.20500 8.50800 35.99100
H  43.88600 9.40500 36.74100
H  45.53000 9.93500 36.94300

