158

Mg 45.47800 2.92500 47.42500
C  43.73700 5.87800 46.89800
C  42.65200 1.05900 47.05900
C  47.37000 -0.02500 46.87700
C  48.41800 4.77200 46.94100
N  43.46800 3.43700 46.93000
C  42.93600 4.71500 46.84400
C  41.39300 4.68100 46.65000
C  41.11700 3.17100 46.92100
C  42.44400 2.50400 47.04000
C  40.21800 3.02800 48.29100
C  40.97900 5.23600 45.27000
C  41.45100 4.42300 44.09600
H  42.07500 5.22100 42.92400
N  45.08100 0.82100 47.18600
C  43.82600 0.29100 47.02300
C  43.86700 -1.16800 46.80800
C  45.24100 -1.49700 46.97500
C  45.99800 -0.20800 47.01600
C  42.71100 -2.07900 46.52400
C  45.87000 -2.91700 46.93800
O  45.15500 -3.94100 46.84100
C  47.28200 -3.15800 47.21200
N  47.49400 2.46600 46.83700
C  48.03700 1.18500 46.81600
C  49.55200 1.17100 46.78200
C  49.88500 2.70300 46.69700
C  48.56200 3.34400 46.89800
C  50.16500 0.35700 48.02500
C  50.61500 3.19500 45.41400
C  51.88000 3.91100 45.65500
N  46.01200 4.91900 47.19100
C  47.22600 5.52200 46.94600
C  47.06000 6.91600 46.85000
C  45.71700 7.07600 47.00000
C  45.08900 5.83500 47.01600
C  48.21300 7.96500 46.73800
C  44.69100 8.14100 47.13300
O  44.71600 9.37200 47.18400
C  43.35600 7.38100 46.95100
C  42.39400 7.71400 48.09600
O  42.33000 7.23900 49.27500
O  41.45000 8.64700 47.66800
C  40.41400 8.91800 48.64000
H  41.70700 0.51200 47.04700
H  48.04400 -0.86700 46.70700
H  49.38700 5.27400 46.89200
H  41.09900 5.28400 47.50900
H  40.55600 2.80500 46.06100
H  39.66300 3.95600 48.43000
H  40.77600 2.77600 49.19300
H  39.43200 2.28100 48.18400
H  41.19000 6.30400 45.22200
H  39.89500 5.20700 45.16100
H  40.61500 3.80800 43.76500
H  42.21700 3.70200 44.38400
H  41.98000 -1.55700 45.90700
H  42.29600 -2.13700 47.53000
H  43.02200 -3.06600 46.18200
H  47.50400 -2.45300 48.01300
H  47.83200 -2.89600 46.30800
H  47.48200 -4.20700 47.43200
H  49.83600 0.70400 45.83900
H  50.55500 2.96300 47.51700
H  50.32400 -0.68700 47.75900
H  49.34300 0.35600 48.74200
H  51.12900 0.73300 48.36900
H  50.00100 3.97600 44.96500
H  50.71800 2.41800 44.65600
H  52.74600 3.25200 45.58500
H  51.92000 4.41300 46.62200
H  51.99400 4.71700 44.93100
H  47.86800 8.99800 46.68700
H  48.80100 7.70400 45.85800
H  48.91200 7.91000 47.57300
H  42.94600 7.69300 45.99000
H  40.73800 9.41700 49.55300
H  39.76600 8.08000 48.89800
H  39.65400 9.64300 48.34900
Mg 35.36700 48.79700 25.97500
C  35.61100 47.07800 29.04600
C  33.93700 51.48600 27.69800
C  34.44300 50.14300 23.00500
C  36.36400 45.81500 24.36400
N  34.67200 49.15700 28.14700
C  35.07400 48.43000 29.22300
C  34.74100 49.06200 30.60000
C  34.03200 50.41500 30.09100
C  34.24200 50.38900 28.55200
C  32.51900 50.51500 30.35400
C  36.03100 49.35100 31.39200
C  36.02700 49.32000 32.93600
H  34.62300 49.39200 33.69600
N  34.46700 50.63800 25.46000
C  34.04000 51.57500 26.29300
C  33.79800 52.77400 25.49700
C  33.75700 52.34900 24.15300
C  34.18900 50.96800 24.16200
C  33.62400 54.18800 26.14500
C  33.43100 53.18000 22.84600
O  33.31500 52.67200 21.74100
C  33.17100 54.64600 22.94900
N  35.43200 48.23200 24.03500
C  35.00100 48.90900 22.96100
C  35.31100 48.12400 21.60600
C  36.09300 46.87600 22.12800
C  35.97900 46.96500 23.62200
C  34.02300 47.80900 20.68400
C  37.56500 46.73000 21.59000
C  38.76900 47.37000 22.37400
N  35.99500 46.81300 26.55600
C  36.37700 45.71800 25.79500
C  36.65400 44.60400 26.65400
C  36.41100 45.11100 27.96900
C  35.95700 46.41000 27.81400
C  37.06300 43.18500 26.27900
C  36.43100 44.76400 29.42000
O  36.68100 43.73600 29.97300
C  35.81500 46.02300 30.15200
C  34.52100 45.66900 30.69100
O  33.41100 45.76900 30.11200
O  34.76400 45.14100 31.96200
C  33.64700 44.44000 32.56200
H  33.55100 52.34000 28.25800
H  34.05500 50.54600 22.06700
H  36.74000 44.90700 23.88800
H  34.05800 48.40600 31.13900
H  34.47500 51.31500 30.51700
H  31.86400 50.49200 29.48300
H  32.34000 51.35900 31.01900
H  32.28200 49.65700 30.98400
H  36.56300 50.27700 31.17600
H  36.70500 48.55100 31.08700
H  36.64100 50.17900 33.20700
H  36.51100 48.42300 33.32300
H  34.56600 54.68100 25.90500
H  33.50900 54.31800 27.22100
H  32.84500 54.67700 25.55900
H  32.17000 54.81900 23.34300
H  33.19300 55.19400 22.00700
H  33.86900 55.19200 23.58200
H  35.95000 48.59800 20.86200
H  35.64500 45.94800 21.77000
H  33.27800 47.08500 21.01300
H  34.40500 47.50400 19.70900
H  33.41000 48.70900 20.63800
H  37.58900 47.03800 20.54400
H  37.71400 45.65800 21.72000
H  39.43000 47.67400 21.56200
H  39.28500 46.64600 23.00500
H  38.40500 48.18100 23.00400
H  36.55200 42.72300 25.43400
H  36.88700 42.57600 27.16500
H  38.12700 43.10700 26.05600
H  36.46700 46.36100 30.95800
H  33.29200 43.77200 31.77700
H  32.93200 45.15600 32.96700
H  34.03700 43.93900 33.44800

