158

Mg 40.15300 8.88200 30.33600
C  42.13800 10.07000 32.88600
C  38.21500 7.29200 32.64600
C  38.42600 7.29500 27.82200
C  42.65200 9.51800 27.95600
N  40.16700 8.80800 32.55300
C  41.05600 9.41400 33.43000
C  40.72700 9.24000 34.91300
C  39.56000 8.20300 34.78000
C  39.22700 8.09400 33.18800
C  39.74800 6.87800 35.57800
C  40.30500 10.56700 35.67600
C  41.20200 11.01800 36.80900
H  40.52900 11.62200 38.07100
N  38.40000 7.75300 30.26700
C  37.79100 7.23700 31.35100
C  36.57000 6.49800 30.90300
C  36.64400 6.44800 29.47700
C  37.85700 7.20300 29.13900
C  35.50000 6.01500 31.87200
C  35.74500 5.79500 28.51400
O  35.78400 5.96800 27.28700
C  34.69800 4.81900 29.11700
N  40.42500 8.53700 28.17600
C  39.60400 7.86600 27.34600
C  39.98700 7.94100 25.88200
C  41.48900 8.46900 26.00600
C  41.53000 8.87800 27.48600
C  39.94800 6.57900 25.02900
C  41.85000 9.56500 25.08100
C  41.31800 10.97300 25.35800
N  41.97700 9.63800 30.38100
C  42.87400 9.95200 29.32300
C  43.98000 10.64500 29.91300
C  43.66300 10.86800 31.29900
C  42.42000 10.19600 31.51600
C  45.27200 11.02200 29.24700
C  44.22900 11.29700 32.52100
O  45.24600 11.81600 32.83900
C  43.16000 10.98400 33.63800
C  43.95400 10.30200 34.65300
O  44.25300 9.10800 34.54800
O  44.33900 11.04400 35.76800
C  45.19600 10.45200 36.86400
H  37.47300 6.92800 33.36000
H  37.95400 6.65300 27.07500
H  43.48500 9.73500 27.28300
H  41.51100 8.75000 35.48900
H  38.59500 8.60600 35.08500
H  40.75300 6.85500 36.00100
H  39.54800 6.01900 34.93700
H  38.95600 6.95500 36.32300
H  39.30400 10.39600 36.07100
H  40.17600 11.31800 34.89700
H  41.93400 11.66100 36.32100
H  41.73400 10.09000 37.02000
H  35.40800 6.66300 32.74300
H  35.64900 5.00500 32.25400
H  34.55300 6.11000 31.34000
H  33.89400 5.42300 29.53700
H  35.14200 4.10700 29.81300
H  34.37500 4.09500 28.36900
H  39.35200 8.66200 25.36700
H  42.26500 7.70800 25.92400
H  39.48600 5.75400 25.57100
H  40.86700 6.25300 24.54200
H  39.32800 6.94500 24.21100
H  41.52400 9.24600 24.09100
H  42.93700 9.54000 25.00300
H  42.18700 11.49900 25.75300
H  40.45600 11.01300 26.02400
H  40.95000 11.45500 24.45200
H  45.29800 12.06300 28.92500
H  45.37900 10.46700 28.31500
H  46.11200 10.91200 29.93300
H  42.84900 11.98200 33.94800
H  45.07800 9.37100 36.79300
H  44.81000 10.77600 37.83100
H  46.27100 10.62900 36.82300
Mg -1.51300 34.17500 27.18700
C  -3.09000 32.43700 29.80700
C  -0.22800 36.33900 29.41900
C  -0.35600 35.95300 24.50900
C  -3.21500 31.88800 24.87500
N  -1.72000 34.39700 29.35700
C  -2.36200 33.62500 30.21400
C  -2.18800 34.03900 31.68900
C  -1.47800 35.41500 31.52400
C  -1.14200 35.42500 30.04000
C  -2.37700 36.59000 31.90600
C  -1.32700 33.03000 32.52400
C  -1.97100 32.44000 33.76800
H  -1.17500 32.52600 35.05100
N  -0.32000 35.85500 26.99000
C  0.15200 36.56200 28.05100
C  0.95900 37.64400 27.57300
C  0.90100 37.58700 26.11500
C  0.06800 36.46900 25.76700
C  1.85200 38.56700 28.35100
C  1.67500 38.55700 25.05800
O  1.52100 38.29100 23.87100
C  2.52000 39.71400 25.48600
N  -1.72900 33.90900 25.11600
C  -1.15700 34.85700 24.21400
C  -1.74600 34.62900 22.82900
C  -2.27900 33.14500 22.92500
C  -2.39200 32.88700 24.37400
C  -2.87000 35.64300 22.28200
C  -1.44300 32.07100 22.33000
C  -0.28500 31.42900 23.17600
N  -2.86600 32.45300 27.28600
C  -3.43500 31.67000 26.28300
C  -4.24900 30.62900 26.89500
C  -4.08000 30.83800 28.25800
C  -3.23200 31.94200 28.48000
C  -5.10600 29.67100 26.12700
C  -4.55200 30.48300 29.58600
O  -5.36200 29.65600 29.89900
C  -3.99500 31.52400 30.59300
C  -5.10000 32.31600 31.13000
O  -6.03400 32.90700 30.57000
O  -5.04700 32.15200 32.43400
C  -6.13100 32.76700 33.19700
H  0.12900 37.11600 30.09800
H  -0.05100 36.49600 23.61200
H  -3.80900 31.33100 24.14700
H  -3.15200 34.34100 32.09800
H  -0.52500 35.50700 32.04600
H  -3.24100 36.23300 32.46800
H  -2.63800 37.12600 30.99400
H  -1.86100 37.35500 32.48600
H  -0.40400 33.44600 32.92800
H  -1.00800 32.22000 31.86800
H  -2.24300 31.39200 33.64600
H  -2.91400 32.92400 34.01800
H  1.56600 38.25700 29.35700
H  1.64900 39.62100 28.16100
H  2.87800 38.43100 28.01100
H  3.41600 39.27600 25.92700
H  1.98100 40.37400 26.16600
H  2.83400 40.15500 24.54000
H  -0.93800 34.56700 22.10000
H  -3.26600 32.98000 22.49400
H  -2.38200 36.07800 21.41000
H  -3.03200 36.46700 22.97600
H  -3.78900 35.08800 22.09700
H  -0.84400 32.51800 21.53700
H  -2.10100 31.36200 21.82700
H  0.58400 31.32500 22.52600
H  -0.49500 30.41400 23.51300
H  -0.04400 31.96800 24.09200
H  -5.87400 30.21400 25.57600
H  -5.41400 28.80400 26.71000
H  -4.44000 29.38400 25.31300
H  -3.51400 30.98200 31.40700
H  -7.13800 32.43900 32.93900
H  -5.93600 33.82800 33.03800
H  -6.00700 32.43400 34.22700

