158

Mg 6.90700 56.82500 42.36200
C  5.97400 53.63900 42.02500
C  10.14800 55.95700 41.29900
C  7.68000 60.26100 41.79400
C  3.73700 57.74300 43.25400
N  7.90300 55.06400 41.73300
C  7.29800 53.86300 41.63100
C  8.21200 52.83900 41.05900
C  9.63200 53.43100 41.39900
C  9.24100 54.88200 41.62500
C  10.42000 52.80300 42.56300
C  7.94500 52.65700 39.51000
C  8.28200 51.25300 38.89800
H  7.54800 51.00700 37.51700
N  8.64400 57.94200 41.60900
C  9.83500 57.36700 41.28200
C  10.79700 58.40200 40.82900
C  10.14900 59.68900 41.10500
C  8.77100 59.34500 41.56700
C  12.19800 58.03700 40.33900
C  10.82100 60.98300 41.05400
O  12.02600 60.91500 40.73200
C  10.18700 62.31000 41.50500
N  5.84700 58.71400 42.53000
C  6.41800 59.96600 42.30500
C  5.32000 61.07300 42.39500
C  4.07900 60.27700 42.91500
C  4.59600 58.85100 42.97100
C  5.84100 62.18400 43.34500
C  2.78300 60.48300 42.12800
C  1.61100 60.52400 43.14000
N  5.21500 55.91800 42.68600
C  3.98400 56.35300 43.12400
C  3.14200 55.18900 43.32200
C  3.86900 54.06600 42.92500
C  5.11700 54.61800 42.54200
C  1.75300 55.24600 43.85100
C  3.85100 52.68200 42.72000
O  3.04800 51.82800 43.06800
C  5.28500 52.32800 42.21600
C  5.12300 51.44300 41.01100
O  4.70800 51.69300 39.94000
O  5.46400 50.17300 41.42100
C  5.04500 49.11700 40.52000
H  11.14300 55.55600 41.09500
H  7.90900 61.32800 41.77400
H  2.73600 58.09400 43.51600
H  8.10100 51.88600 41.57700
H  10.31300 53.37600 40.55000
H  10.89700 53.43700 43.31000
H  11.03200 52.02000 42.11600
H  9.70800 52.27800 43.20000
H  8.71600 53.13600 38.90600
H  6.97400 53.00400 39.15800
H  7.91200 50.42500 39.50200
H  9.32400 51.10700 38.61100
H  12.61000 58.73500 39.60900
H  12.09700 57.12400 39.75300
H  12.79700 57.83500 41.22600
H  9.86500 62.25200 42.54400
H  9.34600 62.51700 40.84400
H  10.90300 63.11700 41.34700
H  5.09400 61.46300 41.40300
H  3.95200 60.63000 43.93900
H  6.46800 62.92100 42.84300
H  6.37500 61.69700 44.16100
H  5.01600 62.64000 43.89200
H  2.63000 59.58200 41.53300
H  2.88400 61.34300 41.46700
H  0.88400 59.89600 42.62600
H  1.22500 61.54300 43.16700
H  1.81800 60.17300 44.15100
H  1.18500 55.53600 42.96700
H  1.60900 55.89600 44.71300
H  1.37400 54.26400 44.13300
H  5.86100 51.66300 42.86000
H  5.80700 49.11800 39.74100
H  4.06400 49.22100 40.05700
H  5.11400 48.18500 41.08200
Mg -5.27000 24.59100 26.55900
C  -3.64600 26.29900 29.22500
C  -6.39900 22.33300 28.84000
C  -6.58000 23.34900 23.97500
C  -3.32200 27.03200 24.40700
N  -5.10900 24.27100 28.74700
C  -4.49500 25.22800 29.61400
C  -4.82100 24.91700 31.07600
C  -5.37300 23.46000 30.93300
C  -5.69400 23.33300 29.43800
C  -4.41400 22.25600 31.36000
C  -5.76000 25.89600 31.72800
C  -5.48600 26.25000 33.19600
H  -5.53300 25.00600 34.03400
N  -6.41500 23.00500 26.43800
C  -6.81200 22.17600 27.43700
C  -7.55500 21.11100 26.76500
C  -7.62300 21.44600 25.41100
C  -6.87000 22.70100 25.21300
C  -7.94500 19.84900 27.54500
C  -8.29400 20.69900 24.25600
O  -8.34400 21.03100 23.02300
C  -9.18600 19.54900 24.64100
N  -4.87100 25.07400 24.51900
C  -5.64800 24.32600 23.65100
C  -5.45300 24.81000 22.22700
C  -4.51500 26.06500 22.37400
C  -4.22100 26.07200 23.87100
C  -4.94100 23.75200 21.21800
C  -5.14900 27.34100 21.77600
C  -4.30400 28.17500 20.83900
N  -3.66500 26.17600 26.76600
C  -3.08300 27.05400 25.80600
C  -2.26100 28.10100 26.42600
C  -2.51100 27.81700 27.79300
C  -3.27800 26.67200 27.92400
C  -1.58000 29.20600 25.78300
C  -2.20200 28.31600 29.05100
O  -1.51600 29.32100 29.33600
C  -2.83500 27.27600 30.05300
C  -1.74200 26.63300 30.72700
O  -0.96700 25.87900 30.21500
O  -1.80000 26.93900 32.03600
C  -0.80600 26.34800 33.03300
H  -6.86100 21.56800 29.46900
H  -7.06700 22.92900 23.09300
H  -2.90300 27.78000 23.73000
H  -3.85800 24.93900 31.58600
H  -6.25800 23.30400 31.55000
H  -4.50800 22.16400 32.44200
H  -3.36500 22.47200 31.15700
H  -4.66900 21.39600 30.74000
H  -6.77000 25.48900 31.74500
H  -5.86900 26.68500 30.98500
H  -6.22100 26.93700 33.61600
H  -4.48800 26.68300 33.25100
H  -9.02000 19.88200 27.72400
H  -7.42700 19.88500 28.50300
H  -7.57300 18.94800 27.05800
H  -8.53100 18.74300 24.97100
H  -9.71100 19.20800 23.74800
H  -9.83800 19.76700 25.48600
H  -6.41000 25.10400 21.79700
H  -3.57000 25.85700 21.87100
H  -3.94400 24.01800 20.86700
H  -5.70000 23.51400 20.47300
H  -4.81500 22.79300 21.72000
H  -5.37500 28.04200 22.58000
H  -6.12800 27.08600 21.36900
H  -3.28700 27.79800 20.95600
H  -4.34100 29.22000 21.14700
H  -4.69500 28.04500 19.83000
H  -2.10800 29.39600 24.84900
H  -0.55400 28.89500 25.58100
H  -1.48000 30.16700 26.28700
H  -3.50600 27.81600 30.72100
H  -0.13500 27.06200 33.51100
H  -0.24500 25.53000 32.58200
H  -1.43200 25.98900 33.85000

