158

Mg 17.02600 -1.60400 28.49600
C  15.93000 0.36400 31.20400
C  19.06300 -3.20400 30.67000
C  17.87100 -3.53200 25.89900
C  14.87900 0.28800 26.43100
N  17.54900 -1.40000 30.70000
C  16.95200 -0.53900 31.59400
C  17.59800 -0.78300 32.97200
C  18.78600 -1.75500 32.70200
C  18.47000 -2.09700 31.23500
C  20.20900 -1.17200 32.81900
C  16.41100 -1.22000 34.00400
C  16.44700 -0.50200 35.36500
H  17.72100 0.12900 35.89300
N  18.21300 -3.17300 28.29500
C  19.00900 -3.74400 29.34900
C  19.59200 -4.93100 28.81800
C  19.21000 -5.06300 27.42100
C  18.38800 -3.87200 27.12500
C  20.45800 -5.81400 29.65300
C  19.61600 -6.19200 26.43300
O  19.27700 -6.11800 25.25200
C  20.33700 -7.42200 26.92800
N  16.47500 -1.63500 26.38400
C  17.03300 -2.40600 25.51400
C  16.53200 -2.13000 24.08900
C  15.45900 -1.02300 24.34000
C  15.68700 -0.69900 25.78400
C  17.74800 -1.83400 23.08600
C  13.99400 -1.45300 24.14500
C  13.17100 -0.51900 23.28000
N  15.61900 -0.09900 28.71500
C  14.78100 0.52100 27.77500
C  13.95400 1.51000 28.40300
C  14.41900 1.59100 29.69000
C  15.42400 0.54300 29.87600
C  13.00500 2.41100 27.71300
C  14.19400 2.26900 31.03800
O  13.40800 3.21400 31.34800
C  15.17900 1.45500 32.01200
C  16.04700 2.45400 32.70200
O  16.58900 3.33400 32.10600
O  15.85000 2.33600 34.11200
C  16.34700 3.54800 34.77700
H  19.76500 -3.76600 31.28900
H  18.09600 -4.21700 25.08000
H  14.10300 0.78600 25.84600
H  18.07300 0.14900 33.27900
H  18.65700 -2.59600 33.38300
H  20.80600 -1.89900 33.37100
H  20.22700 -0.26700 33.42600
H  20.68700 -0.89800 31.87800
H  16.53200 -2.26400 34.29300
H  15.39200 -0.97600 33.70300
H  16.12700 -1.20100 36.13800
H  15.61900 0.20400 35.41600
H  20.42400 -6.88400 29.44400
H  20.30400 -5.69100 30.72500
H  21.47700 -5.45900 29.49900
H  19.73300 -8.03400 27.59800
H  21.30500 -7.16900 27.36100
H  20.59000 -7.93900 26.00300
H  16.10800 -3.02200 23.62700
H  15.73200 -0.22600 23.64800
H  17.60500 -0.89800 22.54500
H  18.00200 -2.63700 22.39400
H  18.62200 -1.53000 23.66100
H  13.51200 -1.47300 25.12300
H  13.85300 -2.47900 23.80700
H  12.55600 0.02500 23.99700
H  12.41000 -1.06800 22.72500
H  13.62800 0.11300 22.51900
H  12.40800 1.90600 26.95400
H  13.64700 3.11100 27.17800
H  12.29400 2.95700 28.33300
H  14.48800 0.93700 32.67800
H  17.42200 3.69300 34.66700
H  16.08600 3.53300 35.83500
H  15.87700 4.44400 34.37100
Mg 25.64700 1.82200 29.94400
C  27.81100 1.63800 32.84800
C  23.06200 2.16200 32.14300
C  23.72600 1.64100 27.37100
C  28.49700 1.38700 28.03200
N  25.48800 1.88700 32.22700
C  26.49200 1.93500 33.14800
C  25.94400 2.26300 34.58300
C  24.39800 2.23200 34.41300
C  24.30200 2.13200 32.84800
C  23.54200 1.20900 35.19000
C  26.55800 3.62600 35.17100
C  27.20100 3.46600 36.59300
H  26.64300 4.38300 37.64900
N  23.64400 1.88900 29.72900
C  22.71000 2.00300 30.76700
C  21.39500 1.95300 30.23600
C  21.52500 1.76000 28.81400
C  23.00300 1.73700 28.55700
C  20.17300 2.24000 31.09800
C  20.42500 1.54200 27.74700
O  20.88500 1.22400 26.65000
C  18.89300 1.61000 27.95400
N  26.03100 1.47000 27.98700
C  25.05900 1.51700 27.07000
C  25.60800 1.45800 25.68800
C  27.17600 1.45600 25.86400
C  27.25600 1.42600 27.34300
C  25.05100 0.33600 24.80200
C  27.91300 2.68300 25.17900
C  27.46400 2.92900 23.76300
N  27.80000 1.51200 30.29800
C  28.81000 1.28200 29.42400
C  30.08900 1.01100 30.13000
C  29.71000 1.23700 31.50400
C  28.36100 1.48300 31.56500
C  31.36200 0.59400 29.45400
C  30.26600 1.28800 32.76200
O  31.41400 1.01800 33.12700
C  29.12700 1.50900 33.71600
C  29.06600 0.36200 34.64700
O  28.25300 -0.54000 34.49200
O  29.86700 0.53900 35.77000
C  29.52300 -0.34500 36.92800
H  22.31000 2.48300 32.86700
H  23.12500 1.71000 26.46200
H  29.33800 1.38800 27.33500
H  26.31300 1.43800 35.19200
H  23.98900 3.22800 34.58400
H  23.28100 0.40900 34.49700
H  22.70200 1.66100 35.71600
H  23.98200 0.71900 36.05800
H  25.80000 4.40700 35.23500
H  27.29600 4.07100 34.50500
H  28.26100 3.67200 36.74000
H  26.88100 2.48800 36.95500
H  19.82900 1.45000 31.76600
H  19.41100 2.41000 30.33800
H  20.15800 3.15700 31.68700
H  18.35800 1.17000 27.11200
H  18.69400 2.67900 28.03000
H  18.53900 1.15100 28.87800
H  25.20900 2.35800 25.22000
H  27.53900 0.52900 25.41900
H  24.38800 -0.34100 25.34000
H  25.77800 -0.40100 24.46300
H  24.46200 0.76100 23.98800
H  28.99600 2.58100 25.10900
H  27.62300 3.48800 25.85500
H  26.89600 2.12300 23.29900
H  28.24500 3.12000 23.02800
H  26.76100 3.76000 23.82200
H  32.09100 1.39600 29.56400
H  31.11900 0.46600 28.39900
H  31.65500 -0.34100 29.93300
H  29.29800 2.39700 34.32500
H  28.67000 0.10500 37.43600
H  30.34600 -0.32600 37.64300
H  29.30500 -1.35300 36.57700

