158

Mg 40.96800 8.31000 29.69400
C  42.68700 9.87600 32.33300
C  38.85800 7.20400 32.04200
C  39.21800 6.81000 27.22600
C  43.51300 9.12800 27.54700
N  40.82800 8.42900 31.90500
C  41.59400 9.16500 32.76200
C  40.99800 9.15200 34.15600
C  39.95500 8.09600 34.10500
C  39.90100 7.89600 32.54400
C  40.15600 6.64800 34.84000
C  40.44100 10.57400 34.64800
C  39.76600 10.61500 36.04700
H  40.11900 11.65400 37.13600
N  39.26400 7.22600 29.60400
C  38.50900 6.89500 30.72300
C  37.37200 6.12600 30.30100
C  37.31600 6.20300 28.88100
C  38.64500 6.74100 28.48700
C  36.44100 5.42000 31.30600
C  36.33500 5.80000 27.89000
O  36.47100 6.05200 26.67300
C  35.14100 5.21100 28.31900
N  41.41700 7.79300 27.69800
C  40.48300 7.21000 26.88200
C  41.03500 7.20500 25.43500
C  42.43100 8.03200 25.53400
C  42.49700 8.27800 27.03600
C  41.07500 5.86300 24.68500
C  42.61600 9.24000 24.64400
C  42.04500 10.63200 25.12100
N  42.79700 9.24500 29.86500
C  43.68000 9.56400 28.91700
C  44.67000 10.41400 29.41600
C  44.29600 10.65700 30.77200
C  43.17700 9.87000 31.01100
C  45.79800 11.03300 28.66100
C  44.63200 11.33200 32.00500
O  45.59700 12.10600 32.24600
C  43.58800 10.87900 33.09500
C  44.29400 10.26200 34.21600
O  44.50500 9.03600 34.45200
O  44.57400 11.23000 35.15600
C  44.97200 10.72000 36.46900
H  38.18400 6.90300 32.84700
H  38.65100 6.28900 26.45200
H  44.16200 9.54600 26.77400
H  41.84900 8.81900 34.74900
H  38.99300 8.33200 34.55900
H  39.29800 6.44300 35.48000
H  41.01000 6.78900 35.50200
H  40.30300 5.82500 34.14000
H  39.82500 10.88500 33.80500
H  41.35200 11.15000 34.81300
H  39.85300 9.61700 36.47700
H  38.70700 10.81300 35.88000
H  35.57800 4.87400 30.92500
H  36.09600 6.08600 32.09700
H  37.08900 4.69300 31.79700
H  34.72600 6.01400 28.92900
H  35.30800 4.22700 28.75800
H  34.55600 5.01500 27.42100
H  40.37200 7.91700 24.94300
H  43.26600 7.36800 25.31200
H  41.09100 5.04900 25.40900
H  42.00300 5.80200 24.11500
H  40.19100 5.72300 24.06200
H  42.14900 8.88000 23.72800
H  43.69400 9.36400 24.53600
H  41.71100 10.65800 26.15800
H  41.13900 10.91400 24.58500
H  42.82100 11.39700 25.10100
H  45.47100 11.99000 28.25400
H  46.21200 10.43100 27.85200
H  46.55200 11.31000 29.39700
H  43.08500 11.81800 33.32300
H  44.56400 11.32500 37.27800
H  46.04500 10.60100 36.61800
H  44.73200 9.68000 36.69000
Mg 36.19100 49.49100 25.60600
C  36.42600 47.53100 28.73100
C  35.05200 52.03700 27.42800
C  35.70700 50.99600 22.74800
C  36.85300 46.43900 23.94700
N  35.78500 49.66100 27.85300
C  36.04900 48.83600 28.93100
C  35.94900 49.58500 30.28400
C  35.33500 50.89300 29.78800
C  35.34300 50.92100 28.25200
C  33.86900 51.22700 30.22700
C  37.42100 49.76800 31.05500
C  37.56400 49.71900 32.59900
H  36.44500 49.95300 33.59100
N  35.47900 51.28100 25.09100
C  35.05800 52.22700 26.03300
C  34.78200 53.46300 25.32400
C  35.20500 53.26700 23.95900
C  35.50300 51.81800 23.87300
C  34.15800 54.58400 26.00000
C  35.26900 54.19400 22.69800
O  35.55600 53.71200 21.60400
C  35.04200 55.73200 22.81700
N  36.37500 48.79400 23.62600
C  35.97300 49.64000 22.58900
C  36.19600 48.91500 21.15200
C  36.80400 47.54100 21.61400
C  36.73500 47.59700 23.19800
C  34.87400 48.97800 20.25800
C  38.24200 47.20700 21.08100
C  38.34500 45.88100 20.24000
N  36.59200 47.40100 26.13100
C  36.81600 46.32500 25.38300
C  37.06800 45.12100 26.08000
C  36.97900 45.56300 27.45500
C  36.63200 46.94300 27.42600
C  37.47300 43.80400 25.60700
C  37.07100 45.20100 28.86700
O  37.38200 44.09000 29.40200
C  36.77900 46.44700 29.69700
C  35.75600 46.10100 30.70200
O  34.56000 46.08300 30.50900
O  36.36100 46.01800 31.91200
C  35.43300 46.05500 33.06600
H  34.93700 52.98100 27.96500
H  35.69200 51.42000 21.74200
H  37.05200 45.47500 23.47500
H  35.29100 49.06500 30.98100
H  35.88000 51.76500 30.15000
H  33.21600 51.48200 29.39200
H  33.94700 52.09800 30.87700
H  33.43100 50.41700 30.81100
H  37.87300 50.63200 30.56700
H  38.07900 49.03500 30.58900
H  38.42400 50.36900 32.76000
H  37.95100 48.73300 32.85800
H  33.67200 55.26400 25.30100
H  35.01000 55.05700 26.48700
H  33.49100 54.23800 26.79100
H  35.45700 55.99500 23.79000
H  33.96400 55.89100 22.85100
H  35.52900 56.19600 21.96000
H  36.99300 49.52000 20.72000
H  36.21300 46.75200 21.15000
H  34.44300 48.04300 19.89800
H  34.96500 49.53700 19.32700
H  34.16200 49.60900 20.79000
H  38.91500 47.16100 21.93700
H  38.55500 48.07700 20.50400
H  38.89000 46.13100 19.33000
H  37.39900 45.41300 19.96900
H  38.86700 45.18700 20.89900
H  36.60200 43.36500 25.12100
H  37.79600 43.24900 26.48800
H  38.27100 43.77300 24.86500
H  37.67600 46.75000 30.23800
H  35.05500 45.03500 33.12200
H  34.60700 46.74100 32.87800
H  35.88400 46.25100 34.03900

