158

Mg 36.17800 48.42100 26.55300
C  36.40600 46.26900 29.40200
C  34.47400 50.68400 28.48300
C  35.46800 50.11500 23.69200
C  37.09600 45.62200 24.62300
N  35.36300 48.31600 28.61500
C  35.64600 47.46800 29.67900
C  35.36700 48.14500 31.06100
C  34.46800 49.39000 30.62500
C  34.76400 49.50500 29.12300
C  32.92700 49.24700 30.97200
C  36.74900 48.54700 31.78300
C  36.78500 48.33400 33.28900
H  36.52200 49.55600 34.12900
N  35.31100 50.25100 26.16700
C  34.64000 50.98100 27.11800
C  34.12000 52.16700 26.39500
C  34.39800 51.97500 25.05300
C  35.09300 50.73100 24.94300
C  33.45800 53.35600 27.12500
C  34.04000 52.92900 23.80600
O  34.28600 52.63900 22.64200
C  33.23000 54.16300 23.98200
N  36.27700 47.92400 24.39200
C  35.98100 48.85600 23.44600
C  36.05500 48.19600 22.05100
C  36.92900 46.88100 22.36700
C  36.79600 46.77400 23.92200
C  34.64700 47.95700 21.44900
C  38.36900 46.80500 21.80200
C  38.55800 45.84300 20.70500
N  36.76500 46.43000 26.82400
C  37.14800 45.35100 25.96000
C  37.51900 44.19900 26.62200
C  37.37700 44.50200 27.98600
C  36.85600 45.86200 28.09000
C  37.97600 42.91600 26.10200
C  37.51600 44.04200 29.37800
O  37.84700 42.94300 29.68500
C  37.07000 45.23900 30.31800
C  36.12300 44.72200 31.34100
O  34.95300 44.47000 31.10600
O  36.65400 44.73600 32.64700
C  35.55900 44.50100 33.66000
H  33.97500 51.44000 29.09200
H  35.06200 50.49000 22.75000
H  37.45300 44.82300 23.96900
H  34.76400 47.40100 31.58200
H  34.79900 50.28800 31.14500
H  32.70700 48.23800 31.32200
H  32.39500 49.38600 30.03100
H  32.57200 49.97600 31.70100
H  37.05100 49.57000 31.56200
H  37.49700 47.91700 31.30100
H  37.74500 47.88900 33.55300
H  36.06300 47.59200 33.63100
H  33.91100 54.31200 26.86200
H  33.49800 53.23400 28.20800
H  32.41200 53.31900 26.82200
H  32.36600 53.93300 24.60500
H  32.91200 54.57600 23.02500
H  33.75000 54.94200 24.53800
H  36.65400 48.79200 21.36200
H  36.45500 45.94000 22.08400
H  34.55500 48.26300 20.40700
H  33.93000 48.50700 22.05800
H  34.36500 46.90400 21.43200
H  39.16200 46.55200 22.50600
H  38.68400 47.79400 21.46900
H  39.59400 45.50700 20.76400
H  38.47600 46.35800 19.74800
H  37.89900 44.98300 20.82800
H  38.66600 42.36200 26.73700
H  38.46700 43.04900 25.13800
H  37.09500 42.27700 26.03900
H  38.00600 45.68600 30.65400
H  34.68600 45.13900 33.80000
H  36.03500 44.31400 34.62300
H  35.06000 43.55800 33.43600
Mg 9.42500 48.45300 24.64000
C  7.33800 48.70100 27.46500
C  11.94600 49.75800 26.66500
C  11.48500 48.30100 22.01500
C  6.69800 47.57400 22.71900
N  9.54500 49.24600 26.74500
C  8.58000 49.26600 27.69900
C  9.06900 49.79300 29.04200
C  10.37900 50.60000 28.57500
C  10.69200 49.86900 27.21400
C  10.29700 52.09000 28.44000
C  9.34600 48.63900 30.00300
C  8.83700 48.77900 31.48100
H  8.93300 47.53600 32.33200
N  11.46400 48.95000 24.36100
C  12.35400 49.37400 25.33200
C  13.70000 49.38800 24.72700
C  13.53800 48.89300 23.41300
C  12.08300 48.74400 23.18400
C  15.02600 49.79200 25.41400
C  14.63100 48.36900 22.46600
O  14.36300 47.66400 21.44900
C  16.07200 48.53500 22.70200
N  9.08200 48.15100 22.58000
C  10.12800 48.04600 21.71900
C  9.72800 47.39700 20.42400
C  8.21400 47.26600 20.57600
C  7.91300 47.73600 22.04800
C  10.02000 48.18600 19.17200
C  7.86500 45.75900 20.48400
C  8.32100 44.80400 21.57900
N  7.42200 48.14900 25.02100
C  6.42200 47.78300 24.11800
C  5.23800 47.62200 24.79000
C  5.59200 47.89900 26.13000
C  6.89200 48.24400 26.24500
C  3.82000 47.35000 24.22000
C  5.00800 47.98900 27.47900
O  3.86000 47.75200 27.80100
C  6.17600 48.37300 28.44400
C  6.40400 47.16900 29.30000
O  7.04800 46.20400 28.97000
O  5.73400 47.27400 30.47100
C  5.50600 46.03200 31.31100
H  12.69300 50.22400 27.31100
H  12.12400 48.05700 21.16300
H  5.86400 47.27200 22.08200
H  8.36200 50.49300 29.48800
H  11.16500 50.40900 29.30600
H  10.54500 52.52400 27.47100
H  11.07500 52.43500 29.12000
H  9.37900 52.61700 28.70300
H  10.42100 48.48200 30.09700
H  8.95700 47.67000 29.68800
H  7.80400 49.12700 31.48900
H  9.56200 49.48600 31.88400
H  14.78800 50.18400 26.40200
H  15.62600 50.54600 24.90400
H  15.53700 48.84200 25.57200
H  16.45400 49.46800 23.11600
H  16.58500 48.24000 21.78600
H  16.33900 47.82900 23.48800
H  10.27800 46.45800 20.49100
H  7.73400 47.85400 19.79400
H  10.34600 49.20600 19.37400
H  9.13100 48.21700 18.54300
H  10.91100 47.83200 18.65200
H  8.27300 45.39200 19.54300
H  6.79100 45.69800 20.30900
H  8.54800 45.32700 22.50800
H  9.18700 44.25700 21.20500
H  7.54900 44.05500 21.75500
H  4.04600 46.68200 23.38800
H  3.35200 48.27600 23.88700
H  3.16900 46.85100 24.93700
H  5.87300 49.25600 29.00500
H  5.95700 46.20200 32.28800
H  5.97800 45.16700 30.84600
H  4.45200 45.75400 31.32800

