158

Mg 49.40500 45.20800 43.01100
C  45.93200 45.09700 42.45900
C  49.40900 41.78300 42.68300
C  52.69400 45.32600 43.21600
C  49.10900 48.71300 43.04500
N  47.81200 43.65500 42.62200
C  46.49900 43.85100 42.41600
C  45.67200 42.53600 42.16700
C  46.88200 41.48100 42.43000
C  48.13000 42.33500 42.61500
C  46.61400 40.49600 43.60800
C  45.01100 42.41700 40.73100
C  45.67500 43.00600 39.48800
H  45.77000 42.27700 38.16800
N  50.87000 43.72100 42.97200
C  50.68900 42.42200 42.88000
C  51.93000 41.69600 42.92000
C  52.91300 42.73500 42.99100
C  52.21100 44.00900 43.05200
C  52.06100 40.19000 42.84000
C  54.43600 42.48700 42.99700
O  54.96300 41.37700 43.09800
C  55.50200 43.60900 42.99500
N  50.76600 46.77900 43.08600
C  52.09700 46.61700 43.18100
C  52.76800 47.92800 43.44400
C  51.69700 49.03100 43.07000
C  50.44800 48.11600 43.04900
C  53.33900 48.04200 44.85800
C  51.87800 49.77000 41.71400
C  51.25900 51.20600 41.77500
N  47.88000 46.68300 42.77700
C  47.91400 48.06700 42.86800
C  46.65000 48.60400 42.60500
C  45.81300 47.52800 42.48800
C  46.59300 46.35100 42.58800
C  46.28900 50.01700 42.38900
C  44.45100 47.17600 42.19200
O  43.46600 47.82200 41.89200
C  44.47400 45.54500 42.16800
C  43.35400 44.93500 42.94700
O  42.67300 44.01800 42.50800
O  43.20800 45.51100 44.19800
C  42.11400 44.92900 44.92200
H  49.58300 40.70600 42.69700
H  53.75300 45.32800 43.48100
H  49.04900 49.80400 43.02900
H  44.82500 42.44400 42.84600
H  47.03600 40.92800 41.50300
H  45.54300 40.63000 43.75900
H  47.13300 40.74000 44.53500
H  46.74200 39.46400 43.28200
H  43.95400 42.68200 40.76400
H  44.91800 41.34100 40.57900
H  46.64800 43.37300 39.81500
H  45.18500 43.95200 39.26000
H  53.09200 39.88600 42.65700
H  51.46500 39.73900 42.04600
H  51.73100 39.66700 43.73700
H  55.23600 44.34200 42.23400
H  56.45800 43.18000 42.69300
H  55.63300 44.00900 44.00100
H  53.57900 47.91000 42.71500
H  51.66000 49.81200 43.82900
H  52.81200 48.76700 45.47900
H  54.35900 48.42400 44.81000
H  53.31500 47.03700 45.28000
H  51.43800 49.16100 40.92400
H  52.95200 49.72800 41.53200
H  50.85000 51.59200 40.84100
H  51.98800 51.94300 42.11100
H  50.48300 51.20100 42.54100
H  46.33100 50.62400 43.29300
H  45.34700 50.14100 41.85400
H  47.08300 50.39100 41.74300
H  44.19100 45.29500 41.14600
H  42.06900 45.29300 45.94800
H  42.13800 43.84200 44.84200
H  41.17300 45.22200 44.45600
Mg 10.08200 47.30300 25.42300
C  8.17100 47.30900 28.38200
C  12.55400 48.97500 27.14200
C  11.86900 47.06500 22.66300
C  7.11900 46.60300 23.69400
N  10.33000 47.92500 27.60900
C  9.47400 47.81300 28.62400
C  9.95500 48.48200 29.90300
C  11.12700 49.39600 29.31700
C  11.35100 48.76600 27.90400
C  10.85000 50.90700 29.24200
C  10.54800 47.37300 30.91600
C  10.30200 47.34100 32.43500
H  10.51000 45.98700 33.26000
N  12.01200 47.92000 24.98300
C  12.92800 48.46700 25.85200
C  14.19600 48.49200 25.16900
C  14.01400 47.87300 23.90700
C  12.57100 47.59600 23.76700
C  15.43400 48.82900 25.81800
C  14.98400 47.63600 22.76100
O  14.61800 47.29100 21.68700
C  16.38900 47.99300 22.95200
N  9.52700 47.08000 23.43000
C  10.46900 47.00800 22.46200
C  9.92100 46.47300 21.17400
C  8.42400 46.30200 21.49700
C  8.32300 46.70800 22.91300
C  10.13900 47.38400 19.90400
C  7.77800 44.90900 21.20500
C  6.35400 45.04700 20.58800
N  8.06300 46.90000 25.87100
C  7.01000 46.62000 25.07300
C  5.81800 46.40200 25.84200
C  6.25000 46.59200 27.17900
C  7.59600 46.96000 27.12800
C  4.49500 46.13700 25.31800
C  5.80100 46.56200 28.57100
O  4.70000 46.25100 29.05900
C  7.04000 46.99500 29.43500
C  7.41600 45.87900 30.38000
O  8.21300 44.96200 30.14800
O  6.77300 46.04900 31.60200
C  6.93600 44.99400 32.57500
H  13.35700 49.48400 27.68000
H  12.43700 46.69200 21.80900
H  6.16500 46.34100 23.23300
H  9.09600 49.01300 30.31300
H  12.03800 49.42300 29.91500
H  9.83400 51.03700 29.61700
H  10.93100 51.11900 28.17600
H  11.44500 51.55200 29.88900
H  11.63700 47.36700 30.85500
H  10.31200 46.37400 30.54900
H  9.23300 47.52800 32.54300
H  10.77700 48.20400 32.90100
H  16.12800 47.99000 25.87400
H  15.26900 49.19300 26.83200
H  15.86700 49.74000 25.40500
H  16.88100 47.19300 23.50400
H  16.50600 48.95700 23.44700
H  16.80600 47.95800 21.94600
H  10.44400 45.55800 20.89500
H  7.86200 47.05500 20.94400
H  10.46500 48.38400 20.18900
H  9.23100 47.57300 19.33200
H  10.98300 47.05900 19.29500
H  7.90900 44.31700 22.11100
H  8.35100 44.41100 20.42400
H  5.65100 44.26700 20.88000
H  6.26400 44.92200 19.50900
H  5.89200 46.02200 20.74200
H  4.63600 45.73400 24.31500
H  3.96200 47.08800 25.30900
H  4.02100 45.37900 25.94200
H  6.70200 47.84400 30.02900
H  7.14200 45.28600 33.60500
H  7.77500 44.31100 32.44500
H  6.00500 44.43400 32.65500

