158

Mg 16.15300 52.44100 26.05100
C  18.13200 51.03000 28.71100
C  13.77300 53.18700 28.30200
C  14.16200 53.32300 23.47100
C  18.34400 50.68600 23.87100
N  15.98100 52.09200 28.28800
C  16.93600 51.66400 29.13600
C  16.45900 51.84900 30.56400
C  15.01200 52.43600 30.48900
C  14.85700 52.54400 28.94600
C  13.86000 51.59000 31.19500
C  17.37800 52.88100 31.39800
C  17.29300 52.76900 32.92100
H  16.21300 51.98800 33.62400
N  14.34600 53.35400 25.89500
C  13.49100 53.64800 26.95600
C  12.44800 54.52100 26.49200
C  12.48200 54.46700 25.03500
C  13.66700 53.69100 24.73200
C  11.31900 55.06600 27.39000
C  11.53500 55.11700 24.08400
O  11.63700 54.95100 22.88100
C  10.42900 56.02800 24.55400
N  16.22600 51.99900 23.99300
C  15.33100 52.52800 23.15400
C  15.67800 52.02900 21.66800
C  17.19400 51.66800 21.78200
C  17.29500 51.40200 23.31200
C  14.67600 50.84300 21.36100
C  18.13900 52.78200 21.27500
C  19.53200 52.37000 20.64900
N  17.94600 51.15600 26.17000
C  18.71900 50.58200 25.20300
C  19.82400 49.90800 25.79100
C  19.70900 50.13200 27.15400
C  18.47800 50.84500 27.39000
C  20.91800 49.24600 24.99500
C  20.39400 49.97600 28.51000
O  21.54200 49.53900 28.73700
C  19.37500 50.58200 29.57300
C  18.90400 49.50700 30.50900
O  18.26400 48.54600 30.13800
O  19.25700 49.78800 31.83200
C  18.85000 48.82700 32.88100
H  12.99300 53.47200 29.01100
H  13.58100 53.55500 22.57500
H  18.90000 50.13200 23.11200
H  16.40700 50.88400 31.06900
H  15.10300 53.45500 30.86600
H  13.44900 51.92900 32.14600
H  14.26500 50.63000 31.51400
H  12.98500 51.46100 30.55800
H  17.09900 53.85700 31.00000
H  18.42400 52.77800 31.11000
H  17.18800 53.77900 33.31800
H  18.24300 52.30700 33.18700
H  11.35400 54.58200 28.36600
H  10.37600 54.83000 26.89800
H  11.28400 56.13600 27.59900
H  10.10600 56.60600 23.68900
H  10.68700 56.75400 25.32500
H  9.57900 55.44600 24.91100
H  15.56900 52.87600 20.99000
H  17.30000 50.69700 21.30000
H  13.99400 50.70700 22.20100
H  15.20200 49.90100 21.20700
H  14.17400 51.05500 20.41700
H  18.36900 53.57200 21.99000
H  17.51200 53.24100 20.51000
H  20.29600 52.96500 21.15100
H  19.55800 52.52000 19.57000
H  19.72100 51.32500 20.89200
H  21.72100 49.17700 25.72900
H  21.06500 49.71000 24.02000
H  20.57200 48.23800 24.76400
H  19.93200 51.35100 30.10900
H  18.32300 47.95500 32.49300
H  18.19500 49.34400 33.58200
H  19.71100 48.42500 33.41600
Mg -0.23800 44.63400 25.58200
C  1.59600 43.92100 28.34700
C  -2.87000 42.87800 26.94400
C  -1.66300 44.60700 22.56400
C  2.65300 45.97300 24.13500
N  -0.49000 43.18000 27.36900
C  0.24900 43.43000 28.44500
C  -0.47900 42.98200 29.77300
C  -1.83800 42.45000 29.15400
C  -1.78600 42.84300 27.69300
C  -2.07000 40.84900 29.33100
C  -0.73400 44.22800 30.76400
C  -0.88000 43.82300 32.27500
H  -1.46900 42.42900 32.67400
N  -2.07300 43.87400 24.86600
C  -3.00400 43.22200 25.60400
C  -4.21200 43.17700 24.76300
C  -3.89600 43.74000 23.49100
C  -2.47500 44.12200 23.57500
C  -5.54900 42.49200 25.21500
C  -4.77100 43.97600 22.23800
O  -4.32900 44.31800 21.15800
C  -6.26600 43.71600 22.26900
N  0.28800 45.38600 23.73800
C  -0.40700 45.26900 22.60300
C  0.14500 46.06200 21.45500
C  1.34900 46.69200 22.09500
C  1.47300 45.95000 23.41300
C  0.43200 45.17400 20.18500
C  1.24900 48.17500 22.48200
C  0.26500 49.07300 21.74200
N  1.75400 44.86000 26.03200
C  2.82900 45.36000 25.36300
C  3.98300 45.34900 26.17000
C  3.61200 44.77000 27.37900
C  2.19700 44.48600 27.22000
C  5.40200 45.87500 25.75200
C  4.03400 44.30600 28.64100
O  5.10000 44.26600 29.24500
C  2.71000 43.89200 29.33500
C  2.86100 42.50300 29.94000
O  3.33900 41.48700 29.40500
O  2.40700 42.57800 31.24100
C  2.51400 41.26000 31.96600
H  -3.72300 42.49600 27.50900
H  -2.06700 44.60200 21.54900
H  3.40100 46.60700 23.65400
H  0.09300 42.24700 30.33800
H  -2.78700 42.84500 29.51700
H  -3.01800 40.58300 29.79900
H  -1.46300 40.33500 30.07600
H  -1.78300 40.32900 28.41700
H  -1.72000 44.53600 30.41500
H  0.04300 44.98400 30.65400
H  -1.51300 44.52700 32.81600
H  0.12500 43.91100 32.68700
H  -6.33600 43.24100 25.12800
H  -5.46700 42.15000 26.24700
H  -5.62100 41.58800 24.61000
H  -6.79800 44.04900 21.37800
H  -6.64300 44.28500 23.12000
H  -6.47000 42.66500 22.47100
H  -0.67500 46.77800 21.39000
H  2.29500 46.57200 21.56800
H  0.20900 44.13800 20.44000
H  1.50400 45.22100 19.98900
H  -0.13600 45.48100 19.30700
H  2.19900 48.68000 22.30800
H  1.06600 48.22000 23.55600
H  0.14400 48.69900 20.72500
H  0.75600 50.04500 21.71000
H  -0.68900 49.09700 22.27000
H  5.81100 45.43500 24.84300
H  6.08500 45.73800 26.59100
H  5.28200 46.94100 25.55900
H  2.54100 44.67000 30.08000
H  2.15700 40.42500 31.36300
H  2.11300 41.22600 32.97900
H  3.59000 41.11900 32.07000

