158

Mg 44.14000 3.40300 47.50700
C  41.71400 5.88000 46.76300
C  41.55000 1.12200 47.19000
C  46.47800 0.95200 47.56800
C  46.57300 5.71200 46.76700
N  41.88600 3.57700 47.20300
C  41.09900 4.67400 46.91800
C  39.69200 4.28900 46.50100
C  39.64700 2.91400 47.21000
C  41.12200 2.48600 47.14100
C  39.08600 2.81200 48.60300
C  39.47100 4.32400 44.97600
C  38.31700 5.15900 44.41100
H  38.61700 6.41700 43.61300
N  44.06100 1.26600 47.40600
C  42.89000 0.50200 47.32800
C  43.28900 -0.82900 47.49000
C  44.72000 -0.90000 47.63600
C  45.17500 0.46600 47.53600
C  42.37600 -1.94500 47.34800
C  45.62900 -2.16000 47.65600
O  45.10600 -3.27100 47.65700
C  47.08400 -2.12600 47.52300
N  46.22900 3.35000 47.04200
C  47.00500 2.28000 47.25100
C  48.47700 2.60900 47.28400
C  48.52100 4.08100 46.97800
C  47.03800 4.42900 46.94500
C  49.12700 2.30000 48.65700
C  49.34200 4.61000 45.75200
C  50.75500 5.15800 46.02500
N  44.15500 5.45900 47.01500
C  45.25900 6.25200 46.76200
C  44.78000 7.59700 46.66600
C  43.40700 7.49400 46.61800
C  43.08500 6.18500 46.81500
C  45.55700 8.89500 46.45600
C  42.11000 8.26500 46.54800
O  41.82200 9.45500 46.59000
C  41.03600 7.16400 46.59600
C  40.08100 7.37000 47.68300
O  40.42100 7.40700 48.86900
O  38.74800 7.53600 47.28300
C  37.81300 7.56900 48.40100
H  40.74300 0.39500 47.08000
H  47.31000 0.28500 47.80100
H  47.38700 6.43900 46.71700
H  38.98500 5.03800 46.85800
H  39.16500 2.14000 46.61200
H  38.50500 3.66300 48.95800
H  39.90400 2.63800 49.30200
H  38.45500 1.92400 48.65900
H  39.19600 3.30400 44.70600
H  40.38100 4.48900 44.39900
H  37.64300 5.47600 45.20700
H  37.83000 4.37500 43.83100
H  41.39900 -1.66600 46.95300
H  42.15600 -2.44600 48.29100
H  42.77900 -2.74400 46.72600
H  47.49000 -1.46800 46.75500
H  47.53000 -3.12000 47.46900
H  47.39700 -1.78900 48.51100
H  49.06000 2.04600 46.55500
H  48.77800 4.67000 47.85800
H  48.37500 2.25300 49.44400
H  49.88100 3.07600 48.78900
H  49.78800 1.43600 48.59100
H  48.80700 5.16400 44.98100
H  49.53400 3.65000 45.27200
H  50.77900 5.16600 47.11500
H  50.92400 6.14600 45.59800
H  51.54400 4.47700 45.70800
H  46.31600 9.02300 47.22800
H  44.99100 9.81100 46.62300
H  46.17300 8.93400 45.55800
H  40.53900 7.21500 45.62800
H  37.62000 8.61000 48.65700
H  38.10500 6.94100 49.24300
H  36.85900 7.16700 48.05800
Mg 9.82200 48.87300 25.65000
C  7.90200 49.29600 28.64500
C  12.44800 50.22400 27.45400
C  11.65200 48.53500 23.00600
C  6.91300 47.85000 24.10100
N  10.05600 49.69300 27.75300
C  9.17600 49.73100 28.80000
C  9.81000 50.21100 30.09900
C  11.15600 50.77800 29.60800
C  11.25100 50.18900 28.15100
C  11.27100 52.31300 29.50000
C  10.07100 49.05100 31.14500
C  9.47600 49.21200 32.48300
H  10.42200 49.88000 33.46800
N  11.81100 49.32700 25.26900
C  12.77700 49.76200 26.11300
C  14.07900 49.76900 25.48600
C  13.81600 49.36600 24.12600
C  12.34900 49.06400 24.11600
C  15.32300 50.31000 26.14200
C  14.82800 49.25900 22.97900
O  14.56800 48.94100 21.85800
C  16.25200 49.39300 23.34600
N  9.31100 48.51600 23.76000
C  10.26300 48.38600 22.80900
C  9.71200 47.81000 21.51300
C  8.24500 47.59100 21.91700
C  8.14400 47.96400 23.37000
C  9.86300 48.85800 20.38000
C  7.77000 46.13600 21.72500
C  8.41500 45.13600 22.65700
N  7.76800 48.68800 26.16800
C  6.71100 48.32900 25.42700
C  5.45400 48.45200 26.19800
C  5.93100 48.75300 27.45700
C  7.32100 48.91500 27.41800
C  4.02100 48.22400 25.78600
C  5.50000 49.01100 28.79500
O  4.37000 49.12500 29.21300
C  6.76800 49.22000 29.68500
C  6.93500 48.07300 30.55900
O  7.34600 47.00500 30.19100
O  6.41000 48.41700 31.77600
C  6.28600 47.32400 32.69300
H  13.25700 50.58400 28.09400
H  12.35700 48.23000 22.22900
H  6.01000 47.38000 23.70600
H  9.08500 50.93000 30.48000
H  11.90500 50.37200 30.28700
H  12.16800 52.50100 28.91000
H  11.44700 52.67200 30.51400
H  10.39800 52.75800 29.02300
H  11.13800 48.84800 31.23100
H  9.79800 48.12600 30.63700
H  9.05600 48.23500 32.71800
H  8.58300 49.83700 32.49500
H  15.15500 50.59400 27.18100
H  15.73400 51.12400 25.54400
H  16.02900 49.48300 26.22900
H  16.44500 50.43400 23.60800
H  16.90900 49.34200 22.47800
H  16.57600 48.62800 24.05200
H  10.24000 46.91300 21.18800
H  7.56300 48.29400 21.43900
H  10.16800 49.82200 20.78800
H  8.95100 49.06000 19.81900
H  10.53100 48.39300 19.65600
H  7.99300 45.81600 20.70700
H  6.69500 46.05100 21.88000
H  9.21300 45.64300 23.20000
H  8.83500 44.34700 22.03300
H  7.72500 44.81200 23.43700
H  3.70200 48.91400 25.00500
H  3.55000 48.60100 26.69400
H  3.88500 47.16400 25.57200
H  6.63500 50.16300 30.21600
H  5.92100 47.78900 33.60900
H  7.22800 46.83200 32.93400
H  5.52900 46.69700 32.22100

