158

Mg -0.40100 7.87700 26.39400
C  0.51500 10.17900 28.87600
C  -0.20400 5.43200 28.85300
C  -1.20000 5.78300 24.04700
C  -0.22900 10.63500 24.08100
N  -0.02100 7.93600 28.62000
C  0.17100 8.93600 29.47200
C  0.28600 8.50200 30.91600
C  0.30300 6.97000 30.80700
C  0.03100 6.74000 29.29300
C  1.59200 6.23600 31.29200
C  -0.79000 9.09900 31.94000
C  -0.18700 9.33200 33.39000
H  0.74400 8.36900 34.09600
N  -0.70300 5.83900 26.46600
C  -0.57900 5.01100 27.54700
C  -0.75300 3.65200 27.11500
C  -0.96100 3.63600 25.69300
C  -1.03700 5.10600 25.29700
C  -0.58500 2.35300 28.00900
C  -1.18100 2.49900 24.72900
O  -1.60200 2.83000 23.61600
C  -0.97100 1.06300 25.06500
N  -0.48300 8.08000 24.29600
C  -0.96600 7.10100 23.58000
C  -1.36800 7.60800 22.14000
C  -1.10400 9.14900 22.13400
C  -0.62800 9.31600 23.60800
C  -0.74100 6.83300 20.94900
C  -2.28800 10.01800 21.63700
C  -3.38300 10.45400 22.58400
N  0.23000 9.92800 26.37700
C  0.10800 10.92200 25.46200
C  0.54600 12.19700 26.02100
C  0.81600 11.90200 27.34000
C  0.58800 10.53200 27.48500
C  0.65500 13.53300 25.34800
C  1.30700 12.44000 28.56400
O  1.80600 13.53100 28.74500
C  1.02800 11.42900 29.65500
C  2.33500 11.15700 30.32700
O  3.22600 10.56800 29.77100
O  2.36100 11.58000 31.66700
C  3.55300 11.31500 32.50200
H  -0.21900 4.70800 29.67000
H  -1.58300 5.21700 23.19500
H  -0.16500 11.47600 23.38700
H  1.24000 8.93500 31.21500
H  -0.47800 6.50500 31.40800
H  1.31600 5.55700 32.09900
H  2.28600 7.01700 31.60100
H  2.01100 5.55000 30.55600
H  -1.66400 8.45100 31.99700
H  -1.14600 10.03000 31.49800
H  -1.06200 9.34900 34.04000
H  0.35800 10.27300 33.47000
H  -1.47500 1.91800 28.46400
H  0.01300 2.63200 28.87600
H  0.05500 1.69900 27.41700
H  -1.71400 0.75800 25.80200
H  0.05700 1.00000 25.42000
H  -1.23700 0.50600 24.16600
H  -2.40000 7.38100 21.87100
H  -0.19800 9.38600 21.57600
H  -0.45600 7.31100 20.01200
H  -1.46700 6.11400 20.57100
H  0.09100 6.22000 21.29600
H  -2.81300 9.40400 20.90500
H  -1.96100 10.95000 21.17500
H  -4.36000 10.24500 22.14900
H  -3.27600 11.47900 22.93900
H  -3.25300 9.84400 23.47700
H  -0.35700 13.92600 25.25600
H  1.12800 13.43500 24.37000
H  1.25800 14.20500 25.95800
H  0.35700 11.90400 30.37200
H  4.18000 10.45100 32.28300
H  3.29400 11.30000 33.56100
H  4.13700 12.22100 32.33900
Mg -12.59100 16.80400 41.34200
C  -9.76800 14.81400 40.81600
C  -10.91000 19.43700 39.97600
C  -15.34000 18.50000 41.26100
C  -14.32100 13.75600 42.13600
N  -10.51500 17.15400 40.46200
C  -9.58900 16.11700 40.37300
C  -8.32300 16.69000 39.78200
C  -8.59000 18.25500 39.52600
C  -10.09500 18.32500 39.99000
C  -7.78000 19.29000 40.32100
C  -7.92400 15.93700 38.46100
C  -6.51800 15.28600 38.38100
H  -5.69100 15.64200 37.12200
N  -13.07200 18.75900 40.79700
C  -12.20000 19.68300 40.29000
C  -12.91300 20.95300 39.97500
C  -14.27800 20.75400 40.40500
C  -14.30800 19.30200 40.83700
C  -12.24900 22.08300 39.35300
C  -15.43000 21.69900 40.49900
O  -15.37300 22.83600 40.08000
C  -16.69200 21.35200 41.15000
N  -14.61200 16.09900 41.47000
C  -15.59300 17.14700 41.55000
C  -16.96900 16.58900 41.91200
C  -16.49000 15.11400 42.37400
C  -15.09500 14.93500 41.90500
C  -17.70800 17.44700 42.95800
C  -17.48000 14.00600 41.90200
C  -18.36200 13.23900 42.93700
N  -12.18900 14.73500 41.48900
C  -12.98400 13.62500 41.76300
C  -12.19300 12.46300 41.69300
C  -10.89100 12.83400 41.30700
C  -10.95800 14.21100 41.19800
C  -12.54200 11.07000 41.99300
C  -9.54200 12.29700 41.07200
O  -8.99500 11.18200 41.32000
C  -8.76100 13.65800 40.73800
C  -7.62500 13.83500 41.79900
O  -7.72900 13.77000 43.02500
O  -6.41200 14.17000 41.19100
C  -5.18300 14.28900 42.06000
H  -10.36700 20.30500 39.59400
H  -16.29400 19.02800 41.19800
H  -14.77500 12.82100 42.47000
H  -7.59200 16.74200 40.58900
H  -8.53500 18.46600 38.45800
H  -7.26000 19.87400 39.56100
H  -7.04400 18.86400 41.00200
H  -8.36000 20.00000 40.91000
H  -8.07600 16.62100 37.62700
H  -8.68600 15.19900 38.21000
H  -6.55700 14.19700 38.38800
H  -5.91100 15.55500 39.24500
H  -11.63300 21.85100 38.48400
H  -11.41100 22.37800 39.98400
H  -12.78300 23.01400 39.16500
H  -16.57300 20.87400 42.12300
H  -17.28600 20.69700 40.51300
H  -17.25700 22.27500 41.28400
H  -17.49200 16.52700 40.95700
H  -16.73400 15.17900 43.43400
H  -18.01500 16.79900 43.77900
H  -18.60500 17.87700 42.51300
H  -17.02100 18.22200 43.29700
H  -16.82700 13.37800 41.29600
H  -18.20000 14.49100 41.24400
H  -18.20200 12.19100 42.68600
H  -19.37500 13.63300 42.86200
H  -17.96700 13.44000 43.93300
H  -13.29600 10.81500 41.24800
H  -13.01700 11.08200 42.97300
H  -11.77300 10.30300 41.89800
H  -8.23100 13.50900 39.79800
H  -4.63900 13.35100 42.17600
H  -5.40700 14.68600 43.05000
H  -4.48100 15.01800 41.65600

