158

Mg -9.69100 17.56600 42.58300
C  -6.39700 16.71800 42.02300
C  -8.89900 20.71600 41.46400
C  -13.06400 18.14600 42.30700
C  -10.49900 14.21000 43.07500
N  -7.84900 18.61200 41.90500
C  -6.58400 18.09100 41.81500
C  -5.48100 19.04200 41.39200
C  -6.31400 20.31900 41.16100
C  -7.79100 19.86600 41.51600
C  -5.82100 21.64000 42.01300
C  -4.63400 18.72800 40.14400
C  -5.41300 17.90500 38.99900
H  -5.40200 18.60300 37.62400
N  -10.80800 19.21000 42.21500
C  -10.30000 20.41600 41.73400
C  -11.41900 21.38000 41.61100
C  -12.61900 20.62600 41.89500
C  -12.19500 19.26900 42.14600
C  -11.24700 22.80800 41.16500
C  -13.95300 21.29400 41.96300
O  -14.18800 22.34700 41.36700
C  -15.13400 20.59900 42.63400
N  -11.54300 16.33500 42.61700
C  -12.75500 16.87100 42.66000
C  -13.81500 15.90000 43.15400
C  -12.99600 14.60900 43.48300
C  -11.54700 15.11000 43.01400
C  -14.63200 16.44400 44.41000
C  -13.43400 13.39000 42.61900
C  -13.84000 12.20100 43.48200
N  -8.69600 15.80400 42.68800
C  -9.10600 14.50500 42.88300
C  -7.96900 13.61100 42.94300
C  -6.89200 14.47700 42.61200
C  -7.37400 15.73700 42.38400
C  -7.88900 12.13700 43.40100
C  -5.46400 14.52100 42.42100
O  -4.75400 13.60200 42.51200
C  -5.03300 16.01300 41.99500
C  -4.19800 16.42600 43.16100
O  -3.01200 16.84300 43.11600
O  -4.91800 16.31600 44.30900
C  -4.33100 16.51100 45.59700
H  -8.69100 21.70000 41.03900
H  -14.14100 18.32100 42.34800
H  -10.72400 13.15800 43.26300
H  -4.83100 19.11400 42.26400
H  -6.44200 20.60100 40.11600
H  -5.54200 22.40100 41.28500
H  -4.94900 21.39500 42.61800
H  -6.55300 22.09400 42.68200
H  -3.78700 18.21100 40.59300
H  -4.30000 19.69100 39.75700
H  -6.43800 17.71200 39.31600
H  -4.99600 16.91500 38.81600
H  -10.33400 23.34600 41.42300
H  -11.97400 23.50400 41.58400
H  -11.33900 22.83400 40.07900
H  -14.83000 20.03600 43.51600
H  -15.62700 19.87300 41.98800
H  -15.92000 21.33400 42.80800
H  -14.45000 15.81700 42.27200
H  -13.02600 14.42500 44.55700
H  -15.71600 16.36900 44.32200
H  -14.43500 17.48400 44.66800
H  -14.35600 15.77600 45.22600
H  -12.57100 13.14600 42.00000
H  -14.29800 13.61900 41.99600
H  -14.92800 12.22500 43.54500
H  -13.40000 12.32100 44.47200
H  -13.59200 11.23000 43.05300
H  -7.16600 11.66400 42.73700
H  -8.87100 11.66400 43.36400
H  -7.60300 12.11700 44.45300
H  -4.47200 15.94200 41.06300
H  -4.93700 15.95500 46.31200
H  -4.31000 17.57600 45.82600
H  -3.28900 16.19000 45.62100
Mg -4.71000 24.88500 25.89800
C  -2.89500 26.44500 28.51000
C  -5.74400 22.63400 28.13800
C  -6.36400 23.56000 23.47800
C  -3.11000 27.13100 23.59900
N  -4.38200 24.69000 28.05300
C  -3.73700 25.46100 28.90800
C  -4.07600 25.15900 30.39300
C  -4.71200 23.78900 30.22100
C  -5.03000 23.67700 28.69900
C  -3.79800 22.64000 30.70000
C  -5.09600 26.25700 30.88800
C  -5.02300 26.43000 32.44500
H  -4.62300 25.24700 33.33500
N  -5.95700 23.33100 25.82300
C  -6.18600 22.45900 26.80500
C  -6.88600 21.29000 26.27300
C  -7.15200 21.52100 24.88800
C  -6.50300 22.84300 24.68500
C  -7.47300 20.16700 27.20700
C  -7.97400 20.77300 23.87000
O  -8.26500 21.27700 22.79500
C  -8.54000 19.38100 24.18300
N  -4.89400 25.48400 23.85500
C  -5.60800 24.67200 23.08000
C  -5.41300 24.85400 21.57000
C  -4.45400 26.09600 21.58900
C  -4.14200 26.31500 23.10200
C  -4.76600 23.59500 20.95100
C  -5.03800 27.31400 20.89200
C  -4.20500 27.76200 19.70800
N  -3.25400 26.41700 25.96600
C  -2.73200 27.24400 24.96000
C  -1.81700 28.22400 25.60100
C  -1.89100 27.99400 26.96000
C  -2.70600 26.81700 27.16700
C  -1.15400 29.33600 24.90500
C  -1.31900 28.43300 28.27200
O  -0.48100 29.30400 28.51300
C  -2.11000 27.48400 29.37200
C  -1.12500 26.79200 30.22600
O  -0.24700 26.06900 29.92100
O  -1.44600 27.11700 31.52900
C  -0.58300 26.72300 32.66100
H  -6.19400 21.91500 28.82500
H  -6.88100 23.15500 22.60600
H  -2.74800 27.77800 22.79800
H  -3.20600 25.19000 31.04900
H  -5.58100 23.72400 30.87500
H  -4.41900 22.01600 31.34300
H  -3.02700 22.96900 31.39700
H  -3.37200 22.06800 29.87500
H  -6.11700 26.03300 30.57900
H  -4.87600 27.24400 30.48100
H  -5.99400 26.69100 32.86800
H  -4.25600 27.17400 32.65800
H  -6.79500 19.31400 27.22400
H  -8.48300 20.06100 26.81200
H  -7.56900 20.64600 28.18100
H  -7.72700 18.71800 24.47700
H  -8.98600 19.06900 23.23800
H  -9.25800 19.37500 25.00300
H  -6.42100 24.99700 21.18000
H  -3.50400 25.85900 21.10900
H  -4.70600 22.74900 21.63600
H  -3.78200 23.71000 20.49700
H  -5.38900 23.37600 20.08400
H  -5.10600 28.16900 21.56400
H  -6.06800 27.18200 20.56000
H  -4.82600 28.36900 19.04900
H  -3.96900 26.88800 19.10000
H  -3.36100 28.31900 20.11500
H  -0.08400 29.24000 25.08800
H  -1.34700 30.35600 25.23800
H  -1.28700 29.15600 23.83800
H  -2.73100 28.17300 29.94600
H  0.22300 27.45300 32.73700
H  -0.05100 25.81200 32.38400
H  -0.98800 26.68500 33.67200

