158

Mg -0.14500 7.90000 26.58600
C  0.62300 9.81900 29.30500
C  -0.60200 5.23500 28.71000
C  -0.84800 6.07800 23.80900
C  0.48200 10.72900 24.56200
N  -0.19900 7.66100 28.82400
C  0.18200 8.57500 29.79800
C  -0.05400 8.05500 31.19800
C  -0.35100 6.50300 31.02200
C  -0.37500 6.41200 29.43000
C  0.62500 5.48000 31.59800
C  -1.19900 8.78900 31.99500
C  -0.86400 8.93200 33.40100
H  -1.00100 7.67500 34.24200
N  -0.62200 5.90400 26.32300
C  -0.80100 4.99000 27.27900
C  -1.15400 3.76700 26.67400
C  -1.14000 3.87300 25.25400
C  -0.92300 5.35600 25.06800
C  -1.58300 2.47300 27.45600
C  -1.20500 2.88100 24.12400
O  -1.10300 3.20800 22.96300
C  -1.26800 1.37300 24.38100
N  -0.40300 8.39800 24.52700
C  -0.41000 7.41400 23.58200
C  -0.04500 7.95300 22.18900
C  -0.07700 9.46700 22.43800
C  0.01100 9.56700 23.98200
C  1.26800 7.41700 21.65500
C  -1.37300 10.14800 21.92000
C  -1.31600 11.64300 21.44900
N  0.44900 9.89000 26.82000
C  0.70600 10.90500 25.89900
C  1.20000 12.09200 26.55000
C  1.26000 11.68700 27.95100
C  0.70800 10.35100 28.04100
C  1.56100 13.39300 25.95900
C  1.60900 12.16100 29.24300
O  2.04100 13.22300 29.67900
C  1.08100 11.03300 30.18400
C  2.18800 10.72700 31.12500
O  3.05300 9.93200 30.95400
O  1.98200 11.49900 32.28500
C  2.97700 11.45200 33.31800
H  -0.78800 4.42300 29.41600
H  -0.76700 5.39900 22.95800
H  0.81500 11.46800 23.83000
H  0.91300 8.14800 31.69400
H  -1.38300 6.31400 31.32000
H  1.51400 5.89400 32.07300
H  0.95500 4.82200 30.79500
H  0.12800 4.90900 32.38300
H  -2.09800 8.21200 31.77700
H  -1.39500 9.71800 31.46100
H  -1.47600 9.70900 33.85800
H  0.15800 9.30900 33.36200
H  -2.58600 2.13300 27.19700
H  -1.63500 2.69200 28.52200
H  -0.78100 1.73700 27.39600
H  -0.55400 1.09500 25.15600
H  -1.05300 0.94200 23.40400
H  -2.29900 1.18800 24.68300
H  -0.80600 7.58200 21.50300
H  0.73800 10.06900 22.03600
H  1.77000 8.24900 21.16100
H  1.24200 6.55200 20.99200
H  1.86200 7.09000 22.50800
H  -2.09800 10.16500 22.73400
H  -1.77400 9.51800 21.12600
H  -1.55500 11.78500 20.39500
H  -0.34300 12.09400 21.64300
H  -2.04700 12.27500 21.95200
H  2.34300 13.93500 26.49200
H  0.65900 13.99300 26.08200
H  1.85700 13.25300 24.92000
H  0.20900 11.40100 30.72500
H  3.46200 12.42800 33.35300
H  3.70600 10.66700 33.11800
H  2.54500 11.18800 34.28300
Mg 24.83200 2.06200 30.00700
C  26.81200 1.63300 32.82100
C  22.09000 2.35700 31.96000
C  22.92000 2.05400 27.14200
C  27.74500 1.62600 28.03500
N  24.57300 2.22200 32.11400
C  25.46000 1.84600 33.06000
C  24.92400 2.20100 34.39200
C  23.40300 2.04700 34.15200
C  23.32800 2.22900 32.64400
C  22.76400 0.66600 34.56800
C  25.31500 3.66000 34.92300
C  26.05300 3.69600 36.21800
H  25.37200 4.48600 37.36800
N  22.83000 2.20700 29.67000
C  21.86100 2.28200 30.62800
C  20.51700 2.22700 29.97300
C  20.72700 2.26900 28.59400
C  22.23200 2.29000 28.40700
C  19.24800 2.22600 30.78400
C  19.67500 1.92200 27.53400
O  20.01600 1.92200 26.34900
C  18.21200 1.57100 27.79400
N  25.23800 1.68600 27.92500
C  24.27500 1.85000 26.92900
C  24.88700 1.84800 25.52000
C  26.47900 1.86700 25.76800
C  26.53200 1.77200 27.32800
C  24.34100 0.75100 24.58300
C  27.16400 3.05800 25.09400
C  27.02500 4.47700 25.74700
N  26.89900 1.61000 30.30900
C  27.91100 1.51300 29.41700
C  29.11400 1.21600 30.08300
C  28.75900 1.35000 31.51100
C  27.37700 1.56400 31.56000
C  30.44400 0.91400 29.51500
C  29.21500 1.34200 32.80900
O  30.33500 1.26100 33.25800
C  27.98400 1.50100 33.75200
C  27.86900 0.31400 34.66200
O  27.32500 -0.77900 34.42900
O  28.46400 0.70200 35.75700
C  28.31000 -0.13400 36.96800
H  21.25000 2.36300 32.65700
H  22.24800 2.15200 26.28700
H  28.70700 1.72000 27.52600
H  25.26300 1.44600 35.10200
H  22.83300 2.92300 34.46200
H  23.44600 0.09300 35.19600
H  22.46100 0.11600 33.67700
H  21.90900 0.80400 35.23100
H  24.49700 4.37500 35.00800
H  25.99000 4.06500 34.16900
H  26.99100 4.21500 36.02100
H  26.34400 2.70900 36.57800
H  19.49500 2.48700 31.81200
H  18.82800 1.22600 30.89000
H  18.57900 2.98400 30.37600
H  18.06900 0.93900 28.67100
H  17.81100 1.02500 26.94000
H  17.64200 2.50000 27.76900
H  24.51900 2.79700 25.13000
H  26.85100 0.90800 25.41000
H  23.84400 1.19500 23.72100
H  23.55600 0.13000 25.01600
H  25.13800 0.11500 24.19900
H  26.59200 3.22200 24.18100
H  28.15500 2.74500 24.76400
H  26.26400 4.94500 25.12200
H  28.01800 4.92500 25.75600
H  26.64500 4.47100 26.76800
H  30.42100 -0.17500 29.49400
H  31.24100 1.31900 30.13900
H  30.53200 1.40200 28.54400
H  28.10900 2.42400 34.31900
H  27.78800 0.36800 37.78200
H  29.31600 -0.39700 37.29600
H  27.76100 -1.06800 36.84300

