158

Mg 8.67000 5.34500 27.31800
C  9.58100 3.58200 30.07500
C  6.03600 6.87400 29.08500
C  7.45900 6.94300 24.46800
C  10.42200 3.16800 25.23800
N  8.01400 5.32400 29.35200
C  8.55600 4.49400 30.32900
C  7.90700 4.80500 31.77200
C  6.58900 5.53200 31.18900
C  6.89800 5.97000 29.82400
C  5.33300 4.53200 31.09900
C  8.77000 5.75500 32.58500
C  9.08600 5.37200 34.02000
H  10.14400 6.02700 34.85900
N  7.08100 6.83400 26.87100
C  6.14700 7.27900 27.73600
C  5.28000 8.30400 27.10100
C  5.79800 8.53600 25.79200
C  6.80900 7.42000 25.64900
C  4.34700 9.14100 27.90000
C  5.39200 9.50400 24.69800
O  5.97500 9.55900 23.57000
C  4.32200 10.45800 24.97200
N  8.74300 4.97800 25.13100
C  8.26600 5.85300 24.19400
C  8.78900 5.49200 22.71900
C  9.64700 4.19600 23.08400
C  9.65400 4.10400 24.59100
C  7.62000 5.27100 21.63300
C  11.08300 4.15700 22.56500
C  11.44300 2.84500 21.89000
N  9.86000 3.79600 27.51100
C  10.54400 2.96600 26.63100
C  11.31200 1.98400 27.34700
C  11.04100 2.23800 28.70800
C  10.08700 3.31500 28.74800
C  12.20300 0.83200 26.74100
C  11.47400 1.88500 30.01700
O  12.41800 1.17100 30.32600
C  10.51400 2.69300 30.95800
C  9.69300 1.79400 31.75700
O  8.84300 1.02600 31.33800
O  10.08900 2.02500 33.08700
C  9.50600 1.02400 33.99100
H  5.12300 7.05300 29.65700
H  7.16300 7.39000 23.51700
H  11.15900 2.59800 24.66800
H  7.70800 3.89100 32.33000
H  6.37000 6.35400 31.87100
H  4.61900 4.77300 31.88600
H  5.56300 3.46700 31.09700
H  4.72200 4.63800 30.20300
H  8.36100 6.76300 32.52300
H  9.80300 5.82500 32.24500
H  9.30400 4.30800 34.10800
H  8.13900 5.36800 34.56000
H  4.31600 8.83000 28.94400
H  3.37300 9.09600 27.41200
H  4.62700 10.19500 27.87600
H  3.42100 9.92500 25.27400
H  4.31100 11.03800 24.04900
H  4.59500 11.09400 25.81500
H  9.42700 6.33700 22.45800
H  9.03500 3.41400 22.63500
H  6.73000 5.77500 22.00900
H  7.38800 4.20600 21.64300
H  7.80600 5.70000 20.64800
H  11.75100 4.38100 23.39700
H  11.33500 4.99100 21.91000
H  12.13000 3.07200 21.07400
H  10.61800 2.22900 21.53400
H  12.07800 2.25600 22.55200
H  13.26500 1.07400 26.70400
H  11.84100 0.62700 25.73300
H  12.05900 -0.04600 27.37000
H  11.18600 3.27000 31.59300
H  8.45800 0.82100 33.77100
H  9.34900 1.55600 34.92900
H  10.13200 0.14600 34.15500
Mg -13.02500 15.90700 41.93400
C  -9.83500 14.63800 41.39900
C  -12.19500 18.89900 40.46700
C  -16.25300 17.00100 42.21500
C  -14.07400 12.73200 42.70500
N  -11.24900 16.58600 40.81000
C  -10.05900 15.97200 40.90000
C  -9.00200 16.90900 40.26600
C  -9.69800 18.34500 40.12400
C  -11.14600 17.96800 40.51000
C  -9.13400 19.39700 41.10300
C  -8.42200 16.39300 38.88100
C  -6.87000 16.11300 38.82300
H  -5.98900 16.82000 37.73100
N  -14.10800 17.76700 41.43200
C  -13.55900 18.86800 40.89900
C  -14.50200 19.86000 40.69900
C  -15.70200 19.44400 41.33700
C  -15.40900 18.00700 41.66400
C  -14.30500 21.17600 40.13900
C  -17.01200 20.18300 41.38900
O  -17.15200 21.30300 40.81500
C  -18.15700 19.66500 42.18900
N  -14.87200 14.92800 42.20200
C  -16.06000 15.60400 42.41000
C  -17.16500 14.71500 43.01300
C  -16.51000 13.33000 42.84500
C  -15.04500 13.68900 42.56100
C  -17.68600 15.05900 44.52300
C  -17.13400 12.35900 41.72900
C  -17.44400 10.93800 42.24100
N  -12.08200 14.06300 42.26000
C  -12.67900 12.85300 42.58400
C  -11.61400 11.85400 42.78800
C  -10.47100 12.53100 42.28500
C  -10.83600 13.80500 41.90400
C  -11.83800 10.50900 43.34400
C  -9.03600 12.37000 41.98600
O  -8.24500 11.41900 42.12300
C  -8.60700 13.76700 41.41100
C  -7.49200 14.27800 42.38000
O  -7.56100 14.51000 43.55600
O  -6.30800 14.49200 41.70100
C  -5.17300 15.18900 42.42300
H  -11.80000 19.76500 39.93200
H  -17.19200 17.40600 42.59900
H  -14.48500 11.74500 42.92900
H  -8.21900 17.08400 41.00400
H  -9.69700 18.78300 39.12500
H  -8.80400 20.25800 40.52200
H  -8.37100 18.98400 41.76400
H  -9.85100 19.74300 41.84700
H  -8.71800 16.98300 38.01400
H  -8.92800 15.43500 38.76600
H  -6.67900 15.05200 38.66500
H  -6.48600 16.48100 39.77400
H  -15.06600 21.31900 39.37200
H  -13.35200 21.24800 39.61400
H  -14.40500 22.01000 40.83300
H  -18.64100 18.79500 41.74500
H  -18.88400 20.45200 42.38800
H  -17.79600 19.35200 43.16900
H  -18.00900 14.81700 42.33100
H  -16.58300 12.76800 43.77600
H  -18.28900 14.25300 44.94100
H  -18.34200 15.91700 44.38100
H  -16.75200 15.23900 45.05500
H  -16.36600 12.24600 40.96300
H  -18.09500 12.82400 41.51300
H  -18.47700 10.71400 41.97400
H  -17.40200 10.87200 43.32800
H  -16.74700 10.19600 41.85200
H  -12.77900 10.44600 43.89100
H  -10.98500 10.26200 43.97600
H  -11.86800 9.78000 42.53400
H  -8.21000 13.62500 40.40600
H  -5.06100 14.75400 43.41600
H  -5.22500 16.27800 42.42300
H  -4.26100 14.91200 41.89400

