158

Mg 16.76600 -0.79000 27.43300
C  15.79900 1.23600 30.13300
C  19.03600 -2.36500 29.55300
C  18.04000 -2.31300 24.74500
C  14.86700 1.38100 25.35300
N  17.31800 -0.57300 29.60900
C  16.69300 0.23500 30.48800
C  17.28400 0.01500 31.82300
C  18.43600 -1.00200 31.59400
C  18.30900 -1.29100 30.13000
C  19.90900 -0.66000 32.06600
C  16.20200 -0.51700 32.84500
C  16.29000 0.17600 34.26500
H  17.74500 0.48300 34.72000
N  18.22700 -2.27100 27.18800
C  18.95500 -2.88400 28.17700
C  19.80400 -3.82600 27.58500
C  19.56700 -3.89100 26.19900
C  18.55800 -2.84500 25.96700
C  20.82600 -4.67800 28.53000
C  20.17700 -4.72900 25.15900
O  19.85500 -4.59400 23.98700
C  21.14200 -5.88600 25.52700
N  16.58000 -0.44500 25.34300
C  17.17500 -1.18100 24.44900
C  16.80800 -0.77800 22.97200
C  15.79400 0.35900 23.23500
C  15.69200 0.43100 24.73500
C  18.09500 -0.33300 22.21600
C  14.45900 0.21300 22.46500
C  13.45500 -0.66400 23.21900
N  15.44400 0.86200 27.64100
C  14.72500 1.62900 26.71200
C  14.02700 2.63600 27.39100
C  14.35500 2.46400 28.73300
C  15.31900 1.46500 28.80500
C  13.14200 3.73400 26.79400
C  14.09200 2.99900 30.00700
O  13.30900 3.82900 30.48500
C  15.09500 2.22200 31.02300
C  16.03700 3.08300 31.82100
O  17.19400 3.30000 31.53700
O  15.42300 3.51700 32.95100
C  16.27000 4.29800 33.96100
H  19.63200 -2.94600 30.25900
H  18.38900 -2.89300 23.88800
H  14.22900 1.92800 24.65700
H  17.82500 0.89400 32.17300
H  18.23400 -1.93500 32.11900
H  20.14500 -1.49400 32.72500
H  19.82000 0.31900 32.53700
H  20.60600 -0.62300 31.22800
H  16.10100 -1.59100 33.00100
H  15.26900 -0.09900 32.46600
H  15.79900 -0.33000 35.09600
H  15.70500 1.09200 34.17400
H  20.91200 -4.34100 29.56300
H  21.80800 -4.69700 28.05900
H  20.31000 -5.63800 28.54700
H  22.03100 -5.41300 25.94400
H  21.38800 -6.55300 24.70200
H  20.56200 -6.45100 26.25700
H  16.32200 -1.63600 22.50800
H  16.28500 1.25300 22.85100
H  18.30600 -1.03400 21.40900
H  18.99400 -0.21800 22.82200
H  18.06400 0.58000 21.62200
H  14.81200 -0.25600 21.54700
H  14.01300 1.14900 22.13000
H  13.69300 -1.01600 24.22300
H  13.19300 -1.49900 22.57000
H  12.56300 -0.05100 23.34600
H  12.30600 3.17200 26.37800
H  13.72800 4.16600 25.98300
H  12.83100 4.43600 27.56800
H  14.49800 1.71600 31.78200
H  15.67500 5.17400 34.22000
H  17.20400 4.63500 33.51100
H  16.38400 3.76100 34.90300
Mg -10.63600 16.21800 40.89500
C  -7.22700 16.45100 40.58300
C  -10.82600 19.56300 40.21200
C  -13.96600 15.81300 40.59600
C  -10.31500 12.66300 41.13400
N  -9.14200 17.79900 40.40100
C  -7.79600 17.67000 40.29200
C  -7.15200 19.08700 40.01600
C  -8.30800 20.04600 40.49200
C  -9.54300 19.09100 40.35000
C  -8.17100 20.66300 41.92600
C  -6.70300 19.16200 38.53300
C  -5.24500 18.85700 38.28700
H  -4.75200 17.74800 37.26100
N  -12.16700 17.48100 40.44300
C  -12.04500 18.78200 40.19700
C  -13.33800 19.38400 40.01300
C  -14.35700 18.30100 40.02600
C  -13.48200 17.11800 40.31300
C  -13.57700 20.85800 39.66200
C  -15.93000 18.43700 39.72000
O  -16.53900 19.49500 39.74800
C  -16.79600 17.20400 39.49700
N  -11.91900 14.50900 40.69100
C  -13.26600 14.66700 40.77300
C  -13.98300 13.34900 40.97300
C  -12.83900 12.29000 40.78800
C  -11.57800 13.18500 40.92800
C  -14.87800 13.30900 42.31300
C  -12.73300 11.33400 39.57000
C  -12.31700 11.81300 38.17200
N  -9.04800 14.72400 40.93700
C  -9.05100 13.36100 41.08000
C  -7.67600 12.90500 41.25000
C  -6.90200 14.08300 41.02000
C  -7.80600 15.12600 40.81400
C  -7.24700 11.54600 41.38100
C  -5.56100 14.67300 40.99400
O  -4.46600 14.15200 41.09700
C  -5.72300 16.24000 40.60100
C  -4.91100 17.06400 41.60300
O  -3.71300 17.13100 41.55100
O  -5.60600 17.68400 42.58700
C  -4.75200 18.54800 43.46000
H  -10.84300 20.63600 40.01100
H  -15.04900 15.69300 40.67400
H  -10.17200 11.59400 41.30100
H  -6.19900 19.30100 40.50200
H  -8.44800 20.96500 39.92200
H  -8.75100 20.26500 42.75900
H  -8.52900 21.68000 41.76900
H  -7.12100 20.77300 42.19600
H  -6.92300 20.19000 38.24500
H  -7.42800 18.65400 37.89700
H  -4.74100 18.56600 39.20900
H  -4.77500 19.81300 38.06000
H  -12.81600 21.13500 38.93300
H  -13.60500 21.47100 40.56200
H  -14.55100 20.89200 39.17300
H  -16.29900 16.45800 38.87600
H  -17.68900 17.51000 38.95200
H  -17.13300 16.92300 40.49500
H  -14.69000 13.29000 40.14500
H  -12.96700 11.77400 41.74000
H  -14.43400 13.93100 43.09000
H  -14.89700 12.28600 42.69000
H  -15.89200 13.63800 42.08400
H  -13.66500 10.86500 39.25300
H  -12.09600 10.47000 39.75900
H  -11.75700 12.74600 38.23800
H  -13.23000 11.84400 37.57700
H  -11.66800 11.11600 37.64100
H  -7.36200 10.96000 40.46900
H  -7.76000 10.99400 42.16900
H  -6.18200 11.54400 41.61400
H  -5.28200 16.29200 39.60600
H  -5.28600 18.90600 44.34000
H  -4.40900 19.36500 42.82500
H  -3.87600 18.03400 43.85700

