158

Mg -1.87500 17.84800 26.51300
C  -2.33200 15.49500 29.11100
C  -2.26400 20.36000 28.69500
C  -2.44700 19.94700 23.85300
C  -2.30500 15.12300 24.23000
N  -2.42300 17.87000 28.69500
C  -2.31300 16.84900 29.56000
C  -2.41100 17.37600 31.04200
C  -2.53100 18.90500 30.85500
C  -2.41500 19.09500 29.33300
C  -3.76500 19.52900 31.49600
C  -1.30600 16.74300 31.97600
C  -0.89600 17.52700 33.24500
H  -0.66000 16.70000 34.53800
N  -2.02900 19.92400 26.32800
C  -2.22000 20.79000 27.36400
C  -2.26700 22.14100 26.89700
C  -2.25700 22.04900 25.43200
C  -2.31400 20.57300 25.16600
C  -2.43500 23.35400 27.80700
C  -2.39400 23.05300 24.23600
O  -2.36200 22.83600 23.09300
C  -2.57400 24.50700 24.69200
N  -2.03600 17.65000 24.37700
C  -2.39600 18.61900 23.50300
C  -2.65700 18.11300 22.06900
C  -2.37700 16.58300 22.27200
C  -2.28300 16.43700 23.77700
C  -3.86900 18.58100 21.25800
C  -1.13400 16.15200 21.40600
C  0.19900 15.77600 22.14300
N  -2.07000 15.68000 26.55100
C  -2.18300 14.78600 25.56700
C  -2.19800 13.47700 26.09000
C  -2.21200 13.70700 27.47200
C  -2.16900 15.06800 27.73800
C  -2.17600 12.12800 25.41600
C  -2.33400 13.05900 28.74900
O  -2.50700 11.84200 29.00900
C  -2.42800 14.17200 29.84300
C  -1.40900 13.83400 30.82200
O  -0.19800 13.90500 30.64800
O  -2.08600 13.36600 31.83900
C  -1.25400 12.87800 32.90600
H  -2.19100 21.19800 29.39100
H  -2.92400 20.60000 23.11900
H  -2.57900 14.28600 23.58500
H  -3.30200 16.82900 31.34800
H  -1.67600 19.42000 31.29300
H  -4.39500 20.05400 30.77700
H  -3.49600 20.32500 32.19000
H  -4.32100 18.82300 32.11200
H  -0.41200 16.47500 31.41300
H  -1.67400 15.80500 32.39100
H  -1.48800 18.41900 33.44900
H  0.06400 17.91600 32.90300
H  -1.47700 23.87300 27.78000
H  -2.62200 22.83400 28.74600
H  -3.24400 24.00000 27.46600
H  -1.82200 24.65500 25.46700
H  -3.61600 24.40500 24.99300
H  -2.42900 25.07800 23.77500
H  -1.93200 18.59200 21.41100
H  -3.15200 15.90700 21.91300
H  -4.29600 19.44100 21.77300
H  -4.61900 17.80100 21.12400
H  -3.54000 18.82000 20.24700
H  -0.94500 16.88700 20.62400
H  -1.43100 15.20100 20.96500
H  0.25100 14.68800 22.14500
H  0.37100 16.11400 23.16600
H  1.09000 16.04900 21.57800
H  -1.30100 12.08800 24.76600
H  -3.15600 12.17700 24.94300
H  -2.06700 11.32500 26.14500
H  -3.44300 14.21100 30.23900
H  -0.93200 11.86600 32.66000
H  -1.92900 12.76300 33.75300
H  -0.38400 13.48700 33.15300
Mg -11.12000 38.82500 42.53600
C  -9.22500 36.32800 41.19500
C  -9.17100 41.21600 40.85100
C  -13.25900 41.27700 43.45300
C  -13.42200 36.49600 43.54100
N  -9.52300 38.78600 41.07800
C  -8.82000 37.63600 40.72800
C  -7.72300 37.93200 39.71100
C  -7.58700 39.46900 39.81600
C  -8.83800 39.85200 40.58100
C  -6.27500 39.87200 40.52600
C  -7.80200 37.34000 38.31200
C  -6.52200 36.60400 37.74400
H  -5.75800 37.42000 36.64700
N  -11.14600 40.99300 42.32000
C  -10.28800 41.77100 41.52800
C  -10.70900 43.08700 41.61400
C  -11.78400 43.22600 42.48600
C  -12.06300 41.81800 42.83000
C  -10.04800 44.13700 40.71800
C  -12.56600 44.49700 42.80900
O  -12.13100 45.53000 42.33300
C  -13.81800 44.57600 43.58000
N  -13.08200 38.90000 43.55700
C  -13.73100 40.00900 43.77200
C  -15.18800 39.68700 44.09500
C  -15.28000 38.21900 44.10000
C  -13.82000 37.84700 43.72200
C  -15.77600 40.25200 45.44700
C  -16.30200 37.57700 43.11400
C  -17.30200 36.61700 43.76300
N  -11.27000 36.79200 42.37200
C  -12.19100 36.01300 43.03400
C  -11.78800 34.64200 42.98000
C  -10.66200 34.66500 42.15400
C  -10.35900 36.01000 41.90500
C  -12.51100 33.37600 43.59900
C  -9.68100 33.90200 41.43800
O  -9.64100 32.69100 41.27700
C  -8.67000 34.89500 40.84100
C  -7.26400 34.66300 41.31700
O  -6.61600 35.29900 42.06500
O  -6.75600 33.55900 40.63600
C  -5.28900 33.42600 40.76400
H  -8.61900 41.90500 40.20900
H  -13.99500 42.01800 43.77100
H  -14.06700 35.63500 43.73100
H  -6.81600 37.48800 40.12400
H  -7.44600 39.88700 38.82000
H  -5.48300 39.17700 40.24500
H  -6.41800 39.89100 41.60600
H  -5.90000 40.86700 40.28500
H  -7.94500 38.13300 37.57800
H  -8.65900 36.66700 38.35600
H  -6.95900 35.70500 37.30900
H  -5.84700 36.27600 38.53500
H  -10.74400 44.86000 40.29200
H  -9.48600 43.76700 39.86000
H  -9.35800 44.73100 41.31700
H  -14.50000 44.11500 42.86600
H  -13.98800 45.63600 43.76500
H  -13.79800 44.05700 44.53900
H  -15.75600 40.22700 43.33700
H  -15.45000 37.89300 45.12600
H  -15.98400 41.31700 45.34800
H  -14.95700 40.17600 46.16300
H  -16.66300 39.72500 45.79800
H  -15.83800 37.03600 42.29000
H  -16.90600 38.35300 42.64500
H  -18.33700 36.95400 43.70800
H  -17.15000 36.33100 44.80400
H  -17.11200 35.65400 43.28900
H  -11.98100 32.42600 43.53200
H  -13.52500 33.38700 43.20000
H  -12.48400 33.84600 44.58200
H  -8.56100 34.74300 39.76800
H  -4.85100 34.41600 40.63500
H  -5.04100 32.79100 39.91400
H  -4.90700 33.01100 41.69600

