158

Mg 46.32100 17.32400 29.10400
C  44.41600 16.90200 31.89000
C  48.68700 18.91900 30.90000
C  47.90200 17.70700 26.16000
C  43.72100 15.65400 27.24500
N  46.49900 17.95500 31.13100
C  45.56600 17.69000 32.10800
C  46.00900 18.16900 33.47800
C  47.37300 18.96200 33.10800
C  47.54100 18.58900 31.63200
C  47.26200 20.47400 33.41900
C  46.37500 16.97100 34.47200
C  46.53900 17.10600 35.99000
H  46.21300 18.47400 36.63700
N  48.04900 18.30700 28.61300
C  48.93000 18.82600 29.46000
C  50.09400 19.24600 28.70600
C  49.98700 18.73200 27.35300
C  48.55800 18.25200 27.36200
C  51.20900 20.02400 29.32900
C  50.92800 18.74400 26.16800
O  50.63600 18.24700 25.05200
C  52.35200 19.24800 26.41400
N  45.87200 16.82500 27.09100
C  46.65600 17.17200 26.00900
C  46.00600 16.88000 24.67700
C  44.86700 15.92000 25.14500
C  44.83700 16.15100 26.60900
C  45.65000 18.16400 23.93200
C  45.12300 14.36200 24.92400
C  44.49300 13.83100 23.69400
N  44.35000 16.61400 29.41300
C  43.43200 15.93700 28.61600
C  42.26700 15.64600 29.41700
C  42.62800 15.99500 30.73100
C  43.90800 16.51400 30.67900
C  41.03300 15.03800 28.90400
C  42.19400 15.95700 32.13300
O  41.13300 15.54400 32.62100
C  43.37300 16.54600 32.95000
C  42.81600 17.64700 33.74500
O  42.57500 18.73600 33.28100
O  42.35000 17.23500 35.00900
C  41.84300 18.24600 35.96700
H  49.39100 19.48400 31.51400
H  48.37000 17.95100 25.20400
H  42.87700 15.14100 26.78100
H  45.23700 18.82400 33.88200
H  48.28400 18.61400 33.59500
H  46.26400 20.86200 33.62500
H  47.61100 21.06400 32.57100
H  47.79400 20.68300 34.34600
H  47.21300 16.41400 34.05300
H  45.67700 16.14300 34.35000
H  47.57400 16.90600 36.27100
H  45.89000 16.37800 36.47700
H  51.09800 20.26000 30.38800
H  51.48900 20.94700 28.82200
H  52.07600 19.36400 29.31000
H  52.45100 20.19400 26.94700
H  52.66800 19.40700 25.38300
H  52.85300 18.41700 26.91100
H  46.78900 16.33500 24.15000
H  43.97000 16.30200 24.65800
H  46.55700 18.68800 23.62900
H  44.98200 18.77800 24.53500
H  44.91100 17.90200 23.17500
H  44.71500 13.78400 25.75300
H  46.20300 14.21400 24.89700
H  44.17400 14.67600 23.08400
H  43.64500 13.15500 23.80300
H  45.27100 13.36000 23.09300
H  40.84400 15.43600 27.90700
H  40.24900 15.45100 29.54000
H  40.94300 13.95200 28.89400
H  43.57900 15.80000 33.71800
H  40.78800 18.09800 36.20000
H  41.89400 19.29200 35.66900
H  42.33000 18.03300 36.91900
Mg 47.41600 25.79300 29.30800
C  48.29300 28.10500 31.95700
C  46.24500 23.76800 31.77900
C  46.96100 23.55100 27.06300
C  48.94600 27.92600 27.12100
N  47.21300 26.03500 31.72500
C  47.68600 26.97000 32.52100
C  47.47500 26.61800 33.97200
C  46.90200 25.15300 33.82400
C  46.82000 24.89900 32.37000
C  47.67700 23.96200 34.62300
C  46.31800 27.59800 34.50100
C  46.10800 27.80300 35.97600
H  46.72400 26.99700 37.10500
N  46.57200 23.94300 29.38400
C  46.07000 23.32400 30.46700
C  45.41500 22.11100 30.10100
C  45.53600 22.05200 28.65700
C  46.36300 23.20500 28.31000
C  44.72500 21.06400 31.07700
C  45.08500 20.99600 27.63200
O  45.41100 21.02700 26.43000
C  44.22600 19.89800 28.00200
N  48.12600 25.62000 27.40700
C  47.77200 24.59600 26.63700
C  48.34500 24.77100 25.24200
C  48.76300 26.25900 25.18200
C  48.53900 26.69200 26.65500
C  49.54700 23.81900 24.86200
C  48.02300 27.15700 24.15600
C  48.80700 28.19600 23.43100
N  48.28200 27.77000 29.44700
C  48.97000 28.46500 28.40600
C  49.50000 29.71600 28.90600
C  49.25500 29.62600 30.35900
C  48.51300 28.39700 30.58500
C  50.11200 30.78000 28.16500
C  49.51300 30.21300 31.62700
O  50.14000 31.20100 31.91300
C  48.89500 29.29200 32.68500
C  49.95600 28.93500 33.71500
O  51.06200 28.62800 33.46300
O  49.46200 29.09900 34.99600
C  50.44500 28.94800 36.06700
H  45.69800 23.27600 32.58700
H  46.64800 23.02600 26.15800
H  49.39900 28.57400 26.36900
H  48.35900 26.66800 34.60900
H  45.86700 25.08700 34.16100
H  48.26500 23.35800 33.93200
H  47.00600 23.23400 35.08000
H  48.28000 24.40600 35.41500
H  45.38000 27.20100 34.11300
H  46.44000 28.52200 33.93600
H  45.02300 27.69800 35.97500
H  46.18400 28.86800 36.19900
H  44.79600 21.49400 32.07500
H  45.20300 20.08400 31.06800
H  43.70100 20.83900 30.77600
H  44.65300 19.30900 28.81200
H  44.04800 19.18300 27.19800
H  43.25200 20.28400 28.30500
H  47.46600 24.54000 24.63900
H  49.81900 26.40500 24.95400
H  50.40500 24.32300 24.41900
H  49.18100 23.07600 24.15400
H  49.98900 23.36800 25.75100
H  47.29400 27.69200 24.76600
H  47.47100 26.58100 23.41300
H  48.43800 28.28400 22.40900
H  49.88700 28.04700 23.44900
H  48.82500 29.16400 23.93300
H  49.39500 31.58800 28.01800
H  50.39400 30.51700 27.14500
H  50.93100 31.12700 28.79400
H  48.11600 29.85500 33.19800
H  51.19800 29.72000 35.90700
H  50.76800 27.90800 36.03500
H  49.89500 29.21700 36.96900

