158

Mg 16.96200 -2.57300 28.35000
C  15.62700 -0.77500 31.09400
C  18.86100 -4.43100 30.52600
C  18.37500 -4.05000 25.73300
C  15.14300 -0.47800 26.24700
N  17.24700 -2.53400 30.51000
C  16.57800 -1.77100 31.46600
C  17.08700 -2.06200 32.89900
C  18.22100 -3.10600 32.65100
C  18.12300 -3.38000 31.11400
C  19.59500 -2.76600 33.19800
C  15.96200 -2.59500 33.82100
C  15.77400 -1.78700 35.17800
H  16.91000 -0.96800 35.82000
N  18.32600 -4.12300 28.14100
C  18.91700 -4.81600 29.16400
C  19.87600 -5.86000 28.65100
C  19.69300 -5.75500 27.19200
C  18.73200 -4.59700 26.94900
C  20.62200 -6.76600 29.53700
C  20.35600 -6.58800 26.06900
O  20.18000 -6.35900 24.90400
C  21.13500 -7.81000 26.46000
N  16.69600 -2.44600 26.26600
C  17.47000 -3.08300 25.39400
C  17.46600 -2.42600 24.01600
C  16.21700 -1.45700 24.12300
C  15.88900 -1.52400 25.65600
C  18.75400 -1.68400 23.60300
C  15.10300 -1.97600 23.21400
C  13.93900 -1.08300 22.97200
N  15.62100 -1.00700 28.53100
C  14.94500 -0.27000 27.62500
C  14.07200 0.66300 28.28100
C  14.39900 0.51500 29.60600
C  15.32800 -0.50300 29.73300
C  13.11600 1.67900 27.61400
C  14.06000 1.05300 30.90300
O  13.34400 2.01200 31.23400
C  14.98600 0.25900 31.91400
C  15.86700 1.24500 32.41300
O  16.84000 1.73800 31.77400
O  15.38400 1.78900 33.56800
C  16.12000 3.01400 34.11100
H  19.61400 -4.84800 31.19900
H  18.78800 -4.45400 24.80600
H  14.78800 0.25800 25.52200
H  17.54400 -1.13200 33.23600
H  17.92800 -4.05400 33.10200
H  19.83200 -3.37300 34.07100
H  19.72200 -1.74400 33.55500
H  20.27700 -2.85000 32.35100
H  16.10700 -3.61800 34.16900
H  15.02600 -2.44900 33.28100
H  15.44700 -2.41200 36.01000
H  14.98300 -1.04800 35.05400
H  20.77900 -6.29800 30.50800
H  21.58900 -6.96500 29.07500
H  20.22500 -7.78100 29.57000
H  20.59000 -8.37200 27.21800
H  21.97700 -7.35700 26.98400
H  21.41200 -8.37800 25.57200
H  17.44400 -3.26400 23.32000
H  16.56700 -0.51700 23.69600
H  19.46900 -1.99200 24.36600
H  18.63500 -0.60300 23.68000
H  19.12200 -1.96700 22.61700
H  14.85100 -2.91900 23.70000
H  15.50200 -2.30800 22.25600
H  13.04500 -1.39300 23.51300
H  13.75200 -0.85800 21.92200
H  14.08600 -0.09500 23.40900
H  13.04500 2.54800 28.26800
H  12.16200 1.21100 27.37000
H  13.55100 2.03800 26.68100
H  14.34400 -0.13400 32.70300
H  16.68900 2.77000 35.00800
H  15.34600 3.68700 34.48000
H  16.81500 3.46200 33.40100
Mg 45.17600 4.78100 46.87300
C  43.04300 7.46800 46.04800
C  42.50700 2.75600 46.13300
C  47.28200 2.15700 46.89400
C  47.90500 6.97900 46.52400
N  43.08800 5.11900 46.18000
C  42.41300 6.22900 45.95100
C  41.01600 6.02000 45.33700
C  40.76400 4.62000 45.89500
C  42.25300 4.08700 46.14900
C  39.82600 4.41700 47.09700
C  40.87700 6.39300 43.78700
C  39.61200 7.06200 43.29900
H  39.43500 7.64500 41.88600
N  44.87500 2.72000 46.79100
C  43.72700 2.06700 46.40300
C  44.01200 0.63400 46.36700
C  45.33100 0.43200 46.81700
C  45.88600 1.77300 46.90400
C  42.87800 -0.39600 46.02600
C  45.98800 -0.82900 47.00700
O  45.41800 -1.91900 46.75500
C  47.27800 -0.98400 47.57800
N  47.26700 4.66700 46.60500
C  47.85600 3.40400 46.68700
C  49.37500 3.59900 46.43000
C  49.63100 5.11400 46.72300
C  48.25700 5.62900 46.56800
C  50.37300 2.64200 47.27800
C  50.52600 5.83000 45.71900
C  51.39300 6.89800 46.33800
N  45.48300 6.79700 46.61200
C  46.63300 7.54500 46.48200
C  46.24200 8.94500 46.28700
C  44.87900 8.92800 46.17100
C  44.41900 7.61100 46.31000
C  47.13300 10.13800 46.14000
C  43.76100 9.81700 45.88500
O  43.60200 11.05300 45.77600
C  42.47500 8.80600 45.86600
C  41.57800 9.06500 46.98700
O  41.79100 9.01300 48.19400
O  40.27600 9.10800 46.45700
C  39.24300 9.13900 47.46000
H  41.65500 2.10600 45.92100
H  48.06200 1.39900 46.80100
H  48.79800 7.60700 46.47800
H  40.43300 6.81900 45.79400
H  40.52800 3.90700 45.10600
H  40.26200 3.76200 47.85200
H  38.83500 4.12400 46.74900
H  39.61200 5.27400 47.73600
H  40.86300 5.46000 43.22300
H  41.78600 6.92300 43.50200
H  39.38800 7.84700 44.02100
H  38.74100 6.44400 43.52200
H  43.23200 -1.03000 45.21300
H  42.00500 0.10600 45.61000
H  42.68300 -0.96500 46.93600
H  48.07900 -1.02900 46.84000
H  47.37200 -1.91400 48.13700
H  47.36500 -0.16100 48.28800
H  49.36100 3.44600 45.35100
H  49.95700 5.21100 47.75900
H  49.86700 1.76100 47.67100
H  50.64500 3.21800 48.16300
H  51.28400 2.26600 46.81300
H  49.98200 6.26300 44.88000
H  51.21900 5.09100 45.31700
H  52.39900 6.68300 45.97800
H  51.28500 6.89200 47.42300
H  51.08800 7.90700 46.06000
H  48.04100 9.89600 46.69200
H  46.62800 11.01400 46.54600
H  47.36600 10.34800 45.09600
H  41.85900 8.94700 44.97800
H  39.43900 8.42800 48.26300
H  38.27700 8.80900 47.07700
H  39.16100 10.12800 47.90900

