158

Mg 44.29600 3.91400 47.09400
C  42.55200 6.88500 46.60500
C  41.37100 2.15900 46.68700
C  46.17200 1.15200 46.64000
C  47.28000 5.83400 47.14200
N  42.26100 4.44500 46.45000
C  41.74800 5.72400 46.34200
C  40.26600 5.75300 46.12300
C  39.86100 4.24600 46.35600
C  41.19700 3.56400 46.65800
C  38.82200 4.03500 47.49100
C  39.96500 6.08100 44.55600
C  39.07900 7.27600 44.27700
H  39.48500 8.30500 43.17300
N  43.77400 1.87800 46.83000
C  42.50300 1.35000 46.74500
C  42.62000 -0.05100 46.57900
C  44.07200 -0.34500 46.54300
C  44.76300 0.91800 46.71100
C  41.42500 -0.99300 46.46400
C  44.58800 -1.78800 46.32100
O  43.80600 -2.63200 45.98500
C  46.04300 -2.22300 46.37600
N  46.38600 3.56300 46.92400
C  46.84800 2.32400 46.76500
C  48.36000 2.24900 46.60800
C  48.74700 3.81500 46.73900
C  47.37300 4.47600 46.88500
C  49.15900 1.30200 47.56000
C  49.59400 4.35600 45.60600
C  50.96300 4.95600 46.12500
N  44.84600 5.93900 46.87000
C  46.05900 6.58000 47.01800
C  45.87100 8.05000 47.06400
C  44.50800 8.21800 46.90900
C  43.92100 6.87600 46.81800
C  46.94700 9.11500 47.28100
C  43.48700 9.25500 46.92500
O  43.56900 10.48900 47.00300
C  42.18200 8.37000 46.62000
C  41.18000 8.52600 47.75600
O  41.27900 7.91700 48.84400
O  40.18100 9.47800 47.52400
C  39.27100 9.74500 48.68900
H  40.45400 1.56700 46.65100
H  46.68400 0.23800 46.33200
H  48.24800 6.33600 47.20500
H  39.71000 6.49100 46.70300
H  39.39700 3.82000 45.46700
H  38.57700 4.85500 48.16700
H  39.18800 3.27300 48.18000
H  37.88900 3.59500 47.13900
H  39.47100 5.24300 44.06500
H  40.86200 6.35900 44.00300
H  38.98100 7.84500 45.20200
H  38.04200 7.01600 44.06400
H  41.33600 -1.73700 47.25500
H  41.45900 -1.55900 45.53300
H  40.45200 -0.50100 46.46900
H  46.68100 -1.73300 45.64000
H  46.13100 -3.29900 46.22700
H  46.47200 -2.02300 47.35800
H  48.39800 1.86300 45.58900
H  49.20300 3.92500 47.72300
H  48.55500 0.72200 48.25700
H  49.83200 1.96000 48.11000
H  49.80000 0.66700 46.94900
H  49.01200 5.08900 45.04700
H  49.76400 3.53200 44.91200
H  51.69400 4.30100 45.65200
H  51.03300 5.07200 47.20700
H  51.23200 5.96600 45.81600
H  46.54400 9.96100 47.83900
H  47.25300 9.37900 46.26800
H  47.79000 8.72700 47.85300
H  41.74900 8.77400 45.70500
H  39.80800 10.28900 49.46700
H  38.75600 8.84300 49.02100
H  38.53500 10.43000 48.26800
Mg 6.57000 54.35700 41.67600
C  5.15300 51.27600 41.03100
C  9.48400 53.27900 40.23800
C  7.81500 57.53700 41.71900
C  3.42400 55.56200 42.47600
N  7.07600 52.54900 40.51100
C  6.40700 51.39300 40.47900
C  7.11700 50.36700 39.65800
C  8.66400 50.93300 39.74400
C  8.40400 52.34100 40.20300
C  9.70200 50.06600 40.52500
C  6.58600 50.30600 38.19100
C  6.41500 48.91400 37.53200
H  7.02500 48.79400 36.15900
N  8.43900 55.23100 41.17800
C  9.44900 54.63300 40.56100
C  10.49800 55.50800 40.31800
C  10.08100 56.72900 40.65300
C  8.74100 56.56400 41.27200
C  11.84700 55.09200 39.58300
C  10.94000 57.94500 40.40900
O  12.01000 57.91500 39.84100
C  10.45500 59.40000 40.74200
N  5.68400 56.29100 41.94500
C  6.46000 57.42200 42.12600
C  5.58300 58.62200 42.62600
C  4.23100 57.91600 42.95300
C  4.45300 56.54700 42.41000
C  6.28300 59.30700 43.89000
C  2.96900 58.73200 42.60600
C  1.89600 58.76600 43.70300
N  4.65300 53.58900 41.80400
C  3.48100 54.24700 42.15900
C  2.40400 53.20100 42.17300
C  2.99100 52.00400 41.84900
C  4.39300 52.34900 41.59100
C  1.01000 53.56200 42.74300
C  2.96600 50.51200 41.70900
O  2.02400 49.76200 41.94400
C  4.27000 50.08100 41.22500
C  3.91900 49.24300 40.05200
O  3.23400 49.48200 39.03800
O  4.33600 47.97600 40.38200
C  3.67600 46.83900 39.81800
H  10.45900 53.05300 39.80100
H  8.20400 58.55600 41.66600
H  2.52500 56.05900 42.84800
H  6.95300 49.40000 40.13400
H  9.04700 51.15800 38.74900
H  9.08200 49.25300 40.90300
H  10.13900 50.56500 41.39100
H  10.38200 49.56800 39.83400
H  7.22100 50.91100 37.54300
H  5.60200 50.76300 38.29000
H  5.43400 48.43800 37.50500
H  6.99200 48.17500 38.08800
H  11.68900 55.11300 38.50500
H  12.23100 54.09000 39.77300
H  12.71500 55.66500 39.91000
H  11.22900 60.13600 40.52900
H  10.14800 59.50300 41.78200
H  9.65400 59.73500 40.08300
H  5.59200 59.38900 41.85200
H  4.32200 57.72700 44.02300
H  7.33100 59.00800 43.92400
H  5.80600 59.10500 44.84900
H  6.19600 60.35400 43.60200
H  2.59700 58.23000 41.71300
H  3.15600 59.77000 42.33200
H  2.20600 58.42300 44.69000
H  1.06400 58.14600 43.36800
H  1.46300 59.76600 43.69400
H  0.35300 52.82500 42.28200
H  0.71500 54.52600 42.32900
H  0.82400 53.37300 43.80100
H  4.75600 49.36600 41.88900
H  2.83100 47.25100 39.26600
H  3.48100 46.16900 40.65600
H  4.38600 46.32500 39.17000

