158

Mg 48.32500 35.38300 27.16400
C  46.34900 33.73200 29.72100
C  48.70800 37.86800 29.60300
C  49.98600 37.07200 24.82700
C  47.75000 32.74200 25.03700
N  47.61800 35.71400 29.42300
C  46.97100 34.85600 30.22600
C  47.04200 35.36100 31.69900
C  47.35100 36.83400 31.55900
C  47.99100 36.82200 30.13400
C  46.27700 37.88300 31.70900
C  48.21700 34.60700 32.47300
C  48.14200 34.61000 33.96900
H  47.22000 35.61900 34.73900
N  49.32200 37.17900 27.18400
C  49.36600 38.04000 28.34100
C  50.26400 39.19400 27.98400
C  50.60200 39.01800 26.58600
C  49.92800 37.75200 26.10500
C  50.57000 40.28900 28.96400
C  51.48700 39.83200 25.62400
O  51.72500 39.67200 24.44100
C  52.07600 41.13600 26.24000
N  48.70100 35.01900 25.22700
C  49.47900 35.85700 24.47100
C  49.74100 35.23600 23.06700
C  49.15100 33.82700 23.13000
C  48.48800 33.84200 24.57900
C  49.30300 36.15300 21.92100
C  50.19900 32.57500 22.91200
C  50.05200 31.93600 21.54200
N  47.31400 33.59500 27.33000
C  47.23400 32.59500 26.36100
C  46.45000 31.51200 26.89100
C  46.02600 31.89700 28.24300
C  46.58300 33.20700 28.45700
C  46.22700 30.18400 26.20400
C  45.22900 31.58400 29.39000
O  44.56600 30.55400 29.70300
C  45.34400 32.81000 30.37000
C  45.53700 32.48900 31.78700
O  46.53200 32.00000 32.26500
O  44.36500 32.66500 32.52100
C  44.40900 32.01600 33.83100
H  48.76000 38.74500 30.25200
H  50.48800 37.56800 23.99400
H  47.56600 31.87300 24.40200
H  46.12800 35.09200 32.22800
H  48.07100 37.25500 32.26100
H  45.33500 37.37800 31.92400
H  46.07800 38.54700 30.86700
H  46.42300 38.50800 32.59100
H  49.18600 35.06800 32.28100
H  48.37000 33.58700 32.12000
H  49.15900 34.65800 34.35600
H  47.75100 33.61300 34.17200
H  51.62700 40.54900 28.90900
H  50.28500 39.95000 29.96000
H  50.08400 41.25800 28.84800
H  52.52200 41.85000 25.54900
H  52.91100 40.80400 26.85700
H  51.26800 41.75400 26.63300
H  50.81400 35.16500 22.89000
H  48.29400 33.79400 22.45700
H  48.65300 35.68700 21.18000
H  50.14600 36.39400 21.27300
H  48.83300 37.02900 22.36800
H  50.01100 31.88600 23.73500
H  51.18700 33.02800 22.99300
H  49.80500 32.73200 20.84000
H  49.22200 31.23000 21.53500
H  50.91000 31.36300 21.18900
H  47.17200 29.82100 25.80100
H  45.56700 30.47200 25.38600
H  45.66300 29.42300 26.74500
H  44.38500 33.32900 30.36900
H  44.99900 31.10800 33.95400
H  43.45400 31.58200 34.12900
H  44.86300 32.73700 34.51000
Mg -1.79800 34.00700 27.50200
C  -3.43600 32.22500 29.90400
C  -0.57100 36.11100 30.01400
C  -0.11600 35.82300 25.21400
C  -3.57100 32.30900 25.02800
N  -2.27100 34.35900 29.74400
C  -2.74100 33.29600 30.45900
C  -2.42400 33.54900 31.94400
C  -1.62300 34.87100 31.93100
C  -1.42000 35.07900 30.42600
C  -2.31600 36.12400 32.65000
C  -1.69300 32.31000 32.59100
C  -2.31000 31.81800 33.93900
H  -1.50900 31.73600 35.28300
N  -0.48700 35.71400 27.65200
C  -0.12800 36.37600 28.72600
C  0.84200 37.39800 28.31500
C  0.86300 37.44700 26.89100
C  0.04900 36.26900 26.55700
C  1.56800 38.26700 29.37600
C  1.48800 38.36500 25.85900
O  1.53400 38.19500 24.66900
C  2.28900 39.51200 26.35200
N  -1.97100 34.08300 25.37500
C  -1.06400 34.88600 24.66600
C  -1.27500 34.70800 23.12300
C  -2.43900 33.66200 23.03100
C  -2.72500 33.32100 24.54700
C  -1.53600 35.96700 22.25300
C  -1.93500 32.43400 22.17300
C  -1.12200 31.33000 22.85700
N  -3.14200 32.52900 27.45000
C  -3.74400 31.87100 26.37800
C  -4.43600 30.71800 26.81100
C  -4.33000 30.78700 28.19800
C  -3.61100 31.92700 28.56400
C  -5.18600 29.82100 25.85200
C  -4.72100 30.13900 29.40400
O  -5.39200 29.15000 29.65500
C  -4.19900 31.11200 30.58200
C  -5.43000 31.54300 31.26400
O  -6.38600 32.13700 30.78200
O  -5.40400 31.13000 32.56800
C  -6.35900 31.77600 33.53000
H  -0.09000 36.59700 30.86500
H  0.39600 36.29400 24.37200
H  -4.06900 31.70400 24.26700
H  -3.39400 33.74300 32.40200
H  -0.63200 34.71800 32.36000
H  -2.93800 35.71000 33.44400
H  -2.91400 36.68200 31.93000
H  -1.51200 36.69600 33.11300
H  -0.64200 32.49700 32.81200
H  -1.61200 31.47200 31.90000
H  -2.68900 30.84400 33.62800
H  -3.22000 32.38600 34.13200
H  2.57800 38.60300 29.13700
H  1.64700 37.80700 30.36000
H  0.88300 39.10300 29.51500
H  1.66800 40.08000 27.04500
H  2.59100 40.04800 25.45300
H  3.14700 39.09300 26.87900
H  -0.29500 34.33800 22.82200
H  -3.31700 34.08100 22.53900
H  -2.59100 36.21600 22.13500
H  -1.22800 35.93000 21.20800
H  -0.96700 36.82000 22.62300
H  -1.33400 32.73800 21.31500
H  -2.88200 32.12900 21.72700
H  -0.74700 31.68400 23.81800
H  -0.24900 31.09600 22.24800
H  -1.76600 30.45700 22.96000
H  -5.09800 28.78200 26.16900
H  -4.70900 29.92200 24.87800
H  -6.27200 29.91300 25.80900
H  -3.59700 30.41000 31.15900
H  -7.06600 32.40700 32.99200
H  -5.72700 32.38500 34.17600
H  -6.89200 31.05100 34.14500

