158

Mg -1.45600 33.85000 26.32600
C  -3.46700 32.21100 28.70300
C  -0.27900 35.77800 28.74500
C  0.21000 35.62800 23.93700
C  -2.87600 31.70800 23.86000
N  -1.88700 33.97400 28.45000
C  -2.73400 33.25500 29.29900
C  -2.52700 33.66100 30.76200
C  -1.63500 34.87000 30.66600
C  -1.25400 34.90600 29.20000
C  -2.27100 36.19600 31.08800
C  -1.92900 32.58500 31.64000
C  -2.80200 32.15700 32.83800
H  -2.28700 32.09900 34.24100
N  -0.20900 35.55100 26.32900
C  0.25300 36.07900 27.45100
C  1.19400 37.22300 27.11600
C  1.22200 37.23900 25.66500
C  0.31900 36.10700 25.20800
C  1.79400 38.08200 28.14100
C  2.03300 38.08400 24.80800
O  1.96900 38.13000 23.57300
C  3.16200 38.94600 25.37800
N  -1.41500 33.77600 24.16700
C  -0.48300 34.48300 23.53700
C  -0.56900 34.13400 22.07600
C  -1.54000 32.92500 22.00700
C  -2.02100 32.78800 23.39900
C  -1.05000 35.33100 21.20500
C  -0.96200 31.67600 21.35100
C  0.03000 30.90900 22.15500
N  -2.72100 32.25700 26.29500
C  -3.24100 31.46900 25.21700
C  -4.24900 30.55100 25.70500
C  -4.27900 30.81200 27.06900
C  -3.37500 31.81900 27.38200
C  -5.04500 29.62900 24.89400
C  -5.05200 30.39000 28.26200
O  -5.94600 29.58400 28.38400
C  -4.43000 31.34600 29.39900
C  -5.50600 32.01300 30.13200
O  -5.87500 33.21100 29.86200
O  -5.74900 31.32400 31.27300
C  -6.63500 31.88400 32.39400
H  0.21000 36.38100 29.51300
H  0.82500 36.11000 23.17400
H  -3.35700 31.10600 23.08700
H  -3.51400 33.92500 31.14200
H  -0.70900 34.85900 31.24000
H  -1.69900 36.73900 31.84000
H  -3.34300 36.18700 31.28700
H  -2.28400 36.85600 30.22100
H  -0.92600 32.78700 32.01500
H  -1.86200 31.72400 30.97500
H  -3.08000 31.11000 32.72200
H  -3.71200 32.75700 32.83800
H  2.79100 37.75100 28.43200
H  1.14600 38.13100 29.01600
H  1.85500 39.11800 27.80500
H  3.80800 38.37500 26.04400
H  2.68800 39.77300 25.90800
H  3.73800 39.32800 24.53500
H  0.43000 33.84800 21.74900
H  -2.44700 33.09900 21.42800
H  -0.30400 36.10100 21.00700
H  -1.72400 35.77700 21.93700
H  -1.61000 34.99900 20.33200
H  -0.32700 31.99300 20.52300
H  -1.83200 31.14500 20.96300
H  -0.62400 30.15400 22.59200
H  0.40700 31.42200 23.03900
H  0.86900 30.52700 21.57300
H  -4.35300 29.20100 24.16900
H  -5.66800 30.23100 24.23200
H  -5.61100 28.97800 25.56000
H  -3.97900 30.62700 30.08200
H  -7.61400 32.21600 32.04700
H  -6.16900 32.82700 32.68100
H  -6.72700 31.23500 33.26500
Mg -5.66100 24.83900 26.19900
C  -4.42800 26.30300 29.09200
C  -7.94200 23.07900 28.13000
C  -6.38100 23.12900 23.45100
C  -3.21600 26.57300 24.44100
N  -6.11600 24.74100 28.41700
C  -5.46300 25.37900 29.38700
C  -5.97100 25.07800 30.72700
C  -6.94000 23.91700 30.46800
C  -6.97000 23.83300 28.92000
C  -6.71700 22.56300 31.16100
C  -6.68400 26.25100 31.41500
C  -6.35000 26.50700 32.95000
H  -5.86700 25.31500 33.80100
N  -6.94800 23.32200 25.87900
C  -7.89600 22.83400 26.73300
C  -8.85900 22.06200 25.90000
C  -8.36200 21.96500 24.57100
C  -7.19100 22.76500 24.60500
C  -10.06300 21.28900 26.51500
C  -8.76700 21.02700 23.42100
O  -7.97300 20.82200 22.56200
C  -10.09800 20.24600 23.39900
N  -4.77300 24.68000 24.29600
C  -5.19500 23.89000 23.34800
C  -4.40000 24.11900 22.01000
C  -3.65100 25.42800 22.26300
C  -3.98300 25.63600 23.72100
C  -3.70500 22.83900 21.59500
C  -3.80700 26.58200 21.22000
C  -2.64600 26.91000 20.34800
N  -4.07600 26.17900 26.60300
C  -3.27100 26.90300 25.81100
C  -2.35900 27.73600 26.55500
C  -2.80600 27.53700 27.83900
C  -3.92500 26.69500 27.79700
C  -1.30900 28.60300 25.95900
C  -2.46100 27.86500 29.26600
O  -1.62300 28.57000 29.79400
C  -3.53400 27.08400 30.08600
C  -2.67400 26.26700 31.13000
O  -2.14600 25.15700 30.90500
O  -2.49500 27.03800 32.29100
C  -1.58500 26.49800 33.27600
H  -8.69500 22.68800 28.81700
H  -6.77100 22.84300 22.47200
H  -2.34200 26.94800 23.90600
H  -5.15200 24.57800 31.24300
H  -7.93300 24.24900 30.77100
H  -7.47700 22.47700 31.93700
H  -5.73100 22.58000 31.62700
H  -6.72400 21.75500 30.43000
H  -7.77200 26.25300 31.36100
H  -6.43900 27.23100 31.00400
H  -7.16700 26.92800 33.53600
H  -5.55700 27.25500 32.93000
H  -11.04300 21.68900 26.25400
H  -10.18100 21.39400 27.59300
H  -9.95300 20.22800 26.29000
H  -10.82900 20.94800 23.80200
H  -9.97100 19.37200 24.03800
H  -10.25700 19.87900 22.38500
H  -5.24400 24.28600 21.34100
H  -2.57600 25.24700 22.23700
H  -2.61600 22.83100 21.63900
H  -3.81000 22.67400 20.52300
H  -4.12600 21.93500 22.03700
H  -3.95500 27.45100 21.86100
H  -4.72600 26.51100 20.63700
H  -2.20300 26.02600 19.89000
H  -1.84300 27.32000 20.96000
H  -3.00200 27.62600 19.60600
H  -0.42800 28.05500 25.62500
H  -0.86800 29.23400 26.73100
H  -1.61800 29.21200 25.11000
H  -4.19300 27.75100 30.64200
H  -0.67500 27.08200 33.14400
H  -1.33000 25.45200 33.10400
H  -1.88500 26.67700 34.30800

