158

Mg 41.34700 40.56000 26.54700
C  40.98000 42.99600 29.02400
C  42.30800 38.30100 28.90500
C  42.28100 38.39000 24.14100
C  40.64900 43.00500 24.22600
N  41.65700 40.68600 28.66700
C  41.31000 41.72000 29.56000
C  41.40200 41.33300 31.06600
C  42.29400 39.99900 30.92500
C  42.10700 39.60300 29.39200
C  43.76700 40.22400 31.42900
C  40.03400 41.04300 31.62800
C  39.62600 41.84600 32.90300
H  39.06300 41.03700 34.06700
N  42.09000 38.50400 26.56700
C  42.36500 37.72900 27.62600
C  42.78400 36.38000 27.24000
C  42.87000 36.41100 25.85100
C  42.41600 37.81000 25.42700
C  43.17200 35.33800 28.24200
C  43.26700 35.31400 24.80900
O  43.38600 35.54800 23.62300
C  43.40100 33.91900 25.35200
N  41.63300 40.71900 24.43700
C  41.88800 39.66100 23.64900
C  41.68600 39.95500 22.17100
C  40.85300 41.35700 22.16800
C  41.08100 41.77100 23.67500
C  43.05900 40.00200 21.36200
C  39.36900 41.29300 21.74400
C  38.50200 40.07400 22.18000
N  40.88000 42.61300 26.56400
C  40.66100 43.49400 25.53600
C  40.36400 44.82900 25.99900
C  40.47100 44.70700 27.39000
C  40.80200 43.31100 27.65500
C  40.15700 46.04700 25.14700
C  40.29500 45.35000 28.65100
O  40.04200 46.47000 28.89300
C  40.64400 44.31800 29.74400
C  41.66500 44.92700 30.63200
O  42.82200 45.21800 30.34700
O  41.09700 45.17800 31.78500
C  41.88300 45.64900 32.87100
H  42.43000 37.56400 29.70100
H  42.55000 37.77400 23.28000
H  40.20500 43.67600 23.48700
H  41.86000 42.17400 31.58600
H  41.85600 39.15000 31.45100
H  44.52500 39.66700 30.87700
H  43.75100 39.85600 32.45500
H  44.11400 41.24600 31.58100
H  39.79700 39.99700 31.82300
H  39.30500 41.13800 30.82300
H  38.92600 42.62400 32.59800
H  40.38800 42.49900 33.32800
H  44.15900 34.97900 27.94800
H  42.53800 34.46300 28.09800
H  43.09800 35.65300 29.28300
H  42.39500 33.59700 25.62000
H  44.09000 34.00000 26.19300
H  43.70900 33.26600 24.53600
H  41.04900 39.19200 21.72600
H  41.26800 42.10700 21.49400
H  43.86700 39.95900 22.09200
H  43.13600 40.86400 20.69900
H  43.08100 39.12400 20.71600
H  39.27500 41.39600 20.66300
H  38.82000 42.11400 22.20400
H  37.62000 40.38500 22.73900
H  39.21300 39.46300 22.73600
H  38.12600 39.48700 21.34100
H  39.37900 45.74100 24.44700
H  41.03300 46.29900 24.54900
H  39.96300 47.00500 25.62900
H  39.73000 44.11200 30.30000
H  42.95500 45.47200 32.78100
H  41.50700 45.37700 33.85800
H  41.66600 46.71700 32.88200
Mg -10.82100 16.99900 40.17200
C  -7.33300 16.65600 40.37100
C  -10.50900 20.25100 39.76200
C  -14.10800 16.91300 39.13700
C  -10.87600 13.29300 40.00900
N  -9.03300 18.28600 40.19000
C  -7.74900 18.02400 40.32000
C  -6.93600 19.33600 40.15800
C  -8.04800 20.48700 40.32900
C  -9.29700 19.66000 40.18200
C  -7.97500 21.30700 41.64100
C  -6.38400 19.44500 38.67700
C  -4.90300 19.13400 38.45900
H  -4.47900 18.21500 37.36200
N  -12.11200 18.38200 39.62300
C  -11.72600 19.71600 39.43100
C  -12.94900 20.48100 39.17100
C  -14.05900 19.57200 39.04000
C  -13.44200 18.21500 39.30900
C  -12.96700 21.94900 39.11400
C  -15.48300 19.93200 38.67300
O  -15.74600 21.07800 38.25200
C  -16.60100 18.90400 38.61400
N  -12.18100 15.39500 39.46800
C  -13.52800 15.68200 39.23700
C  -14.42100 14.34900 39.20300
C  -13.31400 13.30000 39.36900
C  -12.03900 13.99000 39.65100
C  -15.48400 14.32400 40.35500
C  -13.14400 12.44100 38.00500
C  -12.93500 10.94800 38.31400
N  -9.44100 15.29700 40.31400
C  -9.57400 13.87900 40.24500
C  -8.30400 13.26100 40.50400
C  -7.43500 14.33500 40.56400
C  -8.13900 15.53300 40.42700
C  -7.90800 11.86000 40.67600
C  -6.02900 14.65400 40.81100
O  -5.10400 13.95100 41.14300
C  -5.90900 16.12300 40.62100
C  -5.22100 16.78400 41.77800
O  -4.02800 17.06700 41.75100
O  -6.04500 17.17200 42.75000
C  -5.39600 18.02000 43.77700
H  -10.44200 21.34100 39.73000
H  -15.15700 16.78600 38.86300
H  -10.76600 12.21100 39.90900
H  -6.13000 19.35500 40.89200
H  -8.07200 21.25200 39.55400
H  -7.65900 22.31100 41.35900
H  -7.28800 20.75200 42.28000
H  -8.95600 21.43600 42.10000
H  -6.53600 20.47000 38.33800
H  -6.92100 18.77600 38.00400
H  -4.51000 18.62700 39.34000
H  -4.33800 20.03100 38.20300
H  -13.78600 22.46000 39.61900
H  -12.86800 22.36600 38.11200
H  -12.15900 22.40000 39.69100
H  -17.58100 19.38000 38.63600
H  -16.55200 18.19400 39.44000
H  -16.50700 18.27600 37.72800
H  -14.86300 14.34200 38.20700
H  -13.36600 12.68200 40.26500
H  -15.08800 13.85900 41.25800
H  -16.44400 13.82900 40.20600
H  -15.71300 15.35000 40.64400
H  -12.48100 12.85200 37.24300
H  -14.16100 12.39300 37.61800
H  -11.91400 10.73300 38.00000
H  -13.57600 10.35500 37.66200
H  -13.01700 10.73700 39.38000
H  -6.83700 11.76200 40.85500
H  -8.16900 11.28900 39.78500
H  -8.42700 11.38600 41.50800
H  -5.11700 16.46800 39.95700
H  -4.98200 18.87000 43.23400
H  -4.71200 17.54500 44.48000
H  -6.21500 18.43300 44.36600

