158

Mg 36.38300 49.05400 24.12700
C  36.71000 47.49100 27.20700
C  35.25400 51.87500 25.57200
C  35.69600 50.33900 21.01600
C  37.59400 46.21200 22.63300
N  35.83800 49.49400 26.12500
C  36.17900 48.80600 27.29600
C  35.70000 49.54800 28.53700
C  35.10100 50.92100 27.94600
C  35.32100 50.71200 26.41400
C  33.64000 51.23700 28.29900
C  36.89400 49.88500 29.52000
C  36.57300 49.65800 31.07300
H  35.16700 49.60000 31.57500
N  35.61300 50.84300 23.45900
C  35.26700 51.90600 24.21900
C  34.81600 53.02000 23.37300
C  34.88800 52.56100 22.04500
C  35.39400 51.20000 22.14200
C  34.63600 54.38100 23.90400
C  34.60900 53.33200 20.72100
O  34.74500 52.93000 19.55900
C  34.15000 54.74900 20.87500
N  36.49400 48.38400 22.10000
C  36.16800 49.06200 21.01200
C  36.56300 48.25800 19.65900
C  37.54700 47.16000 20.24700
C  37.27000 47.27800 21.75000
C  35.31800 47.75500 18.80400
C  39.02200 47.10300 19.68800
C  39.94200 48.11800 20.28800
N  37.03400 47.19700 24.74500
C  37.40400 46.08600 24.02300
C  37.57800 44.95800 24.92600
C  37.36200 45.50000 26.18900
C  37.10300 46.87900 26.02900
C  37.97000 43.54200 24.46400
C  37.42200 45.16600 27.61200
O  37.81300 44.17900 28.27900
C  36.91100 46.50400 28.30600
C  35.61300 46.10900 28.95000
O  34.50300 46.11700 28.44000
O  35.90700 45.75700 30.29200
C  34.79800 45.08400 30.93900
H  34.91100 52.81500 26.00900
H  35.56600 50.82000 20.04400
H  38.12100 45.38300 22.15500
H  34.93300 49.00400 29.08800
H  35.73400 51.72200 28.32700
H  33.50100 52.31800 28.30900
H  33.37500 50.89900 29.30100
H  33.01400 50.71500 27.57500
H  37.33200 50.86900 29.34800
H  37.66600 49.14900 29.29400
H  36.99200 50.53500 31.56500
H  37.15400 48.83000 31.48100
H  35.16300 55.14000 23.32600
H  35.16500 54.43400 24.85500
H  33.55900 54.54700 23.89700
H  33.31800 54.92800 21.55600
H  33.91700 55.03200 19.84900
H  35.03500 55.35700 21.06300
H  37.19600 48.90800 19.05500
H  37.19300 46.18300 19.91900
H  34.31000 48.11900 19.00500
H  35.38100 46.67500 18.67100
H  35.41400 48.15200 17.79400
H  39.07400 47.23900 18.60800
H  39.50100 46.18000 20.01300
H  39.33400 48.83900 20.83500
H  40.39800 48.66100 19.46000
H  40.66800 47.74300 21.00800
H  37.44500 43.48000 23.51100
H  37.55700 42.77200 25.11500
H  39.03900 43.34900 24.37200
H  37.56300 46.83500 29.11400
H  34.23800 44.54200 30.17700
H  34.13700 45.74200 31.50300
H  35.28300 44.39700 31.63200
Mg -11.55400 38.12700 41.73900
C  -9.42000 35.56300 40.78900
C  -9.42800 40.50600 40.32700
C  -14.05100 40.42400 41.89400
C  -13.92300 35.55900 42.78200
N  -9.74100 38.07400 40.48500
C  -8.97900 36.88500 40.39100
C  -7.56300 37.22700 39.79900
C  -7.49300 38.76800 39.90600
C  -8.91300 39.19200 40.25600
C  -6.41600 39.32500 40.82200
C  -7.40200 36.59100 38.44400
C  -6.28400 35.58800 38.19400
H  -5.23800 35.98000 37.24000
N  -11.72100 40.16000 41.18000
C  -10.75400 40.96500 40.69200
C  -11.24200 42.36700 40.69800
C  -12.62400 42.37900 40.94400
C  -12.90700 40.88500 41.29600
C  -10.44600 43.66200 40.38500
C  -13.65600 43.54400 40.79100
O  -13.17600 44.66600 40.73000
C  -15.13200 43.33500 40.63500
N  -13.76200 37.95100 42.16900
C  -14.44900 39.08100 42.36100
C  -15.83200 38.87700 42.98200
C  -15.86200 37.31200 43.09400
C  -14.50300 36.83500 42.57200
C  -15.92900 39.55400 44.35800
C  -17.05700 36.56200 42.30400
C  -18.32300 36.10700 43.12600
N  -11.69800 36.02300 41.84500
C  -12.62200 35.12400 42.36000
C  -12.00300 33.81300 42.42100
C  -10.85800 33.94600 41.73500
C  -10.63500 35.32900 41.43300
C  -12.71100 32.62600 42.99000
C  -9.66000 33.15600 41.34400
O  -9.47400 31.95800 41.46600
C  -8.74700 34.23300 40.64400
C  -7.42100 34.19400 41.32400
O  -7.08600 34.89300 42.20600
O  -6.53400 33.41800 40.62000
C  -5.15100 33.37800 41.08400
H  -8.72400 41.28000 40.01400
H  -14.81200 41.20500 41.96700
H  -14.53500 34.79400 43.26500
H  -6.77700 36.79000 40.41500
H  -7.29900 39.22600 38.93600
H  -5.92100 38.48300 41.30600
H  -6.82000 40.03000 41.54800
H  -5.67200 39.77700 40.16700
H  -7.38200 37.45800 37.78400
H  -8.27300 35.96100 38.26200
H  -6.75500 34.67500 37.82900
H  -5.74200 35.59000 39.14000
H  -10.32400 44.24500 41.29900
H  -10.99300 44.30800 39.69700
H  -9.47000 43.34100 40.02400
H  -15.43000 42.36800 40.23000
H  -15.35200 44.21400 40.02900
H  -15.60900 43.50900 41.60000
H  -16.53000 39.21100 42.21500
H  -15.86700 37.05400 44.15300
H  -16.70700 40.30600 44.22600
H  -15.01700 40.05100 44.68900
H  -16.24500 38.79800 45.07700
H  -16.77100 35.67100 41.74400
H  -17.47400 37.23500 41.55500
H  -18.40300 35.02100 43.07600
H  -19.25900 36.55700 42.79400
H  -18.32000 36.25300 44.20600
H  -13.58500 32.35400 42.39800
H  -12.98800 32.78400 44.03200
H  -12.10100 31.72300 42.98400
H  -8.72500 33.89300 39.60900
H  -4.90800 34.34900 41.51600
H  -4.40500 33.22100 40.30500
H  -5.11200 32.66100 41.90400

