158

Mg 24.08300 -4.68400 45.58600
C  26.24700 -2.40100 44.23200
C  21.51100 -3.54400 43.37300
C  22.23800 -7.46000 46.15400
C  26.67000 -5.99300 47.43500
N  24.01200 -3.27900 43.90800
C  25.06500 -2.37200 43.56000
C  24.65000 -1.33400 42.53100
C  23.09500 -1.59800 42.47200
C  22.85100 -2.89200 43.28600
C  22.20000 -0.39700 42.85200
C  25.40200 -1.54700 41.15700
C  25.24800 -0.46600 40.16600
H  24.59900 -0.79500 38.76900
N  22.16000 -5.39200 44.88700
C  21.30100 -4.79400 43.99000
C  20.11900 -5.53000 43.82300
C  20.32700 -6.73200 44.62200
C  21.63100 -6.59200 45.30800
C  18.88300 -5.05400 42.89000
C  19.24800 -7.83900 44.70200
O  18.10200 -7.79000 44.16200
C  19.42400 -9.11100 45.53400
N  24.48500 -6.55700 46.55100
C  23.49600 -7.45100 46.78200
C  23.98400 -8.64200 47.60600
C  25.42400 -8.02000 48.19300
C  25.49400 -6.72000 47.41400
C  22.95200 -8.98200 48.69600
C  26.65400 -8.96100 48.01500
C  26.49600 -10.44100 48.44800
N  26.01600 -4.26500 45.92100
C  26.93700 -4.90000 46.65900
C  28.16200 -4.13300 46.64200
C  27.89800 -3.08700 45.75400
C  26.60600 -3.33400 45.23800
C  29.41300 -4.46000 47.34900
C  28.45700 -1.86700 45.09900
O  29.49900 -1.26400 45.19600
C  27.38600 -1.47200 44.05400
C  27.23500 0.00500 44.08900
O  26.74600 0.55400 45.06400
O  27.71300 0.70600 42.97900
C  27.50200 2.13900 42.93800
H  20.69700 -3.22400 42.72000
H  21.64100 -8.34600 46.38000
H  27.62800 -6.23300 47.90000
H  24.80300 -0.29900 42.83600
H  22.86300 -1.84400 41.43600
H  21.69800 -0.50800 43.81300
H  21.44200 -0.35200 42.07000
H  22.66900 0.58700 42.83200
H  25.06600 -2.44500 40.63800
H  26.42400 -1.73900 41.48300
H  26.27200 -0.15300 39.96400
H  24.74600 0.31800 40.73400
H  18.23900 -5.78300 42.39800
H  19.23800 -4.36700 42.12100
H  18.15000 -4.56400 43.53000
H  18.59200 -9.80800 45.43200
H  19.54100 -8.97800 46.61000
H  20.30400 -9.68800 45.25300
H  24.13800 -9.54000 47.00600
H  25.44300 -7.80300 49.26100
H  23.46000 -8.68600 49.61400
H  22.69800 -10.03500 48.56900
H  21.99800 -8.47100 48.56500
H  27.49200 -8.58900 48.60500
H  26.89400 -8.77500 46.96800
H  25.49800 -10.69200 48.80700
H  27.27100 -10.68700 49.17500
H  26.58200 -11.10300 47.58600
H  29.25000 -4.68000 48.40400
H  30.16500 -3.67900 47.24600
H  29.77400 -5.37000 46.86900
H  27.84300 -1.65400 43.08100
H  26.46900 2.46600 42.81900
H  27.94500 2.55500 42.03300
H  27.95500 2.66300 43.77900
Mg -10.47800 39.12300 40.71400
C  -9.58200 35.91500 39.60000
C  -7.52600 40.24900 39.49500
C  -11.70200 42.23100 41.14600
C  -13.84200 37.81400 40.93800
N  -8.85300 38.08700 39.68400
C  -8.57800 36.81500 39.43000
C  -7.11700 36.52500 38.88600
C  -6.48700 37.99000 39.05900
C  -7.70700 38.84500 39.43600
C  -5.38500 38.10900 40.24100
C  -6.95300 35.89700 37.50600
C  -6.41000 36.61800 36.22400
H  -6.24400 35.84000 34.91300
N  -9.67900 41.01700 40.33900
C  -8.41700 41.25300 39.81100
C  -8.29000 42.71200 39.59200
C  -9.52800 43.35800 40.09600
C  -10.38000 42.18100 40.59200
C  -7.13400 43.31200 38.90800
C  -9.83200 44.80800 40.10900
O  -9.04100 45.64600 39.69400
C  -11.11200 45.21500 40.68100
N  -12.59800 39.94400 40.86400
C  -12.65800 41.23400 41.31900
C  -14.16900 41.58900 41.66300
C  -14.87600 40.19200 41.63900
C  -13.69900 39.27400 41.10200
C  -14.30400 42.26700 43.06000
C  -16.28800 40.25000 40.89600
C  -17.50500 40.15400 41.78300
N  -11.54700 37.25000 40.47700
C  -12.86000 36.90800 40.55400
C  -13.04400 35.53800 40.22700
C  -11.77600 35.05400 39.96800
C  -10.89400 36.16300 40.01500
C  -14.32900 34.79800 40.20600
C  -11.01200 33.92600 39.60000
O  -11.33700 32.78100 39.38400
C  -9.53600 34.42600 39.34400
C  -8.56300 33.75600 40.11400
O  -8.54800 33.62300 41.35200
O  -7.60900 33.12400 39.29200
C  -6.38800 32.51200 39.87500
H  -6.57200 40.52500 39.04100
H  -12.04400 43.20800 41.49300
H  -14.83600 37.46800 41.22600
H  -6.64200 35.89400 39.63700
H  -6.02600 38.43500 38.17700
H  -5.56900 38.93000 40.93400
H  -4.39000 38.25000 39.81900
H  -5.28300 37.21200 40.85100
H  -7.92900 35.56500 37.15100
H  -6.26400 35.05600 37.57900
H  -5.40300 36.92100 36.50800
H  -7.03100 37.48900 36.01300
H  -7.43200 44.02000 38.13500
H  -6.54200 42.51000 38.46600
H  -6.50100 43.88700 39.58400
H  -11.95200 44.83400 40.10100
H  -11.18700 46.30100 40.73000
H  -10.98600 45.02100 41.74700
H  -14.54900 42.36100 40.99300
H  -15.09400 39.95000 42.67900
H  -15.07400 41.79600 43.67100
H  -14.51300 43.32600 42.91100
H  -13.29900 42.23700 43.48100
H  -16.22700 39.41100 40.20200
H  -16.46400 41.21100 40.41400
H  -18.21200 40.94900 41.54300
H  -17.25400 40.24900 42.84000
H  -18.01200 39.21300 41.57000
H  -14.15200 33.82800 39.74200
H  -14.96300 35.36200 39.52100
H  -14.67900 34.54300 41.20600
H  -9.40100 34.26500 38.27500
H  -5.76000 33.37600 40.09500
H  -5.89600 31.86500 39.14900
H  -6.59100 31.97400 40.80100

