158

Mg 24.11500 -4.64000 45.66700
C  26.16300 -2.25000 44.41000
C  21.55200 -3.40500 43.58700
C  22.39100 -7.41300 46.36200
C  26.94800 -5.96400 47.44900
N  23.88100 -3.03600 44.14300
C  24.85900 -2.13700 43.87400
C  24.31200 -1.04600 42.87400
C  22.74100 -1.26100 43.06100
C  22.71500 -2.66500 43.52100
C  22.11900 -0.13000 43.97000
C  24.88500 -1.34500 41.45900
C  24.53000 -0.29500 40.41700
H  23.92400 -0.77800 39.14500
N  22.23600 -5.31900 45.03100
C  21.37600 -4.72400 44.16000
C  20.20700 -5.55500 43.85100
C  20.37400 -6.72600 44.68100
C  21.70200 -6.53100 45.43700
C  19.12800 -5.10000 42.93000
C  19.61500 -8.01500 44.54400
O  18.71100 -8.09200 43.74200
C  19.71400 -9.20800 45.47300
N  24.59500 -6.46400 46.78200
C  23.72500 -7.49800 46.87000
C  24.32500 -8.71100 47.57800
C  25.71900 -8.17600 47.98300
C  25.77200 -6.73600 47.39900
C  23.47100 -9.19500 48.74300
C  26.86600 -9.00800 47.44000
C  27.83900 -9.48100 48.43400
N  26.19400 -4.16900 45.99400
C  27.22900 -4.72200 46.75900
C  28.44300 -3.92400 46.63100
C  28.01700 -2.90400 45.80300
C  26.68100 -3.17000 45.29100
C  29.71400 -4.14700 47.42400
C  28.40900 -1.66500 45.19600
O  29.43800 -0.99800 45.30000
C  27.28700 -1.32500 44.16700
C  26.99800 0.08800 44.27100
O  26.49300 0.62500 45.28100
O  27.31200 0.68400 43.07000
C  27.51400 2.12200 43.13500
H  20.61200 -2.99700 43.21100
H  21.97700 -8.40300 46.56500
H  27.82500 -6.38800 47.94300
H  24.49000 -0.02700 43.21600
H  22.31600 -1.22800 42.05700
H  21.15600 0.11900 43.52200
H  22.70000 0.78900 43.89100
H  21.96800 -0.40300 45.01400
H  24.34500 -2.24500 41.16500
H  25.95000 -1.55100 41.56400
H  25.43900 0.25300 40.16700
H  23.80700 0.34100 40.92900
H  18.40700 -4.37800 43.31500
H  18.67600 -5.95500 42.42900
H  19.68000 -4.58100 42.14600
H  19.82600 -8.92500 46.52000
H  20.54600 -9.63500 44.91300
H  18.86600 -9.89000 45.40900
H  24.46100 -9.60600 46.97100
H  25.75500 -7.98800 49.05600
H  24.12600 -9.16700 49.61400
H  23.12900 -10.22900 48.71900
H  22.57700 -8.61200 48.96600
H  27.48000 -8.46000 46.72600
H  26.40000 -9.83600 46.90500
H  27.79000 -10.55900 48.59000
H  27.69300 -8.95000 49.37400
H  28.79400 -9.20400 47.98800
H  29.54300 -4.11000 48.50000
H  30.38300 -3.31900 47.18800
H  30.25700 -5.07200 47.23400
H  27.73600 -1.65300 43.22900
H  26.53400 2.57600 43.28600
H  27.96500 2.43500 42.19400
H  28.10100 2.41400 44.00600
Mg 25.55000 1.99900 29.18800
C  27.43500 1.55700 32.17400
C  22.82400 2.57600 31.08500
C  23.87200 2.24300 26.32200
C  28.41900 0.86000 27.39000
N  25.19900 2.00600 31.39500
C  26.10700 2.01500 32.35900
C  25.46800 2.32000 33.75500
C  23.96900 2.46200 33.40700
C  23.98100 2.34000 31.87400
C  23.10800 1.41200 34.15900
C  26.23300 3.51000 34.44100
C  26.48600 3.14500 35.92900
H  26.28700 4.13500 37.05600
N  23.64100 2.28000 28.74900
C  22.60000 2.51900 29.67200
C  21.33100 2.59400 29.05500
C  21.61500 2.40600 27.65500
C  23.08300 2.28300 27.53700
C  20.07400 2.52200 29.88900
C  20.62400 2.39100 26.48600
O  20.93300 2.31300 25.31500
C  19.21000 2.37900 26.81400
N  26.05600 1.73400 27.14500
C  25.21300 2.00300 26.15300
C  25.96900 2.28200 24.78400
C  27.34900 1.72100 25.20100
C  27.32600 1.42100 26.67000
C  25.37800 1.60800 23.54500
C  28.64600 2.57700 24.83200
C  28.75700 4.05100 25.40300
N  27.47700 1.16400 29.63400
C  28.50700 0.79100 28.80700
C  29.69200 0.63700 29.53400
C  29.29700 0.87800 30.86900
C  27.98300 1.23200 30.90400
C  31.07400 0.21000 28.97800
C  29.73800 0.90900 32.32200
O  30.82600 0.64300 32.78800
C  28.53900 1.30100 33.16800
C  28.25100 0.22300 34.14800
O  27.76300 -0.80700 33.78100
O  28.55100 0.45700 35.48600
C  28.28200 -0.64600 36.39800
H  21.95900 2.94400 31.64100
H  23.27100 2.22200 25.41000
H  29.30000 0.50500 26.85100
H  25.68600 1.39100 34.28100
H  23.64800 3.44100 33.76200
H  22.74500 0.66400 33.45400
H  22.23700 1.76300 34.71200
H  23.71300 0.93800 34.93300
H  25.49000 4.30600 34.40800
H  27.20300 3.84000 34.07000
H  27.50900 2.77300 35.88700
H  26.05300 2.17800 36.18700
H  20.02900 1.53400 30.34600
H  19.12800 2.69400 29.37600
H  20.09800 3.26200 30.69000
H  19.02600 3.38200 27.19700
H  18.94100 1.58200 27.50700
H  18.65000 2.26000 25.88600
H  25.91200 3.36500 24.67800
H  27.38400 0.69000 24.85000
H  24.83600 0.69000 23.76900
H  26.17400 1.43300 22.82100
H  24.63200 2.25900 23.08900
H  28.62500 2.66200 23.74600
H  29.56100 2.03400 25.06900
H  27.91600 4.28400 26.05500
H  28.89700 4.81000 24.63300
H  29.65500 4.03900 26.02100
H  31.81400 0.22900 29.77800
H  31.45400 0.83900 28.17200
H  30.99000 -0.80100 28.57900
H  28.96800 2.20700 33.59600
H  29.02500 -1.38200 36.09200
H  27.25200 -1.00200 36.37300
H  28.59600 -0.42700 37.41900

