158

Mg 2.00000 -1.74900 43.35200
C  5.37300 -0.62400 42.68300
C  0.76500 0.84700 41.57800
C  -1.05200 -3.36300 43.26800
C  3.53700 -4.87000 44.24200
N  2.98300 -0.23500 42.08200
C  4.31000 0.15400 42.10000
C  4.51500 1.44900 41.28600
C  3.08800 2.08700 41.34600
C  2.21000 0.82000 41.51400
C  2.88400 3.11200 42.49900
C  4.87900 1.11500 39.81800
C  6.09200 1.88400 39.26400
H  6.07800 2.15500 37.79300
N  0.08800 -1.24600 42.65800
C  -0.20900 -0.08800 42.00100
C  -1.63100 -0.07300 41.75400
C  -2.27300 -1.24100 42.28200
C  -1.07900 -2.03800 42.73400
C  -2.36000 1.12700 40.93700
C  -3.74000 -1.56400 42.31700
O  -4.48600 -0.77600 41.69500
C  -4.28800 -2.72200 43.11300
N  1.36100 -3.70700 43.65300
C  0.02600 -4.14600 43.63300
C  -0.07500 -5.63900 43.88500
C  1.37500 -6.12400 43.88600
C  2.14900 -4.80300 43.92700
C  -0.97800 -6.18300 45.03300
C  1.61500 -7.11000 42.75500
C  2.18400 -8.50800 43.09700
N  4.05500 -2.52800 43.73900
C  4.44500 -3.86300 44.04400
C  5.87300 -3.89100 44.19000
C  6.29900 -2.62400 43.57900
C  5.13500 -1.87700 43.32600
C  6.73100 -4.95100 44.83000
C  7.42000 -1.78200 43.25200
O  8.59600 -2.06500 43.25200
C  6.83200 -0.37700 42.82500
C  7.15500 0.56100 43.90300
O  7.16900 0.23400 45.09000
O  7.21600 1.85900 43.45700
C  7.48900 2.85600 44.56900
H  0.37900 1.71900 41.04500
H  -2.01400 -3.87100 43.17400
H  3.94400 -5.82600 44.57900
H  5.19100 2.15000 41.77600
H  2.73100 2.55300 40.42800
H  3.77900 3.73400 42.51200
H  2.88300 2.53100 43.42200
H  2.02000 3.77300 42.43900
H  4.03500 1.39200 39.18600
H  5.16000 0.06200 39.82600
H  6.97200 1.25700 39.40300
H  6.25900 2.86400 39.71100
H  -1.82300 1.31200 40.00700
H  -2.12800 2.06800 41.43400
H  -3.37900 0.94400 40.59700
H  -5.28400 -2.55400 43.52300
H  -3.61400 -2.89100 43.95300
H  -4.34800 -3.65600 42.55500
H  -0.52100 -6.03200 42.97100
H  1.69000 -6.60400 44.81300
H  -1.81900 -6.70700 44.57900
H  -1.39900 -5.48600 45.75700
H  -0.56000 -6.98400 45.64200
H  2.46400 -6.73100 42.18700
H  0.83700 -7.31200 42.01900
H  3.18500 -8.55200 42.66600
H  1.48700 -9.21400 42.64600
H  2.17200 -8.70300 44.16900
H  6.13800 -5.37900 45.63800
H  7.59200 -4.40100 45.20900
H  6.94400 -5.82100 44.21000
H  7.24300 0.01700 41.89600
H  7.46300 3.87100 44.17300
H  8.53500 2.78400 44.87000
H  6.69300 2.67000 45.29000
Mg -11.07700 38.98200 42.37500
C  -8.79700 36.23100 41.63400
C  -9.02200 41.09700 40.74900
C  -13.55400 41.13200 42.55500
C  -13.34500 36.44600 43.58500
N  -9.18500 38.59200 41.25600
C  -8.46600 37.44100 40.97700
C  -7.31900 37.74800 39.97300
C  -7.33200 39.34200 39.84500
C  -8.60400 39.72800 40.62900
C  -6.12900 40.01500 40.58000
C  -7.41900 36.95600 38.66500
C  -6.14600 36.32900 38.13500
H  -5.47200 37.20400 37.10600
N  -11.18200 40.82900 41.93400
C  -10.20400 41.58600 41.34300
C  -10.57700 42.94000 41.35500
C  -11.87400 43.01700 41.83900
C  -12.26700 41.64600 42.18500
C  -9.68700 44.03800 40.89700
C  -12.68800 44.24700 42.08500
O  -12.14900 45.34000 41.89800
C  -14.16200 44.31400 42.54700
N  -13.18800 38.74100 42.94400
C  -14.03900 39.86700 42.87700
C  -15.48600 39.50500 43.15800
C  -15.46300 37.95400 43.50700
C  -13.90800 37.73200 43.45400
C  -16.02200 40.40000 44.29400
C  -16.24000 37.07800 42.40600
C  -16.75000 35.76300 42.87500
N  -11.10200 36.88200 42.80900
C  -12.00600 36.08400 43.36100
C  -11.47100 34.75900 43.54900
C  -10.22700 34.76800 42.89400
C  -9.99700 36.09100 42.45000
C  -12.06800 33.53300 44.23600
C  -9.00200 33.95300 42.59200
O  -8.75900 32.79400 42.89900
C  -8.17100 34.88300 41.63500
C  -6.74300 34.81300 42.16200
O  -5.94300 33.83100 41.89900
O  -6.52100 35.98100 42.84600
C  -5.12700 36.01800 43.45400
H  -8.57200 41.91900 40.18900
H  -14.39100 41.83200 42.58200
H  -13.95000 35.57700 43.85200
H  -6.42200 37.48900 40.53500
H  -7.43600 39.72800 38.83100
H  -5.39900 39.23800 40.80400
H  -6.29600 40.46000 41.56100
H  -5.78800 40.86600 39.99000
H  -7.68500 37.70000 37.91400
H  -8.11900 36.12100 38.70500
H  -6.38100 35.33800 37.74600
H  -5.51300 36.13200 39.00000
H  -9.87600 44.94200 41.47600
H  -9.81800 44.30700 39.84900
H  -8.62000 43.81700 40.93600
H  -14.41300 45.37300 42.61800
H  -14.29100 44.03200 43.59200
H  -14.73700 43.76300 41.80300
H  -16.01800 39.55000 42.20800
H  -15.98300 37.78900 44.45100
H  -16.00100 39.83800 45.22700
H  -17.04100 40.74900 44.12500
H  -15.39100 41.26400 44.50200
H  -15.63300 36.93800 41.51200
H  -17.04700 37.70200 42.02200
H  -16.33000 35.62500 43.87100
H  -16.26900 35.02000 42.23900
H  -17.83800 35.72200 42.81700
H  -12.30800 33.99600 45.19300
H  -11.48900 32.62100 44.38500
H  -13.02900 33.33000 43.76500
H  -8.23500 34.54400 40.60100
H  -4.43100 36.66100 42.91600
H  -4.69400 35.01800 43.48200
H  -5.26800 36.33200 44.48800

