158

Mg 36.51000 49.51900 24.85800
C  36.28400 47.80800 27.97400
C  35.58900 52.35700 26.72100
C  36.63300 51.24900 22.05800
C  37.14500 46.57000 23.29300
N  35.89000 49.97100 27.10700
C  36.01900 49.14600 28.17000
C  35.86400 49.91900 29.48800
C  35.26600 51.30100 29.03300
C  35.61900 51.22400 27.53700
C  33.77000 51.44600 29.27800
C  37.25700 49.89000 30.27900
C  37.16700 49.56900 31.78100
H  35.90700 50.09300 32.51000
N  36.13600 51.47400 24.44600
C  35.86600 52.50100 25.35400
C  35.71000 53.75800 24.65400
C  36.08100 53.52600 23.28500
C  36.27700 52.03100 23.14900
C  35.40000 55.07000 25.23000
C  36.15200 54.49400 22.16900
O  36.27100 54.10000 21.00300
C  36.04300 55.98400 22.27400
N  36.81200 48.96900 22.95800
C  36.82400 49.87200 21.94400
C  37.12600 49.25500 20.55100
C  37.42600 47.73400 20.93500
C  37.10700 47.72100 22.47400
C  35.98800 49.43900 19.55400
C  38.90800 47.27300 20.56800
C  39.99000 47.87800 21.47900
N  36.62500 47.58100 25.42700
C  36.93800 46.43600 24.63200
C  37.02200 45.32300 25.45900
C  36.82400 45.81400 26.76600
C  36.52700 47.14300 26.70000
C  37.37000 43.97000 24.98900
C  36.75400 45.47000 28.14300
O  36.93000 44.34200 28.68500
C  36.43400 46.74700 28.98100
C  35.12000 46.41700 29.58500
O  34.04100 46.38400 29.01800
O  35.31200 46.30100 31.00300
C  34.07200 45.82500 31.76500
H  35.33400 53.25400 27.28800
H  36.65300 51.78700 21.10800
H  37.57100 45.72000 22.75600
H  35.11000 49.38800 30.07000
H  35.85300 52.18400 29.28400
H  33.25900 50.73300 28.63100
H  33.48100 52.42200 28.88800
H  33.60200 51.31500 30.34700
H  37.67600 50.89500 30.31200
H  37.96800 49.20900 29.81200
H  38.13000 49.90300 32.16800
H  37.05600 48.48600 31.83700
H  34.66600 55.69100 24.71500
H  36.30800 55.67100 25.27100
H  34.80300 54.97700 26.13800
H  35.09600 56.22600 22.75500
H  36.07200 56.36700 21.25400
H  36.87100 56.33100 22.89200
H  38.05000 49.70100 20.18500
H  36.70700 47.06400 20.46600
H  35.04000 49.13800 20.00100
H  36.13900 48.80300 18.68100
H  35.88600 50.49000 19.28400
H  39.18200 47.71100 19.60800
H  38.90900 46.18300 20.60600
H  40.73800 47.09600 21.35400
H  39.74700 48.16800 22.50200
H  40.31300 48.81100 21.01700
H  38.19900 43.97100 24.28100
H  36.51200 43.47500 24.53400
H  37.65800 43.35500 25.84100
H  37.11400 47.01200 29.79000
H  33.40700 45.44000 30.99300
H  33.57400 46.70100 32.18100
H  34.48000 45.13400 32.50300
Mg 9.51300 47.03500 26.24900
C  7.21800 46.82800 28.83700
C  11.78400 48.02800 28.34300
C  11.53600 47.62400 23.61100
C  6.80600 46.73200 24.01500
N  9.48700 47.45000 28.44100
C  8.49200 47.17000 29.31500
C  8.94300 47.39500 30.77500
C  10.37000 47.97400 30.60000
C  10.60600 47.88400 29.04300
C  10.52700 49.41600 31.20300
C  8.75700 46.12300 31.75300
C  9.76100 45.97500 32.91100
H  9.16200 45.46500 34.24900
N  11.43900 47.47700 26.05400
C  12.27700 47.86500 27.04200
C  13.60200 47.94700 26.51700
C  13.54900 47.73600 25.08000
C  12.11200 47.64500 24.86700
C  14.79200 47.96700 27.43800
C  14.64300 47.65600 24.03100
O  14.40600 47.49000 22.82600
C  16.07200 47.45900 24.53200
N  9.20300 47.13000 24.10600
C  10.22500 47.44700 23.23800
C  9.77300 47.36700 21.75900
C  8.24200 47.15100 21.88200
C  8.06300 47.02600 23.41700
C  10.11900 48.71700 21.07300
C  7.68400 45.89900 21.04600
C  6.44500 46.27000 20.21200
N  7.43000 46.93200 26.35200
C  6.47500 46.67300 25.39000
C  5.22900 46.47900 25.95300
C  5.44400 46.50200 27.30900
C  6.83500 46.78200 27.53900
C  3.90700 46.37900 25.32200
C  4.78900 46.32100 28.61200
O  3.69600 45.98600 29.00300
C  6.00500 46.56700 29.68300
C  6.01100 45.37100 30.46800
O  6.76200 44.40900 30.37100
O  5.27700 45.51800 31.58400
C  5.16900 44.44900 32.63900
H  12.61300 47.95900 29.05100
H  12.15700 47.75300 22.72300
H  5.92200 46.52800 23.40800
H  8.19300 48.11700 31.09700
H  11.11400 47.31500 31.04900
H  10.99700 49.29300 32.17900
H  9.55100 49.79300 31.50800
H  10.98100 50.19500 30.59100
H  8.85400 45.23000 31.13600
H  7.77600 46.13300 32.22900
H  10.39500 46.82600 33.16000
H  10.42700 45.17300 32.59200
H  15.30800 48.91300 27.26900
H  15.61000 47.30500 27.15500
H  14.56600 47.92900 28.50400
H  16.78000 47.29500 23.72000
H  16.11800 46.61700 25.22200
H  16.38500 48.36500 25.05200
H  10.26300 46.63300 21.11900
H  7.65700 48.04200 21.65400
H  9.19500 49.23600 20.82000
H  10.67800 48.57000 20.14900
H  10.71200 49.30400 21.77500
H  7.29600 45.16800 21.75600
H  8.40200 45.53000 20.31400
H  6.41100 45.64400 19.32000
H  6.41500 47.34200 20.02000
H  5.49200 46.04800 20.69200
H  4.06900 45.78000 24.42600
H  3.62100 47.38400 25.01100
H  3.11000 45.96300 25.93700
H  5.71300 47.38500 30.34100
H  5.23700 43.48700 32.12900
H  4.16400 44.48700 33.05800
H  5.97700 44.50500 33.36800

