158

Mg 35.02100 48.21500 26.19200
C  35.13900 46.20900 29.04200
C  34.06400 50.87600 28.03300
C  34.43500 49.90900 23.31800
C  35.49800 45.19900 24.31500
N  34.51300 48.50300 28.23900
C  34.74600 47.56700 29.26800
C  34.56900 48.22300 30.67400
C  33.91000 49.60700 30.27500
C  34.18400 49.69700 28.74600
C  32.35800 49.72700 30.56400
C  35.91600 48.43000 31.39500
C  36.11200 48.11600 32.91600
H  36.24900 49.29000 33.88700
N  34.40900 50.14300 25.79400
C  34.04300 51.08900 26.61700
C  33.62600 52.35100 26.02000
C  33.81900 52.06300 24.61100
C  34.23500 50.63900 24.54400
C  32.95600 53.46900 26.74900
C  33.49100 52.95900 23.39400
O  33.54300 52.55200 22.24900
C  33.02700 54.38700 23.48400
N  34.71800 47.61500 24.18000
C  34.68200 48.50900 23.18200
C  34.56400 47.83600 21.85400
C  35.10900 46.43300 22.09400
C  35.19600 46.35700 23.63700
C  33.23000 47.71400 21.08200
C  36.51500 46.12100 21.46600
C  36.77800 44.66700 20.91100
N  35.27500 46.10600 26.54500
C  35.44900 44.99000 25.66600
C  35.73800 43.77600 26.43600
C  35.65500 44.20000 27.78100
C  35.32300 45.65400 27.78400
C  36.16100 42.45200 25.89800
C  35.77500 43.82000 29.24600
O  36.23300 42.80900 29.79300
C  35.42400 45.11700 30.06900
C  34.29000 44.79300 30.97600
O  33.20400 44.33400 30.59600
O  34.64600 44.90800 32.34400
C  33.51400 44.79600 33.27400
H  33.93100 51.74900 28.67500
H  34.30200 50.37800 22.34100
H  35.68300 44.34900 23.65500
H  33.91400 47.65900 31.33900
H  34.49200 50.37900 30.77900
H  32.33700 50.62500 31.18100
H  32.00000 48.74100 30.86000
H  31.73100 50.11400 29.76100
H  36.39200 49.40500 31.29200
H  36.58700 47.82200 30.79000
H  37.06900 47.59300 32.92100
H  35.24800 47.54600 33.25700
H  33.71400 54.18500 27.06900
H  32.42900 53.07800 27.61900
H  32.24100 53.99600 26.11700
H  32.00200 54.49900 23.83600
H  33.31600 54.83200 22.53200
H  33.64900 54.91600 24.20700
H  35.30000 48.40400 21.28500
H  34.37900 45.70400 21.74300
H  32.36600 48.16400 21.57100
H  32.95100 46.72100 20.73000
H  33.37900 48.24600 20.14200
H  37.17700 46.32400 22.30700
H  36.75300 46.77100 20.62400
H  35.81400 44.30300 20.55500
H  37.19000 44.07200 21.72700
H  37.54500 44.56100 20.14400
H  36.65000 42.74900 24.97000
H  35.32600 41.77200 25.73200
H  37.04800 42.14300 26.45000
H  36.23100 45.47300 30.71100
H  32.71800 45.50100 33.03200
H  34.00400 44.92100 34.24000
H  33.12600 43.77800 33.30700
Mg 6.28800 54.28200 39.50000
C  5.83800 50.99300 39.47000
C  9.50600 53.91200 38.40400
C  6.31400 57.60200 38.67100
C  2.74700 54.86100 40.18500
N  7.51800 52.58400 38.73300
C  7.16500 51.29000 38.98900
C  8.31200 50.31700 38.63100
C  9.51100 51.35300 38.81000
C  8.84700 52.73200 38.68800
C  10.34400 51.37500 40.08700
C  8.17400 49.71400 37.22200
C  7.78200 50.59600 35.99000
H  6.30300 50.65900 35.38000
N  7.69400 55.57600 38.61000
C  8.95700 55.24800 38.26000
C  9.61000 56.37200 37.64000
C  8.63100 57.40400 37.65800
C  7.51600 56.90900 38.35900
C  11.05000 56.52100 37.29900
C  8.85500 58.76000 37.15000
O  9.94900 59.07400 36.70600
C  7.85000 59.95700 37.24600
N  4.60300 56.04500 39.41500
C  5.01600 57.28600 39.10100
C  3.98600 58.34700 39.41000
C  2.79100 57.40500 39.83500
C  3.35800 56.01100 39.80500
C  4.42200 59.33000 40.50200
C  1.44000 57.55300 39.06000
C  0.75700 58.91200 39.16000
N  4.66600 53.23600 39.94900
C  3.32100 53.55700 40.19300
C  2.62600 52.29800 40.48500
C  3.54800 51.27700 40.22400
C  4.76000 51.91800 39.82600
C  1.22900 52.05700 40.90400
C  3.69000 49.77700 40.24700
O  2.92100 48.85200 40.50500
C  5.20900 49.61700 39.74400
C  4.95400 48.75800 38.54300
O  4.52600 49.04400 37.43600
O  5.24000 47.53600 38.94300
C  4.60900 46.37100 38.21800
H  10.54700 53.66500 38.18100
H  6.39300 58.68800 38.59200
H  1.66900 54.86400 40.35900
H  8.36700 49.44900 39.28900
H  10.07500 51.08800 37.91600
H  11.38600 51.49900 39.79400
H  10.15600 50.47600 40.67400
H  10.08400 52.22900 40.71300
H  7.34800 49.00200 37.18500
H  9.12900 49.23800 37.00300
H  8.47700 50.34700 35.18800
H  7.95200 51.65400 36.18800
H  11.20100 56.77400 36.25000
H  11.63100 55.64000 37.57100
H  11.48500 57.39700 37.77900
H  6.92700 59.53000 36.85300
H  8.22400 60.60900 36.45700
H  7.74700 60.48300 38.19600
H  3.69600 58.93200 38.53800
H  2.49200 57.60200 40.86400
H  3.71500 60.09000 40.83400
H  5.31600 59.88800 40.22200
H  4.76600 58.81700 41.40100
H  0.81300 56.82700 39.57800
H  1.59200 57.30900 38.00900
H  1.35600 59.74300 39.53200
H  -0.07600 58.72200 39.83800
H  0.41500 59.24500 38.18000
H  0.70900 53.01400 40.88000
H  1.28200 51.51300 41.84700
H  0.82400 51.27300 40.26500
H  5.77700 49.13400 40.53900
H  5.20900 45.46200 38.27400
H  4.43800 46.42000 37.14300
H  3.63000 46.11000 38.62000

