158

Mg 47.45000 45.69200 43.18100
C  44.25400 44.36100 42.78800
C  48.76700 42.42900 43.28700
C  50.51500 46.95100 43.22900
C  46.13600 48.97900 42.73000
N  46.67800 43.69000 42.94600
C  45.25800 43.37800 42.90800
C  45.00900 41.73400 42.99200
C  46.48900 41.21300 43.26200
C  47.38000 42.55000 43.19500
C  46.73300 40.23500 44.41100
C  44.21300 40.89900 41.84200
C  44.60700 41.38700 40.42400
H  44.94000 40.35800 39.34100
N  49.38200 44.79000 43.16400
C  49.65900 43.44600 43.28000
C  51.06600 43.29100 43.13300
C  51.65900 44.61000 43.25400
C  50.54000 45.54900 43.27600
C  51.79800 42.00300 43.05300
C  53.18700 44.93300 43.36000
O  54.03600 44.02500 43.36300
C  53.66100 46.31500 43.58300
N  48.16900 47.62900 43.05300
C  49.46500 47.87000 43.17000
C  49.80700 49.38600 42.92300
C  48.47900 49.96900 42.45800
C  47.51600 48.75400 42.76000
C  50.37300 49.90600 44.28100
C  48.38800 50.58900 40.98700
C  48.52900 52.09000 40.95300
N  45.51300 46.55000 42.77000
C  45.15500 47.93000 42.71200
C  43.66300 47.96000 42.53100
C  43.27200 46.53700 42.47700
C  44.42000 45.79700 42.75100
C  42.76300 49.10700 42.36400
C  42.22800 45.57500 42.18700
O  41.09600 45.74000 41.74600
C  42.81600 44.20500 42.45700
C  42.07100 43.47500 43.48400
O  41.41900 42.46100 43.24700
O  42.30200 43.88000 44.75100
C  41.84200 42.90800 45.78100
H  49.21900 41.44300 43.41400
H  51.47300 47.47200 43.17000
H  45.77900 49.97600 42.46200
H  44.38200 41.53600 43.86200
H  46.92400 40.80300 42.35100
H  47.15600 40.89700 45.16700
H  47.38500 39.40900 44.12600
H  45.72500 39.96100 44.72000
H  43.15400 41.10100 42.00300
H  44.26100 39.82100 42.00100
H  45.43000 42.09900 40.47800
H  43.68900 41.80600 40.01400
H  52.08400 41.71800 44.06500
H  52.58800 42.05700 42.30400
H  51.15400 41.20000 42.69300
H  53.34900 46.88300 42.70600
H  54.74800 46.36000 43.64800
H  53.23700 46.68800 44.51500
H  50.58500 49.55100 42.17700
H  48.26700 50.65400 43.27900
H  51.16800 49.19000 44.48800
H  49.70400 49.91500 45.14100
H  50.89700 50.82400 44.01700
H  47.45500 50.34400 40.48000
H  49.15400 49.99900 40.48200
H  48.11400 52.27100 39.96200
H  49.59200 52.32800 40.98900
H  47.96100 52.48800 41.79300
H  41.99000 48.94800 43.11600
H  42.24700 49.11100 41.40400
H  43.30100 50.05400 42.31700
H  42.85300 43.63700 41.52800
H  40.77000 42.71500 45.73500
H  42.17400 43.38500 46.70300
H  42.30900 41.94600 45.57000
Mg 16.99800 52.59100 25.94600
C  18.94300 51.15500 28.57900
C  14.85100 53.63100 28.42600
C  15.28800 53.91300 23.49600
C  19.29000 51.20400 23.58300
N  17.00600 52.46300 28.29100
C  17.90700 51.86700 29.14800
C  17.48100 51.98000 30.55700
C  15.97500 52.61100 30.51600
C  15.84700 52.82500 28.96600
C  14.88600 51.81400 31.31400
C  18.44700 52.85700 31.45400
C  18.54300 52.50300 32.94200
H  17.74000 53.53000 33.86600
N  15.29600 53.58300 25.95800
C  14.49000 53.86000 27.09500
C  13.30300 54.50000 26.59200
C  13.46400 54.71900 25.14100
C  14.76300 54.09400 24.82100
C  12.19500 54.94500 27.52700
C  12.49400 55.40700 24.07700
O  12.80000 55.64800 22.94000
C  11.20000 55.96300 24.49600
N  17.29900 52.63200 23.82700
C  16.34900 53.18700 23.06000
C  16.50900 52.80900 21.62800
C  17.96700 52.19200 21.55600
C  18.21400 51.97800 23.08500
C  15.32800 51.95000 21.04700
C  19.04700 53.06300 20.94400
C  20.17400 52.28100 20.33400
N  18.67000 51.40800 26.03200
C  19.49500 50.93700 24.93500
C  20.51300 50.09500 25.51700
C  20.39700 50.26300 26.89100
C  19.23500 51.04200 27.19900
C  21.58900 49.27900 24.83400
C  20.91200 49.74200 28.18900
O  21.80500 48.91500 28.45000
C  20.01500 50.40900 29.35100
C  19.38700 49.26100 30.06600
O  18.31900 48.63500 29.82600
O  20.10800 48.98300 31.13200
C  19.46800 48.24100 32.18200
H  14.13200 53.92600 29.19400
H  14.61400 54.24200 22.70200
H  19.97400 50.72500 22.88000
H  17.38400 50.94000 30.87200
H  16.04600 53.61000 30.94500
H  14.25600 52.40800 31.97600
H  15.32400 51.01800 31.91500
H  14.35700 51.22100 30.56800
H  18.33100 53.92700 31.28100
H  19.47900 52.70400 31.13700
H  19.59400 52.61700 33.20800
H  18.25500 51.49300 33.23200
H  11.73500 55.81600 27.05900
H  12.63300 55.41900 28.40500
H  11.39100 54.23200 27.70800
H  10.76100 55.36900 25.29700
H  10.47400 55.79300 23.70100
H  11.08500 56.94200 24.96100
H  16.63500 53.78000 21.15000
H  17.95900 51.21100 21.08300
H  14.61700 51.69800 21.83400
H  15.72700 51.02000 20.64200
H  14.83800 52.55300 20.28300
H  19.41700 53.66300 21.77500
H  18.55400 53.63500 20.15900
H  19.99400 51.22500 20.13400
H  20.99500 52.20400 21.04700
H  20.55600 52.79300 19.45200
H  21.29400 48.83800 23.88200
H  22.02600 48.50200 25.46200
H  22.43300 49.87100 24.47900
H  20.51900 51.06600 30.06000
H  19.78900 48.67500 33.12900
H  19.80800 47.20600 32.20300
H  18.40400 48.38000 32.36800

