158

Mg 1.45800 -1.80300 42.93200
C  4.98200 -1.08000 42.57900
C  0.85700 0.94600 40.87100
C  -1.68400 -2.84800 42.62200
C  2.40000 -4.94300 44.10000
N  2.76800 -0.24100 41.91600
C  4.17500 -0.20700 41.84500
C  4.60600 0.88900 40.86100
C  3.30300 1.64300 40.44800
C  2.25000 0.76000 41.19800
C  3.16100 3.21500 40.72000
C  5.29700 0.24000 39.71600
C  6.39500 1.10300 38.94300
H  6.16100 1.35600 37.44400
N  -0.24400 -0.90900 42.14700
C  -0.28300 0.22300 41.33200
C  -1.62600 0.49200 40.94300
C  -2.40900 -0.59800 41.45700
C  -1.44800 -1.52600 42.13900
C  -2.01600 1.75800 40.30900
C  -3.92600 -0.82800 41.14300
O  -4.58500 -0.06000 40.45800
C  -4.54300 -2.00800 41.79100
N  0.48500 -3.63700 43.20400
C  -0.82800 -3.75900 43.18900
C  -1.23800 -5.22400 43.44300
C  0.05800 -5.82200 44.07100
C  1.06700 -4.74200 43.75700
C  -2.55000 -5.37600 44.25600
C  0.40200 -7.36200 43.75400
C  1.52600 -7.60200 42.79900
N  3.21400 -2.76100 43.36600
C  3.41100 -4.04200 43.88600
C  4.76300 -4.21900 44.22500
C  5.47200 -3.07000 43.75100
C  4.47000 -2.20500 43.22500
C  5.40400 -5.40500 44.94700
C  6.77700 -2.50000 43.53900
O  7.88000 -2.92800 43.73300
C  6.43400 -1.13500 42.76700
C  6.89100 -0.07700 43.73800
O  6.44200 0.16000 44.86200
O  7.97900 0.59400 43.29200
C  8.52300 1.75100 44.09000
H  0.64100 1.81800 40.25100
H  -2.60500 -3.41400 42.46700
H  2.42300 -5.84900 44.70900
H  5.22500 1.64000 41.35200
H  3.06800 1.59900 39.38400
H  2.27400 3.46000 41.30300
H  3.23900 3.76300 39.78100
H  4.06500 3.47800 41.27000
H  4.60500 -0.19600 38.99600
H  5.95000 -0.57000 40.04200
H  7.39900 0.69300 39.05000
H  6.38100 2.06700 39.45200
H  -1.33700 2.57600 40.55100
H  -3.02300 2.00100 40.64700
H  -2.16000 1.59100 39.24100
H  -4.21000 -2.90800 41.27400
H  -5.62100 -1.92200 41.92400
H  -4.24000 -2.12600 42.83200
H  -1.51000 -5.64200 42.47400
H  -0.05700 -5.76100 45.15300
H  -3.44300 -5.12500 43.68300
H  -2.63700 -4.73500 45.13300
H  -2.61500 -6.39500 44.63900
H  -0.47800 -7.90800 43.41500
H  0.69500 -7.82500 44.69600
H  1.15700 -8.35900 42.10800
H  2.38300 -8.06500 43.28800
H  1.80300 -6.74700 42.18200
H  4.79500 -5.98900 45.63700
H  6.26800 -5.01900 45.48800
H  5.79000 -6.14600 44.24600
H  6.99600 -1.16700 41.83300
H  9.51600 1.60000 44.51500
H  7.95100 2.05500 44.96600
H  8.53700 2.57500 43.37700
Mg 35.99600 48.81000 24.27200
C  36.34400 47.09500 27.30700
C  34.75100 51.53500 25.93900
C  35.69500 50.40000 21.26600
C  37.27900 45.95400 22.58200
N  35.43900 49.18200 26.33700
C  35.69300 48.37400 27.46400
C  35.48900 49.17300 28.79000
C  34.69800 50.48100 28.29000
C  34.98100 50.40500 26.77300
C  33.25100 50.64400 28.71400
C  36.77700 49.43700 29.59000
C  36.74800 49.09100 31.13500
H  35.38400 49.00100 31.91600
N  35.43200 50.74000 23.66500
C  34.93300 51.71000 24.50300
C  34.51900 52.81400 23.70800
C  34.89100 52.55100 22.37700
C  35.36800 51.18100 22.35700
C  33.87700 54.02600 24.31600
C  34.72600 53.48300 21.17300
O  35.20700 53.13900 20.09800
C  34.01400 54.82400 21.25600
N  36.15500 48.12100 22.13100
C  36.07300 49.04400 21.21800
C  36.25400 48.30400 19.85800
C  37.07200 47.02500 20.22000
C  36.80300 47.00100 21.69800
C  34.89400 48.03200 19.20200
C  38.50100 47.08000 19.67500
C  39.74100 47.24600 20.69500
N  36.54700 46.87200 24.80300
C  37.10700 45.85600 24.00200
C  37.70100 44.87100 24.85400
C  37.41700 45.33000 26.18300
C  36.60400 46.49300 26.06200
C  38.44600 43.69400 24.34500
C  37.53300 45.02600 27.63900
O  38.09300 44.09100 28.24800
C  36.87000 46.18100 28.37300
C  35.82900 45.72100 29.38000
O  34.67600 45.50600 29.13900
O  36.45200 45.55100 30.55700
C  35.59400 44.82100 31.57000
H  34.41000 52.40200 26.50900
H  35.51100 50.81100 20.27100
H  37.70800 45.07000 22.10600
H  34.81200 48.60700 29.43000
H  35.13100 51.38000 28.72900
H  32.92800 49.92600 29.46800
H  32.58800 50.51000 27.85900
H  33.03600 51.63600 29.11100
H  37.13400 50.45600 29.44000
H  37.55500 48.72800 29.30600
H  37.32100 49.88200 31.62000
H  37.31800 48.20100 31.40100
H  34.46800 54.91300 24.54100
H  33.49500 53.82300 25.31700
H  33.02900 54.29000 23.68500
H  32.93800 54.68300 21.35500
H  34.16900 55.35800 20.31900
H  34.34100 55.52200 22.02700
H  36.77600 48.99200 19.19300
H  36.52500 46.18100 19.80000
H  34.01800 48.19300 19.83000
H  34.73700 47.04800 18.76000
H  34.81400 48.68500 18.33300
H  38.67300 47.83200 18.90600
H  38.69300 46.16800 19.10900
H  40.36900 46.35600 20.72600
H  39.37000 47.61500 21.65200
H  40.25900 48.14700 20.36700
H  38.94600 43.93500 23.40600
H  37.97700 42.71100 24.29800
H  39.17800 43.43300 25.10800
H  37.70700 46.61300 28.92200
H  35.33000 43.79000 31.33500
H  34.67800 45.36000 31.81300
H  36.15700 44.81200 32.50400

