158

Mg 2.07500 -2.45500 44.23900
C  5.40000 -1.76600 43.55100
C  1.18700 0.20500 42.08000
C  -1.13000 -3.28300 44.43000
C  3.07300 -5.57700 45.66100
N  3.11900 -1.08500 42.83300
C  4.51000 -0.89000 42.87300
C  4.99600 0.31200 41.88800
C  3.61700 0.91100 41.44100
C  2.54400 -0.04700 42.11900
C  3.32100 2.40900 41.94000
C  5.93800 -0.07000 40.66900
C  7.13200 0.93800 40.48600
H  8.06600 0.72500 39.23700
N  0.24900 -1.56700 43.55600
C  0.12800 -0.46200 42.74200
C  -1.29600 -0.19600 42.54700
C  -2.02700 -1.13300 43.33100
C  -0.95000 -2.02700 43.82200
C  -1.85200 0.92300 41.66200
C  -3.60500 -1.15000 43.51300
O  -4.34600 -0.33100 42.96200
C  -4.28200 -2.13500 44.43200
N  1.08200 -4.23700 44.89100
C  -0.28500 -4.26700 44.92700
C  -0.76000 -5.65500 45.39400
C  0.52200 -6.21700 46.09600
C  1.66600 -5.34900 45.51500
C  -2.11800 -5.79300 46.20900
C  0.80400 -7.74500 45.87700
C  0.28300 -8.68100 47.05400
N  3.78300 -3.50600 44.58700
C  4.08600 -4.68400 45.25800
C  5.51600 -4.73800 45.44600
C  6.02400 -3.58400 44.84500
C  4.95300 -2.89900 44.33400
C  6.24000 -5.83900 46.14000
C  7.23500 -2.83300 44.69500
O  8.35000 -3.07300 45.17900
C  6.92600 -1.65700 43.78400
C  7.31400 -0.52300 44.61000
O  7.05100 -0.32600 45.76800
O  7.98300 0.39100 43.75200
C  8.18500 1.74300 44.25600
H  0.95700 1.14600 41.57600
H  -2.14400 -3.68700 44.40800
H  3.35600 -6.48100 46.20400
H  5.50400 1.01500 42.54800
H  3.49000 0.97900 40.36100
H  2.80800 2.95100 41.14600
H  4.25400 2.90800 42.20300
H  2.82700 2.37200 42.91100
H  5.37000 -0.19000 39.74700
H  6.35500 -1.05200 40.89400
H  7.82100 0.85300 41.32600
H  6.77900 1.96900 40.50000
H  -2.33000 0.53000 40.76500
H  -1.10700 1.62900 41.29400
H  -2.63000 1.55400 42.09100
H  -4.45800 -3.15100 44.08100
H  -5.21200 -1.71600 44.81800
H  -3.64100 -2.20800 45.31000
H  -0.85200 -6.21200 44.46100
H  0.65800 -6.03700 47.16300
H  -1.96200 -6.07000 47.25100
H  -2.76000 -6.54500 45.75000
H  -2.55300 -4.79500 46.14400
H  1.88300 -7.87300 45.78900
H  0.36300 -7.99800 44.91300
H  -0.39100 -8.16400 47.73600
H  1.09100 -9.03800 47.69300
H  -0.14600 -9.58500 46.62000
H  5.94800 -6.73500 45.59300
H  5.91200 -5.72200 47.17200
H  7.31200 -5.64100 46.11700
H  7.44700 -1.80600 42.83800
H  8.87300 1.69700 45.10100
H  7.18700 2.07200 44.54500
H  8.56000 2.52700 43.59800
Mg 35.12100 2.23400 29.72900
C  32.97000 3.34000 32.07800
C  37.66900 2.32800 31.97200
C  37.60100 1.86900 27.15900
C  32.65000 2.54700 27.39200
N  35.28200 2.79500 31.72700
C  34.28600 3.12500 32.58000
C  34.82700 3.51800 33.93300
C  36.30400 3.40000 33.79000
C  36.42600 2.74200 32.43500
C  37.17000 4.61600 33.90900
C  34.21200 2.58600 35.10900
C  34.03000 3.20400 36.43400
H  35.14200 4.23300 36.97100
N  37.28200 1.95300 29.65200
C  38.07100 1.91600 30.69300
C  39.40200 1.49500 30.28500
C  39.39500 1.37900 28.85400
C  38.04500 1.70900 28.47600
C  40.53100 1.38100 31.31500
C  40.45100 1.05600 27.91800
O  40.31000 0.85400 26.68900
C  41.89200 0.92800 28.50400
N  35.18100 2.60500 27.59900
C  36.24600 2.24000 26.79500
C  35.81000 1.98500 25.35600
C  34.24900 1.84500 25.42800
C  34.00600 2.51000 26.82300
C  36.30700 3.13300 24.37300
C  33.67500 0.44300 25.30800
C  32.19000 0.22200 24.84700
N  33.15500 2.75100 29.67100
C  32.31700 2.80600 28.64100
C  30.99900 3.19100 29.10100
C  31.16600 3.37100 30.48600
C  32.48900 3.17500 30.79900
C  29.76600 3.25700 28.27500
C  30.54500 3.74000 31.75200
O  29.35900 3.92500 32.00600
C  31.69100 3.75700 32.86500
C  31.74200 5.07800 33.39500
O  31.86000 6.11100 32.76000
O  31.54300 5.02600 34.74500
C  31.13700 6.23200 35.48300
H  38.46700 2.22000 32.71000
H  38.13300 1.65600 26.22900
H  31.92500 2.42700 26.58500
H  34.57700 4.55400 34.15900
H  36.75400 2.76200 34.55000
H  36.63800 5.39800 34.45100
H  37.32000 5.12000 32.95400
H  38.06900 4.21600 34.37600
H  34.76500 1.64900 35.17500
H  33.20400 2.32800 34.78700
H  34.13800 2.31600 37.05700
H  33.06600 3.69100 36.29000
H  40.75300 0.31400 31.33300
H  40.14000 1.74200 32.26600
H  41.47000 1.79700 30.94900
H  42.00900 0.01000 29.07900
H  42.23100 1.88600 28.89900
H  42.51400 0.84600 27.61200
H  36.23900 1.02000 25.08500
H  33.73600 2.53500 24.75700
H  36.57600 4.03200 24.92700
H  35.46200 3.37700 23.72900
H  37.16200 2.72900 23.83100
H  33.80900 -0.09400 26.24700
H  34.30400 -0.09500 24.59800
H  32.24900 -0.26200 23.87200
H  31.62200 1.15200 24.81200
H  31.63000 -0.37500 25.56800
H  29.40500 4.27000 28.10000
H  28.97500 2.75500 28.83200
H  29.88800 2.78600 27.29900
H  31.59500 2.91300 33.54900
H  30.87200 7.06400 34.83100
H  32.04500 6.53700 36.00300
H  30.33400 5.97500 36.17400

