158

Mg 47.27300 15.60500 28.00800
C  45.07000 15.32000 30.79700
C  49.42400 17.36100 30.08600
C  49.02200 16.48300 25.25800
C  44.65200 14.57300 25.96100
N  47.32200 16.10600 30.22800
C  46.30100 15.87700 31.13000
C  46.77700 16.29500 32.49900
C  48.06600 17.15100 32.30500
C  48.29500 16.93300 30.77200
C  47.93200 18.68000 32.68600
C  47.02700 15.06800 33.41500
C  47.18200 15.29300 34.92700
H  46.78300 16.65900 35.47000
N  49.05500 16.45300 27.76800
C  49.77900 17.14400 28.71800
C  51.09700 17.61000 28.13600
C  50.97800 17.29300 26.76500
C  49.67400 16.67200 26.51100
C  52.16300 18.29100 28.98300
C  52.05100 17.63800 25.75200
O  51.95200 17.19300 24.57800
C  53.32800 18.42300 26.09500
N  46.83500 15.53300 25.87800
C  47.75400 15.92000 25.03700
C  47.16700 15.72600 23.59000
C  45.86200 14.88500 23.80300
C  45.81400 14.96400 25.27000
C  46.80900 17.10800 22.90400
C  45.85600 13.41000 23.42400
C  46.33000 13.04400 22.01800
N  45.29900 15.02400 28.27800
C  44.36300 14.61500 27.34300
C  43.16800 14.26800 28.00200
C  43.35400 14.46100 29.38300
C  44.72300 14.93700 29.50200
C  41.82300 13.77700 27.30900
C  42.65400 14.43900 30.74600
O  41.56700 13.95000 31.16100
C  43.85000 15.05400 31.70700
C  43.31300 16.25700 32.41900
O  43.65400 17.38700 32.18400
O  42.57400 15.83700 33.52100
C  41.94800 16.89000 34.33300
H  50.12900 17.78300 30.80500
H  49.64500 16.64300 24.37500
H  43.83300 14.27300 25.30400
H  46.03800 16.99600 32.88800
H  48.90600 16.63400 32.76800
H  48.69900 18.89800 33.42800
H  47.02000 18.93000 33.22800
H  47.99300 19.37100 31.84500
H  47.89300 14.56900 32.97800
H  46.20200 14.39800 33.17500
H  48.17500 14.92800 35.18800
H  46.46300 14.58800 35.34500
H  53.09900 17.75500 29.14200
H  51.72400 18.56700 29.94200
H  52.36300 19.26400 28.53400
H  53.82100 17.82700 26.86200
H  53.03600 19.45300 26.30300
H  53.99100 18.42200 25.23000
H  47.88700 15.27600 22.90600
H  44.99300 15.37000 23.36000
H  45.83400 17.05000 22.41900
H  47.56400 17.52100 22.23600
H  46.79900 17.84800 23.70500
H  44.81200 13.10100 23.37600
H  46.42100 12.89500 24.20100
H  47.34500 12.65000 21.95100
H  46.37700 13.94000 21.39900
H  45.64900 12.32700 21.56000
H  41.47500 12.86500 27.79500
H  42.00600 13.59800 26.24900
H  41.10600 14.59500 27.37600
H  44.10700 14.30000 32.45100
H  41.12900 17.30400 33.74600
H  42.59700 17.64300 34.78000
H  41.49200 16.43900 35.21400
Mg 26.41800 50.77400 26.41700
C  24.03400 51.72500 28.97700
C  28.44200 49.72000 29.04600
C  28.80800 50.24600 24.21500
C  24.37200 52.29900 24.16700
N  26.18700 50.62500 28.69900
C  25.11600 51.06200 29.54100
C  25.43500 50.80700 31.07100
C  26.91300 50.22100 31.04900
C  27.17700 50.07300 29.54700
C  27.89500 51.17100 31.83500
C  24.45300 49.82300 31.68800
C  24.04700 50.07000 33.20700
H  24.99000 50.75800 34.22800
N  28.38200 50.12400 26.56300
C  28.96900 49.67600 27.71300
C  30.22900 48.99700 27.38200
C  30.43900 49.33600 26.01400
C  29.18100 49.94200 25.54000
C  31.04800 48.16900 28.34500
C  31.70900 49.09300 25.14100
O  31.86800 49.43800 24.00200
C  32.90200 48.36600 25.81700
N  26.56200 51.35700 24.53900
C  27.57300 50.80600 23.76100
C  27.24500 51.02500 22.26000
C  25.71400 51.38600 22.26900
C  25.53600 51.72000 23.72300
C  28.09500 52.15600 21.59700
C  24.65900 50.36800 21.86200
C  23.58600 50.65900 20.82000
N  24.58800 51.80000 26.48000
C  23.89400 52.31700 25.48400
C  22.61000 52.91600 25.91700
C  22.61300 52.67100 27.30200
C  23.84900 51.97800 27.59100
C  21.54900 53.62000 25.05000
C  21.90700 52.91000 28.50700
O  20.86800 53.51000 28.69800
C  22.81000 52.32300 29.62400
C  23.27800 53.50100 30.45800
O  24.10700 54.32600 30.13600
O  22.75300 53.35500 31.76900
C  23.00200 54.55000 32.61100
H  29.05100 49.35500 29.87600
H  29.40600 49.97000 23.34400
H  23.61200 52.53700 23.41900
H  25.36200 51.80600 31.50200
H  26.95300 49.25700 31.55500
H  28.76100 51.50200 31.26200
H  28.13100 50.54200 32.69300
H  27.36500 52.02600 32.25400
H  24.83100 48.80400 31.76200
H  23.59100 49.73900 31.02700
H  23.70800 49.11700 33.61300
H  23.14100 50.67500 33.16700
H  30.63700 48.23400 29.35200
H  32.04600 48.59800 28.43400
H  31.12200 47.13300 28.01600
H  33.75600 48.31800 25.14100
H  32.69600 47.30900 25.98400
H  33.20900 48.85900 26.73900
H  27.34600 50.11400 21.66900
H  25.52500 52.34300 21.78300
H  28.98700 52.38100 22.18000
H  27.53500 53.09000 21.53700
H  28.40400 51.84100 20.60000
H  24.14000 49.90700 22.70200
H  25.32300 49.58200 21.50200
H  23.77600 50.26200 19.82300
H  23.46200 51.74100 20.79900
H  22.73200 50.08200 21.17800
H  20.64100 53.04900 25.24500
H  21.90400 53.73300 24.02500
H  21.44300 54.65600 25.37100
H  22.28400 51.59300 30.23900
H  23.10900 55.47000 32.03500
H  23.84100 54.43300 33.29800
H  22.08100 54.62200 33.19000

