158

Mg 2.43700 -1.08000 44.61700
C  5.91000 -0.45600 44.20200
C  1.93900 1.50400 42.47000
C  -0.70200 -2.29000 43.88400
C  3.37700 -4.45100 45.72700
N  3.75800 0.34800 43.49400
C  5.13300 0.49100 43.43500
C  5.62900 1.58200 42.38600
C  4.27100 2.26000 42.01200
C  3.23300 1.31600 42.73700
C  4.12200 3.72400 42.45100
C  6.36700 0.87000 41.20700
C  7.90200 0.90700 41.19200
H  8.79300 1.38300 40.02000
N  0.72200 -0.29700 43.60400
C  0.74400 0.79300 42.75800
C  -0.52200 0.98800 42.26200
C  -1.37000 -0.04500 42.74900
C  -0.49300 -0.98100 43.42300
C  -0.95100 2.17800 41.46600
C  -2.88100 -0.09200 42.41600
O  -3.34400 0.80100 41.76400
C  -3.63700 -1.23900 43.02200
N  1.52700 -3.09400 44.69100
C  0.20400 -3.20300 44.41100
C  -0.23100 -4.63700 44.66400
C  1.07500 -5.38700 45.07300
C  2.06500 -4.24100 45.16700
C  -1.38100 -4.83800 45.71300
C  1.53900 -6.59400 44.30900
C  0.48400 -7.70400 44.03400
N  4.22400 -2.14600 45.20300
C  4.41000 -3.41000 45.72800
C  5.80000 -3.59400 46.05100
C  6.38400 -2.39000 45.53000
C  5.42900 -1.56000 44.95200
C  6.38000 -4.87900 46.67400
C  7.64700 -1.66800 45.35800
O  8.79100 -1.93700 45.76800
C  7.40300 -0.39400 44.50000
C  7.73800 0.80900 45.33400
O  7.39000 0.94800 46.46600
O  8.59500 1.62500 44.59700
C  8.86600 2.91400 45.28300
H  1.72500 2.42400 41.92200
H  -1.68900 -2.74900 43.79200
H  3.63200 -5.43600 46.12500
H  6.25400 2.34400 42.85100
H  4.03300 2.12800 40.95600
H  5.02300 4.08600 42.94600
H  3.36300 3.77100 43.23200
H  3.80200 4.18600 41.51700
H  6.00700 1.28900 40.26800
H  6.10600 -0.18800 41.22600
H  8.05400 -0.17200 41.19600
H  8.29000 1.39700 42.08500
H  -1.74200 1.97000 40.74600
H  -0.08500 2.56900 40.93300
H  -1.32100 3.00800 42.06900
H  -4.67200 -1.05100 42.73500
H  -3.39800 -1.33700 44.08100
H  -3.29600 -2.16700 42.56300
H  -0.59300 -5.06400 43.72800
H  1.02800 -5.60600 46.14000
H  -1.51000 -4.00200 46.40100
H  -1.17100 -5.65400 46.40400
H  -2.22700 -5.05400 45.06100
H  2.32400 -7.03500 44.92400
H  2.13900 -6.32300 43.44000
H  0.86200 -8.56200 44.59000
H  0.50700 -7.76100 42.94600
H  -0.53600 -7.54400 44.38400
H  5.82800 -5.24900 47.53700
H  7.40600 -4.60700 46.92300
H  6.39800 -5.67000 45.92400
H  8.02300 -0.49100 43.60900
H  9.72600 2.88500 45.95300
H  7.99700 3.32000 45.80000
H  9.17900 3.56000 44.46300
Mg 41.01600 9.19200 29.61900
C  43.00600 10.27800 32.26200
C  38.59100 8.10300 32.00500
C  39.11600 7.89700 27.12000
C  43.45300 9.92100 27.48800
N  40.84900 9.19800 31.90700
C  41.76000 9.78700 32.72400
C  41.16900 9.70400 34.17800
C  39.87300 8.79100 34.07500
C  39.71200 8.78900 32.52900
C  39.75900 7.48500 34.80700
C  40.88800 11.14100 34.67000
C  40.03100 11.34500 35.96600
H  40.63700 12.09800 37.19800
N  39.07700 8.13700 29.51300
C  38.24500 7.77900 30.62000
C  37.15000 6.96200 30.11200
C  37.16400 7.15100 28.67600
C  38.52100 7.71600 28.38500
C  36.24900 6.20400 31.01700
C  36.15800 6.77500 27.71000
O  36.29100 7.01400 26.52400
C  34.84800 6.14900 28.17600
N  41.26900 8.81300 27.62700
C  40.39500 8.34300 26.77200
C  40.82900 8.51100 25.31700
C  42.14500 9.26900 25.42200
C  42.31700 9.35100 26.98400
C  40.78500 7.16900 24.45400
C  42.39400 10.58000 24.62200
C  41.56700 11.78700 24.96500
N  42.90800 9.89300 29.86000
C  43.84300 10.19700 28.85200
C  45.03500 10.86500 29.43600
C  44.69600 10.86600 30.83700
C  43.49700 10.26600 31.04500
C  46.25200 11.44500 28.66300
C  45.18900 11.30400 32.07000
O  46.31300 11.79100 32.39900
C  44.01500 11.08500 33.05600
C  44.52900 10.41800 34.31100
O  45.07700 9.34800 34.31100
O  44.42400 11.25300 35.40300
C  44.94300 10.64900 36.63100
H  37.79900 7.84600 32.71200
H  38.61300 7.48300 26.24300
H  44.24700 10.28500 26.83200
H  41.87000 9.14100 34.79400
H  39.00400 9.36000 34.40600
H  40.64600 7.35600 35.42800
H  39.45300 6.74900 34.06300
H  38.92600 7.51700 35.50900
H  40.45800 11.75600 33.88000
H  41.90600 11.51900 34.76200
H  39.64200 10.41600 36.38300
H  39.15000 11.87200 35.60000
H  35.28300 6.69900 31.12400
H  36.59700 6.08900 32.04400
H  36.07500 5.20800 30.60900
H  34.45400 6.67500 29.04500
H  34.92800 5.07600 28.34800
H  34.02700 6.31300 27.47800
H  40.11900 9.22200 24.89300
H  42.95900 8.69100 24.98300
H  40.54300 6.33900 25.11800
H  41.75100 7.09900 23.95300
H  40.07100 7.28100 23.63800
H  42.05700 10.28900 23.62700
H  43.46800 10.74200 24.53000
H  42.36300 12.47100 25.26200
H  40.86400 11.48900 25.74300
H  41.01500 12.00500 24.05100
H  46.21400 11.16600 27.61000
H  47.07000 11.01600 29.24100
H  46.27700 12.53500 28.68500
H  43.60900 12.05600 33.33700
H  44.87700 9.56500 36.54200
H  44.37300 11.02700 37.47900
H  45.98100 10.85300 36.89500

