158

Mg 30.48400 58.55800 41.03500
C  27.46600 56.93600 40.34200
C  32.16000 55.59400 40.21700
C  33.47100 60.06400 41.30100
C  28.84800 61.57900 41.12800
N  29.81600 56.55800 40.37900
C  28.57600 56.13100 40.10700
C  28.55700 54.66200 39.53000
C  29.99100 54.15500 39.96100
C  30.74800 55.51600 40.10900
C  30.00300 53.26900 41.25100
C  28.34200 54.70700 37.96100
C  27.08100 54.04500 37.34300
H  26.37100 54.95500 36.25100
N  32.57300 57.86100 40.97700
C  33.00100 56.66200 40.56700
C  34.46500 56.68400 40.57100
C  34.89700 57.95000 40.92000
C  33.66100 58.67400 41.10700
C  35.32100 55.45600 40.17500
C  36.25900 58.38700 41.17800
O  37.13700 57.57000 40.95800
C  36.66900 59.76000 41.70900
N  31.10800 60.53500 41.19100
C  32.40100 60.93300 41.36900
C  32.44000 62.44300 41.26200
C  31.00600 62.85700 41.45500
C  30.22200 61.59300 41.14000
C  33.38100 63.15800 42.30400
C  30.57500 64.06700 40.57700
C  30.45500 63.75100 39.03700
N  28.50800 59.23100 40.75300
C  27.96100 60.52100 40.94100
C  26.52300 60.41500 40.73000
C  26.28500 59.00700 40.45900
C  27.55700 58.34200 40.57600
C  25.59400 61.55800 40.76900
C  25.25000 58.03000 40.15700
O  24.04200 58.14900 40.05600
C  25.98900 56.67400 40.01100
C  25.42700 55.65800 40.96200
O  24.97600 55.96800 42.05500
O  25.31300 54.41400 40.34500
C  24.60000 53.46300 41.27000
H  32.56200 54.59900 40.01400
H  34.36600 60.68900 41.30800
H  28.33000 62.54000 41.16100
H  27.71400 54.03200 39.81300
H  30.42000 53.61200 39.11800
H  30.31700 52.25200 41.01800
H  29.04100 53.27500 41.76300
H  30.75000 53.59800 41.97300
H  29.06800 54.09400 37.42800
H  28.40200 55.70400 37.52300
H  26.32700 53.97500 38.12700
H  27.45800 53.11300 36.92100
H  34.69700 54.79900 39.57000
H  35.48900 54.90700 41.10200
H  36.25300 55.54100 39.61700
H  37.75800 59.73800 41.68600
H  36.19800 59.71400 42.69100
H  36.30600 60.47600 40.97100
H  32.81300 62.52100 40.24100
H  30.68900 63.07000 42.47600
H  34.30700 62.59000 42.38800
H  32.92200 63.19400 43.29300
H  33.58500 64.20500 42.07700
H  31.26100 64.91200 40.63500
H  29.67200 64.45700 41.04600
H  29.43500 64.02800 38.77100
H  30.68100 62.70100 38.84900
H  31.03700 64.49200 38.49000
H  26.00100 62.42200 41.29300
H  24.58900 61.28900 41.09600
H  25.36900 61.93700 39.77200
H  25.70600 56.32100 39.02000
H  25.27000 52.73000 41.71900
H  23.94100 52.86700 40.63900
H  23.93500 53.81300 42.06000
Mg -1.87200 34.17400 26.82500
C  -2.92300 32.42700 29.67000
C  -0.01200 36.17600 28.92900
C  -0.70500 35.83200 24.14900
C  -3.67500 31.93900 24.92600
N  -1.61300 34.36500 29.08700
C  -2.08300 33.45900 29.99600
C  -1.62500 33.88700 31.45500
C  -0.72800 35.12300 31.14400
C  -0.82100 35.27100 29.63900
C  -1.10900 36.47500 31.87300
C  -0.92400 32.74100 32.24500
C  -1.51400 32.56500 33.67800
H  -0.56800 32.65100 34.85500
N  -0.65900 35.95100 26.63600
C  0.06400 36.59800 27.59600
C  1.01600 37.51400 26.92900
C  0.75900 37.43400 25.53100
C  -0.28500 36.37900 25.40500
C  1.85200 38.50500 27.66900
C  1.29900 38.27000 24.45100
O  0.97000 38.27400 23.27300
C  2.46600 39.12600 24.74400
N  -2.34900 34.05300 24.84400
C  -1.64800 34.81400 23.81900
C  -2.03600 34.29300 22.43800
C  -2.87900 33.00600 22.75900
C  -2.93900 32.93500 24.26400
C  -2.68600 35.42600 21.50600
C  -2.36200 31.65900 22.02800
C  -0.91100 31.20200 22.38300
N  -3.17100 32.59800 27.17600
C  -3.80600 31.74800 26.32100
C  -4.69200 30.79400 27.10400
C  -4.24600 30.99200 28.42500
C  -3.37900 32.10300 28.42000
C  -5.55300 29.82400 26.42500
C  -4.37100 30.51300 29.83900
O  -5.07200 29.64400 30.37200
C  -3.66100 31.51700 30.59400
C  -4.63800 32.21000 31.44500
O  -5.26600 33.21600 31.15700
O  -4.61900 31.69600 32.71400
C  -5.50600 32.19800 33.76800
H  0.57200 36.85100 29.55800
H  -0.29200 36.19300 23.20400
H  -4.25200 31.23200 24.32500
H  -2.59200 34.19300 31.85500
H  0.29000 34.85400 31.42800
H  -0.24600 36.91800 32.36900
H  -1.76600 36.27100 32.71900
H  -1.63000 37.15700 31.20000
H  0.15900 32.84700 32.29600
H  -1.14700 31.81900 31.70800
H  -2.00800 31.59500 33.63600
H  -2.40800 33.17900 33.78700
H  1.59900 39.50300 27.31200
H  2.90700 38.29600 27.49100
H  1.46300 38.60500 28.68200
H  2.98800 39.40400 23.82900
H  3.16700 38.58100 25.37700
H  2.12600 40.02700 25.25400
H  -1.15500 33.90000 21.93100
H  -3.82100 33.22000 22.25400
H  -2.60200 36.44500 21.88300
H  -3.75500 35.23000 21.43000
H  -2.15000 35.18800 20.58700
H  -2.32300 31.75400 20.94300
H  -3.00400 30.83000 22.32300
H  -0.40000 31.93300 23.00900
H  -0.36800 30.94200 21.47400
H  -0.98700 30.38400 23.09900
H  -5.07000 28.91900 26.05600
H  -5.97500 30.28600 25.53300
H  -6.41300 29.54200 27.03100
H  -3.04000 31.03400 31.34800
H  -6.38000 31.56000 33.89500
H  -5.82000 33.22500 33.58000
H  -5.08700 32.16800 34.77400

