158

Mg 46.83400 17.12000 28.43100
C  45.28700 16.48100 31.53700
C  49.33600 18.66700 30.23000
C  48.11300 18.18500 25.47900
C  44.13700 15.69600 26.88000
N  47.22400 17.56600 30.65000
C  46.38900 17.24900 31.74200
C  47.01500 17.77400 33.05100
C  48.31600 18.46600 32.53800
C  48.31500 18.27800 31.03500
C  48.57700 19.95800 32.89300
C  47.29800 16.61300 34.06500
C  47.95300 16.85000 35.38200
H  47.54300 18.00300 36.28900
N  48.52100 18.15300 27.92500
C  49.45100 18.60100 28.80400
C  50.63200 18.96100 28.01100
C  50.31900 18.89400 26.63500
C  48.89500 18.44200 26.63000
C  51.92000 19.37700 28.64800
C  51.21000 19.09800 25.32600
O  50.71700 19.12400 24.21400
C  52.67100 19.46300 25.39000
N  46.36400 16.65800 26.50600
C  46.94000 17.35300 25.41500
C  46.24600 16.98000 24.17100
C  44.97900 16.27100 24.56900
C  45.16800 16.11100 26.06200
C  45.98500 18.11600 23.21100
C  44.59300 14.97700 23.87600
C  43.75900 15.24700 22.58100
N  45.08600 16.21900 29.01000
C  44.07600 15.61400 28.28800
C  42.97500 15.19200 29.12500
C  43.44800 15.49700 30.42500
C  44.72600 16.10500 30.27600
C  41.68000 14.51600 28.65100
C  43.12800 15.38100 31.88800
O  42.19200 14.89300 32.50100
C  44.26000 16.02300 32.59100
C  43.74800 17.12500 33.46000
O  43.23900 18.17800 33.08500
O  43.79200 16.68300 34.74500
C  43.01600 17.45900 35.73900
H  50.21100 18.99100 30.79800
H  48.34000 18.52500 24.46600
H  43.28000 15.17800 26.44400
H  46.27000 18.43500 33.49400
H  49.22100 17.92200 32.80900
H  48.17500 20.71300 32.21800
H  49.55500 20.32600 33.20200
H  48.01200 20.10200 33.81400
H  47.89500 15.87300 33.53300
H  46.30800 16.17600 34.19600
H  49.03600 16.77900 35.28000
H  47.49600 16.02300 35.92600
H  52.67100 18.62400 28.88500
H  51.66200 19.93600 29.54700
H  52.31700 20.14700 27.98500
H  52.68000 20.38700 25.96900
H  53.05600 19.53500 24.37300
H  53.20000 18.62800 25.84900
H  46.85100 16.21400 23.68700
H  44.09500 16.90300 24.48000
H  45.89000 19.07900 23.71400
H  45.08500 17.94900 22.61800
H  46.75100 18.31800 22.46200
H  43.91800 14.52700 24.60400
H  45.43900 14.38200 23.53300
H  43.85800 16.25900 22.18900
H  42.72000 15.05400 22.84700
H  44.08500 14.46400 21.89600
H  41.48600 14.72100 27.59900
H  40.92100 15.03400 29.23600
H  41.86600 13.44800 28.76600
H  44.63300 15.16200 33.14600
H  42.28400 16.67700 35.94000
H  42.53500 18.37800 35.40500
H  43.63700 17.58400 36.62600
Mg -11.56100 38.71900 40.68600
C  -9.26500 35.98000 40.15000
C  -9.31300 40.72800 39.17900
C  -13.74900 41.15300 41.02500
C  -13.81000 36.31800 41.81600
N  -9.55000 38.31000 39.72600
C  -8.92100 37.14300 39.52900
C  -7.58400 37.45600 38.66900
C  -7.57900 38.99500 38.51800
C  -8.83300 39.40200 39.26700
C  -6.21200 39.70100 38.87200
C  -7.67100 36.68500 37.23700
C  -6.53900 35.67300 36.97900
H  -5.47600 36.14700 36.06700
N  -11.53700 40.68200 40.18400
C  -10.54100 41.33200 39.57600
C  -10.90200 42.71000 39.38300
C  -12.23500 42.89600 39.82900
C  -12.59100 41.53600 40.36100
C  -9.92700 43.73300 38.89200
C  -12.95400 44.24000 39.85800
O  -12.39700 45.21100 39.47100
C  -14.33700 44.43500 40.35000
N  -13.48200 38.75500 41.26100
C  -14.14300 39.89500 41.42200
C  -15.59900 39.55600 41.99800
C  -15.61600 38.01100 42.16700
C  -14.21400 37.65200 41.73600
C  -16.11000 40.43500 43.17100
C  -16.60300 37.18200 41.31100
C  -17.49500 36.13400 42.10900
N  -11.49200 36.58400 41.15400
C  -12.57600 35.80000 41.56200
C  -12.07700 34.37700 41.62400
C  -10.75300 34.42100 41.15400
C  -10.50200 35.73500 40.78400
C  -12.88100 33.25500 42.13100
C  -9.63200 33.63800 40.78600
O  -9.49600 32.43100 40.83300
C  -8.56100 34.60000 40.24200
C  -7.27300 34.51800 41.11100
O  -6.62600 33.48400 41.22000
O  -6.89700 35.77500 41.51500
C  -5.82600 35.91800 42.49500
H  -8.65900 41.38900 38.60600
H  -14.44300 41.99000 41.12300
H  -14.55800 35.65000 42.24900
H  -6.71300 37.06500 39.19500
H  -7.71200 39.36300 37.50000
H  -5.81900 40.07400 37.92700
H  -5.57200 38.97700 39.37700
H  -6.54300 40.47900 39.56000
H  -7.64100 37.31900 36.35100
H  -8.59800 36.11600 37.17600
H  -6.94000 34.68900 36.73400
H  -6.01800 35.49400 37.92000
H  -10.39700 44.13900 37.99600
H  -8.89100 43.43700 38.72600
H  -10.02200 44.54200 39.61500
H  -14.78500 45.41500 40.18600
H  -14.42300 44.28600 41.42700
H  -15.00200 43.75100 39.82200
H  -16.24000 39.81500 41.15600
H  -15.77500 37.75400 43.21400
H  -15.31600 41.03900 43.60700
H  -16.54800 39.77900 43.92400
H  -16.80700 41.20800 42.84600
H  -16.12500 36.69200 40.46200
H  -17.27000 37.90600 40.84400
H  -17.69400 35.22200 41.54700
H  -18.36100 36.68900 42.47000
H  -16.97800 35.73300 42.98000
H  -12.41800 32.98800 43.08000
H  -12.73200 32.49100 41.36700
H  -13.93400 33.44800 42.33900
H  -8.35900 34.16600 39.26300
H  -6.25100 36.57700 43.25200
H  -4.91100 36.40100 42.15300
H  -5.74400 34.93200 42.95100

