158

Mg 52.85800 23.54600 43.54200
C  50.02700 25.76700 43.27000
C  50.89200 20.93600 43.23400
C  55.66800 21.79800 43.30900
C  54.80600 26.63700 43.89100
N  50.69000 23.36800 42.97900
C  49.69400 24.39200 43.14300
C  48.33800 23.69400 43.18300
C  48.69500 22.28100 43.74400
C  50.14900 22.17800 43.24200
C  48.58600 22.07300 45.27900
C  47.44300 23.74900 41.93800
C  48.18600 23.96000 40.65500
H  47.54800 23.31200 39.37400
N  53.25800 21.63400 43.08000
C  52.30500 20.65500 43.06300
C  52.93100 19.43700 42.82400
C  54.33000 19.65400 42.93400
C  54.45300 21.10300 43.13800
C  52.18000 18.07200 42.93300
C  55.46700 18.61300 42.83200
O  55.13500 17.43500 42.63600
C  56.97300 18.86200 43.00500
N  54.94600 24.15100 43.42000
C  55.90300 23.19300 43.49600
C  57.25500 23.80800 43.75500
C  57.01200 25.35800 43.64500
C  55.45600 25.38800 43.65600
C  57.84200 23.34400 45.05500
C  57.49700 25.88300 42.27600
C  58.86000 26.62100 42.46500
N  52.48100 25.75800 43.75000
C  53.35800 26.79200 43.91200
C  52.61600 28.01000 44.20100
C  51.30900 27.67900 43.89600
C  51.25900 26.28300 43.51300
C  53.16600 29.32200 44.73600
C  49.94700 28.17000 43.81000
O  49.39900 29.23800 44.02900
C  49.13400 27.00200 43.21900
C  48.78500 27.37500 41.84100
O  49.46800 27.21500 40.85900
O  47.51100 27.90100 41.75000
C  46.96500 28.05400 40.37300
H  50.21900 20.11100 43.47700
H  56.60400 21.23500 43.29300
H  55.33400 27.58400 44.02200
H  47.79000 24.29200 43.91100
H  48.15000 21.49800 43.21700
H  48.33300 23.04400 45.70400
H  49.54800 21.77100 45.69500
H  47.76400 21.40300 45.53100
H  46.71800 24.54800 42.09500
H  46.91600 22.80300 41.82000
H  49.23300 23.65900 40.64600
H  48.17700 25.01900 40.39800
H  51.14900 18.03500 42.58000
H  52.05700 17.78800 43.97800
H  52.69900 17.34700 42.30500
H  57.58800 17.98300 42.81000
H  57.29300 19.35700 43.92100
H  57.21400 19.51100 42.16300
H  57.96800 23.40100 43.03800
H  57.43400 25.85100 44.52200
H  58.41500 22.43200 44.88200
H  57.04200 23.30100 45.79400
H  58.52700 24.08400 45.47000
H  56.74000 26.52400 41.82500
H  57.60400 24.98700 41.66500
H  58.95900 27.21000 43.37700
H  58.95100 27.40000 41.70800
H  59.75900 26.00800 42.40600
H  52.48900 29.65400 45.52400
H  53.09100 30.09900 43.97500
H  54.10200 29.24500 45.29000
H  48.25400 26.89300 43.85200
H  46.27600 27.21100 40.32400
H  47.64900 27.92300 39.53400
H  46.24900 28.86500 40.24100
Mg -2.01900 34.13800 26.35800
C  -3.31100 32.49300 29.21100
C  -0.78100 36.55200 28.42600
C  -1.43400 36.10700 23.55700
C  -4.02900 32.01700 24.36700
N  -1.94200 34.43700 28.67100
C  -2.50200 33.60200 29.59700
C  -2.14900 34.11300 31.01400
C  -1.46900 35.47400 30.66700
C  -1.34200 35.42300 29.15200
C  -1.99500 36.75700 31.29900
C  -1.26700 32.98100 31.66800
C  -1.89500 32.38100 32.89600
H  -1.17700 32.54300 34.18700
N  -1.11600 36.00200 26.06800
C  -0.65700 36.83300 27.03700
C  -0.08100 38.00200 26.46200
C  -0.14800 37.89800 25.05400
C  -0.89700 36.59800 24.81800
C  0.62500 39.08600 27.30300
C  0.35700 38.83100 23.94500
O  0.14800 38.60400 22.75500
C  1.10300 40.06100 24.24600
N  -2.65800 34.04900 24.27700
C  -2.25300 34.96100 23.34500
C  -2.85200 34.58900 21.94800
C  -3.65300 33.29000 22.22600
C  -3.41800 33.07900 23.72000
C  -3.75200 35.67000 21.31400
C  -3.13900 32.15200 21.30500
C  -2.17400 31.13500 21.84000
N  -3.27000 32.50000 26.64600
C  -3.98300 31.68800 25.78500
C  -4.55100 30.61900 26.50600
C  -4.37300 30.92500 27.84600
C  -3.62100 32.10300 27.87300
C  -5.29100 29.45300 25.99500
C  -4.83100 30.58600 29.19900
O  -5.55700 29.73300 29.65900
C  -4.03500 31.53600 30.13500
C  -5.07000 32.29700 30.97600
O  -5.72500 33.25700 30.66900
O  -5.19000 31.51600 32.10100
C  -5.87500 32.21000 33.17700
H  -0.33700 37.36100 29.00800
H  -1.30700 36.60200 22.59300
H  -4.58900 31.31700 23.74300
H  -3.08500 34.25300 31.55600
H  -0.44800 35.40100 31.04200
H  -2.90900 36.51000 31.84000
H  -2.34200 37.43900 30.52200
H  -1.27100 37.25200 31.94500
H  -0.25300 33.33500 31.85600
H  -1.25000 32.10600 31.01900
H  -1.94100 31.29500 32.81500
H  -2.92300 32.70000 33.06900
H  1.69400 38.92300 27.16200
H  0.29000 39.16400 28.33800
H  0.41400 39.98100 26.71800
H  1.55700 40.43000 23.32600
H  1.95300 39.88300 24.90400
H  0.45600 40.84600 24.63600
H  -1.94600 34.38700 21.37700
H  -4.73500 33.40200 22.17100
H  -3.09200 36.12500 20.57400
H  -3.96400 36.44900 22.04600
H  -4.62900 35.20500 20.86500
H  -2.66600 32.72900 20.51000
H  -4.00100 31.65600 20.85800
H  -2.58300 30.12900 21.94000
H  -1.85700 31.36600 22.85700
H  -1.19900 31.05700 21.36000
H  -4.79000 28.52200 25.73100
H  -5.85300 29.87300 25.16000
H  -6.06800 29.12900 26.68800
H  -3.44300 30.94200 30.83100
H  -6.74400 32.74500 32.79300
H  -5.23700 32.81400 33.82100
H  -6.29300 31.42200 33.80500

