158

Mg 0.84900 -1.23000 43.53300
C  4.31300 -0.85800 42.75100
C  0.25300 1.60500 41.75500
C  -2.50000 -1.97200 43.68800
C  1.55300 -4.34500 44.81400
N  2.17400 0.18600 42.43000
C  3.53900 0.22800 42.29000
C  4.03500 1.46800 41.48100
C  2.69500 2.26600 41.34400
C  1.62700 1.27200 41.82400
C  2.73900 3.57300 42.12700
C  4.77000 1.00100 40.07200
C  5.88300 2.06000 39.68300
H  5.62600 2.77100 38.34200
N  -0.84700 -0.22400 42.90000
C  -0.87800 0.94700 42.25100
C  -2.23800 1.30800 42.05100
C  -3.07900 0.34300 42.59400
C  -2.15700 -0.71200 43.15000
C  -2.65700 2.56200 41.42100
C  -4.59200 0.37700 42.63600
O  -5.23200 1.25300 42.09800
C  -5.37800 -0.57300 43.45600
N  -0.29500 -2.85200 44.21200
C  -1.66800 -2.97800 44.11500
C  -2.16800 -4.40200 44.35000
C  -0.84400 -5.22100 44.61800
C  0.23000 -4.07900 44.52800
C  -3.25400 -4.49900 45.51700
C  -0.54900 -6.41300 43.56100
C  -0.83900 -7.76400 44.16400
N  2.53000 -2.37300 43.93800
C  2.63800 -3.60600 44.55400
C  4.00400 -3.97500 44.51000
C  4.65300 -2.87400 43.86300
C  3.74700 -1.96500 43.50400
C  4.57300 -5.33300 45.02700
C  6.03600 -2.33200 43.52400
O  7.16300 -2.89700 43.53900
C  5.81000 -0.99700 42.84700
C  6.60200 0.04800 43.57100
O  6.42000 0.36200 44.73400
O  7.55800 0.52900 42.79000
C  8.59600 1.41900 43.43400
H  0.13000 2.61600 41.36100
H  -3.52700 -2.34300 43.69300
H  1.82000 -5.29600 45.27900
H  4.68800 1.99100 42.17900
H  2.46800 2.34300 40.28100
H  2.10800 3.50600 43.01400
H  2.58300 4.44800 41.49500
H  3.75700 3.78300 42.45400
H  4.01000 0.83000 39.30900
H  5.27000 0.05200 40.26900
H  6.88700 1.63600 39.68700
H  5.92300 2.86700 40.41500
H  -2.86200 2.29600 40.38400
H  -1.90200 3.34600 41.47200
H  -3.54300 2.95300 41.92000
H  -6.39300 -0.17500 43.47100
H  -5.03600 -0.68800 44.48400
H  -5.35600 -1.47700 42.84700
H  -2.68400 -4.73000 43.44700
H  -0.72600 -5.51500 45.66100
H  -3.57300 -3.52600 45.89100
H  -2.82700 -5.18800 46.24500
H  -4.10100 -5.05500 45.11500
H  0.50900 -6.42600 43.29900
H  -1.14500 -6.29500 42.65500
H  0.12800 -8.26400 44.11300
H  -1.50300 -8.45900 43.64900
H  -1.25200 -7.69800 45.17100
H  4.85900 -6.13600 44.34800
H  3.91700 -5.73200 45.80100
H  5.50300 -4.94800 45.44500
H  6.31400 -1.11100 41.88800
H  9.55800 1.10500 43.03000
H  8.66000 1.38500 44.52200
H  8.27700 2.42200 43.15300
Mg 7.01300 53.42800 41.25200
C  6.50400 49.75500 41.11400
C  10.11900 52.81900 40.34700
C  7.01400 56.53500 40.44900
C  3.67100 53.52500 42.40400
N  8.20300 51.35500 40.75700
C  7.82900 50.07000 40.74600
C  9.06600 49.14400 40.59200
C  10.24400 50.18300 40.52100
C  9.53800 51.60600 40.59500
C  11.37900 49.90700 41.57000
C  9.05900 48.08800 39.44500
C  8.78900 48.66600 38.05800
H  7.69700 48.17900 37.11800
N  8.32600 54.50700 40.40000
C  9.59300 54.09400 40.19100
C  10.40800 55.21100 39.85700
C  9.52400 56.30600 39.72600
C  8.22600 55.80700 40.14900
C  11.90800 55.20200 39.71600
C  9.93000 57.73600 39.27100
O  11.09800 57.97000 38.99700
C  8.87000 58.89200 39.18400
N  5.50600 54.82300 41.46400
C  5.78900 56.08000 41.09800
C  4.64200 57.03900 41.58500
C  3.65700 56.13400 42.40700
C  4.27500 54.78100 42.04500
C  5.25900 58.31700 42.28900
C  2.10200 56.18500 42.20300
C  1.36800 57.49000 42.52700
N  5.41400 52.04600 41.67700
C  4.13600 52.24400 42.18400
C  3.44900 50.95500 42.35300
C  4.34100 49.98600 41.93500
C  5.53500 50.71400 41.54700
C  2.14300 50.76100 43.01600
C  4.46500 48.50000 41.79600
O  3.66100 47.58200 42.04600
C  5.88100 48.30600 41.18700
C  5.61900 47.55400 39.95400
O  5.34700 48.08400 38.91000
O  5.52600 46.14600 40.20100
C  4.83200 45.42600 39.13000
H  11.19900 52.66000 40.32900
H  7.06800 57.60000 40.21800
H  2.69100 53.66700 42.86500
H  9.24100 48.58300 41.51000
H  10.72100 50.02100 39.55400
H  12.28200 49.41800 41.20500
H  10.95800 49.27100 42.34800
H  11.55900 50.84200 42.10100
H  8.28800 47.33800 39.62300
H  9.95300 47.46500 39.44400
H  9.76200 48.60600 37.57200
H  8.59500 49.73500 38.14700
H  12.26600 56.22700 39.80800
H  12.08800 54.79600 38.72100
H  12.47900 54.55400 40.38100
H  7.95000 58.56500 38.69800
H  9.07800 59.82400 38.66000
H  8.69200 59.10700 40.23700
H  4.14700 57.33300 40.66000
H  3.78600 56.24300 43.48400
H  5.23500 59.17400 41.61600
H  6.31200 58.20300 42.54700
H  4.63700 58.53900 43.15600
H  1.67100 55.49100 42.92400
H  1.87100 55.86700 41.18600
H  0.89200 57.32900 43.49400
H  0.71800 57.81000 41.71200
H  2.01700 58.33500 42.75900
H  1.39400 50.80400 42.22500
H  1.92900 51.56700 43.71800
H  2.22900 49.80700 43.53500
H  6.56100 47.75000 41.83300
H  4.98000 45.82400 38.12600
H  3.75900 45.39800 39.31900
H  5.32700 44.45900 39.03700

