158

Mg 42.71100 41.65100 26.68800
C  41.62100 43.67100 29.19300
C  43.98000 39.50800 28.97500
C  43.64700 39.73900 24.07100
C  41.95700 44.19800 24.20200
N  42.87500 41.66700 28.83600
C  42.06400 42.40200 29.64300
C  42.13900 41.95900 31.09000
C  43.07400 40.75800 30.98800
C  43.40900 40.68300 29.51200
C  44.29000 40.79900 31.96800
C  40.75400 41.70400 31.73200
C  40.45200 42.46800 33.05900
H  39.67400 41.80300 34.14700
N  43.66400 39.82900 26.48700
C  44.05800 39.06800 27.62400
C  44.49100 37.77200 27.10700
C  44.31500 37.77800 25.69800
C  43.88300 39.17800 25.36500
C  45.12100 36.76100 27.98800
C  44.52000 36.67900 24.69700
O  44.32800 36.83300 23.49300
C  44.95800 35.24200 25.18600
N  42.89000 41.96300 24.46100
C  43.32500 41.03700 23.68000
C  43.08400 41.29600 22.21800
C  42.60400 42.79500 22.22300
C  42.44500 43.01200 23.74400
C  44.34500 41.04700 21.41200
C  41.40700 42.92400 21.34700
C  40.11600 42.49700 22.06800
N  42.08200 43.52800 26.64900
C  41.73700 44.44800 25.60000
C  41.17500 45.64300 26.18900
C  41.10700 45.38500 27.59600
C  41.65500 44.11100 27.81800
C  40.54000 46.83800 25.47000
C  40.66000 45.93700 28.82200
O  40.13400 47.01200 29.07500
C  40.93300 44.79700 29.93600
C  41.79200 45.44100 30.95600
O  42.97500 45.54500 30.90000
O  41.05100 45.92400 31.97100
C  41.52600 46.60600 33.17300
H  44.35200 38.82500 29.74200
H  43.93300 39.12000 23.21900
H  41.65300 44.93700 23.45900
H  42.64200 42.80100 31.56500
H  42.52300 39.85100 31.23600
H  44.11100 41.47700 32.80300
H  45.10100 41.18000 31.34700
H  44.61600 39.79900 32.25300
H  40.67000 40.67900 32.09400
H  39.94100 41.77600 31.00900
H  39.87100 43.36500 32.84600
H  41.42600 42.83500 33.38200
H  44.42000 35.94400 28.15900
H  45.39400 37.21200 28.94200
H  45.96700 36.40900 27.39800
H  45.96500 35.07200 25.56800
H  44.78500 34.76100 24.22300
H  44.19400 34.91700 25.89300
H  42.34200 40.57600 21.87000
H  43.33800 43.53000 21.89400
H  45.22200 40.92300 22.04800
H  44.64900 41.93900 20.86400
H  44.19200 40.24300 20.69200
H  41.62500 42.33500 20.45600
H  41.37600 43.95600 20.99900
H  39.70700 41.76500 21.37200
H  39.46800 43.36700 22.17500
H  40.23900 41.95100 23.00300
H  39.84500 46.44100 24.73000
H  41.23900 47.54100 25.01800
H  39.99800 47.43300 26.20600
H  40.03500 44.55500 30.50400
H  42.08000 45.86900 33.75400
H  40.63200 47.01000 33.64700
H  42.31200 47.33900 32.98700
Mg -5.41400 25.91300 26.04900
C  -4.06400 27.05200 29.06200
C  -7.44100 23.64300 27.93200
C  -6.32700 24.45400 23.27400
C  -2.87800 27.73600 24.40500
N  -5.69600 25.46400 28.16100
C  -5.05400 26.04800 29.19100
C  -5.53600 25.54600 30.58000
C  -6.42800 24.31300 30.18500
C  -6.60500 24.51800 28.66200
C  -5.75800 22.96200 30.65500
C  -6.34400 26.65400 31.24400
C  -6.71500 26.51900 32.75800
H  -6.12100 25.34800 33.62400
N  -6.85000 24.37000 25.65100
C  -7.62600 23.62500 26.50600
C  -8.48500 22.74200 25.71300
C  -8.16700 22.93600 24.29800
C  -7.06200 23.89200 24.35400
C  -9.51600 21.84600 26.29200
C  -8.84000 22.32600 23.13300
O  -8.41700 22.44200 21.98700
C  -10.00700 21.42400 23.23200
N  -4.86900 26.12500 24.17300
C  -5.37400 25.42700 23.13000
C  -4.68300 25.71300 21.79100
C  -3.87100 26.99300 22.12200
C  -3.87400 26.96500 23.67200
C  -3.97600 24.44200 21.24300
C  -4.55100 28.29200 21.58900
C  -3.68500 29.17400 20.65300
N  -3.91200 27.30700 26.57900
C  -3.00900 27.92200 25.77600
C  -2.13500 28.75000 26.56500
C  -2.56700 28.43900 27.87200
C  -3.61000 27.60200 27.80600
C  -1.10400 29.67000 26.12400
C  -2.25300 28.69100 29.27000
O  -1.47100 29.44700 29.86100
C  -3.24500 27.79100 30.08300
C  -2.45300 27.07700 31.05500
O  -1.81000 26.01600 30.95200
O  -2.57000 27.80900 32.21800
C  -1.89100 27.11400 33.39200
H  -8.07600 22.98800 28.53200
H  -6.63300 23.98000 22.33900
H  -2.12100 28.20800 23.77400
H  -4.74200 25.17500 31.22900
H  -7.39300 24.46500 30.67000
H  -5.10100 23.07600 31.51700
H  -5.18100 22.45600 29.88000
H  -6.52400 22.22300 30.89000
H  -7.20200 26.88200 30.61100
H  -5.71900 27.54700 31.27500
H  -7.80300 26.48900 32.80400
H  -6.34800 27.44500 33.20100
H  -10.46900 22.30300 26.02600
H  -9.55300 21.97300 27.37400
H  -9.43300 20.79200 26.02700
H  -9.84200 20.42200 23.62800
H  -10.36800 21.20600 22.22600
H  -10.80400 21.86600 23.83100
H  -5.51300 25.98700 21.14100
H  -2.87100 26.96000 21.69000
H  -4.46800 24.20600 20.29900
H  -3.99600 23.56400 21.88800
H  -2.90600 24.61300 21.13300
H  -4.73900 28.90200 22.47300
H  -5.54700 28.10800 21.18600
H  -2.76800 28.63800 20.40800
H  -3.49200 30.18300 21.01800
H  -4.25600 29.30400 19.73400
H  -0.31700 29.25300 25.49600
H  -0.51000 29.94700 26.99400
H  -1.48700 30.59100 25.68600
H  -3.96200 28.43600 30.59100
H  -0.80700 27.22700 33.40900
H  -2.03000 26.03400 33.42000
H  -2.09800 27.54800 34.37100

