158

Mg 17.37600 53.51900 26.39100
C  19.23200 51.74100 28.81100
C  15.15400 54.29600 28.97700
C  15.39200 54.93400 24.02100
C  19.44500 52.20200 23.95700
N  17.20500 53.03900 28.65800
C  18.11500 52.35100 29.47200
C  17.88900 52.65500 30.91700
C  16.42100 53.15500 30.94400
C  16.26200 53.54000 29.39600
C  15.32200 52.22100 31.43100
C  18.95900 53.58600 31.56300
C  19.26000 53.34600 33.06200
H  18.10100 52.67900 33.87000
N  15.57500 54.57400 26.45800
C  14.84700 54.78300 27.62100
C  13.72600 55.55600 27.27000
C  13.74600 55.83100 25.88100
C  14.94500 55.15500 25.34300
C  12.69100 56.06200 28.40700
C  12.81400 56.60100 25.09800
O  12.92200 56.71400 23.89700
C  11.64700 57.34500 25.76900
N  17.28700 53.38200 24.23800
C  16.48500 54.19900 23.53500
C  16.89500 54.27200 22.03700
C  18.30900 53.53400 22.06900
C  18.34200 52.91000 23.51200
C  15.90900 53.74000 20.96900
C  19.58300 54.37600 21.70200
C  20.54600 53.85600 20.63800
N  18.97700 52.18500 26.36300
C  19.71900 51.82000 25.27400
C  20.80400 50.98000 25.79300
C  20.60200 50.87800 27.17800
C  19.49100 51.62700 27.44900
C  21.95400 50.52600 24.88000
C  21.15000 50.38700 28.37300
O  22.09000 49.64800 28.62100
C  20.29200 50.95800 29.44800
C  19.73300 49.93900 30.27200
O  18.97400 49.06700 29.87200
O  20.04500 50.10800 31.60400
C  19.66000 48.91900 32.41200
H  14.40000 54.62000 29.69800
H  14.99000 55.47800 23.16300
H  20.24800 51.97100 23.25400
H  17.84800 51.71600 31.46900
H  16.40800 54.05700 31.55600
H  15.04400 51.47600 30.68500
H  14.46800 52.80000 31.78200
H  15.82200 51.62900 32.19800
H  18.58400 54.60800 31.61800
H  19.88500 53.56100 30.98800
H  19.49000 54.32200 33.48800
H  20.14000 52.70900 32.96800
H  12.50000 57.12400 28.24800
H  12.96800 55.92800 29.45300
H  11.76800 55.48300 28.39000
H  12.05300 57.99300 26.54700
H  11.11900 56.54900 26.29300
H  11.05300 57.86200 25.01600
H  17.09500 55.33800 21.93100
H  18.30700 52.71700 21.34700
H  14.88100 53.71200 21.33000
H  16.24500 52.74900 20.66500
H  15.88600 54.39800 20.10000
H  20.23400 54.42600 22.57500
H  19.30600 55.42600 21.60800
H  21.49200 53.68200 21.15100
H  20.78300 54.58600 19.86500
H  20.12700 52.97300 20.15600
H  22.09600 51.10100 23.96500
H  21.87900 49.45300 24.70400
H  22.83500 50.58100 25.51900
H  20.90100 51.63700 30.04500
H  19.87500 49.05500 33.47200
H  20.14400 48.09400 31.89000
H  18.59100 48.71600 32.48200
Mg -12.53600 17.32800 40.53500
C  -9.26400 15.88300 40.25600
C  -11.11500 20.35900 39.51100
C  -15.62100 18.63100 39.92900
C  -13.91400 14.16300 40.83500
N  -10.43100 17.92900 39.97000
C  -9.31000 17.26400 39.88200
C  -8.10400 18.13900 39.51200
C  -8.72800 19.54800 39.47300
C  -10.18600 19.25700 39.67600
C  -8.18700 20.42600 40.63600
C  -7.54700 17.64800 38.14200
C  -6.04900 17.52400 38.01900
H  -5.52200 16.21300 37.43400
N  -13.27400 19.32100 39.92900
C  -12.51100 20.39300 39.54200
C  -13.37700 21.51100 39.19700
C  -14.74900 21.01300 39.25300
C  -14.56900 19.59300 39.72600
C  -12.81200 22.88400 38.77900
C  -15.94200 21.83800 38.92400
O  -15.80000 23.03000 38.65700
C  -17.41000 21.34400 38.93300
N  -14.55100 16.50900 40.29500
C  -15.61300 17.25300 40.25000
C  -16.93200 16.41800 40.45200
C  -16.38300 14.92200 40.59600
C  -14.84300 15.18300 40.57600
C  -17.76000 16.89700 41.68000
C  -16.88700 13.89400 39.54600
C  -17.85900 12.87500 40.01700
N  -11.79700 15.39400 40.58300
C  -12.46100 14.21300 40.78900
C  -11.54500 13.18000 40.91900
C  -10.22500 13.78600 40.77000
C  -10.41500 15.11600 40.49500
C  -11.96600 11.70900 40.98400
C  -8.77000 13.53000 40.87000
O  -8.16600 12.47400 41.10600
C  -8.08700 14.91500 40.46600
C  -7.16400 15.23100 41.50500
O  -7.38800 15.88600 42.49600
O  -5.92600 14.88700 41.17700
C  -4.89000 15.16400 42.23000
H  -10.51600 21.22600 39.22600
H  -16.67200 18.92800 39.91300
H  -14.36700 13.20900 41.11400
H  -7.34000 18.18000 40.28700
H  -8.62600 20.09200 38.53400
H  -7.24600 20.04600 41.03500
H  -8.98100 20.66900 41.34200
H  -8.02500 21.45600 40.31900
H  -7.93000 18.38800 37.43800
H  -7.99900 16.75300 37.71600
H  -5.59200 17.66700 38.99900
H  -5.80600 18.44900 37.49700
H  -13.29900 23.64400 39.39000
H  -13.13600 23.18400 37.78200
H  -11.75900 23.05600 39.00100
H  -17.39000 20.33600 38.52100
H  -18.12100 21.90500 38.32600
H  -17.71700 21.39600 39.97800
H  -17.55200 16.45200 39.55600
H  -16.68500 14.52900 41.56700
H  -17.25100 17.72500 42.17400
H  -17.87900 16.12400 42.43900
H  -18.75000 17.26600 41.41100
H  -16.06600 13.40100 39.02600
H  -17.39700 14.47400 38.77600
H  -17.49500 11.84800 39.99000
H  -18.76100 12.95600 39.41000
H  -18.09800 13.06800 41.06300
H  -12.91200 11.66100 40.44600
H  -12.20000 11.38000 41.99600
H  -11.12800 11.19200 40.51500
H  -7.47200 14.83000 39.57000
H  -4.62300 16.21300 42.10500
H  -3.94100 14.69600 41.96800
H  -5.19600 14.97100 43.25800

