158

Mg 49.19800 35.04900 26.77000
C  46.99300 33.79000 29.41800
C  49.57300 37.87400 28.88300
C  50.73400 36.65600 24.27200
C  47.93900 32.57500 24.70200
N  48.42600 35.57800 28.89500
C  47.65000 34.94200 29.81700
C  47.73600 35.59300 31.18600
C  48.26300 37.02900 30.81500
C  48.78200 36.84500 29.42800
C  47.29000 38.23900 30.96600
C  48.65700 34.80900 32.16200
C  48.39500 34.86300 33.68600
H  47.28800 35.84800 34.12900
N  50.16600 36.93200 26.64400
C  50.26900 37.89600 27.63900
C  51.01800 39.01600 27.08300
C  51.32200 38.75200 25.75800
C  50.79400 37.36100 25.46700
C  51.41100 40.23200 27.98100
C  51.97600 39.68400 24.73600
O  52.05500 39.26400 23.57800
C  52.31900 41.16000 24.98900
N  49.34900 34.63100 24.81500
C  50.06900 35.45500 23.91900
C  50.01800 34.73800 22.47900
C  49.36000 33.34700 22.79700
C  48.77100 33.55100 24.16900
C  49.28500 35.56400 21.46000
C  50.24300 31.98200 22.49000
C  49.54300 30.94000 21.62200
N  47.85300 33.42100 27.05700
C  47.49700 32.58800 25.99800
C  46.58100 31.64600 26.62500
C  46.24400 32.14800 27.90200
C  47.16100 33.16600 28.16800
C  45.96400 30.55000 25.79300
C  45.48600 31.93700 29.06900
O  44.61500 31.11500 29.25700
C  45.97700 32.96000 30.17200
C  46.57300 32.11100 31.26900
O  47.71900 31.62700 31.26700
O  45.72800 31.91200 32.31700
C  46.27900 30.99800 33.37200
H  49.76400 38.78300 29.45800
H  51.11500 37.24100 23.43200
H  47.51300 31.85600 24.00000
H  46.71500 35.59800 31.56800
H  49.08500 37.34500 31.45600
H  46.99100 38.76600 30.06100
H  47.88200 38.93400 31.56200
H  46.44400 37.93400 31.58200
H  49.65800 35.21200 32.01400
H  48.73900 33.77100 31.83900
H  49.28900 35.18500 34.22000
H  48.22300 33.85400 34.06100
H  51.58600 39.90700 29.00600
H  50.62500 40.98700 27.97700
H  52.26500 40.79600 27.60600
H  53.33600 41.28100 25.36400
H  51.68000 41.52000 25.79500
H  52.18300 41.73300 24.07300
H  51.07500 34.71600 22.21400
H  48.42800 33.24100 22.24200
H  49.98700 36.24900 20.98500
H  48.45300 36.11800 21.89500
H  48.79400 34.96400 20.69500
H  50.52000 31.52200 23.43800
H  51.21400 32.20100 22.04500
H  49.94000 30.86300 20.61000
H  48.47500 31.10700 21.48300
H  49.64200 29.98600 22.14200
H  45.28100 30.06500 26.49000
H  46.72000 29.85200 25.43300
H  45.41300 30.82700 24.89400
H  45.21700 33.47800 30.75700
H  45.42600 30.67100 33.96700
H  46.85300 31.66700 34.01200
H  46.81800 30.10800 33.04800
Mg -10.18000 16.73900 40.89400
C  -6.74500 16.25400 41.24000
C  -9.67600 19.99300 40.01100
C  -13.41400 16.87900 40.11300
C  -10.61600 13.11300 41.25400
N  -8.34700 17.88000 40.49100
C  -7.05600 17.54600 40.81900
C  -6.14600 18.60100 40.37700
C  -7.08000 19.87900 40.38400
C  -8.46100 19.27000 40.30500
C  -6.83300 20.92000 41.52900
C  -5.58000 18.22000 39.00700
C  -4.13000 17.61000 38.99700
H  -3.92300 16.20600 38.40500
N  -11.37700 18.28000 40.10800
C  -10.98200 19.53900 39.87200
C  -12.21900 20.30200 39.55000
C  -13.31500 19.42100 39.38700
C  -12.73200 18.12000 39.83200
C  -12.06900 21.77900 39.15200
C  -14.69100 19.67200 38.90300
O  -14.87300 20.79400 38.40600
C  -15.94500 18.74000 38.86600
N  -11.79800 15.19300 40.86700
C  -13.01100 15.60500 40.58300
C  -14.00800 14.42400 40.46400
C  -13.20600 13.31400 41.04500
C  -11.76400 13.90800 40.97000
C  -15.27500 14.61400 41.38500
C  -13.35700 11.95000 40.26500
C  -13.87100 10.81200 41.12400
N  -9.01000 15.02100 41.30600
C  -9.32500 13.64800 41.36900
C  -8.09900 12.93800 41.69500
C  -7.09100 13.92000 41.73100
C  -7.68900 15.11300 41.32500
C  -8.01300 11.41600 41.94400
C  -5.73200 14.12900 42.01400
O  -4.91300 13.37700 42.47700
C  -5.39900 15.63200 41.71500
C  -5.10000 16.28400 42.99800
O  -5.74300 16.12400 44.02600
O  -4.01200 17.14300 42.86600
C  -3.40500 17.41600 44.17700
H  -9.64200 21.06700 39.81800
H  -14.47800 16.98800 39.89200
H  -10.72200 12.03000 41.34300
H  -5.39000 18.71900 41.15300
H  -7.01900 20.41300 39.43500
H  -7.68300 20.97200 42.21000
H  -6.63600 21.90600 41.10700
H  -5.95500 20.69000 42.13200
H  -5.50600 19.06200 38.31900
H  -6.29600 17.53700 38.55100
H  -3.68300 17.65200 39.99000
H  -3.58200 18.26300 38.31800
H  -11.33900 22.34800 39.72800
H  -12.92400 22.37700 39.46700
H  -11.88000 21.91600 38.08700
H  -16.83100 19.18600 38.41400
H  -16.25500 18.53700 39.89100
H  -15.58800 17.86300 38.32600
H  -14.19400 14.37300 39.39100
H  -13.37500 13.19300 42.11500
H  -15.41900 13.82500 42.12300
H  -16.15400 14.59300 40.74100
H  -15.14000 15.55800 41.91200
H  -12.40800 11.54900 39.91000
H  -14.01700 12.09900 39.41100
H  -14.85800 10.45700 40.82700
H  -13.91900 11.11800 42.16900
H  -13.15100 9.99600 41.17700
H  -8.92500 10.87000 42.18500
H  -7.24200 11.12000 42.65600
H  -7.67600 10.98000 41.00400
H  -4.62500 15.83200 40.97300
H  -3.97500 18.12900 44.77300
H  -2.58700 18.06000 43.85300
H  -3.11600 16.53400 44.74800

