158

Mg 7.07100 54.05700 39.62300
C  6.40000 50.60900 39.53800
C  10.27600 53.42800 38.55200
C  7.63800 57.36700 39.42600
C  3.68200 54.61200 40.02300
N  8.10500 52.21100 39.08700
C  7.71300 50.89500 39.14100
C  8.82100 49.87500 38.81700
C  10.13500 50.86800 38.81100
C  9.47300 52.23300 38.80700
C  10.94300 50.74300 40.06600
C  8.72800 49.15800 37.39400
C  8.35700 50.02400 36.19400
H  7.20400 49.52000 35.26500
N  8.72300 55.25800 38.95200
C  10.00800 54.80700 38.64000
C  10.92400 55.90900 38.44400
C  10.20900 57.05900 38.83400
C  8.79500 56.63100 39.03600
C  12.37100 55.73700 38.08000
C  10.71500 58.43700 39.03000
O  11.92200 58.73100 38.87500
C  9.80600 59.58400 39.21900
N  5.70400 55.74800 39.53300
C  6.23400 57.03100 39.50900
C  5.14100 58.05600 39.73700
C  3.79600 57.16700 39.95800
C  4.39000 55.77000 39.77900
C  5.39100 59.14200 40.79900
C  2.60400 57.44500 38.99900
C  1.52900 58.33100 39.66100
N  5.36300 52.85300 39.80900
C  4.07100 53.23600 40.00900
C  3.23500 52.06300 40.23000
C  4.14600 51.04400 40.14600
C  5.43000 51.55000 39.85500
C  1.68800 52.06700 40.44200
C  4.21700 49.56600 40.22400
O  3.37400 48.75000 40.65500
C  5.69500 49.21500 39.83100
C  5.72300 48.32700 38.65800
O  5.10700 48.46800 37.58700
O  6.36700 47.23200 39.04300
C  6.25900 46.07400 38.10700
H  11.32200 53.16000 38.39100
H  7.75200 58.44400 39.56500
H  2.62500 54.72500 40.27400
H  8.74500 49.18700 39.65900
H  10.64500 50.71600 37.86000
H  11.18800 51.73600 40.44200
H  11.86400 50.22200 39.80500
H  10.41000 50.18500 40.83500
H  8.13900 48.24300 37.32800
H  9.77300 48.86800 37.28900
H  9.18100 50.19400 35.50100
H  7.94300 50.96200 36.56500
H  12.91600 56.19400 38.90600
H  12.65700 56.22200 37.14700
H  12.68600 54.69600 38.15000
H  10.43600 60.46300 39.08000
H  9.47400 59.55500 40.25700
H  9.09500 59.56100 38.39400
H  5.15200 58.57400 38.77800
H  3.43600 57.14500 40.98600
H  6.42000 59.16100 41.15700
H  4.70700 59.13700 41.64800
H  5.26200 60.08200 40.26400
H  2.14800 56.48800 38.74400
H  2.98200 58.10100 38.21600
H  0.55800 57.83500 39.68900
H  1.34000 59.09800 38.91000
H  1.87400 58.81500 40.57400
H  1.29000 53.05900 40.65600
H  1.47900 51.46800 41.32900
H  1.24100 51.68100 39.52600
H  5.99000 48.73700 40.76600
H  6.96600 46.18600 37.28400
H  5.23400 45.89900 37.77900
H  6.57400 45.20400 38.68400
Mg 10.67900 47.86800 25.37800
C  8.78500 47.91100 28.37600
C  13.16400 49.61500 27.03900
C  12.46100 47.56700 22.75000
C  7.68900 46.59000 23.75400
N  10.93300 48.58400 27.54000
C  10.08500 48.46900 28.59200
C  10.67900 49.05300 29.85700
C  11.85000 49.98900 29.26100
C  12.01100 49.34300 27.86300
C  11.35700 51.45500 29.09400
C  11.38200 47.97400 30.76200
C  11.16500 48.26200 32.27600
H  10.96700 47.07500 33.26500
N  12.58800 48.47100 24.93600
C  13.46300 49.19200 25.76700
C  14.76800 49.34300 25.12800
C  14.58100 48.78900 23.82100
C  13.16100 48.22400 23.79300
C  16.00500 49.84200 25.81100
C  15.70400 48.65500 22.68100
O  15.35100 48.39500 21.49400
C  17.13300 48.98900 22.91100
N  10.00000 47.39800 23.49800
C  11.08400 47.21800 22.60900
C  10.65500 46.62900 21.27500
C  9.14400 46.24900 21.57000
C  8.88500 46.71200 23.04200
C  10.72300 47.59100 20.00000
C  8.93600 44.68000 21.33700
C  9.82600 43.69900 22.15500
N  8.61100 47.43300 25.89100
C  7.59200 46.93100 25.10900
C  6.44300 46.74100 25.97400
C  6.83800 47.14800 27.31500
C  8.16000 47.57500 27.12600
C  5.06000 46.29000 25.50400
C  6.47800 47.32100 28.72800
O  5.38700 47.03400 29.25000
C  7.75300 47.72300 29.49100
C  8.06600 46.59200 30.38700
O  8.80000 45.63300 30.12500
O  7.42600 46.75000 31.59700
C  7.62200 45.81900 32.69700
H  13.75500 50.36500 27.56900
H  13.14300 47.41700 21.91100
H  6.94500 46.12500 23.10500
H  9.96500 49.68100 30.38900
H  12.83200 49.85800 29.71500
H  11.96200 52.09400 29.73700
H  10.28500 51.51400 29.27900
H  11.43000 51.81700 28.06800
H  12.46900 47.96500 30.69400
H  11.01600 46.96200 30.59000
H  10.27000 48.87200 32.40100
H  12.11600 48.63500 32.65600
H  16.84700 49.15900 25.69500
H  15.84900 50.04400 26.87100
H  16.19900 50.80600 25.34100
H  17.15400 49.83000 23.60500
H  17.56800 49.15400 21.92500
H  17.58500 48.13900 23.42200
H  11.31500 45.79000 21.05300
H  8.45300 46.89100 21.02400
H  11.10900 48.56700 20.29400
H  9.75600 47.86300 19.57900
H  11.36200 47.05300 19.30000
H  9.18000 44.48600 20.29200
H  7.92000 44.35500 21.55900
H  10.09400 44.24100 23.06200
H  10.64800 43.23400 21.61000
H  9.11800 42.91800 22.43200
H  5.11200 45.82200 24.52000
H  4.48400 47.21600 25.52300
H  4.59800 45.61900 26.22700
H  7.73200 48.63400 30.08900
H  7.24800 44.84800 32.37200
H  7.17300 46.19100 33.61800
H  8.68800 45.68900 32.88200

