158

Mg 54.75500 22.56600 44.53600
C  52.07200 24.73800 43.69700
C  52.64600 19.97300 43.49200
C  57.24500 20.41600 44.88800
C  56.70600 25.24600 45.32800
N  52.65500 22.38800 43.45100
C  51.75300 23.41100 43.21400
C  50.41700 22.92000 42.83700
C  50.47500 21.36500 43.17600
C  52.04000 21.21000 43.37400
C  49.70300 20.99800 44.59000
C  50.02100 23.22700 41.36300
C  48.54000 23.34200 41.21000
H  47.81000 23.23000 39.80700
N  54.94000 20.45000 44.31500
C  53.99100 19.63400 43.82800
C  54.53500 18.31600 43.85700
C  55.84000 18.31300 44.39100
C  56.12800 19.74100 44.48800
C  53.62900 17.20400 43.36800
C  56.79400 17.17500 44.68500
O  56.45500 16.05500 44.35100
C  58.13300 17.39000 45.29000
N  56.73400 22.81900 44.89600
C  57.48900 21.79000 45.23700
C  58.78100 22.25500 45.80400
C  58.61700 23.76400 45.90900
C  57.22000 23.94600 45.39100
C  59.13600 21.51000 47.16200
C  59.78200 24.66000 45.24600
C  60.04900 26.04600 45.81100
N  54.44900 24.63300 44.58500
C  55.36400 25.59400 45.03900
C  54.62300 26.85400 45.05600
C  53.37200 26.53700 44.61500
C  53.29200 25.15400 44.28100
C  55.16000 28.13500 45.64500
C  52.01600 27.07000 44.37300
O  51.52000 28.16500 44.55700
C  51.17400 25.93600 43.71700
C  50.81500 26.34700 42.31900
O  51.62100 26.50000 41.42400
O  49.43900 26.63700 42.14100
C  48.97500 27.02000 40.83000
H  51.88400 19.24200 43.21100
H  58.05700 19.70400 45.04900
H  57.23900 26.12400 45.69900
H  49.59500 23.34200 43.41500
H  50.01400 20.73500 42.41500
H  49.33200 21.86800 45.13200
H  50.33600 20.67300 45.41600
H  48.86200 20.31300 44.48800
H  50.28200 22.34000 40.78600
H  50.46500 24.16500 41.02700
H  48.25200 24.33300 41.56200
H  47.99900 22.64100 41.84600
H  53.29000 17.40100 42.35100
H  52.81200 16.93300 44.03800
H  54.30000 16.35100 43.27100
H  58.03000 17.93900 46.22600
H  58.87900 17.74400 44.57700
H  58.40600 16.40200 45.66100
H  59.63300 21.93500 45.20500
H  58.60400 24.06000 46.95800
H  60.18000 21.34200 47.42700
H  58.58100 20.57200 47.13700
H  58.76000 21.98200 48.07000
H  59.43700 24.70300 44.21300
H  60.69900 24.07200 45.21300
H  59.84100 26.83800 45.09200
H  61.05900 26.04300 46.22000
H  59.40600 26.33700 46.64200
H  54.87600 28.12400 46.69700
H  54.65400 28.98500 45.18700
H  56.23500 28.21600 45.48100
H  50.25000 25.71500 44.25100
H  49.67500 26.90000 40.00300
H  48.74400 28.08000 40.93400
H  48.01700 26.55200 40.60100
Mg -1.51400 34.65300 26.79800
C  -3.28100 32.91600 29.23300
C  -0.48800 36.85100 29.09400
C  -0.26600 36.62700 24.19400
C  -2.56700 32.42400 24.40700
N  -1.74900 34.79100 28.97900
C  -2.53500 33.94000 29.81600
C  -2.37900 34.32500 31.22000
C  -1.48300 35.58500 31.17700
C  -1.26900 35.80000 29.62400
C  -2.10700 36.82000 31.81300
C  -1.76900 33.16300 32.05700
C  -2.51700 32.83000 33.40500
H  -1.74400 32.75200 34.77500
N  -0.46300 36.43100 26.66500
C  -0.07500 37.20500 27.75000
C  0.81000 38.23000 27.31100
C  0.73500 38.29600 25.84800
C  -0.02000 37.02200 25.49900
C  1.55300 39.17100 28.26200
C  1.33000 39.34000 24.84700
O  1.33700 39.15800 23.65800
C  1.94000 40.60900 25.45300
N  -1.67700 34.71900 24.55700
C  -1.04600 35.60900 23.73900
C  -1.16100 35.11800 22.28000
C  -1.70800 33.68500 22.37500
C  -1.98000 33.54800 23.86600
C  -1.93200 36.16100 21.37300
C  -0.77100 32.63400 21.73000
C  0.44700 32.20400 22.59100
N  -2.73700 33.02100 26.71800
C  -3.05300 32.21300 25.66400
C  -4.06300 31.20900 26.14600
C  -4.09000 31.40000 27.56200
C  -3.29500 32.50700 27.89000
C  -4.81600 30.27900 25.37700
C  -4.64300 30.94300 28.82900
O  -5.43900 29.99100 29.05600
C  -4.07200 31.85000 29.95500
C  -5.11400 32.42100 30.80200
O  -5.63300 33.50400 30.65300
O  -5.41400 31.51400 31.85000
C  -6.29100 32.16500 32.86200
H  0.04000 37.54800 29.74800
H  0.05900 37.31200 23.40800
H  -2.87500 31.72900 23.62300
H  -3.36700 34.56400 31.61500
H  -0.49300 35.44300 31.61200
H  -2.23100 37.56800 31.03000
H  -1.56400 37.11100 32.71100
H  -3.16300 36.73300 32.07000
H  -0.79100 33.28900 32.52300
H  -1.52400 32.31500 31.41700
H  -2.89300 31.81800 33.25800
H  -3.35200 33.50400 33.59900
H  2.60600 39.16700 27.98100
H  1.61000 38.95700 29.33000
H  1.10600 40.16400 28.28600
H  1.18100 40.89600 26.18100
H  1.97100 41.36800 24.67200
H  2.92900 40.26500 25.75700
H  -0.12900 35.12800 21.92700
H  -2.70200 33.67500 21.92900
H  -2.66100 35.67300 20.72600
H  -1.14600 36.58100 20.74500
H  -2.38700 36.97600 21.93600
H  -0.51100 33.01700 20.74400
H  -1.47600 31.83900 21.48500
H  0.44000 32.67000 23.57700
H  1.37700 32.34600 22.04100
H  0.42600 31.12700 22.75800
H  -4.50800 30.43200 24.34300
H  -5.88300 30.49900 25.40900
H  -4.78600 29.23700 25.69800
H  -3.40000 31.25900 30.57800
H  -5.70900 32.59200 33.67800
H  -6.73600 31.35200 33.43400
H  -7.01500 32.91700 32.54700

