158

Mg 45.73000 4.72200 47.43300
C  43.52000 7.37400 46.58700
C  43.26300 2.42200 46.65000
C  48.05200 2.16300 47.74600
C  48.30700 7.01100 47.56200
N  43.60000 4.92700 46.85400
C  42.95700 6.06500 46.34700
C  41.47700 5.83700 45.95500
C  41.44200 4.25600 46.09400
C  42.88000 3.81500 46.52100
C  40.34900 3.72100 47.05000
C  41.39000 6.22200 44.40600
C  40.55500 7.45900 44.09600
H  41.11700 8.43600 43.02200
N  45.59400 2.53600 47.27300
C  44.51800 1.79400 46.93600
C  44.91500 0.39600 46.90300
C  46.35100 0.35500 47.17800
C  46.70700 1.75000 47.44400
C  43.93300 -0.66600 46.51900
C  47.14800 -0.97400 47.21200
O  46.58200 -2.04500 46.94100
C  48.68400 -1.02000 47.48600
N  47.79600 4.65500 47.76400
C  48.53900 3.48300 47.90400
C  50.02000 3.74800 48.09000
C  50.07400 5.26700 48.08600
C  48.63200 5.69800 47.75600
C  50.65800 3.16500 49.41600
C  51.13200 5.91900 47.12800
C  52.13200 6.90100 47.79300
N  45.94900 6.84900 47.24400
C  47.06000 7.58900 47.31000
C  46.68100 9.01200 47.21500
C  45.29300 8.96200 46.86800
C  44.84800 7.63700 46.91000
C  47.61500 10.17100 47.23800
C  44.14900 9.77400 46.54200
O  44.09800 10.93000 46.31700
C  42.97400 8.79900 46.37800
C  41.99600 9.16400 47.42700
O  41.72900 8.51800 48.38700
O  41.14500 10.11200 46.90000
C  39.87200 10.11500 47.54700
H  42.44300 1.70000 46.64200
H  48.84400 1.42400 47.88200
H  49.06500 7.79100 47.46900
H  40.78200 6.35000 46.61800
H  41.18400 3.83300 45.12300
H  39.42000 3.43400 46.55900
H  40.19000 4.56300 47.72400
H  40.65400 2.99800 47.80700
H  40.95000 5.39700 43.84600
H  42.38600 6.38400 43.99400
H  40.37200 8.05300 44.99100
H  39.58700 7.14200 43.70700
H  44.09100 -1.53900 47.15200
H  44.07500 -0.92800 45.47000
H  42.89100 -0.39400 46.68300
H  49.12100 -2.00200 47.30400
H  48.88100 -0.68700 48.50500
H  49.19700 -0.24900 46.91100
H  50.49900 3.32600 47.20700
H  50.13300 5.57600 49.13000
H  49.84100 2.60600 49.87300
H  51.06700 3.84000 50.16900
H  51.40800 2.51000 48.97300
H  50.73400 6.51700 46.30800
H  51.70400 5.14800 46.61300
H  53.08900 6.49000 47.47200
H  52.04200 7.01200 48.87300
H  51.98000 7.86300 47.30200
H  47.65500 10.53200 48.26600
H  47.26200 11.02600 46.66100
H  48.62300 9.88000 46.94400
H  42.65600 8.79000 45.33600
H  39.98500 10.69800 48.46100
H  39.51400 9.11900 47.81000
H  39.11400 10.58300 46.91900
Mg 6.00500 53.57500 41.36700
C  5.42500 50.12200 40.79200
C  8.97000 53.37600 39.82000
C  6.10500 56.94500 41.39700
C  2.73500 53.77200 42.76100
N  6.88800 51.92400 40.25200
C  6.57600 50.58900 40.18600
C  7.63100 49.90800 39.31200
C  8.85000 50.85300 39.36500
C  8.16700 52.22400 39.83300
C  10.00300 50.35600 40.26800
C  6.95800 49.77100 37.89600
C  7.30100 48.49000 37.15800
H  6.37600 47.83900 36.17400
N  7.37600 54.97300 40.82600
C  8.57500 54.71000 40.21900
C  9.35600 55.85700 40.06800
C  8.57300 56.93400 40.47600
C  7.25500 56.34600 40.89600
C  10.85600 55.72100 39.59800
C  9.06900 58.40100 40.44100
O  10.12200 58.70800 39.86600
C  8.21100 59.56700 40.91000
N  4.60500 55.14900 41.87100
C  4.89200 56.47100 41.75200
C  3.71000 57.41100 42.12100
C  2.73200 56.34300 42.66400
C  3.34700 55.00900 42.40700
C  4.10400 58.52400 43.17800
C  1.31500 56.57800 42.15100
C  0.61100 57.86600 42.65900
N  4.41100 52.27400 41.75100
C  3.18900 52.46200 42.39100
C  2.59600 51.18200 42.62900
C  3.37800 50.18900 41.92700
C  4.52600 50.88800 41.51500
C  1.30600 50.97400 43.49600
C  3.58700 48.83700 41.69200
O  2.81200 47.91500 41.91400
C  4.91700 48.69300 40.96500
C  4.93800 47.71800 39.87300
O  4.57300 47.89800 38.71900
O  5.33500 46.51000 40.29500
C  5.06300 45.30300 39.47700
H  9.93100 53.24600 39.31900
H  6.29300 58.01800 41.47800
H  1.79500 53.87900 43.30700
H  7.75100 48.91800 39.75300
H  9.28500 51.01600 38.37900
H  9.73800 49.45000 40.81400
H  10.31400 51.12300 40.97700
H  10.78700 50.07900 39.56200
H  7.25200 50.54300 37.18500
H  5.87200 49.86200 37.93600
H  7.48000 47.83100 38.00700
H  8.25400 48.60300 36.64300
H  11.51800 56.52100 39.93000
H  10.95100 55.57000 38.52200
H  11.25700 54.80700 40.03600
H  8.77600 60.49300 40.80800
H  7.84300 59.40900 41.92400
H  7.38800 59.45400 40.20500
H  3.39700 57.86500 41.18100
H  2.71500 56.50900 43.74100
H  5.06900 58.28700 43.62600
H  3.38100 58.63700 43.98600
H  4.29200 59.43100 42.60400
H  0.62500 55.79200 42.45900
H  1.33900 56.55500 41.06200
H  -0.29500 57.68800 43.23900
H  0.41800 58.50000 41.79300
H  1.30800 58.39100 43.31200
H  1.21200 49.88800 43.51700
H  0.48400 51.46600 42.97600
H  1.52000 51.28400 44.51900
H  5.62400 48.29700 41.69300
H  4.01000 45.05300 39.34700
H  5.51900 44.44300 39.96600
H  5.53900 45.37600 38.49900

