158

Mg 35.80700 0.88500 29.44000
C  33.38500 2.09900 31.80900
C  38.11300 0.92700 31.86400
C  37.95400 0.28500 27.03900
C  33.28800 1.46500 26.97600
N  35.75900 1.50000 31.57600
C  34.67800 1.91200 32.34200
C  35.15000 2.01100 33.84000
C  36.67900 1.86200 33.74900
C  36.90600 1.40900 32.33400
C  37.45100 3.13500 34.06600
C  34.46500 0.93300 34.65300
C  34.14400 1.12900 36.12300
H  34.35300 2.50600 36.67000
N  37.78200 0.64000 29.44500
C  38.52200 0.57200 30.57400
C  39.76200 0.02300 30.18200
C  39.81900 -0.20600 28.78000
C  38.47500 0.20200 28.34700
C  40.84200 -0.20600 31.22400
C  40.89200 -0.69600 27.88700
O  40.90200 -0.71600 26.67100
C  42.20200 -1.05800 28.54400
N  35.70800 0.96500 27.30700
C  36.76400 0.60900 26.56700
C  36.28900 0.54900 25.10800
C  34.72000 0.76300 25.11200
C  34.58300 1.11400 26.54200
C  37.01700 1.60200 24.24800
C  33.93900 -0.43400 24.59300
C  32.90400 -0.08100 23.52800
N  33.75900 1.47700 29.35100
C  32.88800 1.76500 28.27700
C  31.60500 2.12500 28.72500
C  31.79100 2.35400 30.10800
C  33.06400 1.95600 30.44500
C  30.38100 2.49700 27.90200
C  31.07900 2.80200 31.22400
O  29.96600 3.26900 31.39500
C  32.09600 2.66800 32.49000
C  32.29300 4.00100 33.16200
O  33.11400 4.87500 32.85100
O  31.45400 4.14100 34.22900
C  31.46900 5.46600 34.91400
H  38.86500 0.92500 32.65700
H  38.64500 -0.14600 26.31100
H  32.46700 1.51000 26.25800
H  34.93400 3.00800 34.22200
H  36.94000 0.99200 34.35200
H  36.83400 4.02000 34.22200
H  38.12800 3.42200 33.26100
H  38.02400 2.88600 34.95900
H  35.11500 0.05900 34.62100
H  33.49400 0.72000 34.20700
H  34.74400 0.44900 36.72800
H  33.09000 0.86800 36.21700
H  41.84500 -0.05800 30.82600
H  40.74200 -1.24700 31.53100
H  40.73700 0.34900 32.15700
H  42.20100 -1.62100 29.47700
H  42.93300 -0.26800 28.71200
H  42.57500 -1.78600 27.82300
H  36.54900 -0.41200 24.66500
H  34.51900 1.69900 24.59200
H  37.00600 1.29400 23.20300
H  38.04100 1.62400 24.62100
H  36.68200 2.60900 24.49800
H  33.41100 -0.83000 25.46000
H  34.57300 -1.21900 24.18100
H  32.18600 0.64000 23.92000
H  32.27200 -0.89600 23.17500
H  33.36600 0.26600 22.60400
H  30.11900 1.56300 27.40500
H  30.63500 3.18000 27.09200
H  29.52000 2.77300 28.51100
H  31.69700 1.92300 33.17800
H  30.41000 5.71200 34.83700
H  32.18800 6.16600 34.48900
H  31.68900 5.32900 35.97300
Mg 47.56600 15.42100 27.68500
C  45.35000 15.27100 30.52300
C  49.73200 17.07300 29.58500
C  49.46700 15.50500 24.99500
C  44.94200 13.79700 25.87900
N  47.47400 16.16100 29.79200
C  46.53900 15.96700 30.79700
C  47.10900 16.36600 32.17000
C  48.36800 17.18100 31.80700
C  48.54300 16.73600 30.30300
C  48.24600 18.74300 31.78500
C  47.35900 15.20300 33.11300
C  47.36700 15.49300 34.64800
H  47.11100 16.97800 35.04700
N  49.47600 16.07100 27.38500
C  50.15300 16.79300 28.29000
C  51.40700 17.12100 27.67300
C  51.38300 16.62700 26.32600
C  50.05800 16.04500 26.15300
C  52.57600 17.84200 28.35400
C  52.43700 16.70900 25.24900
O  52.34800 16.13600 24.13200
C  53.68500 17.43700 25.42600
N  47.11700 14.91300 25.67800
C  48.16300 14.94600 24.76200
C  47.65000 14.44300 23.36200
C  46.30000 13.63300 23.79700
C  46.10400 14.10900 25.22700
C  47.52000 15.55300 22.38800
C  46.35600 12.08900 23.51900
C  46.54200 11.16100 24.74100
N  45.48900 14.71300 28.02600
C  44.64500 14.01800 27.27600
C  43.50600 13.56700 28.02600
C  43.72300 14.07900 29.26300
C  44.94900 14.70900 29.24500
C  42.33900 12.87700 27.44300
C  43.20300 14.17100 30.67200
O  42.13400 13.84900 31.09400
C  44.21000 14.90900 31.53600
C  43.51900 16.09700 32.09000
O  42.98400 17.04900 31.45800
O  43.54000 15.95000 33.47600
C  42.58800 16.70800 34.19300
H  50.52000 17.62300 30.10400
H  50.03900 15.57600 24.06800
H  44.25900 13.09800 25.39100
H  46.34000 17.00400 32.60500
H  49.10000 16.83200 32.53600
H  48.01200 19.14700 30.80000
H  49.21800 19.11200 32.11100
H  47.36500 19.02400 32.36200
H  48.27800 14.70100 32.80900
H  46.59700 14.47600 32.83200
H  48.33100 15.20600 35.07000
H  46.56500 14.94000 35.13700
H  52.37300 17.82000 29.42500
H  52.68600 18.79100 27.83000
H  53.56600 17.40000 28.24000
H  53.38500 18.41500 25.80100
H  54.20600 17.63800 24.48900
H  54.35900 17.01800 26.17300
H  48.42100 13.83700 22.88600
H  45.45200 14.00000 23.21800
H  46.50300 15.93900 22.45000
H  47.80800 15.11900 21.43000
H  48.21400 16.31600 22.74200
H  47.14500 11.78700 22.83100
H  45.43500 11.81300 23.00700
H  46.64000 10.10700 24.47900
H  45.73000 11.35800 25.44000
H  47.55200 11.33700 25.11100
H  42.40400 11.80700 27.64100
H  42.29000 13.03600 26.36600
H  41.39600 13.29000 27.80100
H  44.53300 14.16300 32.26200
H  42.72100 16.44600 35.24200
H  41.59100 16.41600 33.86400
H  42.74100 17.78100 34.07800

