158

Mg 30.32100 58.21000 40.02100
C  27.54900 56.08900 39.28800
C  32.37300 55.62900 38.93500
C  32.68900 60.33500 40.15800
C  27.87000 60.74600 40.50000
N  30.02300 56.18400 39.03100
C  28.79400 55.52400 38.87200
C  29.05500 54.07500 38.47700
C  30.57100 53.88200 38.56600
C  31.01300 55.32000 38.89400
C  31.08000 52.83500 39.68000
C  28.44300 53.53100 37.08400
C  28.05200 54.55700 36.02200
H  28.30700 54.21100 34.56300
N  32.37700 57.96300 39.82200
C  33.03300 56.84500 39.37000
C  34.46600 57.07000 39.30000
C  34.67000 58.51600 39.55700
C  33.27100 59.00600 39.86100
C  35.43400 56.00200 38.66900
C  35.97700 59.27300 39.54900
O  37.02500 58.63300 39.35200
C  36.09700 60.68800 39.87300
N  30.27100 60.31000 40.18700
C  31.46100 60.96500 40.32500
C  31.30100 62.44500 40.69000
C  29.74400 62.52700 41.12900
C  29.25400 61.11600 40.55500
C  32.24300 63.00400 41.76300
C  29.10700 63.79400 40.59000
C  28.50300 64.70300 41.73700
N  28.12500 58.42100 40.03200
C  27.31800 59.46200 40.21500
C  25.88200 59.06100 40.15800
C  25.94200 57.74000 39.73500
C  27.31400 57.39800 39.66400
C  24.68500 60.00900 40.30300
C  25.17700 56.53200 39.45300
O  23.92900 56.38900 39.46700
C  26.17400 55.43800 39.08200
C  25.95900 54.33200 40.05000
O  26.17600 54.45700 41.25400
O  25.53400 53.19900 39.36400
C  25.09000 52.13900 40.26500
H  33.03900 54.80200 38.68100
H  33.45900 61.10300 40.25400
H  27.12700 61.52200 40.69400
H  28.47000 53.50700 39.20100
H  30.97300 53.59000 37.59500
H  30.23300 52.38800 40.20000
H  31.68900 53.22700 40.49400
H  31.74300 52.06500 39.28600
H  27.44800 53.14800 37.30900
H  28.94400 52.63900 36.70700
H  28.58400 55.48600 36.22500
H  26.99700 54.82900 36.00100
H  35.36400 56.25600 37.61100
H  34.96800 55.03000 38.83000
H  36.45400 56.07700 39.04800
H  37.07600 61.15400 39.75600
H  35.85700 60.72800 40.93600
H  35.39300 61.34600 39.36300
H  31.46000 63.09500 39.82900
H  29.67900 62.40200 42.21000
H  32.56100 62.18700 42.41000
H  31.80700 63.81400 42.34700
H  33.01900 63.41600 41.11800
H  28.27700 63.46900 39.96300
H  29.81400 64.42600 40.05200
H  28.98300 65.66600 41.56000
H  28.85900 64.34400 42.70200
H  27.42700 64.87500 41.68400
H  24.59600 60.45800 39.31300
H  24.99000 60.75500 41.03700
H  23.82300 59.40200 40.58000
H  26.12100 55.12100 38.04000
H  24.28400 52.40900 40.94700
H  25.91400 51.60600 40.74000
H  24.66400 51.45800 39.52900
Mg -11.86000 15.64300 41.25100
C  -8.74700 13.99200 40.86900
C  -10.27400 18.33700 39.77200
C  -14.77200 17.04900 40.98200
C  -13.21600 12.57100 42.07500
N  -9.69800 16.10000 40.65600
C  -8.59600 15.27900 40.46400
C  -7.40800 15.95300 39.86400
C  -7.87900 17.44500 39.89300
C  -9.40300 17.34300 40.13900
C  -7.11100 18.23100 41.07900
C  -7.11900 15.44100 38.42100
C  -5.64700 15.28900 38.04100
H  -5.23500 15.89500 36.68100
N  -12.42900 17.53900 40.64100
C  -11.64500 18.43900 40.00300
C  -12.46800 19.57800 39.70000
C  -13.80400 19.28100 40.10700
C  -13.72300 17.92100 40.68100
C  -11.89100 20.84600 39.02100
C  -15.00100 20.17800 39.91600
O  -15.00000 21.25200 39.37500
C  -16.36000 19.71400 40.39200
N  -13.71400 14.93200 41.39100
C  -14.77300 15.70500 41.31100
C  -16.11400 14.87400 41.37900
C  -15.58700 13.43200 41.79200
C  -14.07000 13.64000 41.73600
C  -17.24000 15.38700 42.27600
C  -16.03600 12.31300 40.88400
C  -17.06200 11.33200 41.39300
N  -11.11200 13.68600 41.67900
C  -11.78900 12.50800 41.95100
C  -10.87400 11.40200 42.08700
C  -9.69200 11.98700 41.63500
C  -9.89900 13.35200 41.36000
C  -11.23600 10.02300 42.52500
C  -8.25200 11.72200 41.38300
O  -7.62100 10.69200 41.47100
C  -7.62000 12.97300 40.85700
C  -6.54500 13.37700 41.85500
O  -6.67700 13.81900 42.94800
O  -5.32700 12.99300 41.35600
C  -4.18900 13.23900 42.25600
H  -9.79800 19.23300 39.36800
H  -15.78500 17.45800 40.97600
H  -13.79900 11.73000 42.45700
H  -6.55100 15.92800 40.53700
H  -7.60700 17.99700 38.99400
H  -6.51500 17.51700 41.64800
H  -7.80600 18.67900 41.78900
H  -6.51400 19.08400 40.75800
H  -7.60900 16.19000 37.79900
H  -7.66400 14.52000 38.21200
H  -5.43900 14.22200 38.11900
H  -5.02100 15.79900 38.77300
H  -12.58600 21.33100 38.33500
H  -11.05200 20.49500 38.42000
H  -11.56600 21.56000 39.77700
H  -16.79300 18.99300 39.70000
H  -16.95400 20.62800 40.39700
H  -16.20300 19.31800 41.39500
H  -16.47200 14.87000 40.34900
H  -15.87000 13.21900 42.82300
H  -16.94600 16.29300 42.80600
H  -17.51900 14.55300 42.92000
H  -18.05400 15.65800 41.60300
H  -15.21300 11.83700 40.35100
H  -16.58600 12.68900 40.02100
H  -17.52400 11.79400 42.26600
H  -16.56300 10.39600 41.64500
H  -17.82000 11.00600 40.68200
H  -10.34100 9.43200 42.71800
H  -11.87900 9.60600 41.75000
H  -11.80600 10.18900 43.44000
H  -7.20900 12.71000 39.88200
H  -4.30100 12.72100 43.20900
H  -4.26700 14.30900 42.44900
H  -3.24200 12.92300 41.82000

