158

Mg 35.74600 1.28300 29.70700
C  33.41500 2.51100 32.03800
C  38.18800 1.44400 32.24200
C  38.07800 0.76600 27.44300
C  33.35000 1.53300 27.25500
N  35.80900 1.84600 31.77900
C  34.70200 2.23700 32.59500
C  35.12100 2.44800 34.07900
C  36.67800 2.26400 34.07000
C  36.91000 1.82900 32.55600
C  37.41000 3.56300 34.35700
C  34.30300 1.46300 35.00400
C  33.75600 1.97700 36.32000
H  34.47100 3.16200 36.99000
N  37.75200 1.04700 29.82400
C  38.58100 1.02400 30.94900
C  39.96600 0.62000 30.59500
C  39.94300 0.42900 29.18200
C  38.54600 0.76800 28.75600
C  41.03700 0.21700 31.58900
C  41.06500 -0.03700 28.28000
O  40.94900 0.07300 27.05300
C  42.43500 -0.46700 28.82200
N  35.73100 1.28200 27.58600
C  36.77300 0.95500 26.88500
C  36.51800 0.84500 25.37400
C  34.94900 0.93700 25.37500
C  34.65900 1.24800 26.80500
C  37.32100 1.99700 24.61900
C  34.27200 -0.35600 24.85200
C  33.34500 -0.20500 23.70300
N  33.81800 1.85400 29.55900
C  32.89100 1.82100 28.55000
C  31.58100 2.27300 29.02200
C  31.73400 2.55400 30.41200
C  33.07400 2.24800 30.68000
C  30.31100 2.37300 28.22300
C  31.07700 3.07200 31.61100
O  29.91000 3.44200 31.83400
C  32.16200 3.04300 32.74200
C  32.15400 4.40500 33.32500
O  32.93500 5.28800 33.07700
O  31.18600 4.41100 34.30700
C  31.33000 5.32200 35.42200
H  38.95200 1.58100 33.01000
H  38.77800 0.64400 26.61300
H  32.62500 1.55900 26.43800
H  34.73500 3.45200 34.25800
H  37.08300 1.55900 34.79600
H  36.66700 4.26800 34.72800
H  37.98800 3.93800 33.51100
H  38.11100 3.26700 35.13800
H  34.88000 0.56900 35.24300
H  33.48400 1.09200 34.38800
H  33.58400 1.22400 37.08900
H  32.77400 2.36800 36.05300
H  41.45400 -0.75900 31.33800
H  40.64700 0.04400 32.59200
H  41.87200 0.90800 31.71000
H  42.77000 0.32900 29.48600
H  43.15900 -0.54500 28.01000
H  42.28900 -1.48400 29.18600
H  36.78800 -0.14700 25.01300
H  34.51900 1.71100 24.73900
H  36.59400 2.77200 24.37600
H  37.96600 1.61700 23.82600
H  37.97600 2.44300 25.36700
H  33.58600 -0.74200 25.60600
H  35.01300 -1.12100 24.62100
H  33.45800 -1.15300 23.17700
H  33.58400 0.59000 22.99700
H  32.30100 -0.31700 23.99600
H  29.71200 3.14400 28.70800
H  29.72300 1.46100 28.32800
H  30.50800 2.66300 27.19100
H  31.91100 2.35500 33.54900
H  30.43100 5.93600 35.37300
H  32.23800 5.90100 35.25400
H  31.43900 4.77200 36.35600
Mg -11.62200 16.20300 43.12500
C  -8.24600 16.88800 43.15300
C  -12.27700 19.52200 41.99300
C  -14.76500 15.33800 42.58100
C  -10.80700 12.71400 43.49600
N  -10.41200 17.94000 42.50700
C  -9.04300 17.96700 42.79900
C  -8.52400 19.35700 42.35800
C  -9.82600 20.23800 42.42100
C  -10.92800 19.20100 42.30900
C  -9.92100 20.93200 43.81800
C  -7.86700 19.30400 40.89400
C  -6.59600 20.09500 40.55400
H  -5.46000 19.38500 39.74300
N  -13.28900 17.25600 42.21700
C  -13.36800 18.57500 41.84900
C  -14.74200 18.97100 41.61400
C  -15.46800 17.73100 41.61600
C  -14.51500 16.72000 42.20200
C  -15.20200 20.34900 41.26600
C  -16.94800 17.69300 41.27700
O  -17.55500 18.70300 41.01800
C  -17.67100 16.30700 41.12400
N  -12.59900 14.30400 43.02400
C  -13.97300 14.29400 42.94500
C  -14.53600 12.83800 43.17400
C  -13.32100 11.92600 43.18100
C  -12.14900 13.00200 43.26100
C  -15.56200 12.70100 44.26100
C  -13.19800 11.00400 41.92400
C  -13.58900 9.52900 42.19200
N  -9.87500 14.97000 43.43800
C  -9.73500 13.59800 43.56600
C  -8.28900 13.26900 43.71900
C  -7.62800 14.55000 43.62300
C  -8.71200 15.50700 43.34900
C  -7.69000 11.91300 43.93800
C  -6.38700 15.28500 43.60200
O  -5.25600 14.95800 43.90100
C  -6.70000 16.75700 43.11300
C  -6.02500 17.77400 43.88000
O  -6.16700 17.92000 45.07600
O  -5.16300 18.48100 43.09200
C  -4.36100 19.57800 43.64700
H  -12.46300 20.56400 41.72600
H  -15.80100 15.02600 42.42900
H  -10.48100 11.70900 43.77400
H  -7.75900 19.77100 43.01500
H  -9.77500 21.03000 41.67400
H  -9.04300 21.43400 44.22500
H  -10.04000 20.07700 44.48200
H  -10.70100 21.68600 43.92400
H  -8.67800 19.61900 40.23800
H  -7.58900 18.26500 40.71800
H  -6.22300 20.70600 41.37600
H  -6.89900 20.86900 39.84900
H  -15.57700 20.39200 40.24400
H  -14.36200 21.02700 41.40900
H  -15.98800 20.49000 42.00900
H  -18.56600 16.52600 40.54200
H  -17.92700 15.94000 42.11800
H  -17.03000 15.59100 40.60900
H  -15.14000 12.70300 42.27700
H  -13.24500 11.35400 44.10500
H  -15.39000 11.67800 44.59500
H  -16.60300 12.74000 43.94100
H  -15.33000 13.42800 45.03900
H  -12.14800 11.00200 41.63200
H  -13.82800 11.40200 41.12800
H  -12.67200 8.94000 42.17000
H  -14.37900 9.30900 41.47400
H  -14.00200 9.44300 43.19700
H  -6.62300 12.10600 44.05400
H  -7.91000 11.30600 43.06000
H  -8.04300 11.38800 44.82600
H  -6.35300 16.75800 42.07900
H  -3.58700 19.12800 44.27000
H  -4.88200 20.11100 44.44300
H  -3.90400 20.20100 42.87800

