158

Mg 0.97900 8.22200 24.80300
C  1.56600 9.96300 27.68200
C  1.63900 5.26700 26.56000
C  0.55900 6.47200 21.99300
C  1.18800 11.22700 23.00700
N  1.42600 7.69800 26.92900
C  1.48000 8.57300 27.94200
C  1.60300 7.81300 29.31800
C  1.92000 6.31000 28.85800
C  1.64800 6.41300 27.32600
C  3.41200 5.90300 29.11900
C  0.29500 7.98900 30.15000
C  0.56800 8.36600 31.60400
H  1.61100 7.56400 32.36000
N  0.93300 6.16100 24.33000
C  1.27100 5.12600 25.15600
C  1.02300 3.87600 24.45600
C  0.59500 4.19200 23.11800
C  0.64100 5.68100 23.08500
C  1.15100 2.51100 25.06300
C  0.21300 3.34500 21.83700
O  -0.07700 3.81500 20.73200
C  0.36500 1.83400 21.91800
N  0.86800 8.83700 22.80000
C  0.76100 7.87800 21.80400
C  0.77400 8.52800 20.39100
C  0.94400 10.07300 20.74900
C  0.90000 10.10200 22.29600
C  1.84800 8.07600 19.36700
C  -0.04700 11.11200 20.12300
C  0.37500 11.82900 18.82000
N  1.36000 10.23800 25.11700
C  1.39900 11.34100 24.37500
C  1.45400 12.54000 25.17000
C  1.60300 11.99200 26.48100
C  1.49200 10.60900 26.41300
C  1.44800 14.01300 24.72100
C  1.79900 12.34600 27.74500
O  2.07000 13.44200 28.23800
C  1.66900 11.13800 28.65100
C  2.91000 10.98800 29.46200
O  4.07300 10.87400 29.02900
O  2.49800 11.13100 30.72600
C  3.54100 11.38900 31.70700
H  1.98700 4.30300 26.93900
H  0.50900 6.02700 20.99700
H  1.25600 12.11400 22.37400
H  2.38600 8.32500 29.87700
H  1.16500 5.60500 29.20500
H  4.03200 6.55500 29.73400
H  3.86800 5.67400 28.15600
H  3.34700 4.87800 29.48600
H  -0.25200 7.04600 30.15500
H  -0.39700 8.74300 29.77400
H  -0.37000 8.04800 32.05800
H  0.83700 9.41300 31.74400
H  1.70700 2.66100 25.98900
H  1.77300 1.89400 24.41500
H  0.15700 2.07500 25.16000
H  -0.01400 1.22300 22.73700
H  1.43700 1.66100 21.81800
H  -0.01100 1.44700 20.97100
H  -0.24300 8.40100 20.02100
H  1.90800 10.34600 20.32100
H  2.37200 7.34700 19.98500
H  2.42800 8.92700 19.01000
H  1.45400 7.55800 18.49200
H  -0.47400 11.93300 20.69900
H  -0.96300 10.59200 19.84300
H  1.43400 11.74600 18.57700
H  0.47700 12.90300 18.97700
H  -0.17700 11.64100 17.89900
H  1.26300 14.62300 25.60500
H  0.64000 14.16100 24.00400
H  2.43600 14.29400 24.35500
H  0.74800 11.33500 29.20000
H  3.30500 12.26900 32.30500
H  4.51200 11.49400 31.22200
H  3.59900 10.50400 32.34100
Mg 46.84200 24.91600 28.83600
C  47.32200 27.14600 31.38300
C  45.61500 22.54800 30.93900
C  46.88400 22.68000 26.34200
C  47.88600 27.41900 26.71100
N  46.47600 24.93700 30.88000
C  46.84600 25.85700 31.76800
C  46.44600 25.41200 33.16300
C  46.09200 23.98800 33.01400
C  45.98600 23.80800 31.45800
C  46.96700 22.92000 33.70900
C  45.39300 26.31700 33.81800
C  45.85200 26.95100 35.15000
H  44.87700 27.10300 36.31800
N  46.31000 22.86000 28.65200
C  45.64900 22.08400 29.64800
C  45.28300 20.75700 29.19300
C  45.71900 20.83500 27.77700
C  46.26100 22.16000 27.46800
C  44.74000 19.64700 30.12100
C  45.52600 19.77000 26.67600
O  45.84000 19.98400 25.55400
C  44.80600 18.42100 27.07400
N  47.53000 24.95900 26.85900
C  47.39100 23.94800 26.00500
C  48.01500 24.29800 24.63800
C  47.77900 25.83300 24.63700
C  47.60400 26.14300 26.13700
C  49.46100 23.89500 24.47800
C  46.57700 26.43400 23.82900
C  45.24400 26.59000 24.57400
N  47.60400 26.91900 28.99100
C  47.85000 27.83900 28.00800
C  48.28900 29.04300 28.65000
C  47.99900 28.88500 29.96300
C  47.61200 27.61900 30.09000
C  48.81900 30.29300 27.99300
C  47.98000 29.48400 31.31500
O  48.24200 30.61300 31.74000
C  47.72700 28.26700 32.33500
C  49.00700 28.06000 33.03900
O  50.05100 27.69900 32.51500
O  48.84900 28.36700 34.35500
C  49.97200 28.25600 35.25400
H  45.24200 21.94800 31.77200
H  46.94200 22.06700 25.44000
H  48.08300 28.24700 26.02700
H  47.31300 25.53400 33.81200
H  45.06900 23.81100 33.34500
H  47.17400 22.02100 33.12800
H  46.26800 22.72100 34.52100
H  47.90900 23.40600 33.96400
H  44.42300 25.85200 33.99500
H  45.19900 27.14100 33.13200
H  46.30200 27.91600 34.91700
H  46.62100 26.29000 35.54800
H  44.48500 20.13900 31.05900
H  45.45200 18.84900 30.33300
H  43.80900 19.31800 29.66000
H  43.99500 18.66400 27.76100
H  45.42900 17.84300 27.75700
H  44.40000 17.85200 26.23700
H  47.47300 23.93400 23.76400
H  48.63900 26.33700 24.19600
H  50.06100 24.80200 24.55600
H  49.76900 23.45800 23.52800
H  49.74600 23.19700 25.26600
H  46.35100 25.74800 23.01300
H  46.92800 27.44200 23.60600
H  45.23800 27.48400 25.19700
H  45.03400 25.77600 25.26700
H  44.39700 26.63400 23.89000
H  48.28100 31.10600 28.48000
H  48.71200 30.25200 26.90900
H  49.89700 30.29400 28.15800
H  46.97500 28.48000 33.09500
H  50.19700 29.22200 35.70700
H  50.89100 27.83500 34.84800
H  49.75000 27.61000 36.10300

