158

Mg 54.35700 24.05300 44.78000
C  51.93200 26.50400 43.34600
C  52.57000 21.61500 43.16600
C  57.02100 22.06100 44.95900
C  56.18900 26.77800 45.87800
N  52.55400 24.20300 43.29900
C  51.69900 25.21000 42.97600
C  50.56300 24.78800 42.06400
C  50.62500 23.22600 42.31600
C  52.05300 22.91000 42.92300
C  49.53700 22.84300 43.36300
C  50.73900 25.21900 40.62200
C  52.13600 25.69000 40.12500
H  52.95800 24.64700 39.41000
N  54.62800 22.05400 44.41300
C  53.78000 21.20900 43.80900
C  54.27200 19.86500 43.99400
C  55.65200 19.97300 44.37800
C  55.83900 21.38400 44.57400
C  53.42700 18.68500 43.64500
C  56.69800 18.82600 44.58900
O  56.32600 17.66400 44.55900
C  58.11700 19.11700 45.01900
N  56.46700 24.47600 45.01600
C  57.27500 23.44800 45.18800
C  58.57900 23.85600 45.86100
C  58.31200 25.34900 46.33200
C  56.89900 25.57800 45.72600
C  59.19400 22.92700 47.02300
C  59.35200 26.36500 45.69600
C  59.58300 27.66200 46.43300
N  54.18500 26.19400 44.63600
C  54.94500 27.10500 45.28200
C  54.24800 28.37800 45.29900
C  53.08700 28.16900 44.51900
C  53.10100 26.88300 44.04900
C  54.71500 29.52200 45.97600
C  51.86100 28.86100 44.08300
O  51.42100 30.00600 44.22500
C  51.09000 27.78600 43.24100
C  50.76700 28.31200 41.85400
O  51.61700 28.65900 41.02800
O  49.40700 28.36300 41.73600
C  49.09200 28.85000 40.36900
H  51.85700 20.87400 42.79900
H  57.90600 21.42700 45.04500
H  56.72500 27.59200 46.36800
H  49.74800 25.32000 42.55500
H  50.46100 22.63500 41.41500
H  48.61000 22.86400 42.78900
H  49.54000 23.52100 44.21600
H  49.76000 21.84700 43.74500
H  50.08500 26.06900 40.43000
H  50.42000 24.38900 39.99100
H  52.77900 26.20000 40.84200
H  51.97100 26.60800 39.56100
H  53.58800 18.20300 42.68000
H  52.46500 19.14900 43.43100
H  53.31800 18.05600 44.52800
H  58.52900 18.11600 45.15100
H  58.10900 19.58300 46.00500
H  58.66200 19.71600 44.29000
H  59.19900 23.74300 44.97200
H  58.24500 25.40800 47.41800
H  58.42200 22.17800 47.19600
H  59.43900 23.47700 47.93200
H  60.11400 22.45000 46.68500
H  59.00300 26.57700 44.68600
H  60.27800 25.80000 45.58900
H  60.64000 27.80300 46.66100
H  59.00000 27.57100 47.35000
H  59.30500 28.54200 45.85200
H  55.01600 30.27400 45.24600
H  55.48200 29.25300 46.70300
H  53.81900 29.90900 46.46000
H  50.19900 27.54600 43.82000
H  49.14900 29.93800 40.42000
H  48.05600 28.69200 40.06800
H  49.77700 28.32400 39.70500
Mg 36.46900 49.93500 25.38100
C  36.61700 48.13700 28.38400
C  35.06000 52.53200 27.28700
C  35.61300 51.50200 22.54600
C  37.41700 47.14600 23.68300
N  35.81200 50.24400 27.65400
C  36.13700 49.36400 28.63100
C  36.00800 50.02700 29.99000
C  35.08400 51.27800 29.60800
C  35.39000 51.41900 28.10300
C  33.53700 51.07200 29.98600
C  37.29800 50.33500 30.77500
C  37.17800 50.18700 32.33000
H  35.83800 50.37800 32.95700
N  35.63400 51.81400 24.94600
C  35.21600 52.70500 25.89800
C  34.75500 53.91600 25.19600
C  34.77900 53.56800 23.79500
C  35.35300 52.32100 23.68500
C  34.35900 55.23000 25.90300
C  34.21400 54.36800 22.67600
O  34.25800 53.99900 21.49900
C  33.53100 55.68700 22.82400
N  36.35600 49.32600 23.43300
C  36.00500 50.16200 22.38700
C  36.37900 49.53500 21.02300
C  37.22000 48.28600 21.41500
C  37.01000 48.21300 22.97100
C  35.20200 49.16400 20.06700
C  38.64900 48.44500 20.97900
C  38.93000 47.36300 19.90200
N  36.91900 47.97300 25.87300
C  37.36700 46.95200 25.07800
C  37.63100 45.74100 25.77700
C  37.41800 46.16800 27.15200
C  37.00300 47.54500 27.13300
C  38.06100 44.50900 25.14000
C  37.36200 45.75200 28.53500
O  37.55300 44.68900 29.05100
C  36.85200 47.00200 29.40000
C  35.69400 46.64000 30.24000
O  34.48800 46.69800 29.95900
O  36.13200 46.41000 31.52000
C  35.01700 46.35200 32.54300
H  34.43700 53.26300 27.80600
H  35.29900 51.97700 21.61500
H  37.79000 46.42600 22.95200
H  35.38900 49.38900 30.62100
H  35.30400 52.19500 30.15500
H  33.44300 50.02800 30.28600
H  32.91200 51.33900 29.13400
H  33.25600 51.83000 30.71700
H  37.60600 51.36000 30.56900
H  38.11800 49.75600 30.35000
H  37.77800 50.92300 32.86400
H  37.52200 49.19600 32.62600
H  33.27200 55.30800 25.92800
H  34.75600 56.09600 25.37300
H  34.83400 55.21300 26.88400
H  32.68600 55.63000 23.51000
H  33.15500 55.87000 21.81700
H  34.30900 56.39300 23.11100
H  37.01500 50.24900 20.50000
H  36.59700 47.44000 21.12800
H  34.24200 49.61400 20.31700
H  35.01400 48.09100 20.07000
H  35.48700 49.49400 19.06700
H  39.36300 48.26500 21.78300
H  38.91900 49.42800 20.59500
H  38.71600 47.73400 18.89900
H  38.43300 46.40400 20.05400
H  40.00900 47.21700 19.86000
H  37.47800 44.34600 24.23300
H  37.69900 43.69300 25.76600
H  39.11400 44.39500 24.88300
H  37.68700 47.16400 30.08100
H  34.30800 47.17200 32.43300
H  35.46700 46.51200 33.52300
H  34.39700 45.45800 32.47800

