158

Mg 8.99600 2.59600 27.31400
C  10.29800 1.01800 30.28300
C  7.16100 4.67600 29.31300
C  7.23400 3.43500 24.70200
C  10.40500 -0.16800 25.58700
N  8.70800 2.72500 29.49200
C  9.44400 2.12500 30.50800
C  9.13800 2.88300 31.83300
C  7.99100 3.89100 31.52500
C  7.88700 3.68600 30.01000
C  6.63500 3.78200 32.26600
C  10.50900 3.62200 32.32500
C  10.50500 4.54900 33.52700
H  10.93300 4.03000 34.96500
N  7.51600 4.02200 27.00600
C  6.91600 4.80300 27.93400
C  6.01500 5.71600 27.26200
C  5.95400 5.30300 25.92400
C  6.98100 4.22700 25.84200
C  5.19700 6.72300 28.02900
C  5.01700 5.79900 24.83800
O  5.17100 5.37400 23.73000
C  4.03900 6.94200 25.08600
N  9.00800 1.87600 25.36600
C  8.05100 2.39300 24.48700
C  8.33200 1.76300 23.16400
C  9.26200 0.56200 23.43100
C  9.56900 0.68000 24.88500
C  7.08800 1.23100 22.32800
C  10.54800 0.56700 22.53400
C  10.55100 -0.66300 21.58700
N  10.15900 0.74400 27.76000
C  10.67000 -0.27400 26.96200
C  11.42400 -1.12900 27.74400
C  11.40300 -0.65200 29.02900
C  10.52000 0.46300 28.97400
C  12.09500 -2.34900 27.16900
C  11.86100 -0.83200 30.39900
O  12.65900 -1.63300 30.86800
C  11.26100 0.31200 31.29800
C  10.60900 -0.47000 32.36300
O  9.56900 -1.14000 32.21200
O  11.27000 -0.20400 33.53900
C  10.77700 -0.88300 34.73100
H  6.69200 5.46500 29.90400
H  6.62200 3.62600 23.81700
H  10.73000 -0.99300 24.95000
H  8.76800 2.07400 32.46200
H  8.37700 4.89300 31.71300
H  6.90600 3.20500 33.15000
H  5.81500 3.31300 31.72300
H  6.29700 4.71800 32.71200
H  10.85600 4.20000 31.46900
H  11.20200 2.79800 32.49500
H  9.44500 4.78800 33.61500
H  11.17400 5.38200 33.31100
H  5.58400 7.01800 29.00400
H  4.27100 6.21800 28.30700
H  4.93300 7.62100 27.47000
H  3.45400 7.15500 24.19100
H  4.52300 7.87500 25.37400
H  3.38500 6.67300 25.91600
H  8.80700 2.55100 22.57900
H  8.87200 -0.42200 23.16900
H  6.33500 1.64100 23.00200
H  7.03100 0.14400 22.27800
H  6.94100 1.71200 21.36200
H  11.42800 0.49300 23.17300
H  10.61300 1.48200 21.94500
H  9.57600 -1.06900 21.32000
H  11.07700 -1.46000 22.11300
H  11.26300 -0.38300 20.81100
H  12.68200 -2.19000 26.26400
H  11.29300 -3.05200 26.94400
H  12.85300 -2.73500 27.85100
H  12.03000 0.95800 31.72200
H  10.27300 -1.84700 34.65600
H  10.25900 -0.11300 35.30200
H  11.64600 -1.08100 35.35900
Mg -5.59100 24.80200 25.29100
C  -3.61900 26.12900 27.85800
C  -6.55400 22.22500 27.40900
C  -6.77200 23.18000 22.57700
C  -3.90000 27.01100 22.99900
N  -4.98000 24.22900 27.41000
C  -4.38500 25.01800 28.32300
C  -4.64300 24.60100 29.72300
C  -5.41000 23.23800 29.50100
C  -5.73700 23.24300 28.00000
C  -4.59900 22.03300 29.98600
C  -5.41700 25.70300 30.51700
C  -5.22100 25.82700 32.02100
H  -4.57400 24.73300 32.89600
N  -6.67800 23.07600 24.99500
C  -6.94200 22.10800 26.06500
C  -7.99700 21.25500 25.46600
C  -8.14800 21.56100 24.06500
C  -7.10500 22.57600 23.84700
C  -8.76900 20.27100 26.24900
C  -9.08700 20.85300 22.98200
O  -8.82500 20.98600 21.78200
C  -10.30100 19.97200 23.35800
N  -5.33800 25.04400 23.10400
C  -5.93900 24.23700 22.18800
C  -5.74600 24.63800 20.65800
C  -4.79300 25.87900 20.83100
C  -4.70200 25.99200 22.42400
C  -5.25600 23.47100 19.72300
C  -5.16100 27.08800 19.97600
C  -6.03500 28.17800 20.51000
N  -4.11300 26.31100 25.42000
C  -3.54000 27.09100 24.45400
C  -2.61700 28.00800 25.06000
C  -2.66700 27.67200 26.44600
C  -3.49100 26.61400 26.55100
C  -1.82300 29.02800 24.40500
C  -2.14400 28.03000 27.63900
O  -1.31400 28.89100 27.92700
C  -2.81600 27.05600 28.66700
C  -1.76700 26.24500 29.28800
O  -0.98000 25.55300 28.69100
O  -1.82100 26.19700 30.66800
C  -0.61100 25.63800 31.35800
H  -7.01900 21.55200 28.13100
H  -7.26300 22.63200 21.77000
H  -3.35000 27.68300 22.33600
H  -3.62100 24.54000 30.09700
H  -6.35100 23.32000 30.04400
H  -4.12600 21.70700 29.06000
H  -5.15600 21.22000 30.45100
H  -3.87800 22.36400 30.73400
H  -6.50100 25.66800 30.41500
H  -5.08800 26.63800 30.06400
H  -6.20100 26.03500 32.45000
H  -4.68000 26.77000 32.10400
H  -9.84700 20.40700 26.15500
H  -8.51400 20.15600 27.30200
H  -8.59400 19.25400 25.89800
H  -11.05300 20.69100 23.68000
H  -10.10500 19.08600 23.96200
H  -10.79000 19.58800 22.46300
H  -6.71800 24.99400 20.31700
H  -3.80400 25.56500 20.49800
H  -6.07100 22.95000 19.22000
H  -4.94300 22.63300 20.34700
H  -4.58200 23.73100 18.90800
H  -5.59500 26.59200 19.10800
H  -4.20000 27.57900 19.82100
H  -5.59300 29.14200 20.25800
H  -6.27200 28.18100 21.57400
H  -6.94300 28.25000 19.91200
H  -2.36700 29.85500 23.95000
H  -1.16100 28.51100 23.71000
H  -1.15200 29.38200 25.18800
H  -3.27500 27.52400 29.53800
H  -0.88500 24.66800 31.77400
H  -0.45100 26.44400 32.07400
H  0.32800 25.56200 30.80900

