158

Mg 0.41500 7.57400 25.75100
C  1.23000 9.72600 28.51200
C  0.92200 4.88800 27.71800
C  -0.28100 5.78100 23.03000
C  0.74100 10.56500 23.65300
N  1.06800 7.35000 27.91100
C  1.18200 8.39200 28.83300
C  1.25000 7.74300 30.24600
C  1.38300 6.17500 29.95300
C  1.02000 6.11900 28.47500
C  2.72400 5.52200 30.34900
C  -0.08500 8.15400 31.08600
C  0.06700 8.16800 32.56000
H  1.33000 7.54400 33.20000
N  0.29800 5.69600 25.40600
C  0.61800 4.71800 26.35700
C  0.34700 3.42400 25.83200
C  -0.05400 3.56400 24.47300
C  -0.09100 5.04500 24.20200
C  0.62100 2.13700 26.61800
C  -0.39900 2.53800 23.38500
O  -0.67900 2.86600 22.25800
C  -0.29900 1.09500 23.69000
N  0.22400 8.18500 23.67700
C  -0.12800 7.16500 22.78900
C  -0.07600 7.75500 21.32300
C  0.22700 9.28000 21.56600
C  0.38000 9.39200 23.04500
C  1.02100 7.10300 20.41200
C  -0.80100 10.17300 20.88200
C  -2.17900 10.13000 21.50800
N  0.85100 9.68400 25.99200
C  0.94200 10.78600 25.06000
C  1.24600 12.05300 25.76600
C  1.26800 11.63500 27.12100
C  1.10400 10.23100 27.20400
C  1.28900 13.49200 25.23100
C  1.50900 12.17000 28.44300
O  1.76700 13.28300 28.83100
C  1.37100 10.94000 29.42900
C  2.57500 10.97000 30.25000
O  3.69800 10.79500 29.80200
O  2.15100 11.18000 31.61100
C  3.13900 11.11100 32.62100
H  1.00400 4.06900 28.43600
H  -0.52000 5.17400 22.15400
H  0.65300 11.44200 23.00900
H  2.04200 8.10000 30.90500
H  0.62200 5.67400 30.55100
H  3.42300 6.23800 30.78000
H  3.15500 4.95500 29.52400
H  2.55400 4.87500 31.21000
H  -0.80900 7.37100 30.86100
H  -0.49300 9.08800 30.70200
H  -0.81700 7.63900 32.91900
H  0.01900 9.13900 33.05200
H  0.69600 1.14500 26.17400
H  0.03800 2.09700 27.53800
H  1.59100 2.19500 27.11100
H  -0.85600 0.77400 22.80900
H  -0.91800 0.73500 24.51200
H  0.74600 0.78800 23.72300
H  -1.01700 7.54600 20.81500
H  1.24700 9.54300 21.28800
H  0.87900 7.46700 19.39500
H  1.03600 6.01600 20.33700
H  2.02200 7.35200 20.76500
H  -0.94900 9.89000 19.84000
H  -0.48000 11.21300 20.93800
H  -2.87200 10.62000 20.82500
H  -2.15800 10.74800 22.40600
H  -2.45800 9.09700 21.71700
H  1.08400 13.43500 24.16200
H  2.20600 13.94700 25.60700
H  0.40400 13.88900 25.72800
H  0.51000 11.16700 30.05900
H  3.44300 12.15400 32.71000
H  3.94700 10.44300 32.32000
H  2.75300 10.78500 33.58700
Mg 27.24600 50.47500 26.19800
C  25.25200 51.37800 28.98000
C  29.56200 49.44700 28.63000
C  29.39000 50.05600 23.74700
C  24.82700 51.45100 24.07800
N  27.38100 50.42300 28.54800
C  26.46500 50.86600 29.44900
C  26.84000 50.64400 30.95100
C  28.35100 50.39000 30.73800
C  28.40800 49.96200 29.22900
C  29.44700 51.54000 31.01600
C  26.06800 49.38900 31.57500
C  25.00200 49.75700 32.64500
H  25.33400 49.24200 34.08300
N  29.10400 49.62500 26.13200
C  29.91400 49.27200 27.27100
C  31.21000 48.86700 26.81100
C  31.17000 49.04600 25.35100
C  29.90300 49.60500 25.00500
C  32.36800 48.35700 27.74400
C  32.28400 48.74600 24.38300
O  32.12100 48.94200 23.17200
C  33.73100 48.28000 24.75900
N  27.19000 50.81300 24.24900
C  28.15900 50.52900 23.35100
C  27.77900 50.93700 21.85600
C  26.19800 50.96600 22.07900
C  26.05000 51.11500 23.59200
C  28.36900 52.22900 21.26100
C  25.39700 49.68100 21.63500
C  24.10000 50.01200 20.94600
N  25.37900 51.26300 26.39700
C  24.47200 51.58100 25.43100
C  23.35300 52.20200 26.11400
C  23.61600 52.11400 27.48300
C  24.87200 51.56100 27.64000
C  22.26400 52.99600 25.45600
C  23.14000 52.49300 28.71800
O  22.02800 53.01000 29.03500
C  24.05400 51.88000 29.73400
C  24.41000 52.91900 30.77900
O  25.34600 53.68700 30.77300
O  23.31800 52.96000 31.66700
C  23.49800 54.07400 32.63600
H  30.35400 49.18100 29.33300
H  30.02400 49.92600 22.86800
H  24.03100 51.74000 23.38800
H  26.76700 51.57000 31.52200
H  28.74500 49.52500 31.27000
H  30.21200 51.16800 31.69700
H  29.06100 52.48400 31.40100
H  29.92500 51.91600 30.11100
H  26.70000 48.61100 32.00200
H  25.43100 48.97800 30.79300
H  24.07200 49.30600 32.29800
H  24.82500 50.83200 32.67700
H  32.19500 48.29000 28.81800
H  33.30900 48.90100 27.65700
H  32.66500 47.35100 27.44900
H  34.25600 48.84200 25.53100
H  34.26900 48.33300 23.81200
H  33.87600 47.23800 25.04500
H  27.95700 50.15400 21.12000
H  25.83100 51.84400 21.54600
H  29.13400 52.52500 21.97900
H  27.60100 53.00000 21.19700
H  28.83100 52.03400 20.29300
H  25.16800 49.02800 22.47700
H  26.01000 48.96900 21.08300
H  23.95000 49.60300 19.94600
H  23.97100 51.08100 20.77400
H  23.24700 49.78200 21.58400
H  21.22900 52.83200 25.75600
H  22.20500 52.85500 24.37700
H  22.58000 54.00800 25.70900
H  23.59700 51.02500 30.23200
H  23.61400 54.93600 31.97800
H  24.39300 53.81800 33.20300
H  22.60300 54.08900 33.25700

