158

Mg 29.98000 57.70900 40.03300
C  27.00100 55.82200 39.02700
C  31.94800 55.24600 38.77600
C  32.54400 59.95800 39.85600
C  27.67300 60.60200 40.20800
N  29.46000 55.77500 39.04700
C  28.23100 55.13000 38.88100
C  28.51400 53.62500 38.52900
C  30.07500 53.52500 38.26200
C  30.53600 54.91700 38.78700
C  30.79100 52.39400 39.04200
C  27.74500 53.07700 37.24700
C  27.50900 53.98100 36.01800
H  28.12900 53.82900 34.64700
N  31.99000 57.54600 39.60700
C  32.60200 56.43200 39.08900
C  34.01700 56.69900 38.86800
C  34.20000 58.05900 39.09800
C  32.88100 58.59700 39.52900
C  34.95700 55.58700 38.29300
C  35.49900 58.78300 38.87500
O  36.55700 58.20400 38.53000
C  35.65900 60.24300 39.12300
N  30.02700 60.03800 39.77600
C  31.30000 60.57100 39.98000
C  31.10900 62.06800 40.22200
C  29.55500 62.19800 40.48300
C  28.98600 60.93100 40.08000
C  32.10800 62.72700 41.31100
C  28.90600 63.44300 39.72600
C  28.22000 64.43000 40.64800
N  27.76700 58.18100 39.88200
C  27.07700 59.34300 40.00100
C  25.73900 59.05900 39.95500
C  25.63600 57.69500 39.52000
C  26.89400 57.18700 39.52800
C  24.63600 59.99700 40.19200
C  24.70300 56.66200 39.13200
O  23.49300 56.75000 39.01800
C  25.48100 55.45500 38.79500
C  25.04900 54.27500 39.65500
O  25.47400 54.05200 40.79300
O  24.07600 53.50500 39.06900
C  23.23000 52.63600 39.79600
H  32.62000 54.48500 38.37400
H  33.35500 60.66600 40.03400
H  26.92900 61.33800 40.52000
H  28.26900 53.00100 39.38900
H  30.25900 53.44100 37.19100
H  30.19900 51.68500 39.62000
H  31.46700 52.81400 39.78800
H  31.38200 51.79600 38.34900
H  26.78300 52.71000 37.60500
H  28.33100 52.18600 37.02000
H  27.78900 54.98300 36.34400
H  26.42200 53.95900 35.94200
H  35.13800 55.78400 37.23600
H  34.58200 54.58700 38.51200
H  35.86700 55.65900 38.88800
H  36.71800 60.43800 38.95300
H  35.45600 60.34400 40.18900
H  34.94500 60.76800 38.48800
H  31.18700 62.69200 39.33200
H  29.34600 62.21600 41.55300
H  33.05300 62.92000 40.80200
H  32.29800 62.09800 42.18000
H  31.59100 63.60500 41.69800
H  28.13000 63.11400 39.03600
H  29.58200 63.99100 39.06900
H  28.28300 65.44200 40.24900
H  28.56700 64.41400 41.68100
H  27.15000 64.22500 40.61900
H  24.76700 60.76400 40.95500
H  23.75300 59.43900 40.50300
H  24.55000 60.58600 39.27900
H  25.31700 55.24600 37.73800
H  23.74000 51.67900 39.89900
H  22.26000 52.55100 39.30700
H  23.03100 53.07500 40.77400
Mg 0.76200 42.52600 25.90700
C  2.49300 42.29800 28.97800
C  -2.13000 41.43100 27.57400
C  -0.84500 42.31500 22.96800
C  3.66400 43.41800 24.31800
N  0.27800 42.00300 28.02800
C  1.11600 42.10900 29.17800
C  0.26100 41.91900 30.45400
C  -1.14800 41.66300 29.91400
C  -1.02900 41.67300 28.37500
C  -1.85000 40.35600 30.48400
C  0.38300 43.22100 31.42000
C  0.44300 43.01000 32.96600
H  0.17800 41.68300 33.61200
N  -1.19500 41.85100 25.35000
C  -2.20300 41.46300 26.15800
C  -3.42600 41.26200 25.37600
C  -3.09000 41.59300 24.03200
C  -1.64600 41.91100 24.04700
C  -4.66400 40.66500 26.06200
C  -4.02600 41.65600 22.85100
O  -3.63300 41.85800 21.76900
C  -5.52200 41.51600 23.12400
N  1.46100 42.51100 23.86300
C  0.52300 42.60900 22.87400
C  1.27200 42.75300 21.50500
C  2.52000 43.54300 22.01000
C  2.61000 43.08900 23.48300
C  1.53800 41.39200 20.92200
C  2.53400 45.11000 21.79100
C  3.66600 45.71200 20.90400
N  2.70800 42.84500 26.50600
C  3.75800 43.19300 25.72900
C  4.88700 43.22100 26.53400
C  4.47600 43.00000 27.85500
C  3.15300 42.65200 27.76900
C  6.29100 43.52600 26.01500
C  4.89800 42.92100 29.24300
O  5.98300 42.99000 29.83200
C  3.57800 42.55100 30.03400
C  4.00700 41.35700 30.78200
O  4.21700 40.22700 30.37800
O  3.95400 41.65500 32.20100
C  4.10500 40.55600 33.07500
H  -3.06000 41.15800 28.07700
H  -1.32100 42.38800 21.98800
H  4.56100 43.77200 23.80600
H  0.57100 41.04100 31.02100
H  -1.83800 42.45300 30.21300
H  -1.52300 40.20600 31.51200
H  -1.66200 39.46400 29.88700
H  -2.92200 40.52400 30.38000
H  -0.42600 43.92000 31.20800
H  1.27200 43.77300 31.11500
H  -0.24000 43.72600 33.42300
H  1.35700 43.35100 33.45300
H  -4.55400 40.32900 27.09300
H  -5.02400 39.84200 25.44600
H  -5.38200 41.48100 25.98100
H  -5.85100 40.66500 23.72000
H  -6.06300 41.41400 22.18400
H  -5.73100 42.46900 23.61000
H  0.63900 43.33300 20.83400
H  3.42400 43.18100 21.52100
H  1.78200 40.64800 21.68100
H  2.46200 41.54600 20.36400
H  0.78700 40.92500 20.28400
H  2.72100 45.48300 22.79800
H  1.59700 45.38500 21.30600
H  4.22500 46.38700 21.55300
H  3.34300 46.42600 20.14700
H  4.35600 44.98200 20.48000
H  7.01400 43.07600 26.69600
H  6.47700 44.56200 25.73200
H  6.51800 42.95300 25.11600
H  3.37500 43.37600 30.71700
H  4.94800 39.91100 32.82900
H  3.24500 39.89100 33.00300
H  4.25800 41.01000 34.05500

