158

Mg 45.60400 24.96400 28.11600
C  46.88200 27.35300 30.54800
C  44.73500 23.07000 30.67700
C  44.79800 22.80100 25.84200
C  47.05600 27.09400 25.62600
N  45.68900 25.29200 30.28800
C  46.16500 26.30300 31.08400
C  46.12600 25.95500 32.61600
C  45.51700 24.51400 32.61300
C  45.26200 24.23100 31.10100
C  46.51800 23.50000 33.30700
C  45.17800 26.94000 33.40200
C  45.74900 27.47600 34.84100
H  44.69600 27.17400 35.99000
N  44.85100 23.13100 28.27000
C  44.59700 22.48800 29.41400
C  44.15200 21.10100 29.08600
C  44.19300 20.98800 27.66600
C  44.63100 22.32500 27.19100
C  43.84500 20.02800 30.07000
C  43.90800 19.73800 26.77600
O  44.06900 19.85000 25.60000
C  43.32300 18.47000 27.40800
N  46.07400 24.99900 25.99000
C  45.41300 23.96300 25.40200
C  45.49100 24.13600 23.83000
C  46.04600 25.62200 23.72600
C  46.42800 25.94500 25.14400
C  46.31800 23.00900 23.17400
C  45.08100 26.75400 23.16900
C  45.13800 26.96700 21.62200
N  46.73500 26.89700 28.04700
C  47.30000 27.51800 26.99300
C  48.10000 28.64700 27.47900
C  47.90300 28.68300 28.86900
C  47.13500 27.56300 29.17200
C  48.96700 29.43200 26.73100
C  48.32600 29.27800 30.09200
O  49.08100 30.19800 30.37300
C  47.53500 28.55100 31.22000
C  48.58600 28.27600 32.30700
O  49.40000 27.35200 32.30600
O  48.51300 29.19200 33.27500
C  49.19700 28.90900 34.49300
H  44.49100 22.45700 31.54700
H  44.58800 22.05000 25.07800
H  47.49900 27.72000 24.84800
H  47.13600 26.03400 33.02000
H  44.53400 24.47900 33.08200
H  46.78400 22.68900 32.62900
H  46.13900 22.97300 34.18400
H  47.40600 23.99500 33.69800
H  44.23900 26.44700 33.65600
H  44.84000 27.75300 32.76000
H  46.02400 28.53100 34.83600
H  46.54100 26.78800 35.13700
H  44.33300 20.23600 31.02200
H  44.30600 19.11400 29.69600
H  42.78700 19.77200 30.13300
H  42.64400 18.63100 28.24500
H  44.20000 17.89500 27.70500
H  42.83400 17.85600 26.65200
H  44.45200 24.09700 23.50200
H  46.94700 25.58800 23.11300
H  45.61600 22.35300 22.65800
H  46.73400 22.39500 23.97300
H  47.15400 23.43100 22.61600
H  45.34000 27.73900 23.56000
H  44.11800 26.42800 23.56100
H  45.57700 26.11400 21.10500
H  45.61400 27.85900 21.21400
H  44.10300 26.84800 21.30100
H  49.89000 28.86000 26.63900
H  49.15600 30.38100 27.23300
H  48.45300 29.57900 25.78100
H  46.79600 29.26700 31.58000
H  48.96100 27.97400 35.00200
H  49.11300 29.66700 35.27000
H  50.23100 28.69600 34.22400
Mg -4.60900 25.51400 26.57100
C  -3.16900 26.63700 29.64000
C  -6.64200 23.50100 28.33000
C  -5.38100 24.02200 23.63400
C  -2.27500 27.60200 24.90100
N  -4.64900 24.98000 28.74000
C  -4.15800 25.62200 29.82700
C  -4.91700 25.20600 31.08900
C  -5.79100 24.03300 30.65000
C  -5.73500 24.14100 29.12400
C  -5.23500 22.63700 31.06100
C  -5.59300 26.41700 31.80200
C  -5.32800 26.50700 33.32000
H  -4.64600 25.34200 34.07400
N  -5.94700 24.03800 26.02200
C  -6.71800 23.30600 26.92600
C  -7.64600 22.37800 26.19300
C  -7.27900 22.56700 24.81300
C  -6.15600 23.52600 24.76800
C  -8.69200 21.60500 26.75700
C  -7.93800 21.88200 23.58400
O  -7.47600 22.05100 22.46900
C  -9.25700 21.19900 23.74400
N  -3.88400 25.71700 24.50300
C  -4.34700 25.00000 23.50800
C  -3.64600 25.37400 22.16000
C  -2.88400 26.66000 22.57300
C  -3.04700 26.72300 24.08500
C  -2.84600 24.25500 21.49700
C  -3.44300 27.92400 21.89100
C  -2.73400 28.35500 20.56800
N  -3.14800 26.89800 27.09100
C  -2.28700 27.68800 26.30200
C  -1.50900 28.52000 27.14000
C  -1.83900 28.14600 28.45000
C  -2.80200 27.13300 28.39200
C  -0.52800 29.41700 26.78900
C  -1.55500 28.37200 29.81600
O  -0.69800 29.09900 30.36800
C  -2.44400 27.43800 30.65700
C  -1.54800 26.60400 31.51100
O  -0.69700 25.80700 31.15700
O  -1.56300 27.20000 32.78400
C  -0.49400 26.90100 33.71800
H  -7.28100 22.77300 28.83400
H  -5.44900 23.43700 22.71500
H  -1.64700 28.24800 24.28400
H  -4.21000 24.75700 31.78600
H  -6.80200 24.20500 31.02000
H  -4.89000 22.55300 32.09100
H  -4.31500 22.49000 30.49500
H  -6.02400 21.93100 30.80200
H  -6.66900 26.37900 31.63100
H  -5.26500 27.28900 31.23600
H  -6.26100 26.60100 33.87600
H  -4.71300 27.36200 33.60100
H  -8.55900 21.46900 27.83100
H  -8.71100 20.55600 26.46300
H  -9.63900 22.12800 26.62500
H  -9.83800 21.08100 22.83000
H  -9.92200 21.82900 24.33600
H  -9.02200 20.23500 24.19400
H  -4.41400 25.68200 21.45100
H  -1.81400 26.58300 22.37800
H  -1.79000 24.52500 21.49400
H  -3.19800 24.14700 20.47100
H  -3.00300 23.28400 21.96600
H  -3.50000 28.73000 22.62300
H  -4.46900 27.72500 21.58100
H  -1.89100 27.66600 20.49800
H  -2.42600 29.39800 20.63500
H  -3.46200 28.26600 19.76200
H  -0.37000 29.64900 25.73600
H  0.41500 29.00400 27.14800
H  -0.74400 30.35800 27.29400
H  -3.10900 28.05100 31.26600
H  -0.65800 25.83200 33.85500
H  -0.72700 27.43600 34.63800
H  0.43700 27.06500 33.17500

