158

Mg 0.28700 43.96800 26.47100
C  2.63600 43.60200 29.13700
C  -1.94800 42.34500 28.41200
C  -1.73200 43.81800 23.75000
C  2.99300 45.12500 24.41800
N  0.42300 43.09400 28.52300
C  1.30000 43.28300 29.48800
C  0.69900 43.08600 30.91400
C  -0.69700 42.47000 30.61600
C  -0.81100 42.67200 29.11000
C  -0.99400 41.05500 31.11900
C  0.62500 44.37700 31.77700
C  1.00100 44.23000 33.33900
H  0.68100 42.94900 34.08900
N  -1.55700 43.00300 26.09000
C  -2.31000 42.35100 27.01600
C  -3.52400 41.90900 26.41200
C  -3.58500 42.45000 25.06600
C  -2.23100 43.16200 24.89000
C  -4.56500 41.00900 27.19600
C  -4.62200 42.29000 24.02300
O  -4.51700 42.78900 22.90800
C  -5.75800 41.37600 24.25000
N  0.56500 44.39900 24.36600
C  -0.47900 44.43900 23.52000
C  -0.16400 45.32800 22.34500
C  1.30000 45.81400 22.60800
C  1.68000 45.10000 23.86500
C  -0.27100 44.70300 20.93500
C  1.28300 47.33800 22.96800
C  2.06500 48.32700 22.08600
N  2.37000 44.43300 26.66000
C  3.35200 44.75400 25.73200
C  4.67200 44.63200 26.35400
C  4.38000 44.24300 27.66600
C  3.00700 44.12700 27.84200
C  6.02500 44.86000 25.74900
C  4.99800 43.92300 28.98000
O  6.19400 43.86300 29.24900
C  3.79800 43.70100 29.94500
C  4.03500 42.45500 30.72100
O  4.33500 41.33100 30.29300
O  3.90300 42.78200 32.03900
C  4.35800 41.69000 32.97700
H  -2.78800 42.05200 29.04600
H  -2.45200 43.91000 22.93400
H  3.78500 45.68800 23.91900
H  1.26200 42.30200 31.42000
H  -1.45000 43.04600 31.15400
H  -1.12700 40.36100 30.29000
H  -1.85600 40.98200 31.78300
H  -0.23500 40.73100 31.83000
H  -0.40000 44.71900 31.92100
H  1.24200 45.17500 31.36400
H  0.39900 45.02200 33.78400
H  2.08300 44.30600 33.45100
H  -4.48000 39.97400 26.86300
H  -5.55100 41.35400 26.88700
H  -4.34000 41.08800 28.25900
H  -6.50700 41.85400 24.88100
H  -5.40600 40.42700 24.65600
H  -6.17700 41.13400 23.27300
H  -0.96600 46.06400 22.29300
H  1.95600 45.57500 21.77000
H  0.62200 44.94500 20.35800
H  -1.23800 44.96700 20.50800
H  -0.26000 43.61300 20.97500
H  1.46400 47.40900 24.04100
H  0.29600 47.75600 22.76600
H  1.42300 49.00900 21.52900
H  2.66300 47.70400 21.42000
H  2.81700 48.85600 22.67100
H  6.56000 43.94300 25.99700
H  6.44300 45.77600 26.16500
H  5.93100 44.99900 24.67200
H  3.65800 44.51000 30.66200
H  3.63800 40.87500 32.89800
H  4.25100 42.20900 33.93000
H  5.39400 41.44900 32.74000
Mg -1.58500 34.51100 26.70800
C  -3.28900 32.54300 28.99800
C  -0.85100 36.66500 29.24600
C  -0.14600 36.69400 24.45600
C  -2.76700 32.56500 24.23200
N  -2.18300 34.63400 28.90600
C  -2.76100 33.66200 29.63900
C  -2.59800 33.89700 31.14100
C  -1.84900 35.27600 31.22900
C  -1.59700 35.56300 29.69200
C  -2.60100 36.49100 31.93600
C  -1.68900 32.75300 31.80800
C  -2.16900 32.30200 33.23200
H  -1.13000 32.44500 34.38600
N  -0.47400 36.37400 26.88900
C  -0.31800 37.08400 28.00900
C  0.50000 38.25900 27.67600
C  0.75000 38.26900 26.30100
C  0.08000 37.07200 25.83300
C  1.03400 39.23800 28.74400
C  1.40300 39.42700 25.37900
O  1.25500 39.43700 24.14200
C  2.05100 40.60600 26.04400
N  -1.49300 34.73500 24.62600
C  -0.77100 35.60200 23.90300
C  -0.92600 35.34900 22.44600
C  -1.58300 33.94600 22.36300
C  -2.02800 33.73700 23.82400
C  -1.81900 36.48200 21.75400
C  -0.61400 32.81400 21.85800
C  0.61800 32.32300 22.69800
N  -2.86800 32.89300 26.58000
C  -3.27700 32.20000 25.49900
C  -4.10200 31.09000 25.76400
C  -4.08300 31.11600 27.18600
C  -3.35600 32.24100 27.62300
C  -4.70300 30.25300 24.79300
C  -4.56600 30.44500 28.37400
O  -5.23700 29.45800 28.58500
C  -4.05400 31.29200 29.59600
C  -5.15700 31.56800 30.63400
O  -6.11500 32.26500 30.39500
O  -4.83800 31.07700 31.86100
C  -5.86900 31.38000 32.83600
H  -0.57000 37.29500 30.09300
H  0.35200 37.28200 23.68200
H  -2.99600 31.73700 23.55800
H  -3.55700 33.95300 31.65600
H  -0.92100 35.19200 31.79500
H  -3.25000 36.83400 31.13000
H  -1.93400 37.23200 32.37700
H  -3.11700 36.10800 32.81600
H  -0.67100 33.13300 31.90100
H  -1.63500 31.88400 31.15200
H  -2.48800 31.28700 32.99400
H  -3.08800 32.80800 33.52800
H  0.67000 40.22500 28.46000
H  2.12200 39.19500 28.80500
H  0.61900 39.02000 29.72800
H  1.15800 41.13800 26.36900
H  2.51800 41.15100 25.22400
H  2.67500 40.22500 26.85200
H  0.01800 35.38100 21.90200
H  -2.52500 33.81200 21.83000
H  -1.27100 37.17800 21.11900
H  -2.28700 37.18900 22.44000
H  -2.58100 35.98100 21.15700
H  -0.37800 33.16900 20.85500
H  -1.24900 31.98200 21.55500
H  0.34400 31.35300 23.11400
H  0.88600 32.87000 23.60200
H  1.46600 32.22800 22.02000
H  -5.59200 29.79300 25.22300
H  -3.90600 29.55500 24.53700
H  -4.85000 30.88100 23.91400
H  -3.29400 30.72000 30.12900
H  -6.53400 30.52800 32.70000
H  -6.39700 32.32600 32.71900
H  -5.41200 31.35400 33.82600

