158

Mg 0.13300 7.49500 26.50800
C  0.86400 9.51800 29.21300
C  -0.28400 4.80900 28.71600
C  -0.15500 5.48700 23.86300
C  0.57000 10.21500 24.36800
N  0.25700 7.17600 28.80400
C  0.57400 8.16100 29.69400
C  0.68600 7.55000 31.13100
C  0.23700 6.16100 30.92600
C  0.05200 6.00200 29.43100
C  1.08900 5.03300 31.68200
C  -0.36500 8.18500 32.12600
C  -0.04600 8.20000 33.62900
H  -0.58000 6.95900 34.39700
N  -0.22400 5.41400 26.30200
C  -0.48900 4.52500 27.32800
C  -0.66700 3.20600 26.81400
C  -0.60200 3.36600 25.39500
C  -0.38600 4.83400 25.11400
C  -0.81300 1.98600 27.71600
C  -0.66900 2.44700 24.23700
O  -0.59300 2.74000 23.08000
C  -0.88600 1.01800 24.62500
N  0.08300 7.77800 24.40300
C  0.10400 6.76200 23.57900
C  0.67500 7.25300 22.18800
C  0.41900 8.74500 22.35500
C  0.33100 8.96900 23.80600
C  2.17500 6.91500 21.98100
C  -0.73700 9.33100 21.46400
C  -2.11700 9.68700 22.14100
N  0.67800 9.37700 26.66700
C  0.84900 10.41900 25.72300
C  1.35500 11.62500 26.43600
C  1.38400 11.28100 27.72800
C  0.92700 9.97400 27.86300
C  1.74900 13.02800 25.96500
C  1.75600 11.83100 29.03400
O  2.26600 12.91200 29.34200
C  1.33800 10.70400 30.11500
C  2.41200 10.29000 31.02300
O  3.32200 9.49100 30.78900
O  2.30500 10.96800 32.19100
C  3.44800 10.82300 33.06100
H  -0.44900 4.10500 29.53300
H  -0.13600 4.86900 22.96300
H  0.74700 11.00600 23.63600
H  1.68200 7.63100 31.56600
H  -0.76800 5.98200 31.30700
H  1.58100 4.41900 30.92900
H  0.33200 4.48300 32.24200
H  1.93100 5.35600 32.29500
H  -1.28800 7.60600 32.07700
H  -0.58600 9.20600 31.81500
H  -0.56600 9.06800 34.03500
H  1.04100 8.12600 33.63100
H  0.15400 1.48400 27.74200
H  -1.61200 1.33700 27.35800
H  -1.06600 2.23900 28.74600
H  -1.84900 0.95600 25.13200
H  -0.13800 0.49400 25.22000
H  -1.00900 0.42500 23.71900
H  0.00300 6.82300 21.44500
H  1.35700 9.23800 22.09900
H  2.36400 6.02500 22.58100
H  2.98200 7.62100 22.17700
H  2.27500 6.39300 21.02900
H  -0.85700 8.69600 20.58600
H  -0.52700 10.36200 21.17900
H  -2.78300 8.97300 21.65600
H  -2.35300 10.68900 21.78300
H  -2.20600 9.63300 23.22600
H  0.90300 13.69700 26.12200
H  2.10500 13.01300 24.93500
H  2.52400 13.33100 26.66900
H  0.45800 10.90300 30.72700
H  3.41500 11.65100 33.76800
H  4.44700 10.66800 32.65500
H  3.13300 10.03500 33.74600
Mg -4.89100 24.97700 25.51900
C  -3.30100 26.00900 28.41500
C  -7.11000 23.16100 27.37800
C  -5.95700 23.56100 22.66100
C  -2.24200 26.48600 23.59600
N  -5.06600 24.57200 27.71000
C  -4.44500 25.26400 28.72700
C  -5.07900 24.96100 30.10600
C  -6.23700 23.92200 29.73700
C  -6.19100 23.89400 28.17300
C  -5.98400 22.48400 30.40100
C  -5.68600 26.27500 30.72600
C  -5.32200 26.66400 32.10300
H  -4.89600 25.51300 33.09300
N  -6.32200 23.53500 25.07600
C  -7.16800 22.92400 25.99900
C  -8.14300 22.12200 25.31800
C  -7.82800 22.17700 23.95500
C  -6.66700 23.16400 23.82000
C  -9.22300 21.34200 26.02600
C  -8.50500 21.45000 22.81600
O  -8.05100 21.57200 21.66300
C  -9.70800 20.65400 23.03700
N  -4.25100 25.10400 23.44900
C  -4.84200 24.40700 22.46100
C  -4.36700 24.77000 21.03700
C  -3.21700 25.80100 21.35000
C  -3.25500 25.83900 22.87300
C  -3.90500 23.51500 20.18400
C  -3.37000 27.22300 20.74800
C  -2.34800 27.66800 19.74200
N  -3.15700 26.05800 25.87600
C  -2.24400 26.67100 25.00300
C  -1.31100 27.43500 25.76600
C  -1.68500 27.20200 27.09500
C  -2.74600 26.28600 27.11300
C  -0.36100 28.50500 25.16000
C  -1.38300 27.55500 28.45500
O  -0.59900 28.37000 28.84400
C  -2.37300 26.74000 29.36700
C  -1.58200 25.92400 30.29000
O  -1.08400 24.84400 29.95400
O  -1.29100 26.61500 31.39100
C  -0.46600 25.99400 32.37800
H  -7.91900 22.66700 27.91900
H  -6.20700 23.17700 21.67000
H  -1.31800 26.89800 23.18500
H  -4.38200 24.54000 30.83100
H  -7.13400 24.39500 30.13600
H  -6.06000 21.65500 29.69700
H  -6.66000 22.39800 31.25200
H  -4.96800 22.35900 30.77500
H  -6.77000 26.15900 30.70800
H  -5.50800 27.10400 30.04100
H  -6.27000 26.97600 32.53900
H  -4.66100 27.52900 32.16500
H  -10.22600 21.61800 25.70100
H  -9.39600 21.54900 27.08200
H  -9.02400 20.28800 25.83300
H  -9.34400 19.85100 23.67800
H  -10.12900 20.32600 22.08700
H  -10.57300 21.17300 23.45200
H  -5.27400 25.24300 20.66000
H  -2.24900 25.37500 21.08500
H  -4.37600 23.64900 19.21000
H  -4.19400 22.59800 20.69700
H  -2.81700 23.52200 20.11700
H  -3.36700 27.96600 21.54500
H  -4.28000 27.19800 20.14900
H  -2.80200 27.84600 18.76700
H  -1.58100 26.91200 19.57700
H  -1.88900 28.58100 20.12200
H  -0.14300 29.20500 25.96700
H  -0.78500 28.93300 24.25200
H  0.61800 28.11500 24.88200
H  -3.01900 27.40800 29.93700
H  0.59900 26.04900 32.14800
H  -0.83300 24.97900 32.52800
H  -0.66300 26.51200 33.31600

