158

Mg 42.25400 41.42100 26.68700
C  41.44300 43.54400 29.31700
C  43.20800 39.04700 28.97200
C  43.36900 39.46400 24.08700
C  41.51900 43.92500 24.46100
N  42.28300 41.34100 28.93900
C  41.94000 42.35200 29.78800
C  42.17700 41.87900 31.24800
C  42.59600 40.41900 31.15200
C  42.64000 40.14900 29.59500
C  43.96700 40.02300 31.75200
C  41.08600 42.35100 32.24000
C  40.64800 41.38500 33.32400
H  39.96600 41.78100 34.62500
N  43.27300 39.54800 26.53100
C  43.51600 38.76700 27.59200
C  43.99800 37.48900 27.05500
C  44.01000 37.53800 25.62600
C  43.55500 38.90400 25.36400
C  44.46200 36.41700 28.05300
C  44.49700 36.48700 24.67900
O  44.46200 36.63600 23.48100
C  44.83200 35.12300 25.15700
N  42.43100 41.61800 24.57800
C  42.80500 40.65000 23.70000
C  42.68500 41.01600 22.22500
C  41.83000 42.32100 22.38300
C  41.98800 42.73300 23.86800
C  44.07400 41.14900 21.54300
C  40.43800 42.16000 21.79900
C  39.41600 41.61600 22.69700
N  41.70200 43.36900 26.78700
C  41.44900 44.30000 25.86700
C  40.88000 45.48000 26.43700
C  40.86900 45.18900 27.77600
C  41.49100 43.95200 27.97500
C  40.58500 46.68800 25.57900
C  40.48800 45.71000 29.05800
O  39.99700 46.83200 29.25100
C  40.88900 44.74200 30.09700
C  41.76400 45.39800 31.06600
O  43.01200 45.35700 31.07600
O  41.01400 46.14800 31.91300
C  41.68400 46.46400 33.28100
H  43.63800 38.36400 29.70800
H  43.58300 38.87100 23.19600
H  41.10700 44.57700 23.68800
H  43.02100 42.53500 31.46000
H  41.93600 39.71700 31.66200
H  44.76800 40.23100 31.04300
H  43.88500 38.98800 32.08200
H  44.18300 40.76800 32.51700
H  40.19900 42.47800 31.61900
H  41.40300 43.35700 32.51500
H  41.53100 40.80700 33.59700
H  40.01200 40.66200 32.81400
H  45.42800 36.16400 27.61700
H  43.69300 35.64500 28.09700
H  44.64700 36.72800 29.08100
H  45.73400 35.05600 25.76600
H  44.90700 34.49600 24.26900
H  43.96800 34.92400 25.79100
H  42.14800 40.18500 21.76900
H  42.17800 43.13100 21.74100
H  44.82400 40.85400 22.27700
H  44.37400 42.16200 21.27500
H  44.15700 40.44600 20.71400
H  40.54800 41.60400 20.86800
H  40.22600 43.19500 21.52900
H  39.91200 41.18700 23.56800
H  38.87200 40.86000 22.13100
H  38.73200 42.36900 23.08900
H  41.42700 46.89000 24.91700
H  40.27800 47.55300 26.16800
H  39.64500 46.41500 25.10000
H  39.92300 44.62700 30.58900
H  42.07900 45.53500 33.69300
H  41.01500 46.79600 34.07500
H  42.47900 47.19400 33.12700
Mg 6.11200 53.25300 41.68400
C  5.78600 49.65600 41.56600
C  9.50700 52.59700 40.83200
C  6.42300 56.32200 40.74900
C  2.73200 53.40400 41.97700
N  7.39000 51.32100 40.98500
C  7.06100 50.04700 41.06500
C  8.19700 49.13200 40.78600
C  9.41600 50.05300 41.12800
C  8.72900 51.41000 41.08200
C  10.13400 49.93200 42.49900
C  8.11600 48.55000 39.30100
C  8.07000 49.52200 38.07400
H  6.91600 49.42300 37.11100
N  7.70300 54.33200 40.99300
C  9.03400 53.93500 40.76700
C  9.79800 55.05300 40.41300
C  8.93200 56.18400 40.50800
C  7.59700 55.67000 40.72000
C  11.26900 54.94400 40.14400
C  9.45700 57.63600 40.26700
O  10.60100 57.90500 39.88000
C  8.42900 58.74300 40.28500
N  4.77200 54.61700 41.10200
C  5.09000 55.90700 40.90600
C  3.91600 56.90600 41.11400
C  2.78300 55.88200 41.51000
C  3.44500 54.53900 41.49000
C  4.21500 57.98900 42.16300
C  1.40700 55.97400 40.80700
C  0.68200 57.34800 40.90800
N  4.55500 51.87600 41.93500
C  3.20500 52.10100 42.14400
C  2.56500 50.92200 42.54000
C  3.55600 49.92100 42.35900
C  4.71400 50.57300 41.89400
C  1.09400 50.72900 42.91600
C  3.78700 48.54100 42.46800
O  3.09700 47.64100 42.89200
C  5.20500 48.29000 41.78200
C  4.97300 47.60000 40.58100
O  4.34200 48.05900 39.57600
O  5.38100 46.28300 40.69500
C  5.03800 45.44300 39.51200
H  10.54800 52.30700 40.67800
H  6.38800 57.41300 40.72900
H  1.65200 53.49800 42.10600
H  8.03500 48.31300 41.48600
H  10.19400 50.04500 40.36400
H  9.94200 50.76800 43.17100
H  11.21400 49.86600 42.36800
H  9.75900 49.09400 43.08800
H  7.29600 47.83500 39.24200
H  8.91100 47.83500 39.09100
H  8.95700 49.14200 37.56700
H  8.40600 50.50400 38.40600
H  11.48300 54.07800 39.51800
H  11.81600 54.87100 41.08400
H  11.68500 55.81200 39.63300
H  7.59200 58.50300 39.62900
H  8.84500 59.74600 40.18900
H  8.26100 58.71500 41.36100
H  3.68800 57.44900 40.19600
H  2.67300 56.10800 42.57100
H  3.34600 58.28400 42.75000
H  4.41500 58.85300 41.53000
H  5.09200 57.66900 42.72700
H  0.76400 55.24500 41.30000
H  1.61600 55.69400 39.77500
H  0.92800 57.99300 41.75200
H  -0.40200 57.26900 40.99600
H  0.92700 57.84700 39.97100
H  0.54100 51.46400 42.33100
H  1.00400 50.76200 44.00200
H  0.67200 49.78000 42.58300
H  5.87300 47.78600 42.48100
H  3.95500 45.46100 39.38700
H  5.31400 44.40400 39.69000
H  5.40300 45.79600 38.54700

