158

Mg 17.52800 -2.28100 27.26500
C  16.68700 -0.40500 30.07400
C  19.47900 -4.23900 29.32800
C  18.93600 -3.79600 24.41800
C  16.02200 0.08700 25.22100
N  18.17100 -2.09800 29.43100
C  17.53000 -1.46200 30.44300
C  17.97900 -1.90200 31.86000
C  18.98900 -3.06800 31.54000
C  18.86300 -3.18300 29.99100
C  20.39500 -2.65200 31.97200
C  16.79700 -2.32100 32.74200
C  16.91100 -1.73900 34.15300
H  18.23100 -1.41800 34.76900
N  18.82500 -3.86600 26.89700
C  19.54000 -4.54100 27.89300
C  20.35900 -5.64500 27.26700
C  20.07700 -5.62200 25.86700
C  19.25300 -4.39000 25.65400
C  21.14700 -6.63200 28.05300
C  20.53700 -6.53500 24.73000
O  20.10200 -6.35900 23.57000
C  21.37500 -7.78700 24.99100
N  17.38700 -1.99700 25.07800
C  18.15300 -2.64500 24.15600
C  17.98000 -1.95200 22.76300
C  17.02200 -0.77900 23.05900
C  16.79600 -0.92600 24.54800
C  19.38200 -1.61200 22.13600
C  15.72200 -0.67000 22.15600
C  14.56100 -1.51500 22.71700
N  16.39300 -0.65000 27.51100
C  15.78200 0.20600 26.61900
C  15.00000 1.21200 27.33800
C  15.39500 0.98300 28.66300
C  16.27500 -0.10400 28.73800
C  14.02900 2.15200 26.67100
C  15.09500 1.47900 30.03200
O  14.25500 2.30500 30.40700
C  15.97600 0.59800 30.98600
C  16.85000 1.42800 31.85500
O  17.88900 1.94900 31.52100
O  16.42100 1.51900 33.14400
C  17.12500 2.61700 33.91500
H  20.08600 -4.92100 29.92600
H  19.43000 -4.22800 23.54600
H  15.68700 0.86300 24.52900
H  18.38900 -0.99800 32.31100
H  18.85700 -4.00100 32.08800
H  21.00700 -2.80900 31.08400
H  20.66900 -3.26600 32.83000
H  20.50300 -1.60400 32.24900
H  16.65200 -3.39700 32.83500
H  15.94200 -1.83100 32.27500
H  16.31600 -2.39800 34.78500
H  16.28100 -0.85500 34.05400
H  20.50400 -7.46100 28.34700
H  21.52400 -6.14600 28.95300
H  21.97300 -7.11500 27.53100
H  20.87400 -8.48200 25.66500
H  22.32500 -7.44100 25.39600
H  21.66600 -8.21300 24.03100
H  17.45600 -2.71800 22.19000
H  17.45600 0.19900 22.85500
H  19.55200 -2.34900 21.35100
H  20.09100 -1.65500 22.96300
H  19.42000 -0.60900 21.71200
H  15.97700 -0.98200 21.14300
H  15.33300 0.34600 22.10700
H  13.86700 -0.79800 23.15700
H  14.84800 -2.29400 23.42300
H  14.00900 -1.92700 21.87300
H  13.56100 1.61500 25.84600
H  14.57900 3.00400 26.27100
H  13.26200 2.41200 27.40100
H  15.27800 0.10900 31.66500
H  16.64400 2.84000 34.86700
H  17.09000 3.52800 33.31700
H  18.17100 2.31700 33.97300
Mg 53.47500 23.82300 44.55500
C  50.81500 25.68500 43.69900
C  51.99000 21.00900 43.73500
C  56.50500 22.25800 44.89300
C  55.05700 26.87900 45.58800
N  51.60100 23.43200 43.62200
C  50.59800 24.31600 43.39800
C  49.36200 23.59100 42.93600
C  49.53500 22.15700 43.59400
C  51.11400 22.17300 43.68800
C  48.93100 21.85700 44.93900
C  49.41300 23.61900 41.35200
C  48.09400 23.93900 40.61900
H  47.37800 22.68700 40.09000
N  54.17500 21.88500 44.16700
C  53.39400 20.86100 43.74800
C  54.12500 19.67200 43.57200
C  55.44000 20.03900 43.97300
C  55.42500 21.43200 44.41700
C  53.52600 18.29500 43.17300
C  56.67900 19.09900 43.94500
O  56.54700 17.97600 43.58900
C  58.03100 19.54800 44.26400
N  55.57700 24.52900 44.94900
C  56.56500 23.60100 45.17600
C  57.91700 24.30200 45.64400
C  57.45000 25.78300 45.90000
C  55.92200 25.74200 45.46000
C  58.61200 23.66100 46.82600
C  58.27900 26.85500 45.19600
C  58.36600 28.27300 45.90400
N  53.11300 25.88500 44.58800
C  53.71300 26.95300 45.16100
C  52.83300 28.09300 45.26300
C  51.67300 27.65700 44.68500
C  51.91700 26.31800 44.27800
C  53.03300 29.41300 45.94800
C  50.31000 27.92900 44.35100
O  49.64400 28.92700 44.59300
C  49.68400 26.69400 43.68000
C  49.14500 27.07300 42.35400
O  49.81800 27.43200 41.40400
O  47.78800 27.18500 42.39500
C  47.26400 27.93200 41.24500
H  51.44300 20.06500 43.72300
H  57.45300 21.73300 45.02600
H  55.46600 27.79700 46.01600
H  48.51600 24.20600 43.24200
H  49.14000 21.43900 42.87600
H  49.65700 21.56100 45.69600
H  48.13000 21.11900 44.90200
H  48.43000 22.71700 45.38300
H  49.79500 22.62900 41.10100
H  50.14400 24.29000 40.90100
H  48.30600 24.58300 39.76500
H  47.54900 24.45900 41.40700
H  53.80800 18.05100 42.14900
H  52.44600 18.43500 43.22300
H  53.82500 17.48000 43.83300
H  58.38100 20.26900 43.52500
H  58.64800 18.65200 44.19100
H  58.13300 19.93200 45.27900
H  58.66500 24.43600 44.86200
H  57.35600 26.04700 46.95300
H  59.68600 23.79000 46.69300
H  58.58900 22.58400 46.99200
H  58.47500 24.18800 47.77000
H  57.96700 27.03900 44.16800
H  59.30600 26.49100 45.18400
H  59.27300 28.78500 45.58300
H  58.35700 28.20100 46.99100
H  57.48100 28.82600 45.59000
H  52.45800 29.40500 46.87400
H  52.77000 30.22100 45.26500
H  54.10600 29.53700 46.09900
H  48.86000 26.54800 44.37800
H  47.39200 27.25300 40.40200
H  47.78800 28.85400 40.99600
H  46.18100 28.05500 41.26300

