158

Mg 24.54800 1.53800 29.14500
C  26.48000 1.27500 32.10200
C  21.78900 1.55200 31.14600
C  22.68500 1.52400 26.34400
C  27.49200 1.12700 27.37500
N  24.22800 1.47000 31.36500
C  25.18100 1.48100 32.39800
C  24.50400 1.56900 33.81500
C  22.99500 1.67700 33.42900
C  22.99600 1.50100 31.85500
C  22.07400 0.51200 34.12300
C  24.93000 2.77800 34.69800
C  24.35500 2.70800 36.18400
H  25.46000 2.73600 37.34900
N  22.50600 1.51600 28.77200
C  21.51600 1.52100 29.71800
C  20.23400 1.58100 29.08300
C  20.49500 1.44300 27.62300
C  21.93800 1.44900 27.48000
C  18.87500 1.76600 29.79900
C  19.52900 1.48600 26.46300
O  19.96200 1.39200 25.33800
C  18.05400 1.65400 26.62700
N  25.00400 1.27300 27.19800
C  24.08900 1.47700 26.20800
C  24.79900 1.57900 24.85900
C  26.26500 1.31700 25.15000
C  26.23900 1.21000 26.61200
C  24.18000 0.85700 23.67100
C  27.20500 2.47100 24.76000
C  26.97100 3.83300 25.45800
N  26.54900 1.19200 29.59500
C  27.65200 0.99300 28.81500
C  28.81600 0.71700 29.53500
C  28.42600 0.86100 30.88000
C  27.04400 1.09900 30.85100
C  30.18500 0.36200 29.00300
C  28.83700 0.89000 32.23200
O  29.95300 0.69500 32.69000
C  27.65700 1.27200 33.11400
C  27.58100 0.19200 34.10800
O  27.03400 -0.87400 33.90500
O  28.39200 0.38600 35.18300
C  28.53200 -0.48800 36.28700
H  20.89900 1.66100 31.77000
H  22.16300 1.49700 25.38500
H  28.30400 1.07200 26.64700
H  24.64000 0.66300 34.40500
H  22.62600 2.65600 33.73600
H  21.17900 0.79300 34.68000
H  22.68700 -0.12600 34.76000
H  21.72100 -0.12700 33.31400
H  24.63900 3.77400 34.36200
H  26.01500 2.77000 34.80600
H  23.83300 1.76900 36.36500
H  23.60400 3.48900 36.29800
H  18.98600 1.33100 30.79200
H  17.99200 1.35800 29.30600
H  18.77200 2.83300 29.99500
H  18.09000 2.67600 27.00400
H  17.43900 0.98600 27.23000
H  17.57900 1.80200 25.65700
H  24.68900 2.64600 24.66100
H  26.54000 0.37700 24.67200
H  24.89900 0.63500 22.88200
H  23.29600 1.37500 23.29900
H  23.79100 -0.06400 24.10400
H  27.10400 2.63200 23.68700
H  28.26500 2.24400 24.87200
H  26.21800 3.73600 26.24000
H  26.58400 4.58700 24.77200
H  27.74400 4.34300 26.03300
H  30.30700 -0.63400 29.42900
H  30.95100 0.97000 29.48500
H  30.31400 0.36700 27.92100
H  27.87700 2.24100 33.56000
H  27.87600 -0.20600 37.11100
H  29.53000 -0.28200 36.67400
H  28.52100 -1.55800 36.08100
Mg 44.78200 5.38600 46.19600
C  42.89100 8.38000 46.43100
C  41.90600 3.79000 45.21700
C  46.75000 2.61200 45.45600
C  47.70300 7.35700 46.19600
N  42.62400 6.08400 45.68200
C  42.10800 7.30100 45.99700
C  40.53900 7.28200 45.90300
C  40.28300 5.78300 45.45000
C  41.68900 5.15700 45.41000
C  39.26700 5.04000 46.35900
C  39.86900 8.36500 44.94500
C  40.62300 8.64800 43.63800
H  39.96800 8.37800 42.38300
N  44.39900 3.43000 45.46800
C  43.11300 2.98300 45.23200
C  43.28900 1.48400 45.06400
C  44.69500 1.18000 44.90800
C  45.34600 2.43100 45.26200
C  42.15000 0.58300 44.96300
C  45.22900 -0.15100 44.59500
O  44.49200 -1.13700 44.61900
C  46.63300 -0.46000 44.29000
N  46.93600 4.95000 46.05700
C  47.47300 3.71900 45.77400
C  49.00700 3.83800 45.59000
C  49.36800 5.34800 45.59200
C  47.90200 5.96400 45.94600
C  49.79800 3.00400 46.64400
C  49.97800 5.79300 44.21300
C  48.96500 6.02300 43.02200
N  45.25200 7.40000 46.53800
C  46.44500 8.03400 46.42900
C  46.20600 9.40200 46.85600
C  44.86300 9.62200 46.84700
C  44.28800 8.36500 46.60800
C  47.30200 10.38800 47.08100
C  43.81400 10.63400 46.96600
O  43.80900 11.79300 47.15500
C  42.47200 9.76500 46.78900
C  41.49700 9.89400 47.84300
O  41.46200 9.14500 48.84900
O  40.47100 10.80100 47.57100
C  39.49700 10.85700 48.64800
H  41.00800 3.16800 45.23000
H  47.43500 1.77500 45.30500
H  48.61200 7.96100 46.25400
H  40.17200 7.41900 46.92000
H  39.86500 5.72200 44.44500
H  38.41300 4.63600 45.81500
H  38.90900 5.81300 47.03900
H  39.71600 4.21200 46.90600
H  39.59900 9.20700 45.58200
H  38.87800 7.97700 44.70700
H  41.55600 8.08600 43.61300
H  40.94300 9.69000 43.65700
H  42.14100 0.12000 43.97700
H  41.22100 1.15300 44.93700
H  42.07400 -0.13100 45.78200
H  46.73200 -1.46000 43.86800
H  47.29000 -0.43800 45.16000
H  46.89200 0.21100 43.47100
H  49.29200 3.55500 44.57700
H  49.93100 5.63800 46.47900
H  50.47500 2.30300 46.15600
H  49.04800 2.51300 47.26300
H  50.34800 3.58400 47.38500
H  50.69300 5.09700 43.77400
H  50.49500 6.74500 44.33000
H  47.96000 6.20200 43.40500
H  48.82500 5.16200 42.36800
H  49.29800 6.78600 42.31800
H  48.28000 9.94200 47.25900
H  47.10400 11.06900 47.90800
H  47.35700 10.92000 46.13100
H  41.96700 10.13000 45.89500
H  38.95000 9.91500 48.69700
H  38.67600 11.50100 48.33500
H  39.88100 11.11000 49.63600

