158

Mg 49.40500 45.20800 43.01100
C  45.93200 45.09700 42.45900
C  49.40900 41.78300 42.68300
C  52.69400 45.32600 43.21600
C  49.10900 48.71300 43.04500
N  47.81200 43.65500 42.62200
C  46.49900 43.85100 42.41600
C  45.67200 42.53600 42.16700
C  46.88200 41.48100 42.43000
C  48.13000 42.33500 42.61500
C  46.61400 40.49600 43.60800
C  45.01100 42.41700 40.73100
C  45.67500 43.00600 39.48800
H  45.77000 42.27700 38.16800
N  50.87000 43.72100 42.97200
C  50.68900 42.42200 42.88000
C  51.93000 41.69600 42.92000
C  52.91300 42.73500 42.99100
C  52.21100 44.00900 43.05200
C  52.06100 40.19000 42.84000
C  54.43600 42.48700 42.99700
O  54.96300 41.37700 43.09800
C  55.50200 43.60900 42.99500
N  50.76600 46.77900 43.08600
C  52.09700 46.61700 43.18100
C  52.76800 47.92800 43.44400
C  51.69700 49.03100 43.07000
C  50.44800 48.11600 43.04900
C  53.33900 48.04200 44.85800
C  51.87800 49.77000 41.71400
C  51.25900 51.20600 41.77500
N  47.88000 46.68300 42.77700
C  47.91400 48.06700 42.86800
C  46.65000 48.60400 42.60500
C  45.81300 47.52800 42.48800
C  46.59300 46.35100 42.58800
C  46.28900 50.01700 42.38900
C  44.45100 47.17600 42.19200
O  43.46600 47.82200 41.89200
C  44.47400 45.54500 42.16800
C  43.35400 44.93500 42.94700
O  42.67300 44.01800 42.50800
O  43.20800 45.51100 44.19800
C  42.11400 44.92900 44.92200
H  49.58300 40.70600 42.69700
H  53.75300 45.32800 43.48100
H  49.04900 49.80400 43.02900
H  44.82500 42.44400 42.84600
H  47.03600 40.92800 41.50300
H  45.54300 40.63000 43.75900
H  47.13300 40.74000 44.53500
H  46.74200 39.46400 43.28200
H  43.95400 42.68200 40.76400
H  44.91800 41.34100 40.57900
H  46.64800 43.37300 39.81500
H  45.18500 43.95200 39.26000
H  53.09200 39.88600 42.65700
H  51.46500 39.73900 42.04600
H  51.73100 39.66700 43.73700
H  55.23600 44.34200 42.23400
H  56.45800 43.18000 42.69300
H  55.63300 44.00900 44.00100
H  53.57900 47.91000 42.71500
H  51.66000 49.81200 43.82900
H  52.81200 48.76700 45.47900
H  54.35900 48.42400 44.81000
H  53.31500 47.03700 45.28000
H  51.43800 49.16100 40.92400
H  52.95200 49.72800 41.53200
H  50.85000 51.59200 40.84100
H  51.98800 51.94300 42.11100
H  50.48300 51.20100 42.54100
H  46.33100 50.62400 43.29300
H  45.34700 50.14100 41.85400
H  47.08300 50.39100 41.74300
H  44.19100 45.29500 41.14600
H  42.06900 45.29300 45.94800
H  42.13800 43.84200 44.84200
H  41.17300 45.22200 44.45600
Mg -5.62100 25.71800 25.99400
C  -3.85100 26.83300 28.88400
C  -7.39600 23.71000 27.82300
C  -6.47400 24.16500 23.11500
C  -3.40100 27.78700 24.08700
N  -5.67000 25.34600 28.12800
C  -4.87900 25.87500 29.10000
C  -5.41000 25.51700 30.43000
C  -6.44700 24.30100 30.10400
C  -6.61200 24.53300 28.64000
C  -5.93500 22.87300 30.42400
C  -6.14400 26.78900 31.01800
C  -5.78200 27.11900 32.38300
H  -5.24400 26.03600 33.33400
N  -6.83000 24.25800 25.52900
C  -7.48300 23.50400 26.45300
C  -8.23600 22.40800 25.86600
C  -7.97600 22.48900 24.49900
C  -7.08000 23.67200 24.31900
C  -9.21200 21.51800 26.59200
C  -8.42800 21.58400 23.37100
O  -8.14500 21.83500 22.23700
C  -9.40000 20.35200 23.59200
N  -5.15500 26.07200 23.85200
C  -5.63900 25.29700 22.84200
C  -5.06100 25.69800 21.44300
C  -4.14000 26.91300 21.78400
C  -4.23100 26.93900 23.33100
C  -4.39900 24.46900 20.80700
C  -4.54400 28.30500 21.17000
C  -3.35800 29.25000 20.74400
N  -3.95000 27.01700 26.28000
C  -3.25000 27.84400 25.43900
C  -2.22400 28.51600 26.23100
C  -2.44100 28.06500 27.53500
C  -3.53800 27.23400 27.52600
C  -1.03100 29.36200 25.82100
C  -1.90800 28.20900 28.90500
O  -0.89400 28.88400 29.27500
C  -2.95600 27.52000 29.87900
C  -2.05600 26.60700 30.58000
O  -1.53000 25.59600 30.08300
O  -1.78200 27.23000 31.79100
C  -0.77500 26.40800 32.42900
H  -8.07800 23.28400 28.56200
H  -6.69000 23.58900 22.21400
H  -2.68000 28.41300 23.55800
H  -4.67300 25.00200 31.04700
H  -7.36300 24.35100 30.69300
H  -5.13600 22.80000 31.16200
H  -5.71700 22.33000 29.50400
H  -6.75900 22.25000 30.77200
H  -7.21000 26.58300 30.92200
H  -6.00200 27.66500 30.38600
H  -6.68000 27.41000 32.92700
H  -4.97500 27.83200 32.21000
H  -10.19000 21.57500 26.11400
H  -9.30300 21.83800 27.63000
H  -8.90900 20.47500 26.68200
H  -9.00000 19.77400 24.42500
H  -9.37900 19.79900 22.65300
H  -10.38300 20.71800 23.88900
H  -6.00100 25.98600 20.97200
H  -3.07700 26.77500 21.58500
H  -5.08700 24.16900 20.01600
H  -4.27600 23.63100 21.49300
H  -3.38500 24.66600 20.45800
H  -5.09100 28.75800 21.99700
H  -5.36900 28.15400 20.47400
H  -2.35900 29.04500 21.12900
H  -3.36800 30.28900 21.07600
H  -3.24500 29.29000 19.66100
H  -0.63100 28.92200 24.90700
H  -0.23100 29.37900 26.56100
H  -1.40100 30.33900 25.51200
H  -3.36400 28.16500 30.65700
H  0.19800 26.59800 31.97700
H  -1.08700 25.36800 32.53200
H  -0.71800 26.63300 33.49400

