158

Mg 48.27500 45.64500 43.48300
C  44.85600 45.63600 42.63300
C  48.51400 42.61400 42.13500
C  51.69900 46.13100 43.57800
C  47.92000 49.02700 44.13800
N  46.78500 44.23500 42.66600
C  45.44600 44.39700 42.42000
C  44.80000 43.10000 41.79400
C  46.02400 42.07700 41.93900
C  47.19800 42.99300 42.25000
C  45.73200 40.86500 42.86600
C  44.37600 43.41400 40.33900
C  43.04800 42.82600 39.79800
H  43.24300 41.96600 38.58100
N  49.83900 44.49700 43.05500
C  49.71800 43.26500 42.53800
C  51.08500 42.72100 42.40300
C  52.02300 43.60500 42.80000
C  51.24600 44.79800 43.25100
C  51.20600 41.35700 41.73900
C  53.50800 43.31900 42.81200
O  53.99200 42.27000 42.40800
C  54.49300 44.21300 43.43900
N  49.64100 47.40800 43.72800
C  50.95500 47.28800 43.76700
C  51.64400 48.60000 44.07000
C  50.43700 49.54800 44.30700
C  49.24900 48.69300 44.01800
C  52.79200 48.63100 45.02200
C  50.40400 50.80300 43.45100
C  50.20500 52.15200 44.23300
N  46.80400 47.11000 43.30600
C  46.74300 48.39800 43.78500
C  45.41700 48.94400 43.88000
C  44.64800 47.92900 43.27800
C  45.52300 46.81500 43.05500
C  44.99600 50.33000 44.40700
C  43.40100 47.58900 42.70200
O  42.40700 48.29300 42.50400
C  43.50100 46.09700 42.28000
C  42.34700 45.31000 42.79800
O  41.68900 44.60500 42.08700
O  42.22900 45.46300 44.20900
C  41.11700 44.78800 44.80700
H  48.66600 41.56100 41.88500
H  52.78300 46.11100 43.70800
H  47.70500 50.02400 44.53000
H  43.96800 42.83300 42.44600
H  46.19500 41.67800 40.94000
H  44.66300 40.70700 42.72400
H  45.88800 41.01000 43.93500
H  46.28200 39.98800 42.52700
H  45.12700 43.02100 39.65400
H  44.26600 44.45800 40.04700
H  42.30500 43.60300 39.61500
H  42.61400 42.26400 40.62500
H  50.43900 41.14100 40.99600
H  51.31000 40.57300 42.48800
H  52.18700 41.43800 41.27100
H  54.88400 44.93600 42.72400
H  55.32900 43.56900 43.71300
H  54.11500 44.60600 44.38300
H  52.03500 48.84400 43.08300
H  50.38000 49.77400 45.37200
H  52.92400 47.66300 45.50600
H  52.80400 49.47800 45.70800
H  53.68300 48.65300 44.39400
H  49.81200 50.59300 42.56100
H  51.35500 50.95800 42.94200
H  51.21400 52.56100 44.29000
H  49.83500 51.98500 45.24500
H  49.51900 52.82400 43.71900
H  43.98300 50.30200 44.00500
H  45.55700 51.20200 44.07200
H  45.10200 50.36100 45.49200
H  43.23700 46.10300 41.22200
H  41.00500 44.70900 45.88800
H  41.05900 43.71400 44.63000
H  40.20200 45.27200 44.46400
Mg -12.01900 38.25300 42.14600
C  -10.01300 35.55600 41.51100
C  -9.59500 40.35200 40.77500
C  -14.20500 40.75200 42.38500
C  -14.59200 35.91800 42.88500
N  -10.06900 37.93600 41.15100
C  -9.52400 36.75000 40.95000
C  -8.15300 36.87700 40.29900
C  -7.86600 38.47300 40.29300
C  -9.24100 38.99600 40.74900
C  -6.66600 38.98300 41.14100
C  -8.01500 36.23700 38.84600
C  -6.62700 35.62900 38.56100
H  -5.87900 36.34500 37.41400
N  -11.87500 40.32000 41.74200
C  -10.81400 40.97000 41.26000
C  -11.03100 42.38600 41.28500
C  -12.36200 42.61100 41.64800
C  -12.90400 41.21700 41.93000
C  -10.06600 43.51200 40.86700
C  -13.09600 43.99100 41.69500
O  -12.59800 45.08500 41.36800
C  -14.52600 43.98000 42.18000
N  -14.17000 38.29100 42.38700
C  -14.76000 39.48900 42.63700
C  -16.23300 39.32100 43.10700
C  -16.30100 37.74500 43.18800
C  -14.94500 37.24400 42.70100
C  -16.66700 40.10100 44.36600
C  -17.52200 37.13900 42.37200
C  -18.37000 36.10200 43.14600
N  -12.30200 36.07600 42.31800
C  -13.32400 35.31300 42.73000
C  -12.90200 33.90200 42.88900
C  -11.54200 34.01200 42.45500
C  -11.25200 35.33300 42.08400
C  -13.62100 32.68800 43.42800
C  -10.39400 33.19200 42.24900
O  -10.18600 31.97800 42.43000
C  -9.32100 34.22300 41.64900
C  -8.20800 34.19500 42.61100
O  -8.13900 35.03400 43.45100
O  -7.24400 33.29000 42.38900
C  -5.99800 33.23000 43.23600
H  -8.83600 40.97300 40.29400
H  -14.94400 41.49100 42.70000
H  -15.35500 35.22500 43.24700
H  -7.42000 36.38800 40.93900
H  -7.78300 38.86800 39.28100
H  -6.04800 38.14700 41.46800
H  -6.87200 39.61100 42.00800
H  -6.00900 39.58300 40.51200
H  -8.30500 37.07300 38.21000
H  -8.79900 35.48400 38.93200
H  -6.76300 34.55200 38.46000
H  -6.02100 35.67500 39.46600
H  -9.11900 43.03700 40.60900
H  -10.01400 44.21600 41.69800
H  -10.53900 44.15200 40.12300
H  -15.06500 43.24300 41.58400
H  -14.88800 44.97800 41.93400
H  -14.68900 43.84800 43.25000
H  -16.83000 39.71600 42.28500
H  -16.37900 37.42400 44.22700
H  -15.89900 40.75200 44.78400
H  -17.13400 39.54800 45.18100
H  -17.47400 40.76000 44.04500
H  -17.17100 36.61400 41.48400
H  -18.22500 37.87800 41.98700
H  -17.95800 35.80800 44.11100
H  -18.62500 35.15500 42.67100
H  -19.31800 36.54600 43.45100
H  -14.70100 32.82100 43.35300
H  -13.46200 32.51100 44.49200
H  -13.25700 31.76100 42.98500
H  -9.01300 33.81300 40.68700
H  -5.08100 33.08100 42.66600
H  -6.06300 32.41300 43.95500
H  -5.93400 34.15300 43.81100

