158

Mg 17.09700 -1.32700 28.05700
C  16.06300 0.64200 30.88200
C  19.03200 -3.09000 29.98300
C  18.46400 -2.66500 25.17700
C  15.35300 0.89400 26.07800
N  17.56800 -1.02500 30.11700
C  17.06100 -0.31000 31.15500
C  17.49300 -0.79800 32.57600
C  18.63700 -1.77900 32.14900
C  18.36500 -1.99000 30.65500
C  20.06100 -1.34600 32.52700
C  16.35200 -1.38400 33.45600
C  16.64100 -1.46500 35.01200
H  17.89400 -0.84500 35.63700
N  18.42500 -2.80800 27.63600
C  19.05300 -3.46000 28.62000
C  19.80500 -4.53400 28.03600
C  19.73200 -4.43200 26.64300
C  18.85200 -3.24600 26.42600
C  20.43500 -5.59800 28.96300
C  20.36300 -5.19100 25.55900
O  20.13800 -4.95700 24.35500
C  21.25300 -6.37800 25.89800
N  16.90300 -0.93600 25.91200
C  17.47200 -1.68900 24.94700
C  17.16900 -1.11900 23.52400
C  16.15600 0.02700 23.79400
C  16.05600 -0.05000 25.35900
C  18.44200 -0.76100 22.75100
C  14.81700 0.02100 23.05700
C  14.87700 0.73700 21.64100
N  15.84800 0.40700 28.28100
C  15.18500 1.14200 27.43800
C  14.40400 2.13300 28.11000
C  14.77100 2.00500 29.48700
C  15.59500 0.91400 29.57300
C  13.72600 3.30200 27.40500
C  14.66300 2.60500 30.88900
O  14.15700 3.65100 31.31500
C  15.44000 1.58900 31.83800
C  16.31500 2.51100 32.63800
O  17.32200 3.02000 32.24100
O  15.72300 2.84900 33.76900
C  16.48400 3.83900 34.56800
H  19.73500 -3.62700 30.62300
H  18.81900 -3.03000 24.21100
H  14.83100 1.55100 25.37900
H  17.94400 0.06200 33.07200
H  18.55100 -2.73100 32.67300
H  20.69800 -1.49900 31.65500
H  20.40600 -2.00400 33.32400
H  20.09200 -0.33000 32.92100
H  16.07500 -2.35800 33.05300
H  15.49400 -0.71900 33.34900
H  16.51400 -2.52000 35.25600
H  15.84100 -0.85600 35.43200
H  21.43400 -5.25000 29.22200
H  20.38000 -6.60000 28.53500
H  19.81900 -5.69000 29.85700
H  22.06800 -5.97500 26.49900
H  21.72600 -6.84500 25.03400
H  20.77100 -7.10900 26.54700
H  16.67100 -1.93600 23.00100
H  16.61300 0.99100 23.57100
H  18.42800 0.31900 22.60000
H  18.58400 -1.28500 21.80700
H  19.25500 -0.93400 23.45700
H  13.98000 0.22300 23.72500
H  14.61700 -1.01500 22.78400
H  14.55800 -0.00100 20.90600
H  15.90200 0.95400 21.34200
H  14.26900 1.63500 21.52900
H  14.34300 3.39100 26.51200
H  13.86400 4.17400 28.04500
H  12.68300 3.16800 27.12000
H  14.66000 1.09000 32.41300
H  15.98100 4.04100 35.51300
H  16.49200 4.78700 34.02900
H  17.53300 3.57300 34.69700
Mg 10.20300 47.67000 25.38600
C  7.84600 47.81300 28.12200
C  12.65400 48.79500 27.53400
C  12.29500 47.76400 22.77100
C  7.45200 47.08400 23.23500
N  10.20400 48.25700 27.67600
C  9.14000 48.20900 28.57500
C  9.65100 48.65400 29.96800
C  11.08600 49.23700 29.66000
C  11.40100 48.73100 28.20100
C  11.00900 50.82400 29.70900
C  9.67800 47.51500 30.96900
C  9.42800 47.95100 32.45900
H  9.49100 46.80900 33.50000
N  12.26500 48.04600 25.19300
C  13.14500 48.49000 26.20400
C  14.40000 48.69000 25.66500
C  14.34300 48.25400 24.27000
C  12.92800 47.97800 24.04000
C  15.54700 49.25400 26.50900
C  15.40500 48.21800 23.23700
O  15.28100 47.89600 22.06500
C  16.85300 48.55800 23.62900
N  9.93900 47.42800 23.32100
C  10.98000 47.47100 22.45300
C  10.53000 47.06100 21.09100
C  9.01100 46.62000 21.25900
C  8.76100 47.12600 22.68200
C  10.66700 48.14800 19.97200
C  8.66900 45.06700 20.99400
C  8.96600 44.17900 22.20500
N  8.07200 47.51800 25.55000
C  7.13400 47.25000 24.61000
C  5.82600 47.22100 25.22000
C  6.07000 47.40700 26.60700
C  7.46000 47.55200 26.77700
C  4.46700 47.00100 24.60600
C  5.39800 47.52900 27.89300
O  4.19100 47.53000 28.18100
C  6.51100 47.89300 28.90100
C  6.27100 46.99900 30.13800
O  6.54600 45.81000 30.30000
O  5.51500 47.77500 30.97600
C  5.18100 47.12500 32.23000
H  13.38700 49.22700 28.21900
H  12.95000 47.75300 21.89700
H  6.70400 46.75900 22.50900
H  8.99800 49.45600 30.31200
H  11.79100 48.84200 30.39100
H  10.29400 51.24600 30.41500
H  10.71600 51.30700 28.77700
H  11.99600 51.17700 30.01000
H  10.61000 46.95400 30.89100
H  8.84800 46.91800 30.59300
H  8.42700 48.37500 32.54700
H  10.10900 48.75600 32.73500
H  15.97400 50.07800 25.93600
H  16.44600 48.63900 26.52900
H  15.31300 49.66900 27.49000
H  17.47100 48.18800 22.81100
H  17.04600 47.87700 24.45700
H  16.90400 49.60900 23.91400
H  11.14700 46.18900 20.87500
H  8.35100 47.12400 20.55300
H  10.01800 48.98900 20.21700
H  10.64000 47.74100 18.96200
H  11.65600 48.60400 20.01800
H  9.39500 44.78800 20.23000
H  7.64400 44.90700 20.66000
H  9.01700 44.59700 23.21000
H  9.91100 43.65200 22.07600
H  8.36500 43.27000 22.20800
H  4.45600 46.01000 24.15400
H  4.22000 47.88800 24.02200
H  3.80500 46.90800 25.46600
H  6.37700 48.91100 29.26700
H  4.72800 47.84400 32.91200
H  6.04100 46.74100 32.77900
H  4.48600 46.29500 32.10100

