158

Mg 26.80400 -0.96900 29.53700
C  28.73300 -1.06900 32.56900
C  24.07800 -0.41700 31.38300
C  25.06400 -0.87800 26.70600
C  29.73700 -1.65400 27.85200
N  26.49900 -0.82800 31.74000
C  27.41100 -0.74600 32.79700
C  26.71100 -0.33400 34.15900
C  25.20100 -0.22500 33.70800
C  25.24900 -0.53100 32.20300
C  24.29100 -1.24400 34.38500
C  27.32300 0.94400 34.86100
C  27.88300 0.59200 36.23200
H  27.48200 1.57800 37.48000
N  24.80200 -0.67500 29.10900
C  23.86000 -0.48100 30.00800
C  22.53200 -0.31000 29.37300
C  22.79200 -0.55800 27.96800
C  24.24000 -0.81000 27.87700
C  21.22300 0.01000 30.13500
C  21.81700 -0.53800 26.79700
O  22.24600 -0.75500 25.69200
C  20.37000 -0.30200 27.07200
N  27.29400 -1.35900 27.60000
C  26.44800 -0.97200 26.55600
C  27.21600 -1.07000 25.16900
C  28.64800 -1.29400 25.56500
C  28.60900 -1.41100 27.13800
C  26.57000 -2.09500 24.13400
C  29.61200 -0.19900 25.02500
C  29.53600 1.13700 25.68200
N  28.80600 -1.58500 30.01500
C  29.84800 -1.81300 29.25000
C  31.08200 -2.01700 30.03300
C  30.68100 -1.69600 31.30000
C  29.28100 -1.45200 31.30800
C  32.45600 -2.34700 29.57300
C  31.13100 -1.57700 32.71600
O  32.25300 -1.73400 33.21000
C  29.85500 -1.06500 33.57900
C  29.51600 -1.90500 34.73500
O  28.89900 -2.95000 34.64000
O  30.06100 -1.46500 35.91800
C  29.80500 -2.22300 37.16800
H  23.19700 -0.20700 31.99400
H  24.55800 -0.83100 25.74000
H  30.56600 -1.93700 27.19900
H  26.99400 -1.25200 34.67500
H  24.70300 0.73600 33.84000
H  24.22900 -2.10100 33.71400
H  23.28900 -0.81600 34.40900
H  24.54200 -1.57800 35.39200
H  26.62500 1.77700 34.94500
H  28.12000 1.30600 34.21100
H  28.96200 0.72300 36.15000
H  27.63800 -0.37000 36.68400
H  21.45600 0.56200 31.04600
H  20.61700 -0.84000 30.45100
H  20.48400 0.56900 29.56100
H  19.80400 -0.49400 26.16100
H  20.22000 0.76600 27.23100
H  19.96000 -0.88800 27.89500
H  27.05100 -0.08500 24.73300
H  28.87600 -2.26300 25.12100
H  25.99900 -1.49900 23.42300
H  25.98000 -2.89400 24.58300
H  27.36800 -2.62200 23.61200
H  29.35900 -0.02200 23.97900
H  30.64200 -0.55500 25.04600
H  29.17400 1.11000 26.71000
H  28.83200 1.74500 25.11500
H  30.53800 1.56500 25.70200
H  32.57500 -2.57300 28.51300
H  32.75200 -3.21000 30.16900
H  33.15300 -1.52600 29.73900
H  30.12300 -0.07000 33.93400
H  30.64100 -2.01900 37.83700
H  29.81900 -3.30400 37.02700
H  28.84600 -1.99400 37.63200
Mg 26.06100 50.59900 25.79800
C  23.90300 51.45600 28.46100
C  28.21200 49.41200 28.23300
C  28.04400 49.59700 23.32100
C  23.74100 51.71500 23.52500
N  26.01400 50.41600 28.23200
C  25.02200 50.80900 29.03300
C  25.40300 50.62700 30.48000
C  26.89500 50.03300 30.37700
C  27.09000 49.94100 28.85300
C  28.05500 50.76900 31.13100
C  24.36700 49.71600 31.27000
C  24.88800 49.17400 32.56500
H  24.11300 49.42100 33.79600
N  27.87500 49.78200 25.77300
C  28.57500 49.23500 26.88300
C  29.89700 48.78900 26.38000
C  29.89300 48.92600 24.98400
C  28.52900 49.48000 24.62600
C  30.96000 48.13000 27.31600
C  30.92800 48.61900 23.94100
O  30.92900 48.95100 22.76000
C  32.16200 47.99500 24.45800
N  25.90200 50.63100 23.71400
C  26.84200 50.13300 22.85800
C  26.36600 50.09000 21.36500
C  24.91400 50.68800 21.46500
C  24.83400 51.02300 22.98000
C  27.35800 50.68800 20.31200
C  23.87700 49.75300 20.79900
C  23.57400 48.46400 21.42100
N  24.19800 51.50500 25.88800
C  23.33400 51.87500 24.86500
C  22.09200 52.32700 25.45900
C  22.24100 52.24700 26.89100
C  23.55000 51.66700 27.10400
C  21.01100 52.80300 24.47700
C  21.68400 52.52600 28.18800
O  20.60900 52.93000 28.60900
C  22.73500 52.13100 29.18500
C  23.16400 53.32900 30.01000
O  24.16200 53.96200 29.73600
O  22.39200 53.40400 31.13400
C  22.72600 54.47100 32.01400
H  29.00900 49.14500 28.93000
H  28.67300 49.20200 22.52000
H  22.98200 52.08200 22.83100
H  25.30500 51.61200 30.93500
H  26.96200 49.03200 30.80500
H  28.67600 50.17200 31.79800
H  27.58100 51.56300 31.70800
H  28.79000 51.24800 30.48400
H  24.20100 48.81000 30.68700
H  23.35500 50.11300 31.33700
H  25.84300 49.64600 32.79700
H  24.95900 48.08800 32.50600
H  31.10700 47.06900 27.11600
H  30.72800 48.23800 28.37600
H  31.92600 48.63500 27.29700
H  32.78200 47.64100 23.63400
H  31.90800 47.10600 25.03500
H  32.68300 48.78400 25.00000
H  26.31700 49.04600 21.05700
H  25.05100 51.63000 20.93300
H  28.17100 51.18600 20.84000
H  26.91900 51.45400 19.67300
H  27.83000 49.93400 19.68200
H  24.33200 49.42600 19.86400
H  22.97900 50.30700 20.53100
H  22.48700 48.42100 21.48900
H  24.11300 48.26600 22.34700
H  23.89500 47.67000 20.74600
H  20.12100 52.97200 25.08300
H  20.76900 51.98800 23.79500
H  21.27600 53.73600 23.97900
H  22.31400 51.32500 29.78500
H  23.69700 54.24000 32.45400
H  21.95300 54.51900 32.78100
H  23.03600 55.43600 31.61400

