158

Mg 35.59600 1.43400 29.62100
C  33.11600 2.04100 32.06500
C  37.81900 1.00100 32.06800
C  37.90400 1.00600 27.21500
C  33.13500 2.03200 27.18900
N  35.42300 1.43000 31.85400
C  34.36800 1.73000 32.63900
C  34.75100 1.76300 34.15200
C  36.33300 1.49700 34.08300
C  36.55200 1.20100 32.62300
C  37.25600 2.68600 34.61000
C  34.00700 0.83000 35.12300
C  33.35900 1.37700 36.35800
H  34.24400 2.41900 37.15200
N  37.56800 1.02700 29.59700
C  38.31500 0.92400 30.70600
C  39.65600 0.52700 30.31500
C  39.66900 0.40200 28.93700
C  38.35400 0.88100 28.50000
C  40.66300 0.21800 31.31600
C  40.79300 -0.11900 28.01300
O  40.57000 -0.33300 26.80200
C  42.11600 -0.46400 28.52800
N  35.50800 1.32900 27.56000
C  36.61200 1.26500 26.75200
C  36.25000 1.19200 25.27400
C  34.68600 1.37600 25.27800
C  34.36300 1.51600 26.73500
C  37.06100 2.26700 24.44200
C  33.93800 0.18200 24.62300
C  33.99400 -1.12100 25.35700
N  33.54600 1.98300 29.52300
C  32.72000 2.25600 28.44500
C  31.35200 2.60500 28.94200
C  31.48600 2.53800 30.32800
C  32.83700 2.10300 30.67500
C  30.31000 2.91100 27.97500
C  30.77300 2.72000 31.59800
O  29.60200 3.12400 31.78700
C  31.73100 2.38200 32.70300
C  31.76600 3.71000 33.52100
O  32.23500 4.72000 33.10200
O  31.02700 3.61500 34.67000
C  30.80700 4.72000 35.52800
H  38.53500 0.83800 32.87600
H  38.62700 1.12300 26.40600
H  32.50200 2.30700 26.34200
H  34.58200 2.79800 34.45000
H  36.66800 0.64600 34.67700
H  36.65200 3.53900 34.91800
H  37.90000 3.17500 33.87900
H  37.89400 2.30300 35.40600
H  34.66200 0.03500 35.48100
H  33.19200 0.43700 34.51500
H  33.11000 0.62400 37.10500
H  32.46200 1.82900 35.93400
H  41.62700 -0.16900 30.98500
H  40.28800 -0.51300 32.03200
H  40.80700 1.12300 31.90700
H  42.55200 0.37300 29.07400
H  42.84500 -0.70700 27.75400
H  42.06600 -1.32500 29.19500
H  36.45400 0.16800 24.96300
H  34.37900 2.28600 24.76400
H  36.39200 2.78500 23.75500
H  37.81900 1.76300 23.84200
H  37.48500 3.03400 25.09000
H  34.44300 0.03500 23.66900
H  32.87900 0.37900 24.45600
H  34.33000 -1.82200 24.59200
H  32.97800 -1.30100 25.70700
H  34.74000 -1.16200 26.15100
H  29.48500 3.37500 28.51500
H  30.15200 1.95800 27.47000
H  30.71400 3.67800 27.31400
H  31.44100 1.52600 33.31200
H  31.42400 4.39200 36.36400
H  29.78700 4.66600 35.91000
H  31.11300 5.73100 35.26000
Mg 40.41000 41.62400 27.57900
C  39.95400 44.06100 30.02000
C  41.10800 39.35000 29.97900
C  41.47500 39.37300 25.16500
C  40.43100 44.08700 25.19100
N  40.65200 41.80400 29.77100
C  40.27300 42.84100 30.58800
C  40.05400 42.42100 32.07800
C  40.67000 40.98300 32.07100
C  40.83000 40.66600 30.50300
C  41.92100 40.81500 33.01400
C  38.60600 42.52600 32.61200
C  38.44300 41.70700 33.85800
H  37.84800 42.36800 35.09900
N  41.16000 39.64500 27.54500
C  41.27800 38.83800 28.63300
C  41.60700 37.51000 28.33600
C  41.80000 37.43900 26.88200
C  41.44100 38.88600 26.45400
C  41.79600 36.44200 29.37800
C  42.14000 36.34700 25.95500
O  42.20300 36.50000 24.74100
C  42.35800 34.98200 26.39000
N  41.15900 41.78300 25.43900
C  41.33700 40.72700 24.64700
C  41.37500 41.08100 23.21400
C  40.80300 42.56700 23.22200
C  40.79700 42.82600 24.74400
C  42.66600 40.80300 22.43400
C  39.48100 42.59600 22.34200
C  38.09500 42.11900 22.97900
N  40.21400 43.67300 27.52600
C  40.19600 44.59100 26.47400
C  39.84600 45.90700 26.96100
C  39.77400 45.78000 28.36900
C  40.02700 44.40000 28.63000
C  39.87100 47.13400 26.09600
C  39.47400 46.46200 29.54100
O  39.24100 47.67400 29.76800
C  39.49400 45.42500 30.72400
C  40.48200 46.05600 31.70100
O  41.63500 46.37100 31.54900
O  39.90700 46.26400 32.89700
C  40.70500 46.61800 34.02900
H  41.23900 38.62900 30.78900
H  41.73800 38.67000 24.37200
H  40.20700 44.92500 24.52700
H  40.64500 43.13400 32.65400
H  39.99100 40.17500 32.34300
H  41.90500 39.94500 33.67100
H  42.06500 41.71800 33.60700
H  42.80300 40.77600 32.37400
H  37.90700 42.32900 31.79900
H  38.43500 43.57300 32.86200
H  39.34900 41.21000 34.20600
H  37.67600 40.97600 33.59900
H  42.84600 36.20600 29.54800
H  41.24800 35.55700 29.05400
H  41.40400 36.74200 30.35000
H  43.08100 34.91900 27.20300
H  42.76700 34.41600 25.55400
H  41.44000 34.44300 26.62400
H  40.60500 40.43800 22.78800
H  41.61600 43.21600 22.89500
H  43.37100 40.24800 23.05200
H  43.11900 41.77100 22.22000
H  42.42800 40.24600 21.52800
H  39.51400 42.02200 21.41600
H  39.32300 43.60700 21.96600
H  38.33400 42.10800 24.04300
H  37.88600 41.06100 22.81800
H  37.31000 42.83500 22.73600
H  38.85700 47.40200 25.79800
H  40.47200 47.04200 25.19100
H  40.30200 48.05800 26.48200
H  38.54000 45.36700 31.24800
H  41.51300 45.90000 34.16400
H  40.19500 46.65500 34.99200
H  41.19200 47.58300 33.88700

