158

Mg 9.58800 3.13900 27.39500
C  10.83700 1.51900 30.31200
C  7.69800 5.10500 29.35600
C  8.12900 4.20900 24.61300
C  11.02200 0.41200 25.56200
N  9.23600 3.19600 29.57700
C  9.94300 2.52700 30.60600
C  9.49900 3.09300 32.05900
C  8.25800 3.95500 31.71500
C  8.44700 4.16300 30.12400
C  6.89700 3.35600 32.18400
C  10.76800 3.83300 32.70500
C  11.20500 3.22300 34.06200
H  10.23500 2.84300 35.18100
N  8.23100 4.55300 27.06900
C  7.65500 5.36400 27.99400
C  6.96000 6.45200 27.33400
C  6.85200 6.10100 25.93700
C  7.72900 4.88100 25.80100
C  6.37400 7.70800 28.01700
C  6.10700 6.75300 24.81700
O  6.02300 6.37300 23.64600
C  5.42600 8.06400 25.07600
N  9.68200 2.44900 25.39400
C  8.99400 3.11800 24.42800
C  9.13500 2.42300 23.06300
C  10.24700 1.44600 23.31400
C  10.40700 1.42700 24.81500
C  7.78100 1.71500 22.62500
C  11.57200 1.90900 22.58500
C  11.88800 1.17200 21.22000
N  10.74900 1.41800 27.78600
C  11.23600 0.43200 26.96700
C  11.97000 -0.62100 27.70900
C  11.89300 -0.21200 29.03600
C  11.09400 1.00900 29.05900
C  12.69900 -1.88200 27.11000
C  12.28900 -0.49900 30.43000
O  12.97200 -1.39800 30.89500
C  11.55100 0.60800 31.31100
C  10.76500 -0.07600 32.40600
O  9.61900 -0.47300 32.33700
O  11.58800 -0.27400 33.51400
C  11.04000 -0.93300 34.69500
H  7.18900 5.77900 30.04800
H  7.86000 4.52800 23.60400
H  11.41400 -0.51200 25.13100
H  9.13400 2.23900 32.63000
H  8.37100 4.94200 32.16400
H  6.91300 2.27700 32.33300
H  6.06000 3.57500 31.52100
H  6.62400 3.90200 33.08800
H  10.55000 4.88500 32.88800
H  11.55900 3.88700 31.95600
H  11.93400 3.98600 34.33700
H  11.80300 2.35400 33.78700
H  5.28700 7.76800 28.07500
H  6.59400 8.57200 27.39100
H  6.86300 7.75500 28.99000
H  6.03100 8.90600 25.41200
H  4.65600 7.81900 25.80700
H  4.82900 8.35200 24.21100
H  9.39700 3.23100 22.38000
H  9.90200 0.45000 23.03800
H  7.22400 2.51500 22.13900
H  7.12700 1.46400 23.46000
H  7.93600 0.90400 21.91400
H  12.34400 1.53500 23.25700
H  11.67800 2.98000 22.41000
H  12.07700 1.98500 20.51900
H  11.09500 0.58700 20.75400
H  12.80600 0.59600 21.33700
H  12.07300 -2.31100 26.32700
H  12.81000 -2.66100 27.86400
H  13.68300 -1.58400 26.74800
H  12.35200 1.16900 31.79200
H  10.24100 -0.35000 35.15300
H  11.89600 -1.18300 35.32300
H  10.56100 -1.84100 34.32900
Mg 41.52400 7.35900 29.55300
C  43.32200 9.08400 32.04200
C  39.02200 6.64300 31.81000
C  39.79100 5.87100 27.07300
C  44.15700 7.98200 27.39700
N  41.20300 7.86100 31.68000
C  42.14500 8.47600 32.50900
C  41.58100 8.55400 33.94600
C  40.15700 7.90700 33.80100
C  40.12000 7.41500 32.38400
C  39.80400 6.79300 34.85100
C  41.63400 9.99800 34.50600
C  40.66000 10.34900 35.57500
H  41.01100 11.41200 36.63300
N  39.73800 6.30400 29.48800
C  38.84200 6.13800 30.54600
C  37.61600 5.53300 30.06100
C  37.89600 5.19500 28.73500
C  39.20000 5.84100 28.33700
C  36.42400 5.25100 30.89700
C  37.04100 4.43900 27.71000
O  37.39600 4.17000 26.54900
C  35.70000 3.93900 28.15500
N  41.96100 6.80000 27.52600
C  41.05000 6.30900 26.67700
C  41.63900 6.14800 25.29900
C  42.88500 6.97900 25.33300
C  43.05300 7.29600 26.83300
C  41.78400 4.64800 24.82600
C  42.82900 8.31700 24.46000
C  41.93300 9.36700 25.07500
N  43.40100 8.33400 29.65300
C  44.31300 8.58500 28.64700
C  45.34100 9.43900 29.09500
C  45.06100 9.58500 30.49600
C  43.78100 8.99100 30.71600
C  46.48000 9.90300 28.27900
C  45.53500 10.16800 31.74900
O  46.55600 10.83600 31.96200
C  44.41700 9.89600 32.78800
C  44.97000 9.09500 33.98600
O  45.05500 7.90300 34.00200
O  45.20900 9.92100 34.96900
C  45.39400 9.36400 36.29900
H  38.19300 6.65600 32.52000
H  39.21900 5.50800 26.21700
H  44.93700 8.15100 26.65200
H  42.26600 7.93800 34.52900
H  39.50700 8.77500 33.91200
H  38.86500 7.05800 35.33700
H  40.51500 6.55900 35.64400
H  39.72900 5.81600 34.37400
H  41.58400 10.68400 33.66100
H  42.58600 10.12100 35.02100
H  40.53400 9.44400 36.16900
H  39.78900 10.75400 35.06100
H  36.31500 4.16800 30.96200
H  35.53700 5.77300 30.53700
H  36.45800 5.58800 31.93300
H  35.65200 3.25700 29.00400
H  35.16800 3.50700 27.30900
H  35.13000 4.81000 28.48100
H  40.90700 6.57200 24.61100
H  43.68400 6.31000 25.01400
H  41.43600 3.91800 25.55600
H  42.82100 4.42000 24.57700
H  41.13800 4.44900 23.97100
H  42.40600 7.92300 23.53600
H  43.85300 8.68900 24.50000
H  42.51700 10.27500 25.21900
H  41.52200 9.06700 26.03900
H  41.10500 9.52500 24.38400
H  46.96600 10.70400 28.83600
H  46.15500 10.31300 27.32300
H  47.24800 9.13900 28.16300
H  43.89500 10.79500 33.11600
H  45.39700 8.27600 36.36200
H  44.62800 9.66500 37.01400
H  46.38000 9.64100 36.67400

