158

Mg 1.65700 8.18400 25.97000
C  2.15200 10.26900 28.81400
C  2.09500 5.44800 28.23300
C  1.64400 6.09000 23.32200
C  1.52600 10.92000 23.97600
N  2.12700 7.90200 28.42400
C  2.21000 8.97200 29.28000
C  2.04200 8.38900 30.69200
C  2.24600 6.83800 30.47700
C  2.06300 6.66200 28.94100
C  3.70000 6.31600 30.92100
C  0.62500 8.66600 31.36900
C  0.62200 9.01900 32.85800
H  1.63000 8.53400 33.82100
N  1.81400 6.10900 25.80600
C  1.96500 5.18600 26.83000
C  2.13800 3.88600 26.25900
C  1.98700 4.00500 24.86800
C  1.80000 5.46600 24.60100
C  2.44500 2.64100 27.13900
C  2.01900 2.78700 23.89100
O  1.93800 3.02200 22.68800
C  2.07500 1.32900 24.22600
N  1.66400 8.49100 23.93800
C  1.54000 7.46200 23.02400
C  1.17500 7.99600 21.62700
C  1.18500 9.52800 21.78800
C  1.38700 9.71800 23.34500
C  2.05200 7.46400 20.45200
C  -0.07800 10.25400 21.28000
C  0.18000 11.45400 20.33500
N  1.84100 10.19900 26.28800
C  1.78000 11.21300 25.36200
C  2.01300 12.53600 26.01400
C  2.13400 12.16300 27.33500
C  2.11700 10.72900 27.47900
C  1.88200 13.93800 25.40600
C  2.32800 12.76300 28.70600
O  2.56000 13.92200 28.98100
C  2.13000 11.51200 29.67300
C  3.30900 11.62700 30.67200
O  4.49400 11.32300 30.44100
O  2.87900 12.03400 31.86900
C  3.99900 12.14900 32.86000
H  2.17800 4.63800 28.96100
H  1.44100 5.49200 22.43200
H  1.50400 11.82800 23.37000
H  2.83300 8.80000 31.31900
H  1.54200 6.30200 31.11400
H  4.47200 7.07900 31.02600
H  4.14000 5.74000 30.10700
H  3.84100 5.60300 31.73400
H  -0.01800 7.78800 31.31100
H  0.14000 9.41000 30.73700
H  -0.24000 8.53400 33.31700
H  0.45200 10.07800 33.05400
H  3.00000 1.88900 26.57800
H  1.47000 2.26500 27.45000
H  3.12700 2.98900 27.91400
H  3.09000 1.28700 24.62000
H  2.02800 0.67400 23.35600
H  1.34000 0.88900 24.90000
H  0.18000 7.58200 21.46300
H  2.08200 9.98200 21.36700
H  1.66400 6.49200 20.14600
H  3.08100 7.38000 20.80000
H  2.09400 8.12000 19.58300
H  -0.78700 10.52800 22.06100
H  -0.58500 9.52800 20.64400
H  0.00700 11.01900 19.35000
H  1.19200 11.85000 20.42000
H  -0.56200 12.22700 20.53200
H  1.01300 14.42400 25.84900
H  1.67700 13.74200 24.35300
H  2.81500 14.48000 25.55500
H  1.11700 11.53200 30.07400
H  4.79200 12.82600 32.54400
H  4.39700 11.14700 33.02400
H  3.72800 12.49500 33.85800
Mg 29.42600 58.22500 40.46800
C  26.42000 56.58400 39.84100
C  31.08400 55.38400 39.98500
C  32.19900 60.02100 40.68300
C  27.50900 61.17100 41.09400
N  28.79000 56.30200 39.84900
C  27.54500 55.82800 39.54300
C  27.68900 54.45900 38.92400
C  29.06100 53.99300 39.44600
C  29.73000 55.29600 39.84900
C  29.10600 52.95000 40.62500
C  27.41600 54.45200 37.38400
C  26.14800 53.74600 36.85900
H  25.62100 54.11200 35.45200
N  31.44200 57.70900 40.29300
C  31.91100 56.47600 40.10800
C  33.41700 56.53800 40.02900
C  33.73600 57.88400 40.23100
C  32.44500 58.64200 40.40000
C  34.31200 55.35500 39.57600
C  35.19000 58.40000 40.14700
O  36.11700 57.56000 40.01200
C  35.41100 59.80600 40.23500
N  29.83300 60.34300 40.72900
C  31.08100 60.79100 40.84600
C  31.09200 62.33300 41.01600
C  29.58900 62.64600 41.18800
C  28.88300 61.32100 40.97600
C  32.01600 62.83700 42.27200
C  28.92400 63.85800 40.50500
C  28.17900 64.86300 41.33900
N  27.36000 58.79400 40.70600
C  26.75000 60.00100 40.97400
C  25.26700 59.83900 41.05500
C  25.12900 58.52300 40.59800
C  26.37100 57.95500 40.35800
C  24.25600 60.85000 41.44900
C  24.14600 57.52400 40.25300
O  22.93500 57.51200 40.32600
C  24.92700 56.26300 39.72900
C  24.41000 55.14500 40.49500
O  24.56500 54.99300 41.69200
O  23.78400 54.25200 39.69600
C  23.81700 52.84700 40.06900
H  31.57700 54.44800 39.71500
H  33.00400 60.75100 40.79300
H  26.90700 62.06900 41.24700
H  27.03400 53.71800 39.38200
H  29.68600 53.70700 38.60100
H  28.37400 52.14500 40.57400
H  29.13700 53.57600 41.51700
H  30.06600 52.43500 40.57800
H  28.23700 53.87400 36.96200
H  27.38800 55.43500 36.91200
H  25.37400 53.86000 37.61700
H  26.38000 52.68100 36.84100
H  35.09300 55.67000 38.88400
H  33.67000 54.56400 39.18800
H  34.75700 54.85100 40.43400
H  34.75800 60.31300 39.52500
H  36.44800 59.92900 39.92200
H  35.33100 60.06500 41.29100
H  31.48400 62.68000 40.05900
H  29.50200 62.77300 42.26700
H  32.70400 62.00500 42.42800
H  31.44800 63.15500 43.14600
H  32.65300 63.64700 41.91800
H  28.31200 63.35800 39.75400
H  29.66700 64.40900 39.92900
H  28.34400 64.77200 42.41200
H  27.14300 64.57200 41.16300
H  28.40700 65.87600 41.00900
H  24.57300 61.47200 42.28600
H  23.22100 60.51100 41.49700
H  24.36900 61.65100 40.71900
H  24.58200 56.06600 38.71400
H  24.46500 52.70600 40.93400
H  24.15500 52.17400 39.28100
H  22.82100 52.63400 40.45600

