158

Mg 8.15500 3.26900 27.42100
C  9.52900 1.72700 30.23100
C  6.64200 5.48200 29.46600
C  6.83500 4.55600 24.74300
C  9.70700 0.73800 25.39900
N  8.00900 3.38100 29.65800
C  8.70400 2.74800 30.59000
C  8.43100 3.35200 31.97100
C  7.43600 4.54600 31.67100
C  7.31600 4.50100 30.16700
C  6.04700 4.55700 32.43400
C  9.65200 3.80500 32.89700
C  9.29500 4.66500 34.07400
H  9.87900 4.48800 35.47300
N  6.71400 4.71100 27.12900
C  6.23600 5.52300 28.08600
C  5.31600 6.48300 27.48400
C  5.43300 6.28800 26.11700
C  6.31600 5.15200 25.89400
C  4.54400 7.44400 28.31600
C  4.74200 7.05100 24.98700
O  4.81800 6.78200 23.76400
C  3.92600 8.25300 25.39300
N  8.27800 2.75100 25.39600
C  7.69500 3.49800 24.43000
C  7.90900 2.96700 23.02600
C  9.08900 1.98700 23.26700
C  9.02600 1.80100 24.74500
C  6.59000 2.51600 22.38900
C  10.46300 2.39900 22.71600
C  11.46100 2.99100 23.70300
N  9.21500 1.45200 27.67700
C  9.79600 0.57800 26.81600
C  10.58700 -0.41600 27.52200
C  10.43900 0.00300 28.85000
C  9.61400 1.15400 28.89500
C  11.47100 -1.51800 26.85400
C  11.05200 -0.17400 30.13500
O  11.93500 -0.94900 30.53400
C  10.51400 0.97800 31.04100
C  9.90400 0.34700 32.27200
O  8.96000 -0.48400 32.19800
O  10.61600 0.62500 33.41700
C  10.26700 -0.00700 34.65100
H  6.27700 6.29700 30.09500
H  6.37000 5.04100 23.88200
H  10.34000 0.21300 24.68000
H  7.91800 2.59500 32.56400
H  7.91800 5.48900 31.92600
H  5.27600 4.83600 31.71700
H  6.15000 5.40900 33.10600
H  5.82200 3.65500 33.00200
H  10.44200 4.20300 32.26000
H  10.03800 2.90200 33.36900
H  8.22800 4.57500 34.27700
H  9.56500 5.68100 33.78700
H  4.80400 8.50000 28.23100
H  4.63000 7.22500 29.38000
H  3.48100 7.42200 28.07400
H  3.63000 8.70900 24.44800
H  4.62600 8.98400 25.79600
H  3.11200 8.03000 26.08300
H  8.23000 3.84200 22.46100
H  8.84600 1.06500 22.73800
H  5.65600 2.56800 22.94800
H  6.74900 1.44400 22.27200
H  6.54200 2.96700 21.39800
H  10.14100 2.91300 21.81000
H  10.98100 1.49400 22.39900
H  12.27400 2.35200 24.04900
H  10.88900 3.38500 24.54300
H  11.89500 3.89300 23.27200
H  12.52300 -1.35800 27.09100
H  11.38500 -1.55700 25.76800
H  11.14900 -2.46500 27.28600
H  11.41200 1.47900 31.40400
H  9.61200 0.68100 35.18600
H  11.17700 -0.04900 35.24900
H  9.84300 -1.00600 34.55100
Mg 48.47700 34.96600 27.42000
C  46.29500 33.50400 29.74900
C  48.83900 37.68800 29.33800
C  49.89900 36.53400 24.78500
C  47.81900 32.20100 25.30300
N  47.65700 35.51300 29.30400
C  46.94200 34.68800 30.22900
C  47.09200 35.27300 31.60800
C  47.63600 36.74600 31.30400
C  48.14200 36.61300 29.90000
C  46.51000 37.80200 31.50700
C  48.10000 34.32400 32.44500
C  48.18200 34.39700 33.96900
H  47.20100 35.33400 34.68000
N  49.11800 36.90100 27.14500
C  49.20900 37.87500 28.02400
C  49.71200 39.02600 27.46000
C  50.06900 38.71100 26.12300
C  49.69700 37.32500 25.95500
C  49.83600 40.35700 28.20000
C  50.73600 39.69400 25.19400
O  50.92000 39.39200 23.99400
C  51.40200 41.04200 25.73300
N  48.88200 34.49100 25.35900
C  49.49400 35.28300 24.48700
C  49.83600 34.58700 23.15400
C  49.04500 33.21800 23.27700
C  48.58100 33.24500 24.73200
C  49.58900 35.31700 21.89400
C  49.85200 31.93100 22.89500
C  49.40400 31.05700 21.63400
N  47.39000 33.16800 27.51500
C  47.18600 32.15900 26.56800
C  46.20000 31.20000 27.01800
C  45.91000 31.58700 28.29400
C  46.56600 32.84200 28.51900
C  45.76100 29.90700 26.36500
C  45.08100 31.29600 29.44800
O  44.34200 30.40200 29.73600
C  45.21500 32.60900 30.39600
C  45.47000 32.13100 31.76600
O  46.29400 31.27300 32.16200
O  44.58300 32.65600 32.58800
C  44.51600 32.06700 33.89600
H  49.05500 38.50300 30.03200
H  50.53100 37.04600 24.05600
H  47.70800 31.34600 24.63300
H  46.09800 35.23800 32.05400
H  48.39300 36.95500 32.06000
H  45.60600 37.36100 31.92600
H  46.39000 38.48500 30.66500
H  46.88200 38.51500 32.24400
H  49.09000 34.44400 32.00600
H  47.98800 33.31400 32.05000
H  49.17600 34.72300 34.27600
H  47.92100 33.43300 34.40400
H  49.50800 41.25000 27.66700
H  50.89400 40.43700 28.44800
H  49.29000 40.44000 29.13900
H  52.19100 41.33000 25.03800
H  51.96500 40.81000 26.63700
H  50.74100 41.90000 25.85800
H  50.90400 34.37200 23.11900
H  48.14400 33.22400 22.66500
H  48.97200 34.68500 21.25600
H  50.49600 35.48100 21.31200
H  49.07500 36.26100 22.07200
H  50.04200 31.27700 23.74600
H  50.86800 32.23400 22.64200
H  49.37500 30.04100 22.03000
H  50.14200 31.16700 20.84000
H  48.43000 31.34700 21.24100
H  46.01600 29.02500 26.95200
H  46.00600 30.07800 25.31700
H  44.67300 29.84300 26.37800
H  44.22700 33.06800 30.42700
H  44.74500 31.00600 33.80300
H  43.55800 32.19100 34.40100
H  45.31000 32.57500 34.44400

