158

Mg 1.86400 8.58000 26.61400
C  2.03500 10.77000 29.45400
C  1.55600 5.99700 28.78200
C  1.74200 6.62200 23.97100
C  1.91500 11.45500 24.64600
N  1.94300 8.43700 28.72000
C  1.91300 9.44800 29.65700
C  1.75100 8.84500 31.08500
C  2.01500 7.36500 30.84900
C  1.84100 7.23300 29.38600
C  3.35300 6.80100 31.44800
C  0.25300 9.10500 31.56800
C  0.16900 9.59700 33.03300
H  1.14800 8.93800 33.91900
N  1.54300 6.54700 26.41900
C  1.39400 5.65400 27.44900
C  1.25900 4.36100 26.88200
C  1.54000 4.49300 25.49600
C  1.64400 5.94100 25.25800
C  0.86800 3.09800 27.64800
C  1.50300 3.42900 24.39200
O  1.72900 3.73900 23.22600
C  1.32400 1.93600 24.72300
N  1.94500 9.02400 24.61900
C  1.77700 7.99400 23.67700
C  1.97900 8.56600 22.27700
C  1.86600 10.12600 22.46800
C  1.95400 10.24500 24.00600
C  3.18000 8.10800 21.47100
C  0.52700 10.66100 21.90500
C  0.35300 12.14400 21.59800
N  2.09000 10.72500 26.90500
C  2.08200 11.75700 26.03000
C  2.20600 12.99100 26.66500
C  2.08100 12.68800 28.01700
C  2.04300 11.25100 28.10500
C  2.35000 14.35100 26.06700
C  2.05600 13.24600 29.39200
O  2.07400 14.40200 29.80800
C  1.86600 11.98200 30.36300
C  2.91200 12.06500 31.49300
O  4.12200 12.01100 31.33200
O  2.22600 12.25600 32.64900
C  3.08300 12.62400 33.81800
H  1.44800 5.22300 29.54600
H  1.56900 6.04300 23.06200
H  1.94500 12.28900 23.94200
H  2.56800 9.19600 31.71500
H  1.26400 6.74600 31.33900
H  3.74900 6.03500 30.78200
H  3.25700 6.48300 32.48700
H  3.94400 7.71700 31.42200
H  -0.28200 8.16600 31.42700
H  -0.32800 9.83500 31.00400
H  -0.81000 9.23400 33.34500
H  0.05900 10.67300 33.17000
H  -0.10400 2.67600 27.39300
H  0.86500 3.33700 28.71200
H  1.56800 2.31900 27.34700
H  2.04100 1.35500 25.30400
H  1.29000 1.42000 23.76300
H  0.37600 1.76100 25.23200
H  1.05900 8.19800 21.82300
H  2.70100 10.65400 22.00700
H  3.70300 7.49200 22.20300
H  3.87800 8.88900 21.16900
H  2.80400 7.39200 20.74100
H  -0.28600 10.41000 22.58600
H  0.35000 10.08200 20.99900
H  -0.30700 12.21400 20.73300
H  1.31700 12.64800 21.53300
H  -0.05700 12.69400 22.44500
H  1.63300 15.04100 26.51200
H  2.27100 14.39600 24.98100
H  3.33400 14.73600 26.33800
H  0.85300 11.92900 30.76100
H  3.64600 13.53800 33.63000
H  3.80000 11.85500 34.10400
H  2.36500 12.95400 34.56900
Mg 17.65600 -0.88700 28.07000
C  16.13800 0.96500 30.51700
C  19.37200 -2.74000 30.39800
C  19.40700 -2.14600 25.49400
C  15.94300 1.16500 25.68200
N  17.85400 -0.75000 30.23100
C  17.01300 -0.03900 31.01300
C  17.34100 -0.42100 32.43400
C  18.48000 -1.46200 32.38600
C  18.63700 -1.71700 30.91900
C  19.86700 -0.96400 32.98800
C  16.15300 -0.82200 33.30600
C  15.94000 -0.20800 34.72700
H  17.19900 0.45800 35.37500
N  19.12700 -2.31000 27.91000
C  19.56800 -3.02300 28.97600
C  20.47700 -4.07700 28.46500
C  20.49500 -3.93500 27.01200
C  19.63400 -2.76900 26.69500
C  21.26700 -5.01300 29.38200
C  21.30300 -4.73700 26.01900
O  21.17000 -4.53100 24.80900
C  22.26500 -5.71700 26.48500
N  17.72000 -0.48900 25.84900
C  18.70200 -1.09300 25.05000
C  18.68700 -0.54300 23.60300
C  17.32700 0.23000 23.62300
C  16.99500 0.37400 25.12700
C  19.97500 0.04900 23.05400
C  16.22800 -0.44500 22.77700
C  15.88300 0.24900 21.44000
N  16.29200 0.68100 28.02900
C  15.73500 1.43200 27.01400
C  14.87400 2.45600 27.54900
C  15.02900 2.31400 28.89100
C  15.87400 1.22900 29.16700
C  14.06400 3.51100 26.79100
C  14.68600 2.93300 30.17300
O  14.05500 3.91800 30.48400
C  15.38200 1.94900 31.28600
C  16.29100 2.86400 32.12100
O  17.33200 3.23200 31.75700
O  15.65100 3.30500 33.22400
C  16.45400 4.22700 34.08500
H  19.78800 -3.28300 31.25000
H  19.86500 -2.72800 24.69100
H  15.65200 1.90200 24.93000
H  17.72200 0.49400 32.88800
H  18.20200 -2.33500 32.97600
H  20.64700 -0.88900 32.23000
H  20.16900 -1.55100 33.85500
H  19.70600 0.02500 33.41500
H  16.13500 -1.91100 33.28000
H  15.23900 -0.45100 32.84200
H  15.64000 -0.97000 35.44600
H  15.20800 0.59800 34.77200
H  20.64100 -5.87400 29.61800
H  21.40300 -4.50400 30.33600
H  22.18500 -5.29700 28.86700
H  21.93900 -6.58700 27.05400
H  23.21800 -5.25800 26.74700
H  22.59700 -6.19800 25.56400
H  18.46500 -1.41300 22.98600
H  17.44000 1.20700 23.15300
H  20.32200 -0.40800 22.12800
H  20.84200 -0.09900 23.69800
H  19.85400 1.12800 22.95600
H  15.29000 -0.35500 23.32500
H  16.41400 -1.51900 22.77600
H  14.87800 0.66500 21.51600
H  16.01500 -0.51100 20.67000
H  16.56100 1.03500 21.10700
H  13.82900 4.28500 27.52100
H  13.11300 3.13700 26.41000
H  14.56900 3.86100 25.89000
H  14.58400 1.42200 31.80900
H  16.24100 5.24800 33.76700
H  17.50700 3.95400 34.01500
H  16.08900 4.07200 35.10100

