158

Mg 2.37700 -1.67600 43.88500
C  5.75800 -1.29000 43.09500
C  1.73200 1.08900 41.89100
C  -0.82100 -2.33100 44.25700
C  3.10000 -4.86100 45.13000
N  3.53200 -0.43500 42.42200
C  4.92500 -0.40400 42.43400
C  5.49800 0.72100 41.65800
C  4.21000 1.64700 41.36700
C  3.09700 0.76400 41.98900
C  4.19200 2.96300 42.17700
C  6.05400 0.23100 40.36200
C  7.18100 1.18100 39.81000
H  6.84500 1.98600 38.57600
N  0.65600 -0.70500 43.27400
C  0.57000 0.37300 42.46600
C  -0.79700 0.75300 42.28100
C  -1.62500 -0.27900 42.85600
C  -0.65000 -1.17800 43.49600
C  -1.27300 1.88800 41.41200
C  -3.17100 -0.38300 42.75700
O  -3.82900 0.48500 42.24800
C  -3.83900 -1.61100 43.13200
N  1.27800 -3.41100 44.51500
C  -0.06500 -3.36500 44.71600
C  -0.57500 -4.72500 45.08400
C  0.73600 -5.50400 45.51400
C  1.76900 -4.51300 45.04100
C  -1.80800 -4.71400 46.12000
C  0.80700 -6.86000 44.75900
C  1.26400 -8.12200 45.53900
N  4.07400 -2.87300 44.19700
C  4.18800 -4.07200 44.83800
C  5.64100 -4.29400 45.11400
C  6.34500 -3.15500 44.47200
C  5.33700 -2.37900 43.85900
C  6.25700 -5.30000 45.94900
C  7.61800 -2.52600 44.27900
O  8.72200 -2.72100 44.68000
C  7.26300 -1.31300 43.33900
C  7.78000 -0.03200 44.00300
O  7.36300 0.33700 45.08600
O  8.70600 0.58900 43.26800
C  9.08600 1.94400 43.72200
H  1.50900 2.02400 41.37300
H  -1.87300 -2.47100 44.51400
H  3.47200 -5.80800 45.52900
H  6.30200 1.20400 42.21300
H  3.95700 1.76600 40.31300
H  3.76300 3.78800 41.60900
H  5.25300 3.18000 42.30300
H  3.83200 2.76800 43.18700
H  5.20700 0.18100 39.67700
H  6.32100 -0.81600 40.50300
H  7.93300 0.46200 39.48600
H  7.52700 1.90500 40.54700
H  -2.03700 1.47800 40.75300
H  -0.47900 2.20300 40.73600
H  -1.82000 2.67700 41.92800
H  -4.87900 -1.76900 42.84800
H  -3.87200 -1.64500 44.22000
H  -3.24400 -2.46800 42.81600
H  -1.02300 -5.17700 44.19800
H  0.78000 -5.58300 46.60100
H  -1.81600 -5.45800 46.91600
H  -2.73000 -4.70000 45.53900
H  -1.95900 -3.76600 46.63500
H  1.53400 -6.76200 43.95300
H  -0.13900 -7.17300 44.31900
H  0.48200 -8.88100 45.55500
H  1.61100 -7.97500 46.56200
H  2.00900 -8.64800 44.94300
H  5.62400 -5.41800 46.82900
H  7.27800 -5.13700 46.29600
H  6.26700 -6.21200 45.35200
H  7.70700 -1.51300 42.36400
H  10.00300 2.32500 43.27300
H  9.41900 1.86600 44.75800
H  8.34000 2.67800 43.42100
Mg 47.82500 15.07800 28.75900
C  45.67200 15.08700 31.48000
C  49.86700 17.21100 30.62200
C  49.78600 15.20600 26.08400
C  45.47700 13.23600 26.95900
N  47.64600 16.15000 30.86000
C  46.79000 15.83700 31.75600
C  47.15600 16.52800 33.08900
C  48.42800 17.34900 32.78900
C  48.62000 16.97800 31.30600
C  48.23300 18.96100 33.01000
C  47.42400 15.30800 34.05600
C  46.65100 15.46400 35.39000
H  47.53800 16.21700 36.42900
N  49.55800 15.95900 28.43300
C  50.29200 16.73900 29.32300
C  51.65300 16.85800 28.78100
C  51.63000 16.43700 27.48800
C  50.31300 15.83700 27.27400
C  52.71400 17.39300 29.60400
C  52.67900 16.46800 26.44500
O  52.54400 15.89700 25.38100
C  53.93500 17.25100 26.78200
N  47.55800 14.48000 26.68500
C  48.56200 14.62900 25.76900
C  48.22400 13.95200 24.46900
C  46.91000 13.19500 24.85600
C  46.59900 13.64600 26.28000
C  48.20700 14.84500 23.22400
C  47.05000 11.69500 24.52400
C  47.64000 10.79700 25.69900
N  45.92800 14.32700 29.07100
C  45.11200 13.54600 28.31300
C  43.86800 13.21300 29.03200
C  44.02800 13.86200 30.27000
C  45.29800 14.45900 30.27200
C  42.77000 12.33500 28.55800
C  43.44000 14.09400 31.59900
O  42.40300 13.67600 32.07200
C  44.50700 14.85600 32.36100
C  43.91900 16.12800 32.87800
O  43.91200 17.21000 32.36600
O  43.36900 15.75800 34.09900
C  42.75500 16.78600 34.97100
H  50.50800 17.92800 31.13900
H  50.47800 15.12700 25.24300
H  44.79100 12.64300 26.35100
H  46.37500 17.23500 33.36800
H  49.26200 17.05400 33.42600
H  47.22200 19.25900 33.29000
H  48.60900 19.48200 32.12900
H  48.90000 19.16100 33.84800
H  48.48600 15.25000 34.29100
H  47.34600 14.34000 33.56000
H  46.43300 14.45000 35.72300
H  45.73900 16.03200 35.20600
H  53.08200 18.33900 29.20600
H  53.55400 16.69900 29.63400
H  52.41400 17.59200 30.63300
H  54.39900 16.71100 27.60700
H  53.72600 18.29200 27.02800
H  54.67600 17.21700 25.98300
H  49.06300 13.25600 24.44700
H  46.06600 13.51900 24.24700
H  48.69400 14.36400 22.37600
H  48.57400 15.86000 23.38000
H  47.16800 15.01600 22.94300
H  47.63700 11.56500 23.61400
H  46.01900 11.42700 24.29200
H  47.88000 11.41400 26.56500
H  48.63800 10.49700 25.38000
H  47.06000 9.92200 25.99100
H  42.37400 12.58400 27.57400
H  42.00700 12.38700 29.33500
H  43.10500 11.29800 28.57800
H  44.90400 14.35700 33.24400
H  43.40000 17.05500 35.80700
H  41.82700 16.29200 35.26100
H  42.48300 17.66600 34.38700

