158

Mg 16.77700 52.67400 26.73600
C  18.65000 51.22800 29.32200
C  14.28500 53.37100 28.98100
C  15.06800 53.92600 24.15000
C  19.11200 51.26000 24.50600
N  16.48000 52.23400 28.88900
C  17.50100 51.85400 29.78200
C  17.05100 52.07500 31.24300
C  15.46900 52.26500 31.01700
C  15.35600 52.69300 29.53900
C  14.65000 51.05000 31.44800
C  17.94500 53.13000 31.96600
C  18.10000 53.22200 33.50400
H  17.27500 52.17100 34.41800
N  14.91400 53.59700 26.57900
C  14.03000 53.81300 27.65100
C  12.86800 54.54900 27.08800
C  13.10100 54.69000 25.67500
C  14.37600 54.05600 25.40300
C  11.69200 55.05600 27.94200
C  12.13900 55.32800 24.66700
O  12.39500 55.31400 23.42900
C  10.80300 55.78600 25.10500
N  17.02600 52.51700 24.64700
C  16.27500 53.30000 23.83900
C  16.80800 53.31300 22.35000
C  18.20700 52.55800 22.54700
C  18.12100 52.04800 23.99400
C  15.84000 52.61800 21.37600
C  19.46600 53.56900 22.37200
C  20.17400 53.50200 21.02200
N  18.46400 51.38700 26.80000
C  19.30500 50.93100 25.87200
C  20.34400 50.14300 26.42100
C  20.20900 50.34100 27.80800
C  19.01600 51.05700 28.00900
C  21.39400 49.42900 25.66900
C  20.82600 50.16100 29.13400
O  21.95300 49.79300 29.41100
C  19.74700 50.64700 30.14400
C  19.36900 49.54000 31.07900
O  18.60400 48.58900 30.82700
O  19.96100 49.83200 32.35200
C  19.98800 48.61300 33.23100
H  13.49300 53.58500 29.70200
H  14.56900 54.46700 23.34300
H  19.84800 50.91500 23.77700
H  17.15900 51.16900 31.84000
H  15.05200 53.11000 31.56600
H  15.21300 50.51200 32.21100
H  14.38500 50.31300 30.69100
H  13.71200 51.24800 31.96700
H  17.47000 54.04700 31.62000
H  18.91700 53.19600 31.47600
H  17.78400 54.20300 33.85900
H  19.14600 53.25400 33.80700
H  10.70100 54.68100 27.68600
H  11.70600 56.13900 28.06500
H  11.81700 54.76500 28.98500
H  10.20300 54.97100 25.51200
H  10.22700 55.93200 24.19100
H  10.85200 56.62700 25.79700
H  16.89600 54.37300 22.11100
H  18.37100 51.76100 21.82200
H  15.50400 53.37400 20.66700
H  14.98700 52.13400 21.85300
H  16.18900 51.76300 20.79600
H  20.23900 53.44500 23.13000
H  19.09300 54.58900 22.46500
H  19.82700 52.64500 20.44600
H  21.21500 53.35800 21.31100
H  20.05000 54.42800 20.46000
H  22.21900 49.29700 26.36800
H  21.75800 50.03300 24.83800
H  21.10800 48.51300 25.15100
H  20.15100 51.44500 30.76800
H  18.96300 48.57300 33.60000
H  20.74100 48.70500 34.01300
H  20.22700 47.69900 32.68600
Mg -5.45800 25.65200 25.83400
C  -3.63700 26.73200 28.66900
C  -7.63300 24.05400 27.89700
C  -6.77500 24.33000 23.11100
C  -3.41100 27.72300 23.86200
N  -5.62900 25.46200 27.99600
C  -4.77500 25.93000 28.97900
C  -5.19100 25.50000 30.32500
C  -6.30900 24.41900 30.00900
C  -6.58800 24.68800 28.52200
C  -6.00100 22.97400 30.41000
C  -5.67300 26.71400 31.13300
C  -5.22200 26.85300 32.62100
H  -4.89400 25.52700 33.46800
N  -6.96800 24.36400 25.50200
C  -7.81700 23.86900 26.51900
C  -8.93900 23.06900 25.88000
C  -8.58100 22.99700 24.49600
C  -7.39100 23.90200 24.29100
C  -10.16100 22.47100 26.69200
C  -9.34100 22.32200 23.37500
O  -8.99800 22.43900 22.19900
C  -10.54500 21.54700 23.64100
N  -4.95200 25.81800 23.76000
C  -5.72100 25.21000 22.85400
C  -5.51000 25.73700 21.39000
C  -4.47200 26.87800 21.64300
C  -4.24200 26.82900 23.19000
C  -4.99100 24.59200 20.43600
C  -4.99900 28.21700 21.07100
C  -4.78400 28.41500 19.58100
N  -3.71900 26.91800 26.12400
C  -3.04000 27.70800 25.22000
C  -2.13500 28.58400 26.05100
C  -2.28500 28.11500 27.34400
C  -3.27800 27.10500 27.37900
C  -1.17000 29.66900 25.63400
C  -1.79500 28.33700 28.68800
O  -0.90400 29.03600 29.16400
C  -2.66800 27.47100 29.63300
C  -1.74900 26.61200 30.40000
O  -1.06400 25.73000 29.99800
O  -1.91200 27.01100 31.69000
C  -1.05100 26.23800 32.61200
H  -8.21500 23.39400 28.54300
H  -7.21200 23.84900 22.23400
H  -2.89700 28.42200 23.19900
H  -4.34700 25.03600 30.83600
H  -7.30600 24.56200 30.42800
H  -6.69700 22.53800 31.12700
H  -4.99900 22.75600 30.78000
H  -6.04100 22.34000 29.52400
H  -6.72400 26.46400 31.27200
H  -5.51300 27.65500 30.60700
H  -5.93800 27.48900 33.14200
H  -4.36500 27.50500 32.45500
H  -10.11800 22.79500 27.73200
H  -10.13200 21.38400 26.76000
H  -11.12300 22.75400 26.26400
H  -11.21800 22.24400 24.14100
H  -10.40700 20.65300 24.24800
H  -10.96600 21.23100 22.68600
H  -6.43700 26.14100 20.98500
H  -3.53600 26.74900 21.10100
H  -3.96700 24.39200 20.75300
H  -4.95100 24.93900 19.40400
H  -5.70000 23.76900 20.52900
H  -4.59600 29.11300 21.54200
H  -6.07600 28.25700 21.23700
H  -4.09200 29.23500 19.38800
H  -5.62600 28.73400 18.96700
H  -4.35400 27.51300 19.14500
H  -1.30600 30.54700 26.26600
H  -1.49700 30.06700 24.67400
H  -0.12400 29.37400 25.54900
H  -3.20900 28.19700 30.24000
H  -1.38800 25.20600 32.70800
H  -1.19200 26.61000 33.62700
H  -0.02200 26.14400 32.26400

