158

Mg 17.43300 -2.83100 27.95600
C  16.42400 -0.60800 30.41500
C  19.65000 -4.38400 30.27200
C  19.14200 -4.41300 25.43100
C  15.98900 -0.72600 25.56300
N  17.94200 -2.50900 30.05800
C  17.36200 -1.52800 30.87600
C  17.80300 -1.63300 32.38000
C  18.78500 -2.82100 32.24900
C  18.87500 -3.22700 30.73700
C  20.12600 -2.43800 32.84600
C  16.53400 -1.91900 33.30900
C  16.72600 -2.42600 34.79600
H  18.03700 -2.08400 35.48700
N  18.96500 -4.31900 27.86300
C  19.66600 -4.89000 28.88700
C  20.34300 -6.03600 28.36900
C  20.14700 -6.09500 26.98200
C  19.42000 -4.87900 26.70300
C  21.24600 -6.78700 29.23900
C  20.62200 -7.13200 26.01700
O  20.42800 -7.11500 24.79600
C  21.49700 -8.24900 26.51500
N  17.64900 -2.49700 25.83600
C  18.40800 -3.32600 25.03600
C  18.06700 -3.09600 23.49900
C  16.96700 -1.95400 23.60100
C  16.77900 -1.73200 25.10400
C  19.19400 -2.63100 22.48400
C  15.58400 -2.49300 22.99600
C  14.45100 -2.93400 23.87500
N  16.30800 -1.06400 27.87800
C  15.80200 -0.33400 26.87100
C  15.01800 0.75900 27.42600
C  15.21600 0.67000 28.80500
C  16.03000 -0.43500 29.05400
C  14.12100 1.64800 26.53300
C  14.94800 1.34100 30.07200
O  14.29300 2.33300 30.29200
C  15.80100 0.56700 31.13300
C  16.72100 1.55400 31.81400
O  17.81900 1.89500 31.42700
O  16.11600 2.00800 33.04500
C  16.89000 2.91200 33.87500
H  20.22400 -4.86400 31.06600
H  19.51600 -4.88000 24.51800
H  15.31300 -0.23500 24.85900
H  18.25800 -0.70300 32.72100
H  18.45400 -3.69300 32.81300
H  20.14700 -1.58700 33.52700
H  20.82500 -2.34000 32.01600
H  20.52800 -3.26900 33.42600
H  15.94600 -2.63500 32.73500
H  15.97600 -1.00900 33.52900
H  16.65600 -3.51400 34.82800
H  15.85900 -2.05800 35.34400
H  21.71400 -6.26000 30.07100
H  22.20100 -7.07200 28.79900
H  20.72800 -7.62800 29.69900
H  22.55200 -7.97600 26.47100
H  21.42200 -9.08400 25.81900
H  21.26300 -8.66700 27.49400
H  17.71000 -4.03100 23.06700
H  17.33700 -1.00100 23.22400
H  19.42500 -3.31400 21.66700
H  20.04000 -2.34300 23.10900
H  18.76400 -1.85100 21.85600
H  15.71100 -3.32300 22.30100
H  15.13000 -1.63700 22.49500
H  14.51700 -3.25400 24.91400
H  13.93400 -3.71900 23.32300
H  13.76300 -2.09700 23.75700
H  13.19900 1.94900 27.02900
H  13.84400 1.06800 25.65200
H  14.57700 2.62700 26.38500
H  15.09400 0.20900 31.88100
H  16.34900 3.82500 34.12400
H  17.90400 3.07400 33.51000
H  17.04100 2.35400 34.79900
Mg 42.48700 41.25500 26.64200
C  41.92000 43.49900 29.30400
C  43.22300 38.76300 29.12900
C  43.60000 39.24400 24.21400
C  42.42700 43.92100 24.46900
N  42.60100 41.13600 28.96100
C  42.20300 42.17600 29.77700
C  42.26500 41.74000 31.29800
C  42.57400 40.21500 31.21200
C  42.95600 39.99800 29.72000
C  43.66900 39.81100 32.22100
C  41.06400 42.19700 32.08100
C  40.74000 41.27600 33.32300
H  40.31200 42.04300 34.59900
N  43.20700 39.23400 26.65400
C  43.30900 38.34200 27.67300
C  43.83200 37.09000 27.17600
C  44.14200 37.29500 25.78800
C  43.66200 38.63600 25.47800
C  44.20600 35.92900 27.99300
C  44.93100 36.35500 24.89400
O  45.22700 36.69300 23.77900
C  45.23500 34.86900 25.34900
N  42.99500 41.57200 24.61500
C  43.39500 40.59400 23.80600
C  43.47400 41.11400 22.27100
C  42.80300 42.50600 22.33800
C  42.81000 42.69100 23.91200
C  44.95400 41.10700 21.87500
C  41.38600 42.57300 21.70400
C  40.15700 41.69200 22.24300
N  42.11800 43.31500 26.81600
C  42.09900 44.21100 25.77400
C  41.78400 45.51300 26.31400
C  41.67200 45.28200 27.72800
C  41.90800 43.92000 27.95600
C  41.71700 46.79100 25.64800
C  41.48400 45.98000 28.98600
O  41.33900 47.18500 29.23000
C  41.60400 44.77300 30.06900
C  42.60700 45.30900 31.04500
O  43.84900 45.39700 30.90900
O  41.94400 45.58100 32.22800
C  42.68100 45.97000 33.40000
H  43.44400 37.96200 29.83800
H  43.78100 38.53600 23.40200
H  42.29100 44.70400 23.71900
H  43.14100 42.21400 31.74100
H  41.62200 39.70600 31.36300
H  44.53000 39.62100 31.58000
H  43.34600 38.91800 32.75500
H  43.97800 40.57700 32.93300
H  40.32700 42.43200 31.31300
H  41.35700 43.12500 32.57100
H  41.51100 40.53500 33.53200
H  39.82300 40.78400 32.99800
H  43.81900 34.97800 27.62900
H  43.91600 36.08700 29.03200
H  45.27500 35.88700 28.20400
H  45.52000 34.32200 24.45100
H  44.39500 34.31200 25.76400
H  45.99600 34.91900 26.12800
H  43.04800 40.41200 21.55300
H  43.39900 43.25400 21.81400
H  45.56100 41.03700 22.77800
H  45.23500 42.02500 21.35900
H  45.04700 40.27900 21.17300
H  41.57900 42.28100 20.67200
H  41.09300 43.60200 21.91600
H  39.43700 42.44800 22.55700
H  40.55800 41.01700 22.99800
H  39.82200 41.03600 21.44000
H  41.55700 46.75100 24.57000
H  42.67400 47.30800 25.71400
H  40.91800 47.40200 26.06900
H  40.61600 44.69500 30.52300
H  43.67700 45.52800 33.44400
H  42.07000 45.87600 34.29800
H  42.90400 47.03100 33.28500

