158

Mg 49.34100 44.88300 42.76800
C  46.03800 45.39400 41.33100
C  49.32900 41.82100 41.09200
C  52.73400 44.98700 42.77900
C  49.31400 48.28900 43.61400
N  47.88700 43.81200 41.14900
C  46.55800 44.15500 40.90100
C  45.86900 42.93800 40.30400
C  46.83600 41.72500 40.48300
C  48.14000 42.47500 40.85600
C  46.32900 40.62300 41.44300
C  45.32700 43.11200 38.83100
C  44.27000 42.15200 38.50900
H  44.64200 41.11000 37.51400
N  50.81300 43.53000 42.17700
C  50.57400 42.28500 41.57300
C  51.84000 41.59400 41.55300
C  52.77600 42.44300 42.16100
C  52.13800 43.69100 42.47700
C  51.95700 40.20300 41.03800
C  54.23000 42.13200 42.42900
O  54.71400 41.02100 42.13200
C  55.23100 43.11300 43.07300
N  50.82700 46.54100 42.88400
C  52.14500 46.17200 43.07500
C  52.97400 47.33300 43.65800
C  51.90200 48.44000 43.89600
C  50.57300 47.69800 43.49300
C  53.82900 46.89500 44.96300
C  52.05300 49.83700 43.21200
C  52.28200 51.05500 44.07100
N  47.99100 46.44000 42.70700
C  48.07800 47.75000 43.20200
C  46.74900 48.34300 43.22400
C  45.96500 47.52100 42.43600
C  46.79900 46.33200 42.15400
C  46.45600 49.65100 43.68600
C  44.63300 47.25600 41.99400
O  43.55800 47.79400 42.28900
C  44.71900 46.02100 41.04900
C  43.52400 45.08100 41.24300
O  42.74500 44.79000 40.35300
O  43.63000 44.42200 42.45000
C  42.67200 43.35400 42.78400
H  49.23900 40.75900 40.85400
H  53.79700 45.21600 42.87700
H  49.15600 49.28400 44.03600
H  44.93300 42.90300 40.86100
H  47.16300 41.35100 39.51300
H  46.84000 40.75700 42.39700
H  46.68600 39.64200 41.13100
H  45.25500 40.47500 41.56100
H  46.19200 42.92200 38.19600
H  44.97100 44.14100 38.77400
H  43.43500 42.77600 38.18900
H  44.06100 41.69900 39.47800
H  52.77700 40.15800 40.32100
H  51.06200 39.76500 40.59600
H  52.08300 39.48600 41.84900
H  55.37100 43.85900 42.29100
H  56.21800 42.67400 43.22100
H  54.88700 43.51200 44.02700
H  53.60700 47.74200 42.87000
H  51.74300 48.63500 44.95700
H  54.65000 46.29900 44.56500
H  53.10500 46.35100 45.56900
H  54.31900 47.73400 45.45700
H  51.17400 50.01100 42.59200
H  52.84300 49.79600 42.46100
H  52.90100 50.75000 44.91500
H  51.37900 51.50600 44.48100
H  52.85300 51.77800 43.48800
H  45.44300 49.58200 44.08300
H  46.54700 50.32700 42.83600
H  47.12400 49.92900 44.50200
H  44.58700 46.26800 39.99600
H  42.00700 43.78400 43.53400
H  43.14300 42.44700 43.16200
H  41.96500 43.06400 42.00700
Mg 36.68100 49.42900 24.97400
C  36.87700 47.62500 27.81900
C  35.30700 52.03400 26.75900
C  36.30600 51.12800 22.07400
C  37.36800 46.50400 23.14300
N  36.34200 49.84300 27.07300
C  36.55200 48.96900 28.07000
C  36.21800 49.52800 29.45900
C  35.65900 50.89200 29.05400
C  35.73100 50.92800 27.54100
C  34.29900 51.17000 29.73900
C  37.38000 49.51400 30.45800
C  37.06600 49.22800 31.92900
H  35.65900 49.26900 32.42300
N  35.92500 51.37800 24.51700
C  35.35900 52.23700 25.36000
C  34.96600 53.43000 24.64900
C  35.36300 53.19600 23.28100
C  35.86800 51.81600 23.25100
C  34.50000 54.63800 25.42300
C  35.22400 54.14700 22.03100
O  35.59800 53.86800 20.90300
C  34.48400 55.44700 22.08200
N  36.79000 48.87300 22.90200
C  36.75100 49.79200 21.94500
C  36.98400 49.23000 20.57900
C  37.52100 47.73800 20.94400
C  37.15400 47.65500 22.38000
C  35.77300 49.29300 19.62400
C  39.05800 47.53800 20.70300
C  40.09800 48.50100 21.36300
N  37.21600 47.48600 25.34800
C  37.48900 46.41100 24.52900
C  37.67400 45.18900 25.33300
C  37.53000 45.65200 26.64900
C  37.17000 47.02700 26.59000
C  37.88600 43.77100 24.88000
C  37.52900 45.34100 28.02800
O  37.80000 44.27200 28.59500
C  37.01200 46.52000 28.84100
C  35.72400 46.11800 29.41300
O  34.65500 46.10400 28.86400
O  35.86000 45.72300 30.73000
C  34.68800 45.15900 31.36600
H  34.85700 52.81500 27.37600
H  36.07300 51.65500 21.14700
H  37.75600 45.59700 22.67500
H  35.37300 48.93600 29.81100
H  36.39300 51.66400 29.28400
H  34.45300 52.08200 30.31500
H  34.01600 50.38600 30.44200
H  33.46000 51.30400 29.05600
H  38.02600 50.37900 30.31400
H  38.04800 48.75300 30.05400
H  37.64000 49.95500 32.50300
H  37.40700 48.19700 32.02900
H  33.75200 55.21200 24.87500
H  35.37500 55.24300 25.66000
H  33.91700 54.44900 26.32400
H  34.55500 55.96600 21.12600
H  34.96000 56.03200 22.87000
H  33.46200 55.20600 22.37500
H  37.73500 49.85900 20.10000
H  36.93400 47.00200 20.39400
H  34.87000 49.24200 20.23200
H  35.77200 48.44700 18.93700
H  35.95000 50.20100 19.04700
H  39.13000 47.38000 19.62700
H  39.31700 46.54000 21.05700
H  40.80600 48.80000 20.59000
H  40.63300 48.18600 22.25900
H  39.63600 49.47000 21.55400
H  37.63400 43.65500 23.82600
H  37.21400 43.09700 25.41000
H  38.90500 43.43800 25.07600
H  37.80800 46.74100 29.55200
H  33.78800 45.77400 31.38400
H  34.96800 45.18800 32.41900
H  34.40600 44.14600 31.07800

