158

Mg 25.71000 0.23600 28.69500
C  27.45700 -0.50100 31.57700
C  22.88500 0.49400 30.54900
C  24.08800 0.75100 25.79100
C  28.71500 -0.61900 26.74400
N  25.23400 0.01800 30.83800
C  26.14300 -0.17300 31.85900
C  25.43600 -0.01800 33.27600
C  23.91600 -0.07300 32.89000
C  23.99100 0.14500 31.33300
C  23.01200 -1.22200 33.44300
C  25.86500 1.29600 33.95500
C  26.79200 1.18200 35.20100
H  26.55000 1.93900 36.44100
N  23.75100 0.72200 28.27100
C  22.71100 0.75800 29.13800
C  21.52000 1.13800 28.45200
C  21.85400 1.13600 27.06700
C  23.28700 0.85400 26.98800
C  20.22200 1.44600 29.23500
C  20.96900 1.36000 25.87600
O  21.37900 1.28000 24.70100
C  19.48300 1.62200 25.96200
N  26.27400 -0.09200 26.50200
C  25.41800 0.36600 25.55600
C  26.05200 0.41100 24.14900
C  27.54900 0.22100 24.53700
C  27.54000 -0.23000 26.01100
C  25.55800 -0.79100 23.27400
C  28.48900 1.44100 24.28800
C  28.47300 2.69100 25.31200
N  27.68800 -0.56700 29.01300
C  28.76600 -0.70800 28.14700
C  29.87900 -1.19900 28.98000
C  29.44700 -1.10200 30.34800
C  28.06600 -0.66300 30.27700
C  31.24100 -1.57700 28.52400
C  29.90300 -1.15200 31.69700
O  31.05600 -1.26400 32.19300
C  28.60100 -0.81600 32.53900
C  28.12300 -1.95600 33.41500
O  27.48300 -2.95100 33.06800
O  28.56300 -1.87400 34.69900
C  27.98700 -2.77600 35.71000
H  22.02100 0.56500 31.21300
H  23.49500 0.90400 24.88700
H  29.64700 -0.62700 26.17400
H  25.64800 -0.93600 33.82500
H  23.38900 0.79400 33.28900
H  22.17500 -0.67300 33.87300
H  23.52700 -1.64600 34.30400
H  22.71100 -1.92000 32.66100
H  24.92300 1.74800 34.26300
H  26.43900 1.85500 33.21600
H  27.82200 1.50900 35.05200
H  26.83900 0.11000 35.39400
H  20.35900 1.26400 30.30100
H  19.46600 0.69600 29.00200
H  19.69500 2.38100 29.04800
H  19.43000 2.70100 25.81400
H  19.15800 1.44800 26.98700
H  18.77400 1.21300 25.24200
H  26.03900 1.36500 23.62300
H  27.89100 -0.65900 23.99100
H  24.94800 -1.42500 23.91800
H  26.31700 -1.53500 23.03200
H  24.97800 -0.44100 22.42000
H  28.35500 1.74300 23.24900
H  29.47600 0.97900 24.30700
H  27.81900 2.59900 26.17900
H  28.07900 3.52600 24.73300
H  29.47900 3.02500 25.56600
H  31.89000 -1.03800 29.21400
H  31.52500 -1.30600 27.50700
H  31.33100 -2.66000 28.59900
H  28.80300 0.02300 33.20400
H  28.24700 -2.36800 36.68600
H  28.36300 -3.79800 35.76000
H  26.90200 -2.70000 35.78400
Mg 6.13100 54.98400 41.52000
C  5.76500 51.39000 41.42800
C  9.28400 54.64600 40.43000
C  6.14400 58.40500 41.12200
C  2.71200 55.14100 42.67100
N  7.30000 53.21900 40.92300
C  6.98300 51.89900 40.95900
C  8.19200 51.07100 40.61400
C  9.37900 52.13600 40.52500
C  8.59900 53.45900 40.73400
C  10.56700 51.96000 41.53200
C  8.00600 50.17800 39.31100
C  7.48700 50.87400 37.99600
H  6.44100 50.12100 37.18500
N  7.51300 56.31900 40.94000
C  8.76100 55.97900 40.52100
C  9.50800 57.19800 40.34400
C  8.60400 58.34800 40.43500
C  7.34000 57.70500 40.85900
C  11.02200 57.18900 39.94200
C  8.91700 59.80800 40.12900
O  10.04000 60.19400 39.85100
C  7.87200 60.90500 40.24800
N  4.59400 56.53500 41.66900
C  4.88700 57.88100 41.46200
C  3.72300 58.73500 41.83600
C  2.54500 57.70000 42.25800
C  3.41300 56.39100 42.34100
C  3.95200 59.80100 43.02600
C  1.41800 57.66800 41.19000
C  0.25300 58.70300 41.29600
N  4.53200 53.61600 41.92100
C  3.23000 53.83000 42.42900
C  2.59400 52.56500 42.68400
C  3.60600 51.60300 42.38600
C  4.70500 52.31600 41.85800
C  1.19100 52.19900 43.26200
C  3.90300 50.19400 42.39200
O  3.26300 49.23700 42.77600
C  5.30400 50.00500 41.78500
C  5.08000 49.10000 40.67400
O  4.60500 49.33200 39.55100
O  5.44200 47.85400 41.00000
C  5.19600 46.86000 39.98100
H  10.32500 54.45300 40.16200
H  6.17600 59.49600 41.10700
H  1.71300 55.24200 43.10100
H  8.25300 50.30700 41.38900
H  9.88700 52.17000 39.56100
H  10.72200 52.62800 42.37900
H  11.48800 52.07800 40.96200
H  10.66900 50.95000 41.93000
H  7.42500 49.30100 39.59600
H  9.05300 49.90600 39.18200
H  8.33400 50.90100 37.31100
H  7.13000 51.86700 38.26800
H  11.16500 56.26800 39.37800
H  11.75100 57.07700 40.74500
H  11.38500 57.95300 39.25500
H  7.05100 60.59800 39.60000
H  8.33900 61.78400 39.80400
H  7.58000 61.08900 41.28100
H  3.39200 59.19100 40.90200
H  2.24100 58.01300 43.25700
H  3.77200 59.29300 43.97400
H  3.44300 60.73100 42.77400
H  5.02900 59.95800 43.08500
H  0.78500 56.80300 41.38400
H  1.75400 57.79500 40.16100
H  0.52000 59.28600 42.17800
H  -0.66800 58.20800 41.60300
H  0.11900 59.39500 40.46400
H  0.46100 53.00800 43.26900
H  1.38800 52.05300 44.32400
H  0.75000 51.28700 42.85700
H  6.02900 49.49000 42.41500
H  5.85200 47.11400 39.14900
H  4.22400 46.80800 39.49100
H  5.48500 45.85000 40.27000

