158

Mg 17.07000 -2.93500 28.25500
C  16.17700 -0.82400 30.92500
C  18.71300 -5.02900 30.41200
C  18.31200 -4.51000 25.55800
C  15.94000 -0.27300 26.04700
N  17.32000 -2.93400 30.44800
C  16.91200 -1.97100 31.35900
C  17.36200 -2.31800 32.79800
C  18.27100 -3.64800 32.55700
C  18.03200 -3.95100 31.05700
C  19.81000 -3.42900 32.97000
C  16.07900 -2.63200 33.62400
C  16.05900 -1.84100 34.96600
H  17.40800 -1.45000 35.59200
N  18.29000 -4.56100 28.03000
C  18.87200 -5.34200 29.04100
C  19.63700 -6.41600 28.49300
C  19.42500 -6.36000 27.09400
C  18.68300 -5.09500 26.79800
C  20.30600 -7.48900 29.36500
C  19.91100 -7.30700 26.02200
O  19.74600 -7.09900 24.84100
C  20.68000 -8.59100 26.46200
N  17.00000 -2.50800 26.07900
C  17.65400 -3.33700 25.21900
C  17.69200 -2.75900 23.77800
C  16.67800 -1.53400 23.88500
C  16.54300 -1.41200 25.45200
C  19.08600 -2.38000 23.30800
C  15.44200 -1.85300 22.98700
C  15.39500 -1.16200 21.65100
N  16.16300 -0.97200 28.41000
C  15.69200 -0.10700 27.41900
C  15.00800 0.97900 28.10200
C  15.21300 0.73200 29.47100
C  15.91900 -0.41100 29.60100
C  14.15500 2.01300 27.41100
C  14.98700 1.28400 30.79500
O  14.54300 2.35700 31.14400
C  15.63700 0.26600 31.80800
C  16.58100 0.95600 32.67600
O  17.72000 1.38100 32.30600
O  15.98000 1.35900 33.84900
C  16.60800 2.43800 34.58800
H  19.28500 -5.59300 31.15100
H  18.66200 -4.90800 24.60400
H  15.71800 0.61100 25.44500
H  17.87600 -1.42400 33.15200
H  17.97400 -4.45700 33.22500
H  19.98300 -4.36500 33.50100
H  19.98400 -2.52400 33.55200
H  20.28800 -3.42200 31.99000
H  15.96900 -3.70100 33.80600
H  15.19000 -2.28100 33.10000
H  15.45700 -2.38700 35.69300
H  15.43300 -0.94900 34.95200
H  19.59800 -8.31800 29.36700
H  20.46800 -7.26600 30.42000
H  21.27700 -7.79500 28.97500
H  20.87300 -9.10600 25.52100
H  20.12700 -9.15400 27.21400
H  21.66900 -8.30900 26.82300
H  17.39100 -3.67100 23.26100
H  17.17300 -0.61500 23.57400
H  18.98600 -1.39600 22.85000
H  19.48300 -3.11700 22.60900
H  19.87200 -2.33400 24.06200
H  14.58300 -1.56100 23.59100
H  15.33300 -2.92800 22.84400
H  14.43800 -0.63900 21.64400
H  15.52400 -1.99700 20.96200
H  16.23000 -0.46200 21.65800
H  14.43100 2.93800 27.91600
H  13.10000 1.77500 27.54800
H  14.50600 2.22100 26.40000
H  14.79400 -0.09900 32.39500
H  16.94000 3.18800 33.87000
H  17.33500 2.14500 35.34600
H  15.86200 3.01900 35.12900
Mg 42.33600 41.61000 26.10700
C  41.40700 43.96300 28.61500
C  43.16300 39.44900 28.70500
C  43.26900 39.53700 23.74600
C  41.58100 44.06300 23.71400
N  42.45000 41.81500 28.46300
C  41.74000 42.72000 29.18400
C  41.58400 42.27200 30.68500
C  42.23300 40.83100 30.73300
C  42.58300 40.62600 29.20300
C  43.48500 40.57600 31.55200
C  40.10300 42.40900 31.10400
C  39.73200 43.33200 32.26800
H  39.40500 42.78100 33.66500
N  43.26100 39.83800 26.24600
C  43.43700 39.07000 27.34400
C  43.94900 37.81200 26.95800
C  43.94900 37.75900 25.56700
C  43.48200 39.12200 25.11400
C  44.23700 36.80100 27.92900
C  44.28300 36.60400 24.51800
O  44.22700 36.78400 23.31000
C  44.68400 35.28000 24.94100
N  42.56800 41.85500 23.98900
C  42.93800 40.83400 23.23600
C  42.85500 41.15600 21.73200
C  41.92600 42.46400 21.69600
C  41.98300 42.83000 23.20600
C  44.20300 41.34400 20.99600
C  40.55600 42.27300 21.11700
C  39.51700 41.70100 22.13900
N  41.64400 43.60300 26.13500
C  41.48300 44.49300 25.03700
C  41.14900 45.79300 25.53400
C  40.97100 45.59700 26.93700
C  41.31200 44.22400 27.22900
C  40.87100 47.02400 24.77200
C  40.57400 46.36700 28.21400
O  40.29700 47.51400 28.50400
C  40.91100 45.26400 29.29800
C  41.84800 45.82700 30.29400
O  42.98600 45.54300 30.43200
O  41.16300 46.57800 31.25400
C  41.84000 46.95300 32.52900
H  43.32400 38.72100 29.50300
H  43.38400 38.78900 22.95800
H  41.14800 44.78500 23.01900
H  42.12500 42.95200 31.34300
H  41.47400 40.07100 30.92200
H  44.29100 40.67300 30.82400
H  43.39300 39.55900 31.93400
H  43.52800 41.35600 32.31100
H  39.77900 41.40700 31.38300
H  39.41400 42.69700 30.31000
H  38.81600 43.85400 31.99100
H  40.56000 44.03700 32.33600
H  43.69100 35.90100 27.64300
H  44.07900 36.92900 29.00000
H  45.27800 36.50700 27.79700
H  43.80200 34.66600 25.12400
H  45.31100 35.44000 25.81800
H  45.20600 34.74200 24.15000
H  42.34400 40.34500 21.21400
H  42.32000 43.31800 21.14300
H  44.01300 41.93100 20.09800
H  44.67400 40.40800 20.69600
H  44.91800 41.78200 21.69300
H  40.48700 41.57800 20.28100
H  40.31200 43.29300 20.81900
H  38.68600 41.10300 21.76400
H  38.99400 42.55000 22.57900
H  40.01300 41.22700 22.98500
H  40.06300 46.85900 24.05900
H  41.75900 47.38100 24.25000
H  40.74200 47.87300 25.44200
H  40.03100 45.08400 29.91500
H  41.26100 46.57300 33.37100
H  41.83300 48.03400 32.66800
H  42.86700 46.60600 32.63700

