158

Mg 25.27700 -7.74700 47.93400
C  28.00300 -5.77900 46.79700
C  23.41700 -6.83400 45.42600
C  23.17000 -10.37200 48.73000
C  27.65900 -9.26500 50.24500
N  25.85800 -6.63400 46.15900
C  26.89200 -5.73100 45.98400
C  26.58900 -4.72500 44.82800
C  25.06200 -5.00500 44.49200
C  24.74800 -6.21200 45.45200
C  24.00100 -3.84800 44.43500
C  27.55800 -4.96300 43.62400
C  28.12100 -3.62500 43.01600
H  28.07400 -3.57400 41.47200
N  23.41300 -8.45700 47.22000
C  22.84800 -7.87400 46.18400
C  21.59900 -8.55300 45.93500
C  21.56900 -9.73000 46.74500
C  22.73400 -9.58200 47.62900
C  20.64000 -8.14900 44.75900
C  20.54600 -10.80600 46.66400
O  19.70600 -10.81100 45.75000
C  20.42200 -11.97100 47.62700
N  25.45600 -9.67000 49.25600
C  24.40400 -10.40600 49.47700
C  24.48300 -11.23300 50.76000
C  25.95000 -10.87200 51.23300
C  26.43300 -9.87600 50.18100
C  23.36100 -11.03500 51.85000
C  26.94900 -12.14800 51.50700
C  27.94600 -12.19900 52.64100
N  27.36900 -7.48300 48.58100
C  28.22100 -8.15400 49.48500
C  29.52500 -7.53700 49.48000
C  29.44900 -6.55400 48.46200
C  28.18300 -6.65400 47.88800
C  30.70400 -7.96300 50.22500
C  30.21200 -5.40700 47.82800
O  31.31000 -4.91600 48.12500
C  29.25900 -4.92900 46.68100
C  28.97900 -3.47000 46.82500
O  28.20500 -2.99000 47.59400
O  29.73400 -2.77000 45.86700
C  29.48800 -1.34500 45.84900
H  22.73000 -6.31600 44.75500
H  22.47500 -11.13800 49.08000
H  28.36800 -9.63100 50.99100
H  26.66600 -3.65900 45.04100
H  25.02000 -5.36900 43.46500
H  23.30400 -4.07600 45.24100
H  23.43000 -3.80000 43.50700
H  24.51900 -2.91200 44.64300
H  27.01700 -5.51100 42.85200
H  28.33200 -5.68200 43.89200
H  29.11200 -3.42200 43.42400
H  27.46800 -2.83100 43.37700
H  20.86100 -7.12400 44.46200
H  19.63400 -7.97300 45.13900
H  20.59200 -8.90400 43.97400
H  21.41000 -12.34300 47.90000
H  19.86000 -12.74200 47.10100
H  19.94900 -11.65700 48.55700
H  24.44200 -12.31500 50.63100
H  25.98900 -10.20100 52.09000
H  23.75200 -10.42200 52.66200
H  23.03700 -12.02400 52.17400
H  22.56900 -10.44100 51.39500
H  27.41500 -12.40900 50.55700
H  26.33300 -12.98800 51.82700
H  27.75600 -13.09000 53.23800
H  27.80700 -11.27300 53.20000
H  28.94000 -12.12900 52.20000
H  31.46700 -7.19500 50.09700
H  31.16600 -8.85500 49.80300
H  30.52300 -8.25900 51.25900
H  29.71600 -4.91900 45.69100
H  29.62100 -0.90700 46.83800
H  28.45300 -1.12300 45.58600
H  30.21200 -0.90400 45.16400
Mg 40.74700 8.27300 29.02600
C  41.95900 9.77500 31.94300
C  38.55500 6.46200 31.09800
C  39.46900 6.64600 26.33100
C  43.26900 9.70300 27.18400
N  40.23700 8.28200 31.22300
C  40.84200 9.03800 32.17300
C  40.22200 8.76000 33.57800
C  39.27400 7.50300 33.31200
C  39.37700 7.34900 31.74500
C  39.60800 6.18000 33.90000
C  39.66400 10.07600 34.26700
C  39.76100 10.23400 35.82900
H  40.45200 11.38400 36.48500
N  39.17000 6.82100 28.73600
C  38.46100 6.22700 29.70900
C  37.47300 5.30800 29.12100
C  37.58800 5.47200 27.74200
C  38.74900 6.33400 27.50100
C  36.57800 4.31700 29.84900
C  36.75000 5.11800 26.58400
O  37.08500 5.31000 25.40400
C  35.44300 4.56500 26.84200
N  41.22500 8.10800 27.07700
C  40.62900 7.31900 26.11300
C  41.32600 7.50500 24.77600
C  42.33800 8.63600 25.07200
C  42.30300 8.82300 26.56700
C  42.09300 6.25500 24.20100
C  42.14900 9.97000 24.31100
C  41.17900 10.98100 24.91600
N  42.42300 9.33800 29.43500
C  43.33400 9.98000 28.56300
C  44.31000 10.74500 29.36700
C  43.84000 10.69200 30.70600
C  42.68700 9.85700 30.66200
C  45.43600 11.49900 28.76200
C  44.09200 11.06400 32.07700
O  44.97400 11.73600 32.61100
C  42.91800 10.45500 32.87900
C  43.35500 9.52100 33.94000
O  43.88600 8.41600 33.71600
O  43.10000 9.94700 35.20200
C  43.58800 8.96900 36.20800
H  37.90000 5.86300 31.73500
H  39.14800 6.08000 25.45400
H  44.07700 10.06700 26.54500
H  41.06400 8.40700 34.17300
H  38.25600 7.72200 33.63200
H  38.70700 5.87900 34.43500
H  40.41400 6.37500 34.60800
H  40.03800 5.45100 33.21400
H  38.59300 10.12300 34.06900
H  40.14100 10.96800 33.86100
H  40.24900 9.30400 36.11900
H  38.76000 10.14800 36.25200
H  36.74100 4.03900 30.89000
H  36.61700 3.37500 29.30200
H  35.54900 4.66400 29.75200
H  35.57900 3.60900 27.34900
H  34.74700 4.35200 26.03000
H  34.87100 5.17900 27.53700
H  40.59300 7.78500 24.01900
H  43.31400 8.21600 24.83000
H  41.74100 5.36400 24.72000
H  43.17400 6.30900 24.06700
H  41.68800 6.16600 23.19200
H  41.77000 9.78400 23.30600
H  43.17700 10.32800 24.25900
H  41.66900 11.77600 25.47800
H  40.57000 10.62800 25.74800
H  40.55200 11.40500 24.13200
H  45.63000 12.46900 29.22000
H  45.29000 11.81100 27.72800
H  46.31300 10.85700 28.84400
H  42.38100 11.27000 33.36500
H  44.65900 8.85300 36.04000
H  43.13000 8.00100 36.00300
H  43.26900 9.40900 37.15200

