158

Mg 36.62800 49.44200 25.12300
C  36.39200 47.63400 28.11600
C  35.15200 52.15900 26.75100
C  36.15500 51.05300 22.21000
C  37.77000 46.69100 23.55900
N  35.80700 49.77900 27.23500
C  35.92100 48.94300 28.29000
C  35.53400 49.62700 29.60200
C  35.12000 51.05000 29.15900
C  35.34000 51.00100 27.57200
C  33.59100 51.43700 29.55200
C  36.76800 49.72300 30.61400
C  36.51900 49.21000 32.05100
H  35.03600 49.15700 32.47800
N  35.79500 51.33500 24.64000
C  35.38100 52.31400 25.41900
C  35.30900 53.61900 24.70700
C  35.41700 53.26900 23.32200
C  35.76800 51.82300 23.35100
C  34.97100 54.92700 25.33700
C  35.30000 54.12200 22.05600
O  35.48900 53.71700 20.93400
C  35.08100 55.69200 22.17700
N  36.83700 48.92300 23.19900
C  36.63300 49.75700 22.14900
C  37.02300 49.09700 20.83400
C  37.82700 47.83000 21.33100
C  37.54700 47.82000 22.79200
C  35.82600 48.81900 19.84000
C  39.34800 47.78800 20.87200
C  40.25700 48.66600 21.68700
N  37.12400 47.61800 25.72700
C  37.64900 46.61100 24.95800
C  37.94400 45.41700 25.85100
C  37.48500 45.83300 27.06000
C  36.98100 47.13900 26.92500
C  38.61600 44.08500 25.54500
C  37.33100 45.31400 28.42300
O  37.70900 44.30200 29.00000
C  36.62000 46.50500 29.17500
C  35.33900 46.06100 29.81600
O  34.24900 46.09200 29.28500
O  35.59000 45.58400 31.06100
C  34.58100 44.66200 31.50500
H  34.74000 53.06700 27.19700
H  36.13700 51.49100 21.21000
H  38.24800 45.86900 23.02200
H  34.75300 48.93300 29.91300
H  35.74600 51.80300 29.63700
H  33.05900 50.64300 30.07400
H  32.93500 51.70100 28.72200
H  33.65200 52.18400 30.34300
H  37.12600 50.73900 30.77800
H  37.57200 49.17300 30.12500
H  37.00800 49.82200 32.80900
H  36.84500 48.17300 32.12200
H  34.00800 55.19800 24.90500
H  35.82700 55.55500 25.09000
H  34.95800 54.93200 26.42700
H  34.08400 55.78100 22.60700
H  35.01000 56.11900 21.17700
H  35.74100 56.26400 22.82800
H  37.72500 49.84200 20.45900
H  37.37900 46.91000 20.95600
H  34.87500 49.30400 20.06100
H  35.57100 47.76100 19.88400
H  36.17900 49.04700 18.83500
H  39.32800 48.07700 19.82100
H  39.70000 46.75700 20.92300
H  40.76100 49.33200 20.98700
H  41.11100 48.09600 22.05300
H  39.79500 49.26500 22.47200
H  37.99100 43.39200 24.98100
H  39.01900 43.54200 26.40000
H  39.45600 44.34200 24.89900
H  37.40400 46.73400 29.89700
H  33.91900 44.21500 30.76300
H  34.04700 45.22200 32.27200
H  35.17600 43.95200 32.08100
Mg 1.45200 42.11900 26.30100
C  2.78300 42.34400 29.60500
C  -1.54500 41.14600 27.73800
C  0.23800 41.42800 23.18500
C  4.50200 43.01400 24.97500
N  0.71300 41.92900 28.45800
C  1.47800 42.00100 29.62300
C  0.52000 42.04600 30.87000
C  -0.82200 41.69400 30.26700
C  -0.59900 41.59000 28.69900
C  -1.58400 40.55200 30.91000
C  0.55100 43.41800 31.58100
C  1.22800 43.45900 33.00700
H  0.19400 43.40800 34.11100
N  -0.38700 41.27100 25.53400
C  -1.46000 40.97400 26.33800
C  -2.48400 40.36500 25.53700
C  -1.98600 40.40400 24.20700
C  -0.70500 41.08300 24.23100
C  -3.81800 39.87600 26.11300
C  -2.68000 40.04300 22.90400
O  -2.09800 40.00100 21.80200
C  -4.16200 39.62000 23.00700
N  2.22100 42.30600 24.37700
C  1.55200 41.99000 23.23300
C  2.50700 42.19800 21.96700
C  3.60300 43.04100 22.66300
C  3.42900 42.80200 24.09800
C  3.00400 40.85600 21.35000
C  3.50900 44.46200 22.37800
C  3.60500 44.72800 20.82100
N  3.35200 42.54700 27.11200
C  4.48800 42.90900 26.41200
C  5.52000 43.08400 27.38200
C  4.88500 42.92200 28.64300
C  3.58300 42.50600 28.40800
C  6.95300 43.43000 26.96800
C  5.14800 42.85000 30.07500
O  6.10900 42.88600 30.74500
C  3.70800 42.52400 30.75200
C  3.83500 41.17400 31.49700
O  3.89700 40.07800 30.94500
O  4.01100 41.34700 32.87000
C  4.12400 40.10200 33.59500
H  -2.56600 41.00700 28.10100
H  -0.10900 41.11800 22.19700
H  5.41400 43.44200 24.55200
H  0.95800 41.26500 31.49100
H  -1.37200 42.62800 30.37900
H  -2.06000 40.85900 31.84100
H  -1.12300 39.60800 31.20000
H  -2.32800 40.23700 30.17800
H  -0.45300 43.83900 31.64700
H  1.17000 44.12600 31.02900
H  1.81300 44.37500 33.09100
H  1.88900 42.60100 33.12900
H  -4.09000 40.21900 27.11100
H  -3.95200 38.79500 26.14600
H  -4.59400 40.19000 25.41600
H  -4.50300 39.27800 22.03000
H  -4.61200 40.54200 23.37500
H  -4.12100 38.81700 23.74400
H  1.95600 42.69900 21.17100
H  4.57100 42.74500 22.26000
H  2.52300 40.05400 21.90900
H  4.08700 40.80400 21.46300
H  2.72700 40.90700 20.29700
H  4.30900 45.03100 22.85100
H  2.62200 44.96000 22.76800
H  2.71600 45.21800 20.42500
H  3.76800 43.80000 20.27300
H  4.49000 45.35100 20.68800
H  7.20800 44.49000 26.96900
H  7.03600 42.99200 25.97300
H  7.68700 42.95700 27.62000
H  3.44500 43.28000 31.49300
H  5.06300 39.72200 33.19200
H  3.27700 39.45300 33.37200
H  4.19000 40.23400 34.67500

