158

Mg -1.52400 17.53200 27.01500
C  -2.29400 15.37200 29.60500
C  -2.52600 20.15400 29.11500
C  -1.21900 19.68700 24.41200
C  -1.49500 14.88200 24.75200
N  -2.39800 17.64800 29.07900
C  -2.47800 16.64200 30.02600
C  -2.83400 17.20800 31.38100
C  -3.42900 18.60400 30.99000
C  -2.64500 18.87900 29.73600
C  -4.97600 18.54500 30.72000
C  -1.60200 17.37800 32.31300
C  -1.86700 17.17500 33.75100
H  -0.62300 16.80700 34.56200
N  -1.70200 19.60400 26.84400
C  -2.04200 20.53200 27.84900
C  -1.87600 21.84500 27.33100
C  -1.39300 21.75300 26.00900
C  -1.44100 20.29400 25.69300
C  -2.28900 22.98300 28.17100
C  -1.01400 22.75700 25.04100
O  -0.67100 22.54700 23.90600
C  -1.06400 24.21400 25.48100
N  -1.49200 17.39000 24.91000
C  -1.39600 18.41200 24.03700
C  -1.22600 17.89900 22.52800
C  -1.07600 16.36800 22.72500
C  -1.33600 16.18600 24.23900
C  -2.49300 18.30700 21.64700
C  0.28600 15.71200 22.33400
C  1.53200 16.29600 22.99200
N  -1.83000 15.52800 27.12200
C  -1.76400 14.54600 26.09000
C  -1.89500 13.21000 26.69000
C  -2.04900 13.52300 28.06400
C  -2.03100 14.87600 28.26500
C  -1.84700 11.91700 26.03400
C  -2.21800 12.94700 29.37200
O  -2.26500 11.78900 29.78600
C  -2.42800 14.08600 30.38100
C  -1.50000 13.98000 31.55300
O  -0.32300 14.22400 31.57000
O  -2.20100 13.70200 32.64700
C  -1.49200 13.54200 33.96100
H  -2.90500 20.90000 29.81700
H  -1.08400 20.38100 23.58000
H  -1.50900 14.02900 24.07000
H  -3.53400 16.52900 31.86800
H  -3.21600 19.36400 31.74200
H  -5.20000 18.83000 29.69200
H  -5.40700 19.27300 31.40700
H  -5.29900 17.52200 30.91000
H  -1.25000 18.40900 32.28200
H  -0.82400 16.72500 31.91800
H  -2.50100 16.29000 33.79800
H  -2.40500 18.06700 34.07200
H  -1.44300 23.58300 28.50500
H  -2.70200 22.81200 29.16500
H  -3.06800 23.60500 27.72900
H  -0.25600 24.32900 26.20300
H  -2.08100 24.32900 25.85400
H  -0.86200 24.88400 24.64500
H  -0.36500 18.30700 21.99700
H  -1.79800 15.96100 22.01700
H  -3.28800 18.65900 22.30400
H  -2.68800 17.58100 20.85700
H  -2.30300 19.23300 21.10400
H  0.40400 15.83100 21.25700
H  0.16500 14.64300 22.50700
H  1.28000 16.95200 23.82500
H  2.11800 16.85900 22.26700
H  2.14400 15.44000 23.27700
H  -1.25300 11.36000 26.76000
H  -1.41800 11.83100 25.03600
H  -2.83400 11.45800 26.07700
H  -3.43800 14.08400 30.79000
H  -2.01400 14.02300 34.78800
H  -0.47600 13.93500 33.94800
H  -1.45800 12.47700 34.19400
Mg 15.64900 51.70500 26.05800
C  17.45800 50.62400 28.82400
C  13.06300 52.56900 28.10000
C  13.93000 52.61500 23.30700
C  18.17300 50.41300 23.93900
N  15.32700 51.71300 28.20500
C  16.25000 51.26200 29.15400
C  15.78500 51.66400 30.54800
C  14.22300 51.73300 30.33000
C  14.17200 52.07200 28.77400
C  13.44300 50.38900 30.71000
C  16.42100 52.94000 31.11300
C  16.50000 53.12800 32.64800
H  15.67100 52.15200 33.43200
N  13.73500 52.48200 25.74500
C  12.85200 52.79900 26.75000
C  11.66300 53.39500 26.14800
C  11.88200 53.25600 24.76800
C  13.22300 52.82100 24.51700
C  10.44500 53.91800 26.92100
C  10.92800 53.56200 23.65800
O  11.26800 53.43200 22.49000
C  9.50000 54.02400 24.01700
N  15.91100 51.43000 23.92000
C  15.14200 52.04300 22.99600
C  15.82000 52.06800 21.57100
C  17.00900 51.00500 21.78700
C  17.05700 50.94900 23.30600
C  14.81900 51.72800 20.42100
C  18.29500 51.41300 21.01700
C  18.70800 50.45100 19.87000
N  17.38100 50.62500 26.30600
C  18.35600 50.28700 25.38100
C  19.51600 49.75100 26.03000
C  19.17400 49.86300 27.40900
C  17.91600 50.37500 27.53200
C  20.86100 49.30200 25.45400
C  19.63600 49.56200 28.73900
O  20.68700 49.04800 29.13200
C  18.56100 50.05300 29.73800
C  18.21100 48.92300 30.63900
O  17.60300 47.90300 30.31100
O  18.65400 49.21300 31.94600
C  17.93300 48.49800 33.00800
H  12.25400 52.86200 28.77300
H  13.40500 53.05100 22.45500
H  19.11600 50.20400 23.43000
H  15.94700 50.86700 31.27400
H  13.77200 52.51500 30.94000
H  14.18500 49.60700 30.55200
H  12.51900 50.16100 30.17800
H  13.17100 50.36100 31.76500
H  15.82600 53.79200 30.78300
H  17.39500 53.04000 30.63300
H  16.18500 54.14500 32.87800
H  17.53000 53.06300 32.99800
H  10.08600 54.87900 26.55400
H  10.64900 53.91500 27.99200
H  9.58400 53.27400 26.73700
H  8.92800 53.36400 24.67000
H  8.84800 53.99200 23.14400
H  9.60200 55.08400 24.24900
H  16.18700 53.08900 21.47600
H  16.73800 50.04200 21.35400
H  15.21100 50.87600 19.86600
H  14.59500 52.59800 19.80300
H  13.79800 51.61800 20.78800
H  19.13400 51.80000 21.59500
H  18.05100 52.33100 20.48200
H  18.41900 49.44900 20.18700
H  19.78400 50.44600 19.69900
H  18.19200 50.73500 18.95300
H  20.82100 49.21500 24.36800
H  21.29700 48.36900 25.81100
H  21.54400 50.08600 25.78100
H  19.02000 50.87300 30.29000
H  18.39000 47.54200 33.26400
H  16.87200 48.33900 32.81500
H  17.80400 49.12400 33.89000

