158

Mg 30.64600 58.06200 40.74700
C  27.89600 55.80100 39.89200
C  32.71200 55.59700 39.67700
C  32.92500 60.36200 40.84700
C  28.05400 60.43100 41.38900
N  30.34900 55.96100 39.80600
C  29.15800 55.26300 39.56000
C  29.50300 54.07900 38.66900
C  30.97500 53.88200 38.95700
C  31.37900 55.22600 39.51600
C  31.43400 52.65100 39.86000
C  29.11200 54.32600 37.17700
C  28.13500 53.33100 36.56100
H  27.01800 53.81600 35.61900
N  32.67500 57.92500 40.43500
C  33.35900 56.80000 40.08600
C  34.75500 57.11000 40.10900
C  34.89400 58.52300 40.32100
C  33.47000 59.05400 40.46900
C  35.88100 56.14200 39.68600
C  36.13000 59.36800 40.27300
O  37.24000 58.90800 40.17800
C  35.97400 60.85700 40.39600
N  30.48000 60.16300 41.01000
C  31.64100 60.84000 41.09600
C  31.27400 62.37800 41.42900
C  29.72600 62.30300 41.73200
C  29.37800 60.87600 41.32300
C  32.09600 63.07000 42.55600
C  28.90800 63.46500 40.99700
C  27.73300 64.05100 41.78100
N  28.43600 58.18900 40.61400
C  27.59800 59.16300 40.94200
C  26.22500 58.72100 40.85500
C  26.28700 57.39700 40.44600
C  27.63600 57.08300 40.36600
C  25.03800 59.64500 41.06100
C  25.53700 56.20100 40.11800
O  24.31900 55.94300 40.14900
C  26.54300 55.11400 39.61700
C  26.34400 53.91400 40.40400
O  26.39300 53.74800 41.62200
O  26.23100 52.82100 39.56700
C  25.67100 51.61600 40.27400
H  33.41500 54.88800 39.23500
H  33.62900 61.18800 40.96600
H  27.31800 61.22600 41.52700
H  28.94900 53.24400 39.09900
H  31.50400 53.83100 38.00500
H  30.61100 52.07100 40.27800
H  32.00000 53.02800 40.71200
H  32.02300 51.94600 39.27400
H  30.03100 54.25500 36.59300
H  28.73400 55.34700 37.13300
H  27.66300 52.81000 37.39500
H  28.64000 52.46700 36.13000
H  36.66400 56.67300 39.14400
H  35.52800 55.35300 39.02200
H  36.28800 55.65100 40.56900
H  35.51100 61.12800 41.34500
H  35.45800 61.16400 39.48600
H  36.94400 61.32700 40.23200
H  31.33000 62.91800 40.48400
H  29.44600 62.43400 42.77700
H  32.65900 63.91200 42.15200
H  32.86500 62.41500 42.96500
H  31.41500 63.50100 43.29000
H  28.56500 63.13400 40.01600
H  29.52900 64.32600 40.74600
H  28.09600 65.00800 42.15700
H  27.39300 63.48600 42.64900
H  26.91100 64.17300 41.07600
H  25.25900 60.71200 41.09500
H  24.69100 59.50900 42.08500
H  24.22000 59.55400 40.34700
H  26.45600 54.78800 38.58000
H  26.59500 51.09300 40.52300
H  25.06400 51.04700 39.57000
H  25.11600 51.78500 41.19700
Mg 26.94000 49.89000 26.69300
C  24.63900 51.26400 29.03100
C  29.01500 48.96800 29.31500
C  29.23400 48.91400 24.48600
C  25.10300 51.56700 24.14100
N  26.78900 50.08400 28.83700
C  25.73900 50.60700 29.59600
C  25.97800 50.32000 31.12500
C  27.51600 49.88100 31.12900
C  27.78700 49.63200 29.65500
C  28.47600 50.96100 31.80300
C  24.93100 49.26500 31.60600
C  24.52300 49.22300 33.08300
H  25.28700 49.97000 34.23500
N  28.88000 49.07500 26.86800
C  29.55600 48.76900 28.03600
C  30.81500 48.11800 27.60400
C  30.96500 48.27800 26.19100
C  29.65000 48.78900 25.76500
C  31.79300 47.41400 28.58800
C  32.13800 48.01000 25.17600
O  32.14400 48.29100 24.01200
C  33.37100 47.27800 25.82500
N  27.13800 50.20800 24.69200
C  28.02400 49.43000 23.96500
C  27.61100 49.32200 22.43800
C  26.48700 50.47500 22.40200
C  26.19500 50.73300 23.84000
C  28.63200 49.55200 21.36100
C  25.24200 50.02300 21.53900
C  24.60900 51.10900 20.68700
N  25.21100 51.20000 26.53700
C  24.61500 51.70000 25.48000
C  23.51000 52.54600 25.91500
C  23.46400 52.39000 27.32500
C  24.50100 51.53500 27.64700
C  22.67500 53.46700 25.08700
C  22.80900 52.74100 28.59500
O  21.80700 53.38400 28.73200
C  23.45300 51.87900 29.69800
C  23.86400 52.85100 30.77800
O  24.71000 53.73600 30.71900
O  23.14700 52.52000 31.95400
C  23.53500 53.41900 33.14100
H  29.57100 48.52500 30.14400
H  29.89900 48.42100 23.77300
H  24.73200 52.22500 23.35300
H  25.82900 51.26500 31.64700
H  27.76000 48.91100 31.56300
H  27.93800 51.87100 32.06700
H  29.24500 51.15200 31.05400
H  28.87700 50.50300 32.70700
H  25.24600 48.24600 31.38200
H  24.01000 49.35600 31.03000
H  24.65000 48.17000 33.33400
H  23.46500 49.48300 33.10600
H  31.61500 46.34600 28.46400
H  31.51000 47.47600 29.63900
H  32.81400 47.78200 28.48400
H  33.72900 47.97000 26.58700
H  34.17100 47.23000 25.08600
H  33.10300 46.33800 26.30600
H  27.12100 48.38800 22.16700
H  26.87000 51.41400 22.00300
H  29.54200 49.81200 21.90200
H  28.43000 50.31200 20.60700
H  28.78000 48.57700 20.89600
H  24.52900 49.50800 22.18400
H  25.54800 49.24700 20.83800
H  23.57200 51.20600 21.00800
H  24.64000 50.89400 19.61900
H  25.12300 52.05000 20.88400
H  22.04300 52.89300 24.40900
H  23.32400 54.16900 24.56300
H  22.05800 54.08400 25.74000
H  22.80400 51.15100 30.18500
H  23.28500 54.42200 32.79700
H  24.50100 53.16400 33.57800
H  22.77000 53.45100 33.91700

