158

Mg 44.77600 3.04500 47.17800
C  42.36400 5.53100 46.75200
C  42.10900 0.78600 47.09900
C  46.97300 0.59700 47.01000
C  47.28300 5.45300 46.68900
N  42.54000 3.16500 47.09500
C  41.81200 4.26900 46.94700
C  40.36000 3.89700 46.69700
C  40.28300 2.50400 47.41600
C  41.72000 2.11500 47.19500
C  39.79900 2.42700 48.94700
C  40.12000 3.96000 45.18300
C  38.68800 4.34700 44.78600
H  38.56300 5.47000 43.81000
N  44.55600 0.96200 47.07700
C  43.42700 0.21400 47.01900
C  43.73300 -1.18800 46.96600
C  45.17700 -1.27700 46.95200
C  45.66400 0.13000 46.99200
C  42.78700 -2.26500 46.80400
C  45.96000 -2.57800 46.92200
O  45.29900 -3.57400 47.04000
C  47.43200 -2.77900 46.63600
N  46.85800 3.00000 46.70300
C  47.59900 1.82300 46.95200
C  49.12500 2.21600 47.14900
C  49.10300 3.75900 47.14500
C  47.63600 4.14400 46.84100
C  49.84900 1.63800 48.43200
C  50.13400 4.30100 46.14300
C  51.27000 5.09300 46.89300
N  44.86600 5.06200 46.87300
C  45.94100 5.93100 46.61400
C  45.39200 7.29200 46.39100
C  44.02100 7.08900 46.52300
C  43.74900 5.75400 46.72300
C  46.15400 8.58000 46.13900
C  42.80200 7.86300 46.50400
O  42.61400 9.08500 46.41900
C  41.67500 6.85200 46.68900
C  40.96500 7.23300 47.94100
O  41.38800 7.31400 49.08300
O  39.65800 7.43600 47.59500
C  38.63400 7.70100 48.61300
H  41.25300 0.11500 47.19400
H  47.70200 -0.16200 47.30100
H  47.98900 6.26300 46.88400
H  39.82200 4.72600 47.15600
H  39.69500 1.82500 46.79800
H  40.60000 2.05900 49.58800
H  38.96100 1.73100 48.97600
H  39.48300 3.43900 49.19900
H  40.46400 3.00100 44.79700
H  40.74100 4.75500 44.77000
H  38.01800 4.41700 45.64300
H  38.35900 3.48700 44.20200
H  42.85200 -2.67100 45.79400
H  41.78000 -1.92000 47.04100
H  43.00500 -3.12100 47.44300
H  48.11700 -2.42200 47.40500
H  47.77200 -2.25200 45.74500
H  47.55400 -3.81600 46.32300
H  49.56000 1.79400 46.24300
H  49.23100 4.16700 48.14800
H  50.68000 1.06400 48.02100
H  49.18300 0.98300 48.99500
H  50.27400 2.37700 49.11100
H  49.77000 4.92100 45.32400
H  50.65600 3.51200 45.60200
H  52.03500 5.19900 46.12300
H  51.75600 4.63700 47.75600
H  50.91900 6.10900 47.07000
H  45.51700 9.37000 45.74100
H  47.03200 8.37900 45.52600
H  46.43600 9.04800 47.08200
H  41.00200 6.78600 45.83400
H  38.67400 7.01200 49.45600
H  37.62900 7.60000 48.20200
H  38.77600 8.68300 49.06500
Mg 46.49200 34.64700 28.19100
C  44.87700 32.67900 30.58900
C  46.52200 37.30600 30.37500
C  47.22500 36.72600 25.57900
C  45.39000 32.20900 25.71100
N  46.01200 34.76900 30.29800
C  45.44900 33.82600 31.10000
C  45.40400 34.32800 32.50500
C  45.45500 35.90600 32.30700
C  46.01700 36.05500 30.87800
C  44.19800 36.74800 32.62300
C  46.63900 33.84200 33.25700
C  46.52700 33.81100 34.80000
H  45.60400 34.77200 35.52600
N  47.05900 36.64900 28.10400
C  47.04900 37.56200 29.14400
C  47.71100 38.76300 28.64200
C  47.84200 38.64700 27.23200
C  47.33800 37.30100 26.90700
C  47.98800 39.90800 29.61700
C  48.40900 39.66200 26.30600
O  48.60200 39.45500 25.10400
C  48.82500 41.09500 26.84500
N  46.26200 34.52700 25.90500
C  46.86400 35.42200 25.16100
C  46.85100 34.97900 23.64400
C  46.48200 33.44800 23.81600
C  46.01700 33.36500 25.23100
C  45.80200 35.82800 22.83300
C  47.70700 32.53400 23.54200
C  47.44500 31.21400 22.80400
N  45.47100 32.76400 28.10100
C  45.15800 31.89300 27.05100
C  44.60800 30.69200 27.67700
C  44.53900 30.98600 29.03900
C  44.96300 32.27200 29.21900
C  44.29200 29.45700 26.84600
C  44.11800 30.42200 30.30800
O  43.82300 29.31300 30.58800
C  43.92400 31.62600 31.26800
C  44.18600 31.22300 32.73000
O  44.98700 30.36400 33.09200
O  43.23700 31.78700 33.48000
C  43.03700 31.48100 34.86600
H  46.27200 38.12500 31.05300
H  47.50300 37.46600 24.82500
H  45.25100 31.42500 24.96400
H  44.50400 33.93300 32.97500
H  46.11400 36.20800 33.12000
H  44.26700 37.42100 33.47800
H  43.46900 35.96500 32.83400
H  43.86300 37.49700 31.90700
H  47.55500 34.29200 32.87700
H  46.77600 32.79300 32.99200
H  47.52600 33.99100 35.19500
H  46.30700 32.79200 35.12000
H  47.89600 39.53500 30.63700
H  47.39700 40.79000 29.36800
H  49.04100 40.14400 29.45900
H  49.07100 41.64700 25.93900
H  49.71100 41.01200 27.47500
H  47.99400 41.56400 27.37400
H  47.79500 35.10900 23.11500
H  45.72100 33.06800 23.13500
H  44.86400 35.35900 22.53600
H  46.32700 36.39300 22.06300
H  45.53700 36.60600 23.55000
H  48.20300 32.31200 24.48700
H  48.45200 33.10300 22.98600
H  46.47900 31.27200 22.30200
H  47.53300 30.33700 23.44500
H  48.19400 31.22600 22.01300
H  45.17700 29.19800 26.26500
H  43.48200 29.59100 26.12900
H  44.07200 28.62400 27.51300
H  42.93500 32.08400 31.28100
H  41.98400 31.32400 35.10000
H  43.50900 32.24900 35.47900
H  43.66500 30.59900 34.99100

