158

Mg 0.94900 8.01900 26.58200
C  1.75200 9.94100 29.34200
C  0.87700 5.20600 28.54600
C  0.94500 6.07900 23.73700
C  1.43700 10.89800 24.61900
N  1.36200 7.59000 28.67800
C  1.55200 8.60800 29.59600
C  1.30800 8.05800 31.01000
C  1.27200 6.47400 30.70400
C  1.24000 6.42500 29.21800
C  2.56900 5.65900 31.12600
C  0.03900 8.67900 31.53400
C  -0.18100 8.67100 33.08600
H  0.95100 8.44700 34.13300
N  0.88500 5.96400 26.19000
C  0.83500 4.96500 27.16100
C  0.79900 3.62900 26.61700
C  0.71100 3.84200 25.19100
C  0.85500 5.30900 24.97500
C  0.82000 2.34000 27.36100
C  0.43000 2.90800 24.04200
O  0.45100 3.28500 22.88400
C  0.09800 1.42100 24.35900
N  0.94800 8.42800 24.48800
C  1.07100 7.48300 23.50800
C  1.29500 8.15100 22.11200
C  0.98200 9.65000 22.49400
C  1.17000 9.70000 24.00000
C  2.73700 7.92500 21.49900
C  -0.51100 10.13300 22.19400
C  -0.75100 11.16900 21.09800
N  1.42700 10.01800 26.85500
C  1.68200 11.07000 25.97500
C  2.07100 12.28400 26.68000
C  2.10500 11.88600 28.04700
C  1.77300 10.46400 28.06900
C  2.36100 13.62900 26.05100
C  2.37100 12.38200 29.40900
O  2.74500 13.48400 29.69100
C  2.08000 11.10000 30.35700
C  3.19000 11.03300 31.38400
O  4.21700 10.35600 31.17600
O  2.89000 11.77400 32.48500
C  3.84400 11.61600 33.54200
H  0.70000 4.34900 29.19900
H  1.00000 5.50600 22.80900
H  1.59200 11.81300 24.04300
H  2.23900 8.18200 31.56300
H  0.41600 5.94900 31.12900
H  2.29700 4.61400 31.27700
H  3.16200 6.11200 31.92100
H  3.18600 5.58200 30.23100
H  -0.67900 7.90900 31.25100
H  -0.14200 9.59500 30.97200
H  -0.99100 7.96900 33.28100
H  -0.72200 9.57700 33.35900
H  -0.05600 2.04600 27.93900
H  1.66700 2.42900 28.04200
H  0.95000 1.46900 26.71800
H  -0.49400 1.35500 25.27200
H  0.97600 0.79200 24.50100
H  -0.52100 1.23600 23.48100
H  0.63700 7.72000 21.35800
H  1.55400 10.28400 21.81700
H  3.30400 8.85400 21.42600
H  2.48300 7.55800 20.50500
H  3.25700 7.10200 21.98800
H  -0.85600 10.54800 23.14100
H  -1.04600 9.20200 22.00400
H  -1.26300 12.01900 21.54700
H  -1.36900 10.72300 20.31800
H  0.17100 11.44400 20.58600
H  3.33300 13.52400 25.56800
H  2.46200 14.40800 26.80700
H  1.53300 13.65700 25.34400
H  1.22800 11.37600 30.97900
H  4.67400 12.23100 33.19500
H  4.07900 10.58300 33.79900
H  3.49000 12.09300 34.45600
Mg 25.13600 1.36700 29.38200
C  27.24200 1.22300 32.12500
C  22.44300 1.64900 31.61100
C  23.08500 0.69100 26.78800
C  27.95000 0.63500 27.30400
N  24.86900 1.58400 31.63000
C  25.92500 1.52500 32.51700
C  25.39000 1.69000 33.93000
C  23.87000 1.69400 33.83000
C  23.69600 1.60400 32.26700
C  23.14500 0.47200 34.55700
C  26.00600 2.87100 34.67900
C  26.59800 2.54300 36.11300
H  26.06400 3.51000 37.23000
N  23.08700 1.31100 29.23400
C  22.14000 1.42300 30.29600
C  20.81300 1.36600 29.66300
C  20.94600 1.08100 28.22500
C  22.42600 0.98100 28.01500
C  19.58900 1.63700 30.46400
C  19.85700 1.04600 27.11000
O  20.12400 0.75600 25.95100
C  18.43000 1.23700 27.38400
N  25.48700 0.67800 27.36100
C  24.43300 0.52200 26.52400
C  24.87400 0.39800 25.04800
C  26.45100 0.42200 25.18400
C  26.66900 0.66800 26.68800
C  24.39700 -0.98200 24.40300
C  27.12300 1.53700 24.37100
C  26.84800 3.05700 24.77700
N  27.15800 1.10100 29.61300
C  28.18000 0.81300 28.73400
C  29.42100 0.65500 29.38800
C  29.11400 0.80600 30.74200
C  27.73100 1.13300 30.84900
C  30.73200 0.20600 28.83700
C  29.68700 0.84300 32.08000
O  30.86400 0.78400 32.45200
C  28.41200 0.91200 33.00000
C  28.21900 -0.23700 33.85200
O  27.53600 -1.21100 33.62300
O  28.90800 0.00900 35.04800
C  28.81000 -1.02600 36.08500
H  21.63000 1.84700 32.31300
H  22.49900 0.46100 25.89500
H  28.80000 0.28600 26.71400
H  25.74400 0.79700 34.44400
H  23.49800 2.63400 34.23700
H  22.64500 0.85100 35.44800
H  23.88100 -0.23700 34.93600
H  22.43100 -0.03900 33.91100
H  25.37600 3.76100 34.68600
H  26.87500 3.11300 34.06700
H  27.65800 2.74200 35.96000
H  26.45700 1.47400 36.27500
H  19.69500 1.51100 31.54100
H  18.74900 0.97500 30.25300
H  19.24200 2.64800 30.24800
H  18.31300 2.23700 27.80000
H  18.26900 0.49800 28.16900
H  17.82400 1.00300 26.50800
H  24.45400 1.27700 24.56000
H  26.95400 -0.50600 24.91200
H  23.83800 -0.75600 23.49600
H  23.92200 -1.43700 25.27200
H  25.23400 -1.56400 24.01600
H  26.89500 1.35200 23.32200
H  28.19500 1.42200 24.53400
H  26.68400 3.65000 23.87800
H  27.71100 3.42000 25.33500
H  25.90300 3.18200 25.30600
H  30.57400 -0.22300 27.84700
H  31.14600 -0.53700 29.51800
H  31.38500 1.07200 28.73500
H  28.67700 1.70300 33.70100
H  28.97600 -1.97300 35.57200
H  27.82700 -0.85500 36.52300
H  29.64200 -0.80700 36.75400

