158

Mg 42.34900 40.67300 26.44600
C  41.49900 43.13600 28.69700
C  43.22700 38.63200 29.01400
C  43.16600 38.35000 24.13000
C  41.98500 42.95800 23.70800
N  42.53600 40.99300 28.62400
C  41.81000 41.91100 29.30600
C  41.72300 41.58600 30.79000
C  42.52900 40.20400 30.91000
C  42.86800 39.96100 29.43600
C  43.84700 40.19900 31.77000
C  40.26500 41.55700 31.40300
C  40.08000 42.49200 32.60100
H  39.41300 42.03100 33.87400
N  43.09800 38.73700 26.56900
C  43.43600 38.08500 27.72600
C  43.94100 36.78800 27.42200
C  43.81500 36.62500 25.96000
C  43.32800 37.94700 25.48100
C  44.28400 35.81900 28.56600
C  44.10900 35.44300 25.13800
O  43.91500 35.44000 23.91300
C  44.60500 34.12400 25.76200
N  42.66600 40.66300 24.19400
C  42.86300 39.53200 23.50800
C  42.64900 39.72400 21.94400
C  42.42300 41.28100 21.84300
C  42.28300 41.63800 23.32300
C  43.86000 39.19500 21.20300
C  41.10300 41.59000 20.90800
C  41.30900 42.85800 20.08600
N  41.91700 42.59300 26.26700
C  41.82000 43.40900 25.08600
C  41.39300 44.74400 25.46200
C  41.15100 44.68900 26.86700
C  41.61800 43.38300 27.32000
C  41.16400 45.97700 24.68500
C  40.87400 45.47700 28.08700
O  40.49100 46.61800 28.21000
C  40.90800 44.48000 29.26500
C  41.74800 45.15600 30.38800
O  42.93900 44.98700 30.51200
O  40.92000 45.70200 31.32400
C  41.48100 45.93400 32.61000
H  43.39800 37.94000 29.84100
H  43.23900 37.61300 23.32700
H  41.89400 43.73100 22.94300
H  42.27900 42.30800 31.38900
H  41.81000 39.44300 31.21500
H  44.68200 40.04700 31.08700
H  43.81900 39.40800 32.51900
H  43.93600 41.13400 32.32400
H  39.84800 40.56000 31.54100
H  39.62500 41.93000 30.60400
H  39.48500 43.31700 32.21000
H  41.00100 42.99000 32.90400
H  44.47100 34.78400 28.28000
H  43.43200 35.68700 29.23300
H  45.06800 36.28300 29.16600
H  45.55200 34.28700 26.27600
H  44.70700 33.27900 25.08100
H  43.86000 33.79400 26.48600
H  41.75300 39.23300 21.56200
H  43.31800 41.68900 21.37300
H  44.59200 38.88600 21.94900
H  44.36700 39.87200 20.51500
H  43.60300 38.33600 20.58400
H  40.27000 41.77900 21.58600
H  41.02800 40.70600 20.27500
H  40.48100 43.08500 19.41500
H  42.21700 42.89900 19.48400
H  41.45300 43.70400 20.75800
H  41.32000 46.90700 25.23200
H  40.12000 45.84300 24.40300
H  41.76600 45.90300 23.77900
H  39.89800 44.24000 29.59800
H  42.55000 45.74400 32.69600
H  40.96300 45.33100 33.35600
H  41.41700 46.99200 32.86400
Mg -11.74700 38.50900 41.97300
C  -9.92700 35.79400 40.84000
C  -9.55800 40.64400 40.42300
C  -14.03700 40.96100 42.23600
C  -13.94400 36.17900 43.22200
N  -9.97900 38.24600 40.73200
C  -9.33400 37.06200 40.44600
C  -7.99500 37.28700 39.69400
C  -7.82100 38.83200 39.79900
C  -9.17400 39.28200 40.35000
C  -6.66200 39.24600 40.68100
C  -8.11100 36.72900 38.21100
C  -7.07900 35.70600 37.75200
H  -6.16200 36.22300 36.61600
N  -11.84900 40.55200 41.26300
C  -10.80500 41.24100 40.75900
C  -11.16900 42.57700 40.70500
C  -12.51700 42.71400 41.15100
C  -12.87900 41.40300 41.63200
C  -10.35000 43.67100 40.03700
C  -13.38200 44.04000 41.19100
O  -12.87700 45.08000 40.87700
C  -14.82100 44.12800 41.55100
N  -13.62600 38.60900 42.65300
C  -14.40000 39.68700 42.66600
C  -15.86600 39.36600 42.97500
C  -15.85400 37.87000 43.40400
C  -14.36900 37.48800 43.08700
C  -16.52500 40.37700 44.09200
C  -16.84400 36.98300 42.71000
C  -17.84400 36.20300 43.65800
N  -11.84000 36.41000 42.20400
C  -12.75700 35.61700 42.85700
C  -12.41600 34.24900 42.82400
C  -11.27100 34.18800 42.04900
C  -10.97200 35.58900 41.69600
C  -13.20200 33.11600 43.36900
C  -10.27400 33.42200 41.40900
O  -10.03400 32.24900 41.46400
C  -9.39000 34.39700 40.52900
C  -7.98500 34.13500 40.86300
O  -7.23000 33.50600 40.13800
O  -7.71700 34.72500 42.09100
C  -6.25100 34.77500 42.37900
H  -8.70200 41.28900 40.21800
H  -14.78700 41.74400 42.36200
H  -14.74800 35.55900 43.62200
H  -7.19300 36.76600 40.21500
H  -7.62200 39.30300 38.83600
H  -5.95000 38.48800 41.00700
H  -7.06500 39.74500 41.56200
H  -6.10200 39.97700 40.09900
H  -8.00000 37.58700 37.54700
H  -9.13300 36.40000 38.02600
H  -7.63700 34.83500 37.40900
H  -6.50600 35.32000 38.59500
H  -10.90100 43.95200 39.14000
H  -9.37300 43.33800 39.68600
H  -10.44100 44.53400 40.69700
H  -15.41900 43.45500 40.93700
H  -15.24300 45.10700 41.32200
H  -14.81800 43.91900 42.62100
H  -16.36400 39.47100 42.01100
H  -15.89200 37.80700 44.49100
H  -15.85500 41.09000 44.57200
H  -16.90400 39.96400 45.02600
H  -17.33600 40.92800 43.61500
H  -16.32800 36.20700 42.14300
H  -17.49900 37.56200 42.05900
H  -17.69000 36.34500 44.72800
H  -17.82600 35.14900 43.38400
H  -18.86000 36.56600 43.50500
H  -13.32600 33.25700 44.44300
H  -12.72600 32.19600 43.02900
H  -14.18600 33.22800 42.91200
H  -9.51000 34.12100 39.48100
H  -5.74200 35.47800 41.72000
H  -5.88800 33.75900 42.22600
H  -6.12500 34.98700 43.44100

