158

Mg 23.46100 -5.13200 45.74000
C  25.61300 -2.72200 44.21700
C  20.83600 -3.82700 43.84700
C  21.71500 -7.70900 46.67900
C  26.31400 -6.38800 47.38800
N  23.31800 -3.54700 44.15100
C  24.28600 -2.67400 43.75400
C  23.68300 -1.55400 42.84800
C  22.15200 -1.75000 43.04800
C  22.05700 -3.13800 43.67300
C  21.39800 -0.73700 43.98400
C  24.09000 -1.73500 41.34200
C  24.77900 -0.62500 40.58700
H  25.42000 -0.96300 39.21800
N  21.50800 -5.75500 45.21900
C  20.59400 -5.08100 44.51100
C  19.34300 -5.79800 44.65900
C  19.56100 -6.99600 45.36100
C  20.99300 -6.86000 45.79400
C  18.16700 -5.26700 44.07800
C  18.59900 -8.14100 45.54000
O  17.49000 -8.01300 45.07600
C  18.94400 -9.50100 46.17800
N  24.03600 -6.93500 46.78600
C  23.09000 -7.82500 47.02800
C  23.71200 -8.97100 47.85200
C  25.04500 -8.42300 48.36900
C  25.14400 -7.15500 47.46200
C  22.75900 -9.52600 48.91900
C  26.21600 -9.49600 48.23900
C  27.43600 -9.46300 49.19300
N  25.58900 -4.71800 45.86300
C  26.66000 -5.32200 46.52200
C  27.83700 -4.57100 46.30600
C  27.47900 -3.54100 45.46300
C  26.07200 -3.68700 45.11900
C  29.21800 -4.89800 46.88700
C  28.03100 -2.34800 44.75200
O  29.13500 -1.83200 44.63000
C  26.74500 -1.76100 43.94500
C  26.53000 -0.28400 44.20200
O  25.46400 0.22600 44.67200
O  27.59000 0.41700 43.73600
C  27.57300 1.89200 43.68500
H  19.92700 -3.35200 43.47400
H  21.15400 -8.62400 46.88100
H  27.15300 -6.68100 48.02300
H  24.03500 -0.54100 43.04200
H  21.60200 -1.83200 42.11100
H  22.16100 -0.16100 44.50800
H  20.69800 -1.26600 44.63200
H  20.80400 -0.18300 43.25700
H  23.30100 -2.14000 40.70700
H  24.76200 -2.59000 41.27200
H  25.49000 -0.08800 41.21500
H  23.99300 0.11100 40.41700
H  18.09200 -5.65200 43.06100
H  18.14500 -4.17800 44.03200
H  17.31200 -5.73300 44.56700
H  19.89800 -9.85400 45.78500
H  18.24000 -10.29500 45.92800
H  19.10300 -9.42400 47.25300
H  23.99800 -9.75800 47.15400
H  24.94600 -8.06300 49.39300
H  21.70000 -9.28200 49.00600
H  23.15200 -9.39700 49.92800
H  22.72500 -10.60800 48.79000
H  26.59000 -9.33600 47.22700
H  25.72600 -10.46900 48.23000
H  28.28700 -9.00700 48.68600
H  27.81300 -10.47600 49.33900
H  27.20800 -9.12900 50.20500
H  29.42300 -5.96600 46.96200
H  29.12500 -4.62200 47.93700
H  30.01500 -4.38600 46.34900
H  26.80100 -1.75400 42.85700
H  27.83000 2.23200 44.68800
H  26.61600 2.19600 43.26100
H  28.38600 2.13300 43.00000
Mg 54.49700 25.08100 44.08400
C  51.43900 26.60200 43.45400
C  52.78300 22.05800 43.22000
C  57.47000 23.57300 43.70700
C  55.85000 28.16400 44.73900
N  52.44500 24.40800 43.21500
C  51.37700 25.24300 43.06400
C  50.09300 24.49500 42.56000
C  50.45400 23.03700 42.90300
C  51.98200 23.15300 43.18100
C  49.76100 22.42100 44.18400
C  49.92200 24.65600 41.01700
C  48.62000 24.08800 40.47700
H  48.45400 24.10200 38.93200
N  55.02200 23.03300 43.68100
C  54.16700 21.98800 43.41100
C  55.03500 20.81700 43.22700
C  56.43600 21.23000 43.29000
C  56.37600 22.64600 43.60400
C  54.42600 19.44500 42.89200
C  57.58700 20.38400 42.93500
O  57.40800 19.18500 42.76300
C  59.00500 20.94100 42.81700
N  56.42000 25.82900 43.86000
C  57.49200 25.00100 43.90800
C  58.71800 25.82000 44.29700
C  58.18000 27.27600 44.46100
C  56.69600 27.10100 44.37700
C  59.65500 25.33500 45.46300
C  58.81200 28.37600 43.43600
C  60.28200 28.71000 43.67700
N  53.82200 27.03500 44.22000
C  54.45800 28.16500 44.55300
C  53.48800 29.29700 44.70600
C  52.24700 28.67800 44.24800
C  52.54000 27.31900 43.92100
C  53.79500 30.72000 45.03600
C  50.84500 28.88500 44.01200
O  50.10200 29.83400 44.21800
C  50.30600 27.60900 43.34800
C  50.01500 28.07200 41.91200
O  50.80500 28.16400 40.99000
O  48.72300 28.30200 41.84800
C  48.15700 28.63600 40.52900
H  52.18900 21.19200 42.92100
H  58.46700 23.16100 43.87800
H  56.25300 29.10600 45.11500
H  49.21200 24.90700 43.04900
H  50.46600 22.34600 42.06100
H  49.03700 21.67600 43.85600
H  49.19400 23.27800 44.54800
H  50.53000 22.13600 44.90200
H  50.65300 24.00600 40.53700
H  49.93600 25.68300 40.65100
H  47.72800 24.50400 40.94500
H  48.56300 23.06600 40.85300
H  54.54100 19.10300 41.86300
H  53.39500 19.25500 43.18900
H  54.95100 18.71300 43.50600
H  59.59700 20.13600 42.38000
H  59.33800 21.11100 43.84100
H  59.13600 21.78600 42.14200
H  59.32500 25.77200 43.39300
H  58.39100 27.76000 45.41400
H  59.22300 24.51200 46.03100
H  59.77400 26.09700 46.23400
H  60.63300 25.08900 45.04800
H  58.34700 29.34600 43.61100
H  58.93000 28.02300 42.41200
H  60.73400 27.95800 44.32300
H  60.39600 29.73000 44.04400
H  60.83700 28.71600 42.73800
H  54.11400 31.29600 44.16800
H  54.56500 30.81600 45.80200
H  52.88900 31.20000 45.40500
H  49.33800 27.39400 43.80000
H  48.71900 29.55600 40.36800
H  47.10900 28.90100 40.66800
H  48.21600 27.88800 39.73800

