158

Mg 2.61200 -1.52900 43.81600
C  6.12700 -0.72800 43.32100
C  1.85300 1.16600 41.87700
C  -0.55200 -2.56600 43.80600
C  3.78700 -4.57500 45.15000
N  3.87900 -0.04800 42.71600
C  5.25700 0.16200 42.67200
C  5.63800 1.47100 42.01200
C  4.26300 2.12700 41.74100
C  3.22700 1.01000 42.08100
C  4.15600 3.61500 42.46500
C  6.43300 1.22400 40.69900
C  7.76500 1.94300 40.51500
H  8.32200 2.23100 39.16100
N  0.87600 -0.72400 43.07300
C  0.79600 0.33600 42.30100
C  -0.63000 0.68000 42.07400
C  -1.38200 -0.39500 42.70300
C  -0.34200 -1.31000 43.20500
C  -1.08100 1.87500 41.27300
C  -2.92800 -0.47900 42.68500
O  -3.69700 0.43600 42.45200
C  -3.63900 -1.74500 43.02500
N  1.76200 -3.42300 44.15800
C  0.43000 -3.45000 44.27500
C  0.08800 -4.91200 44.95100
C  1.48000 -5.48600 45.43300
C  2.36400 -4.36600 44.93200
C  -1.10100 -5.13100 45.94200
C  1.77000 -6.85400 44.73800
C  2.41400 -7.96000 45.69600
N  4.56700 -2.49800 44.27900
C  4.82700 -3.71300 44.89100
C  6.25600 -3.88100 45.04100
C  6.81100 -2.72500 44.44800
C  5.72100 -1.94600 43.95700
C  6.99900 -5.02300 45.61400
C  8.07800 -2.00700 44.11000
O  9.22400 -2.37000 44.30600
C  7.67200 -0.65400 43.45000
C  7.99500 0.42200 44.33900
O  8.04500 0.36600 45.57000
O  8.36100 1.54700 43.58500
C  8.79700 2.78100 44.40900
H  1.59000 2.02000 41.24900
H  -1.53300 -3.00100 44.01100
H  3.92800 -5.52900 45.66300
H  6.23300 2.00000 42.75600
H  4.13200 2.26000 40.66700
H  4.15900 4.39800 41.70700
H  4.97500 3.90200 43.12500
H  3.23200 3.61100 43.04400
H  5.89400 1.32300 39.75700
H  6.68300 0.16500 40.64500
H  8.46700 1.23700 40.96000
H  7.72100 2.86600 41.09400
H  -0.74100 1.78100 40.24200
H  -0.59800 2.78200 41.63700
H  -2.15400 2.05300 41.34200
H  -4.70600 -1.72700 42.80500
H  -3.44000 -1.99600 44.06700
H  -3.29900 -2.54000 42.36100
H  -0.18900 -5.43900 44.03800
H  1.43500 -5.39500 46.51800
H  -0.64700 -5.74500 46.72000
H  -1.98500 -5.56100 45.47200
H  -1.38400 -4.19500 46.42600
H  2.47700 -6.66000 43.93200
H  0.86500 -7.30500 44.33200
H  2.76600 -7.35400 46.53100
H  3.36200 -8.32400 45.30000
H  1.71900 -8.77500 45.89800
H  7.97100 -4.91700 45.13200
H  6.50100 -5.95500 45.34600
H  7.00600 -4.78100 46.67700
H  8.17700 -0.58300 42.48700
H  7.93800 3.42200 44.60800
H  9.55100 3.31900 43.83500
H  9.30200 2.44600 45.31500
Mg 26.73000 49.16700 27.37000
C  24.54500 50.62700 29.75500
C  28.76900 48.12900 29.93700
C  28.76700 48.03100 25.02600
C  24.66300 50.39300 24.85800
N  26.75500 49.47300 29.65100
C  25.62400 49.91300 30.35900
C  25.78800 49.56500 31.85200
C  27.27300 48.94900 31.89600
C  27.60900 48.79700 30.40400
C  28.41100 49.80900 32.50500
C  24.62800 48.59800 32.21500
C  23.78500 48.78200 33.51400
H  23.85600 47.74500 34.57200
N  28.47000 48.20100 27.46700
C  29.13900 47.86400 28.60000
C  30.43000 47.41100 28.13900
C  30.55500 47.43800 26.72500
C  29.18600 47.86200 26.35300
C  31.47400 46.98000 29.19200
C  31.71000 46.97800 25.73600
O  31.69700 47.14900 24.52600
C  33.02000 46.47000 26.39900
N  26.80200 49.40600 25.25000
C  27.67200 48.65600 24.51000
C  27.34100 48.77200 22.96600
C  26.17300 49.71600 22.90600
C  25.84400 49.78800 24.41200
C  28.63800 49.20600 22.12700
C  25.14500 49.38500 21.88400
C  24.20900 48.18600 22.28900
N  25.01100 50.34100 27.27700
C  24.28800 50.72200 26.16300
C  23.25700 51.63900 26.58000
C  23.26600 51.57400 27.97200
C  24.34900 50.80900 28.35600
C  22.24900 52.23100 25.64500
C  22.60100 52.01000 29.19000
O  21.63100 52.71800 29.37700
C  23.42500 51.29600 30.39600
C  23.85400 52.38600 31.35100
O  24.88700 53.04800 31.32400
O  23.03400 52.29800 32.48300
C  23.35500 52.96400 33.78600
H  29.36000 47.71700 30.75900
H  29.41700 47.49400 24.33100
H  23.98000 50.79100 24.10500
H  25.67700 50.44100 32.49200
H  27.30900 47.93100 32.28500
H  29.18300 50.08300 31.78600
H  28.98400 49.17100 33.17800
H  28.02100 50.69800 33.00200
H  24.98800 47.56900 32.23700
H  23.84400 48.59200 31.45900
H  22.72000 48.88400 33.30300
H  24.06200 49.73300 33.96800
H  31.97900 46.02400 29.05500
H  31.18600 46.92900 30.24200
H  32.26600 47.72900 29.17400
H  33.48600 47.26000 26.98800
H  33.63400 46.19900 25.54100
H  32.90700 45.54300 26.96100
H  26.98600 47.77400 22.70900
H  26.53200 50.73000 22.72900
H  29.49000 49.53900 22.72000
H  28.43900 50.02800 21.43900
H  28.93200 48.32900 21.55100
H  25.59500 49.22600 20.90400
H  24.45600 50.22800 21.82600
H  24.29800 47.98900 23.35700
H  24.55500 47.40200 21.61600
H  23.21500 48.59700 22.11100
H  21.99300 51.40900 24.97600
H  22.80900 53.08100 25.25600
H  21.34300 52.51900 26.17800
H  22.79900 50.59100 30.94300
H  22.36700 53.03900 34.23900
H  23.86600 53.91900 33.67000
H  23.87500 52.28200 34.46000

