158

Mg 25.85900 1.43500 29.89500
C  27.73300 1.24100 33.01400
C  23.08200 1.99000 31.83400
C  24.11600 1.39100 27.06200
C  28.69400 0.37200 28.21600
N  25.52000 1.30300 32.10500
C  26.40700 1.43400 33.24500
C  25.64300 1.54400 34.60100
C  24.21200 1.73900 34.10700
C  24.22500 1.62100 32.57200
C  23.16800 0.83700 34.80600
C  26.24000 2.66600 35.51900
C  26.40600 2.15800 36.99000
H  26.15800 3.13700 38.08800
N  23.89000 1.74800 29.46000
C  22.90200 1.91400 30.44200
C  21.60700 1.96100 29.70200
C  21.84300 1.61000 28.31100
C  23.30600 1.56700 28.25200
C  20.26100 2.08800 30.45900
C  20.89900 1.24300 27.22000
O  21.36800 0.78700 26.17600
C  19.45600 1.32100 27.44000
N  26.29400 0.81100 27.96100
C  25.43800 1.15100 26.92800
C  26.07000 0.99500 25.58400
C  27.53800 0.54900 25.96000
C  27.54900 0.49800 27.46700
C  25.42100 -0.05500 24.57300
C  28.67300 1.41800 25.24200
C  29.30300 2.62800 25.97800
N  27.86800 0.98600 30.42700
C  28.82900 0.47900 29.60600
C  30.04900 0.41100 30.40100
C  29.67600 0.68800 31.74400
C  28.35300 1.00900 31.71900
C  31.40600 0.16900 29.86200
C  30.23300 0.81800 33.09500
O  31.38800 0.85700 33.55100
C  28.95300 1.13300 34.01600
C  28.80400 0.01300 34.88200
O  28.23400 -1.04400 34.58900
O  29.32300 0.31400 36.11700
C  29.20400 -0.73700 37.15200
H  22.15900 2.23900 32.36200
H  23.52600 1.57100 26.16100
H  29.65000 0.04600 27.80000
H  25.75000 0.58200 35.10300
H  24.02200 2.80300 34.24700
H  22.37600 1.36100 35.34100
H  23.65000 0.02900 35.35800
H  22.64800 0.33100 33.99400
H  25.55800 3.51600 35.52500
H  27.09400 3.17100 35.06700
H  27.40700 1.74800 37.12300
H  25.65900 1.37100 37.09400
H  19.74700 3.02500 30.24500
H  20.38500 2.01700 31.54000
H  19.75500 1.16600 30.17400
H  19.22800 0.31600 27.79500
H  19.02400 1.52100 26.45900
H  19.12500 2.18500 28.01600
H  25.99700 1.93300 25.03300
H  27.65400 -0.45000 25.54200
H  24.48700 -0.39700 25.01700
H  25.98200 -0.98300 24.45900
H  25.34300 0.54100 23.66300
H  28.31300 1.82700 24.29800
H  29.43800 0.65400 25.10100
H  28.71000 2.77100 26.88200
H  29.17900 3.59900 25.50000
H  30.33600 2.39700 26.23600
H  31.48200 0.79900 28.97600
H  31.52200 -0.85500 29.50500
H  32.09400 0.37600 30.68200
H  29.18100 2.01900 34.60900
H  28.30600 -0.63700 37.76200
H  30.13700 -0.82700 37.70900
H  29.04500 -1.69700 36.66100
Mg 28.17400 56.54800 40.24200
C  25.99800 53.85200 39.55300
C  30.71600 54.57600 39.11100
C  30.10700 59.41000 39.76500
C  25.41000 58.60100 40.63200
N  28.22900 54.47900 39.23800
C  27.29100 53.53800 39.16300
C  27.81200 52.22000 38.54000
C  29.38100 52.37900 38.81300
C  29.49700 53.90700 39.04500
C  29.99500 51.54600 40.03200
C  27.39100 52.10800 37.00900
C  27.08200 53.35500 36.15000
H  27.30500 53.33400 34.70100
N  30.14900 56.94600 39.69100
C  31.02900 55.93500 39.31700
C  32.36100 56.56600 39.08000
C  32.21100 57.99300 39.29400
C  30.80600 58.19700 39.58900
C  33.54700 55.77700 38.57200
C  33.27800 59.05500 39.05600
O  34.34400 58.75400 38.58400
C  33.14600 60.44800 39.39800
N  27.86900 58.62200 40.23100
C  28.80800 59.62700 39.99800
C  28.20700 60.99300 40.13800
C  26.71900 60.73000 40.13300
C  26.62300 59.19800 40.38100
C  28.78800 61.81800 41.30400
C  25.91800 61.02000 38.78400
C  24.88000 62.16500 38.64000
N  26.09400 56.28300 40.20500
C  25.14000 57.23600 40.52400
C  23.86400 56.45700 40.77400
C  24.13600 55.13900 40.33900
C  25.51800 55.12500 40.01800
C  22.52700 56.95400 41.27300
C  23.67600 53.80000 40.13600
O  22.54500 53.35000 40.26900
C  24.82900 52.98800 39.60800
C  24.97300 51.83700 40.51900
O  24.49700 50.71300 40.44200
O  25.88200 52.11000 41.51800
C  26.19800 51.01700 42.48100
H  31.57000 53.92100 38.92400
H  30.62800 60.35500 39.60200
H  24.53000 59.23700 40.75000
H  27.44200 51.36200 39.10200
H  29.97400 52.08700 37.94700
H  29.97100 50.47100 39.85800
H  29.62000 51.79600 41.02500
H  31.06900 51.71700 39.96500
H  26.52500 51.44800 36.94900
H  28.20600 51.53600 36.56600
H  27.56000 54.21800 36.61400
H  26.01600 53.55700 36.25200
H  34.18100 56.26100 37.82900
H  33.23100 54.85800 38.07700
H  34.19700 55.56600 39.42100
H  32.83200 60.48200 40.44200
H  32.46700 60.94000 38.70100
H  34.03600 61.07100 39.31100
H  28.40300 61.56800 39.23300
H  26.24100 61.34500 40.89600
H  28.95900 62.85800 41.02200
H  29.68400 61.27400 41.60300
H  28.06800 61.58500 42.08700
H  25.34700 60.12300 38.54500
H  26.59900 61.13800 37.94100
H  24.76800 62.72300 39.56900
H  23.90500 61.77300 38.34900
H  25.35400 62.87100 37.95800
H  21.79800 56.93300 40.46200
H  22.75800 57.97400 41.58000
H  22.27100 56.28400 42.09300
H  24.71900 52.47300 38.65400
H  25.38200 50.96400 43.20200
H  27.16900 51.34400 42.85300
H  26.36600 50.02900 42.05300

