158

Mg 1.42800 -0.79400 43.78000
C  4.68900 0.09500 43.16300
C  0.35000 1.92400 41.96100
C  -1.81500 -2.16700 43.41000
C  2.57700 -3.95400 44.88500
N  2.42300 0.69200 42.58500
C  3.76600 0.98200 42.58200
C  4.02800 2.35100 41.90000
C  2.63700 3.04900 41.85000
C  1.70500 1.81600 42.21900
C  2.47500 4.38900 42.67700
C  4.73900 2.19300 40.44300
C  5.97200 3.06200 40.25300
H  5.88900 3.97500 39.11300
N  -0.53500 -0.17200 42.87400
C  -0.70700 1.01600 42.23400
C  -2.14100 1.15100 41.85000
C  -2.82300 0.00300 42.41300
C  -1.77300 -0.85700 42.99400
C  -2.73400 2.45300 41.22500
C  -4.33200 -0.26600 42.34400
O  -5.06800 0.56800 41.84600
C  -4.93500 -1.28300 43.34300
N  0.54200 -2.80300 44.17800
C  -0.77900 -3.03600 43.95000
C  -1.17800 -4.44500 44.37600
C  0.22400 -5.01300 44.82000
C  1.20100 -3.92700 44.61400
C  -2.20000 -4.61000 45.46400
C  0.70300 -6.39300 44.27400
C  0.82700 -7.55400 45.27700
N  3.24900 -1.68600 44.16400
C  3.51700 -2.96100 44.56800
C  4.94700 -3.14200 44.62600
C  5.49200 -1.91400 44.06600
C  4.39100 -1.08900 43.77900
C  5.72300 -4.28900 45.12300
C  6.74900 -1.14700 43.82500
O  7.93200 -1.34800 44.12200
C  6.19200 0.25000 43.24600
C  6.61800 1.37300 44.05600
O  5.90400 1.98200 44.82700
O  7.94800 1.66200 43.76700
C  8.59300 2.90000 44.22000
H  0.02000 2.90400 41.61000
H  -2.74400 -2.72100 43.56100
H  3.05200 -4.85100 45.28700
H  4.66400 2.95600 42.54700
H  2.36500 3.20800 40.80700
H  2.07300 5.11400 41.97000
H  3.34700 4.83100 43.16000
H  1.66300 4.31100 43.40000
H  4.03300 2.51700 39.67900
H  4.92800 1.12200 40.37000
H  6.81000 2.39500 40.05200
H  6.09500 3.62700 41.17800
H  -3.61900 2.64300 41.83300
H  -2.96200 2.27400 40.17400
H  -2.04600 3.28900 41.34800
H  -5.95300 -0.90000 43.40800
H  -4.37000 -1.28500 44.27500
H  -4.97600 -2.27000 42.88200
H  -1.57500 -5.05400 43.56400
H  0.20800 -5.01200 45.91000
H  -2.17000 -3.67900 46.02900
H  -1.96100 -5.34500 46.23300
H  -3.19000 -4.76900 45.03700
H  1.68200 -6.29600 43.80500
H  0.03600 -6.68300 43.46200
H  1.70100 -8.15700 45.03200
H  -0.04500 -8.20800 45.26200
H  1.08600 -7.15500 46.25700
H  5.27600 -4.71100 46.02300
H  6.75600 -4.08000 45.39900
H  5.66600 -5.03700 44.33100
H  6.83500 0.19800 42.36700
H  8.14800 3.29900 45.13200
H  8.42100 3.68000 43.47800
H  9.65700 2.81400 44.43800
Mg 16.83500 52.27900 25.49800
C  18.53700 50.72200 28.32100
C  14.18000 52.85500 27.71800
C  14.94200 52.99300 22.79800
C  19.39700 51.05100 23.50500
N  16.51700 51.95800 27.81000
C  17.34400 51.35900 28.71600
C  16.79500 51.57500 30.16400
C  15.33400 51.88100 29.77900
C  15.36100 52.29100 28.38000
C  14.25700 50.76600 30.08600
C  17.51000 52.76200 30.82700
C  17.37600 52.88500 32.35000
H  16.61900 51.85900 33.10100
N  14.91400 52.92800 25.36800
C  13.94000 53.09800 26.31700
C  12.68300 53.68500 25.66900
C  12.95700 53.66500 24.26700
C  14.30600 53.19000 24.05000
C  11.37700 54.00700 26.37600
C  12.00200 54.17400 23.09600
O  12.41500 54.23100 21.98700
C  10.62500 54.70400 23.41500
N  17.19600 52.24700 23.49200
C  16.28300 52.60000 22.50700
C  16.78700 52.29700 21.07200
C  18.29600 51.91900 21.29400
C  18.37500 51.80300 22.88100
C  15.99500 51.28800 20.23700
C  19.36000 52.80100 20.66400
C  20.31900 53.62400 21.50700
N  18.68200 51.27700 25.78400
C  19.57100 50.83000 24.83000
C  20.62900 49.94500 25.48000
C  20.29500 50.01300 26.79900
C  19.07700 50.75800 26.95300
C  21.87500 49.30600 24.80100
C  20.68200 49.54900 28.12800
O  21.65500 48.84800 28.42700
C  19.64200 50.07700 29.12000
C  19.40900 48.98100 30.07500
O  18.85600 47.89900 29.81300
O  20.10400 49.24100 31.31600
C  19.88700 48.35000 32.49900
H  13.35200 53.16200 28.36100
H  14.32400 53.05400 21.90100
H  20.12100 50.69100 22.77100
H  16.76500 50.64700 30.73500
H  14.97100 52.79400 30.25100
H  14.17000 50.10900 29.22100
H  13.28100 51.16700 30.35700
H  14.59800 50.10000 30.87800
H  17.13500 53.60700 30.25000
H  18.58700 52.74200 30.65800
H  16.96600 53.81700 32.73900
H  18.40500 52.90400 32.70800
H  10.72300 53.16800 26.13900
H  11.04400 54.95000 25.94400
H  11.42800 54.12100 27.45900
H  10.68200 55.56600 24.08000
H  10.06000 53.84700 23.78200
H  10.20900 54.96900 22.44300
H  16.76600 53.26800 20.57700
H  18.45700 50.89100 20.97000
H  16.60400 50.57100 19.68600
H  15.53300 51.88600 19.45100
H  15.25200 50.79000 20.86000
H  18.87100 53.41800 19.91000
H  20.04000 52.14700 20.11800
H  19.92600 53.77200 22.51300
H  20.50300 54.62400 21.11600
H  21.28800 53.12600 21.46600
H  22.75000 49.76000 25.26700
H  21.92000 49.52000 23.73300
H  21.88900 48.21900 24.88500
H  20.30300 50.82700 29.55400
H  19.20500 48.84100 33.19300
H  20.87800 48.29000 32.94700
H  19.57600 47.33200 32.26200

