158

Mg 48.57500 45.42400 43.43100
C  45.28500 45.83500 42.23400
C  48.40700 42.21900 42.08300
C  51.94000 45.22400 43.82800
C  48.64400 48.70500 44.58400
N  47.07700 44.25900 42.16000
C  45.75600 44.61600 41.87200
C  45.00400 43.56400 41.03300
C  45.90500 42.31200 41.35400
C  47.24600 42.94200 41.93000
C  45.16000 41.38200 42.34600
C  44.86200 43.93900 39.51300
C  43.60100 43.48800 38.73000
H  43.80700 42.40800 37.74500
N  50.00600 43.95200 42.90900
C  49.69700 42.67700 42.44200
C  50.98300 41.94200 42.33300
C  51.99100 42.82200 42.82400
C  51.32500 44.02100 43.24800
C  51.00700 40.41300 41.87400
C  53.44500 42.45200 42.87600
O  53.85700 41.41100 42.36300
C  54.47300 43.35300 43.44500
N  50.04500 46.68100 44.30700
C  51.34600 46.43800 44.22100
C  52.19800 47.60200 44.76000
C  51.09700 48.67200 45.01500
C  49.87600 47.94200 44.71700
C  53.06400 47.29800 46.07400
C  51.21800 50.02400 44.15300
C  50.69100 51.27600 44.85100
N  47.14300 46.98000 43.60100
C  47.35200 48.24800 44.12300
C  46.19900 49.00300 43.88900
C  45.32400 48.06100 43.19200
C  45.97700 46.85000 43.00300
C  45.96300 50.40300 44.34700
C  44.02300 47.94600 42.60500
O  43.08300 48.74400 42.56700
C  43.85000 46.56400 41.80300
C  42.67200 45.79600 42.13900
O  41.84700 45.42700 41.27400
O  42.57600 45.53500 43.45000
C  41.36000 44.87800 43.92100
H  48.28000 41.16200 41.83600
H  53.02500 45.34000 43.80300
H  48.54100 49.74800 44.88900
H  43.96600 43.55800 41.36600
H  46.13100 41.80100 40.41700
H  45.23000 40.40500 41.86700
H  44.17400 41.81100 42.52400
H  45.59800 41.39800 43.34400
H  45.72700 43.51900 38.99900
H  45.06800 45.00400 39.41000
H  43.20200 44.39400 38.27400
H  42.86600 43.04300 39.40100
H  51.79500 40.14800 41.16900
H  50.09600 40.06900 41.38400
H  51.04400 39.83700 42.79900
H  54.05300 43.78300 44.35400
H  54.75500 44.17400 42.78600
H  55.30200 42.64800 43.51900
H  53.03300 47.82200 44.09500
H  50.99200 48.83900 46.08700
H  53.80700 48.06500 46.29400
H  53.59800 46.35800 45.93100
H  52.46800 47.10300 46.96500
H  50.72700 49.74400 43.22100
H  52.26300 50.13600 43.86400
H  51.38700 52.11200 44.78500
H  50.44300 50.94100 45.85800
H  49.73900 51.51900 44.37900
H  44.89900 50.61100 44.46200
H  46.43800 51.06600 43.62400
H  46.38300 50.54000 45.34400
H  44.00500 46.70500 40.73400
H  41.39600 43.79000 43.86000
H  40.52200 45.23400 43.32200
H  41.15500 45.05100 44.97800
Mg -4.96800 25.94700 26.72900
C  -3.80400 27.52300 29.55900
C  -6.65200 23.83100 28.57200
C  -5.71200 24.32800 23.84200
C  -2.69400 27.97400 24.78900
N  -5.19500 25.75100 28.89600
C  -4.74600 26.53100 29.88400
C  -5.37400 26.18800 31.22000
C  -6.08900 24.78100 30.87300
C  -6.03000 24.78400 29.30800
C  -5.43200 23.50900 31.52500
C  -6.33100 27.27800 31.79200
C  -6.14000 27.67900 33.20400
H  -5.72700 26.66000 34.29600
N  -6.15100 24.39600 26.26700
C  -6.74300 23.64000 27.16300
C  -7.62900 22.65200 26.45300
C  -7.44000 22.84300 25.11900
C  -6.42900 23.97200 24.97500
C  -8.41500 21.56500 27.14400
C  -8.06800 22.10700 23.92200
O  -7.81000 22.53000 22.78900
C  -9.02000 20.93800 24.17200
N  -4.21600 26.12700 24.64200
C  -4.65700 25.25400 23.66900
C  -3.95500 25.42200 22.33500
C  -3.03900 26.62400 22.61800
C  -3.40100 27.01300 24.08400
C  -3.29600 24.18700 21.78700
C  -3.28100 27.79900 21.63300
C  -1.97900 28.12200 20.96300
N  -3.51400 27.51700 27.07700
C  -2.71600 28.22000 26.18600
C  -1.99500 29.17100 26.97900
C  -2.39000 28.97400 28.31500
C  -3.28300 27.93100 28.30300
C  -1.03000 30.23700 26.46200
C  -2.28400 29.38200 29.75000
O  -1.57700 30.26800 30.20800
C  -3.17300 28.43200 30.58400
C  -2.22800 27.68700 31.54000
O  -1.57800 26.67500 31.22900
O  -2.19500 28.29300 32.75300
C  -1.20000 27.71900 33.72900
H  -7.07400 23.01300 29.16000
H  -5.81400 23.71300 22.94600
H  -2.18800 28.74700 24.20700
H  -4.61700 25.99300 31.97900
H  -7.15800 24.73800 31.08400
H  -6.16200 22.89500 32.05300
H  -4.57600 23.84000 32.11300
H  -5.02800 22.88800 30.72600
H  -7.34900 26.91600 31.64300
H  -6.11000 28.18900 31.23500
H  -7.14200 27.98100 33.50900
H  -5.30500 28.37300 33.10600
H  -8.01400 20.58500 26.88300
H  -9.47400 21.73600 26.94700
H  -8.42900 21.72500 28.22200
H  -8.59900 20.26300 24.91600
H  -9.05400 20.45500 23.19500
H  -9.92400 21.48000 24.44900
H  -4.76400 25.69500 21.65800
H  -2.01200 26.26200 22.67000
H  -4.00000 23.74600 21.08100
H  -3.28000 23.47800 22.61400
H  -2.29600 24.32800 21.37700
H  -3.72600 28.63300 22.17400
H  -3.81800 27.46100 20.74600
H  -1.40100 28.73300 21.65600
H  -2.08100 28.35900 19.90400
H  -1.19100 27.37200 21.02800
H  -1.49200 30.97900 25.81000
H  -0.39000 29.78000 25.70700
H  -0.51200 30.67200 27.31700
H  -3.84700 29.06900 31.15600
H  -1.60400 26.74000 33.99000
H  -1.37400 28.25200 34.66400
H  -0.19600 27.69800 33.30700

