158

Mg 49.60800 45.37100 42.35500
C  46.61500 45.93700 40.77100
C  49.40200 42.10500 41.04400
C  52.90200 44.98800 42.95600
C  49.85700 48.89800 42.75600
N  48.24000 44.19400 41.09400
C  47.08200 44.65100 40.49700
C  46.36000 43.68900 39.65700
C  47.22300 42.36300 39.88000
C  48.31300 42.85700 40.86200
C  46.30200 41.21500 40.44500
C  46.32500 44.21900 38.21400
C  44.99600 44.10900 37.47200
H  44.97000 43.32800 36.09400
N  50.89900 43.73400 42.11700
C  50.67600 42.50400 41.57400
C  51.95600 41.74600 41.57200
C  52.83700 42.48800 42.47500
C  52.26200 43.79400 42.54700
C  52.15100 40.36500 40.96800
C  54.09500 41.97200 42.98700
O  54.37600 40.77400 42.94600
C  55.10600 42.82900 43.67100
N  51.19500 46.71500 42.63500
C  52.42500 46.32400 42.96200
C  53.34100 47.51700 43.35600
C  52.31000 48.73100 43.45300
C  51.07300 48.14100 42.79700
C  54.12000 47.23400 44.65100
C  52.87200 50.05900 42.84500
C  52.61700 51.39500 43.62100
N  48.37300 47.00800 42.17900
C  48.60800 48.36400 42.45900
C  47.30400 49.11000 42.31700
C  46.45600 48.14200 41.65900
C  47.22000 46.94100 41.52300
C  47.18200 50.62300 42.66600
C  45.10700 47.92900 41.16600
O  44.10300 48.58400 41.24600
C  45.18900 46.50500 40.49200
C  44.03300 45.74000 40.98700
O  43.02300 45.55700 40.36200
O  44.15500 45.40200 42.26800
C  42.98200 44.70100 42.78700
H  49.30900 41.08500 40.66700
H  53.99200 44.94900 42.90500
H  49.86100 49.98900 42.79900
H  45.33900 43.43800 39.94500
H  47.75700 41.94000 39.02900
H  46.13100 40.49100 39.64900
H  45.32500 41.57100 40.77100
H  46.81400 40.80000 41.31400
H  47.04300 43.65500 37.61800
H  46.79000 45.20200 38.14000
H  44.52200 45.09100 37.44700
H  44.35200 43.41800 38.01600
H  53.16300 40.25200 40.57700
H  51.45800 40.36500 40.12700
H  51.93900 39.55700 41.66800
H  54.84600 43.34000 44.59800
H  55.58700 43.55100 43.01100
H  55.91800 42.13000 43.87300
H  54.09400 47.79800 42.61900
H  51.86500 48.79400 44.44600
H  53.84100 48.05800 45.30800
H  55.17500 47.18800 44.38100
H  53.81800 46.23600 44.96700
H  52.45500 50.13400 41.84100
H  53.93800 49.96800 42.63700
H  52.48000 52.21400 42.91400
H  53.50100 51.53800 44.24200
H  51.75600 51.30100 44.28300
H  47.61100 51.17100 41.82700
H  47.73600 50.92900 43.55400
H  46.19300 50.86800 43.05500
H  45.18700 46.67200 39.41500
H  42.14700 45.35700 43.03500
H  43.31900 44.00000 43.55100
H  42.58800 43.99400 42.05700
Mg 47.67800 35.28000 27.32000
C  46.04300 33.40700 29.71000
C  47.48500 37.98200 29.47100
C  48.97700 36.94100 24.92600
C  47.21600 32.53400 25.00700
N  46.91900 35.56700 29.35100
C  46.50200 34.58100 30.21700
C  46.58000 35.09000 31.63300
C  46.50200 36.64200 31.37800
C  46.97300 36.74700 30.00400
C  45.15200 37.30600 31.67900
C  47.87800 34.60100 32.37100
C  48.36000 35.43400 33.54700
H  47.27800 36.03700 34.49800
N  48.21500 37.23400 27.24900
C  48.05200 38.22500 28.20200
C  48.58600 39.46000 27.65800
C  49.09700 39.19800 26.39200
C  48.79800 37.74500 26.11000
C  48.52000 40.67600 28.55600
C  49.94600 40.07000 25.47700
O  50.42800 39.64000 24.42400
C  50.30900 41.48100 25.86600
N  47.81400 34.87200 25.09100
C  48.63200 35.70500 24.45400
C  48.87900 35.25700 22.96400
C  48.38800 33.76800 23.06200
C  47.78600 33.69100 24.48800
C  48.18000 36.11600 21.87800
C  49.47500 32.66900 22.90800
C  49.64100 32.08700 21.45000
N  46.73400 33.36000 27.26500
C  46.62500 32.38100 26.27800
C  45.90900 31.23400 26.97500
C  45.59200 31.62800 28.25400
C  46.06900 32.98200 28.36800
C  45.64700 29.98000 26.27400
C  45.01100 31.12600 29.51000
O  44.55300 30.05300 29.79700
C  45.14600 32.33200 30.43300
C  45.65800 31.75900 31.61800
O  46.69900 31.23000 31.78400
O  44.78500 32.15200 32.62200
C  45.13800 31.69700 34.04100
H  47.33000 38.82200 30.15100
H  49.45100 37.45800 24.08900
H  47.18500 31.73100 24.26700
H  45.76400 34.67400 32.22300
H  47.17200 37.17200 32.05500
H  45.37000 38.05000 32.44500
H  44.42600 36.56500 32.01300
H  44.71700 37.64200 30.73800
H  48.63900 34.58800 31.59100
H  47.77100 33.57500 32.72200
H  49.12300 36.18600 33.34300
H  48.91000 34.71800 34.15800
H  49.09400 40.60400 29.47900
H  47.53500 41.03700 28.85000
H  48.85600 41.55900 28.01200
H  50.71600 41.45700 26.87700
H  49.31500 41.92800 25.84800
H  50.94500 41.96500 25.12500
H  49.95000 35.31100 22.76900
H  47.54400 33.49900 22.42700
H  47.62600 36.90700 22.38500
H  47.58500 35.61000 21.11800
H  48.99800 36.61500 21.35600
H  49.21500 31.78100 23.48500
H  50.47600 33.01600 23.16300
H  50.62600 32.27700 21.02400
H  48.84600 32.50800 20.83400
H  49.32500 31.04600 21.51200
H  46.39800 29.30100 26.67900
H  45.73200 30.09500 25.19300
H  44.68100 29.52200 26.48500
H  44.13700 32.65200 30.69400
H  45.88000 32.38300 34.44800
H  45.59400 30.70800 34.00100
H  44.25000 31.72600 34.67300

