158

Mg 47.29900 35.95700 28.98600
C  45.78800 34.06700 31.41900
C  47.72400 38.54100 31.43900
C  48.11000 38.13500 26.56300
C  46.37800 33.50800 26.58300
N  46.91600 36.24300 31.15000
C  46.32300 35.26100 31.92200
C  46.46800 35.60200 33.42900
C  46.49000 37.19800 33.29200
C  47.04500 37.42600 31.86300
C  45.07900 37.77800 33.56400
C  47.78700 35.08400 34.01100
C  47.82300 34.67000 35.47400
H  47.00400 35.39200 36.47900
N  48.05000 37.98400 28.97400
C  48.14500 38.86500 30.05800
C  48.76100 40.08700 29.68100
C  48.91500 39.98200 28.25500
C  48.44200 38.64800 27.87400
C  48.94100 41.25500 30.64700
C  49.54000 40.93600 27.24100
O  49.97600 40.55600 26.19200
C  49.84000 42.36600 27.62900
N  47.22000 35.88200 26.94900
C  47.65600 36.89000 26.13700
C  47.48100 36.57200 24.64800
C  46.94400 35.06400 24.68400
C  46.93900 34.73100 26.18400
C  46.42500 37.50500 24.01100
C  47.84100 34.12900 23.83700
C  47.10900 33.01600 23.17300
N  46.25500 34.18000 28.95500
C  46.05700 33.23000 27.96300
C  45.43500 32.04800 28.51600
C  45.24200 32.35200 29.89300
C  45.86200 33.62200 30.06400
C  45.12300 30.75400 27.76800
C  44.72200 31.84200 31.12600
O  44.20100 30.78800 31.50500
C  44.94600 33.01000 32.10500
C  45.46500 32.45900 33.43700
O  46.58100 32.07400 33.61900
O  44.45300 32.30300 34.27700
C  44.68000 31.50000 35.46000
H  47.69600 39.35900 32.16200
H  48.15300 38.89400 25.77900
H  46.07400 32.73500 25.87400
H  45.61000 35.24800 34.00100
H  47.15500 37.66100 34.02100
H  45.18200 38.31000 34.50900
H  44.31500 37.00400 33.63700
H  44.82700 38.48000 32.76900
H  48.62900 35.74100 33.79400
H  47.99200 34.21800 33.38100
H  48.87100 34.64300 35.77200
H  47.33900 33.69700 35.55600
H  48.25200 41.34400 31.48600
H  48.84100 42.20500 30.12200
H  49.93000 41.22500 31.10300
H  50.71300 42.27400 28.27500
H  48.91100 42.69800 28.09100
H  49.91700 43.08000 26.80900
H  48.43300 36.61100 24.11900
H  45.89400 35.10200 24.39400
H  45.98800 38.09100 24.82000
H  45.68100 37.00800 23.38700
H  46.96100 38.18600 23.35000
H  48.52800 33.60500 24.50100
H  48.28400 34.69400 23.01700
H  47.11000 33.17500 22.09400
H  46.04400 32.94400 23.39200
H  47.57300 32.04600 23.35500
H  44.99700 29.86600 28.38800
H  45.90500 30.42800 27.08200
H  44.20700 30.92900 27.20400
H  44.00500 33.53200 32.28100
H  45.45900 30.75000 35.31800
H  43.72600 31.02400 35.68800
H  44.99500 32.07900 36.32800
Mg -10.10800 18.15600 42.96300
C  -6.82500 16.91800 42.75500
C  -8.91500 21.22000 41.80400
C  -13.19900 19.05800 42.62300
C  -11.15000 14.76300 43.38900
N  -8.12200 18.99100 42.36100
C  -6.93500 18.26700 42.44400
C  -5.75100 19.16300 42.05100
C  -6.43400 20.55900 42.09400
C  -7.89800 20.25800 42.00500
C  -6.05100 21.45000 43.25100
C  -5.03900 18.76200 40.72800
C  -5.75800 18.27800 39.49400
H  -5.39200 18.74400 38.06900
N  -10.99300 19.96200 42.30800
C  -10.32100 21.09800 41.96000
C  -11.27600 22.16100 41.83800
C  -12.59300 21.60100 41.92000
C  -12.31800 20.13900 42.27300
C  -10.86600 23.52300 41.54000
C  -13.90100 22.32600 41.76300
O  -13.95200 23.54300 41.60100
C  -15.13600 21.52300 41.89900
N  -11.89100 16.95700 42.70200
C  -13.02600 17.63700 42.83900
C  -14.21100 16.68200 43.00300
C  -13.57700 15.29200 43.16300
C  -12.11300 15.64800 43.02800
C  -15.16200 17.14400 44.19300
C  -14.04400 14.13000 42.17400
C  -14.74100 12.97900 43.00700
N  -9.25000 16.18500 43.09200
C  -9.75100 14.93600 43.30800
C  -8.69800 13.93000 43.38400
C  -7.48600 14.64100 43.15500
C  -7.90400 15.99500 42.98200
C  -8.92000 12.38200 43.68300
C  -6.05200 14.56000 43.06700
O  -5.34100 13.62200 43.22200
C  -5.58400 16.04000 42.73800
C  -4.38400 16.46400 43.56200
O  -3.22200 16.17400 43.34000
O  -4.83300 17.15600 44.68400
C  -3.78400 17.34900 45.71800
H  -8.52100 22.23700 41.76000
H  -14.27300 19.24700 42.68900
H  -11.52600 13.77600 43.66500
H  -5.04300 19.04500 42.87100
H  -6.14600 21.20700 41.26600
H  -5.39100 20.85100 43.87800
H  -6.91700 21.61700 43.89100
H  -5.64400 22.43600 43.02500
H  -4.48500 17.88900 41.07300
H  -4.35900 19.57700 40.47900
H  -6.81400 18.53500 39.58300
H  -5.59800 17.20000 39.52500
H  -9.99900 23.78900 42.14400
H  -11.59900 24.32600 41.61200
H  -10.45900 23.47500 40.53000
H  -15.52200 21.45800 42.91700
H  -15.05100 20.58400 41.35300
H  -15.86200 22.11400 41.34100
H  -14.85500 16.64900 42.12400
H  -13.87800 14.98200 44.16300
H  -14.77800 18.07100 44.61800
H  -15.27600 16.43000 45.00900
H  -16.15100 17.37100 43.79500
H  -13.19700 13.69700 41.64300
H  -14.84500 14.45100 41.50800
H  -15.64300 12.72300 42.45100
H  -15.00300 13.07400 44.06100
H  -14.11500 12.08900 42.93600
H  -9.52500 12.25300 44.58100
H  -7.99900 11.80800 43.79000
H  -9.42600 12.01500 42.79000
H  -5.10100 15.95500 41.76500
H  -2.85600 17.84000 45.42800
H  -3.57100 16.40600 46.22100
H  -4.22900 18.03900 46.43400

