158

Mg 52.74800 23.90300 44.76200
C  49.77800 25.85800 44.01200
C  51.11900 21.10500 43.86000
C  55.67400 22.36800 44.76600
C  54.23900 26.93000 45.56900
N  50.64300 23.62500 43.83900
C  49.58400 24.47600 43.73500
C  48.23800 23.67200 43.47200
C  48.67000 22.19500 43.64200
C  50.22400 22.25800 43.86500
C  47.99900 21.40700 44.79800
C  47.66500 24.00000 42.10700
C  48.69600 23.81500 40.87900
H  48.03700 23.25700 39.54200
N  53.36800 22.01000 44.27900
C  52.57300 20.98400 43.89500
C  53.32200 19.76800 43.72000
C  54.74300 20.13800 43.88900
C  54.70200 21.53800 44.34200
C  52.62900 18.52200 43.28600
C  55.95000 19.18700 43.70900
O  55.73400 18.00000 43.50800
C  57.37700 19.58900 43.79400
N  54.73900 24.58800 45.15100
C  55.80100 23.75200 45.04500
C  57.09600 24.52600 45.13100
C  56.68400 26.00900 45.50700
C  55.13000 25.88900 45.37300
C  58.17900 23.85900 46.08700
C  57.22500 27.17300 44.58000
C  58.25500 28.20400 45.13100
N  52.16000 25.93700 44.96500
C  52.85000 27.02800 45.38600
C  52.04800 28.26200 45.48700
C  50.80300 27.79200 44.93900
C  50.94900 26.37300 44.59500
C  52.42300 29.59500 45.91300
C  49.51700 28.23200 44.57900
O  48.95400 29.34600 44.62200
C  48.75400 26.96800 43.99700
C  48.35200 27.33100 42.58300
O  49.13100 27.31000 41.59500
O  47.01400 27.68800 42.50800
C  46.52200 27.88400 41.18900
H  50.59200 20.14900 43.89300
H  56.68000 21.95900 44.65100
H  54.71300 27.89000 45.78700
H  47.52700 23.88800 44.27000
H  48.39800 21.64200 42.74300
H  48.66100 20.62300 45.16500
H  47.12100 20.92800 44.36500
H  47.75900 22.09900 45.60500
H  47.00900 24.86900 42.06600
H  46.87000 23.26100 42.01300
H  49.43100 23.04500 41.11000
H  49.21700 24.75800 40.70900
H  51.55500 18.60900 43.12300
H  52.80000 17.70900 43.99200
H  53.07800 18.12600 42.37600
H  57.59400 20.28400 42.98300
H  57.94200 18.67300 43.62100
H  57.67000 20.00200 44.75900
H  57.56900 24.64200 44.15600
H  56.91800 26.09100 46.56800
H  57.85800 22.88400 46.45300
H  58.46400 24.47100 46.94300
H  59.01400 23.77900 45.39100
H  56.39200 27.78000 44.22200
H  57.65800 26.75700 43.67000
H  58.87700 27.72000 45.88500
H  57.74900 29.11200 45.45900
H  58.71100 28.53800 44.19900
H  52.79300 30.31900 45.18700
H  53.06900 29.41700 46.77200
H  51.49600 29.99100 46.32800
H  47.89100 26.72600 44.61700
H  46.79900 27.17600 40.40800
H  46.91700 28.83100 40.82200
H  45.43700 27.95500 41.26200
Mg 15.87000 51.63000 24.75000
C  17.92200 50.56900 27.42300
C  13.52900 52.50700 26.98400
C  14.19900 52.62600 22.24300
C  18.46400 50.28200 22.59400
N  15.64600 51.31800 26.86500
C  16.69000 51.11200 27.75000
C  16.28000 51.49100 29.18000
C  14.72400 51.68000 29.07000
C  14.64200 51.91400 27.56000
C  13.90000 50.50600 29.53000
C  17.03500 52.67700 29.62800
C  16.90200 53.08500 31.15400
H  15.83600 52.26000 31.97800
N  14.01000 52.50300 24.59700
C  13.26700 52.80900 25.65800
C  12.05300 53.43900 25.15300
C  12.20200 53.47400 23.69600
C  13.52300 52.87100 23.47600
C  10.91100 53.98400 25.91200
C  11.27400 54.01700 22.60800
O  11.55000 54.05300 21.41600
C  9.93800 54.71600 22.97100
N  16.28500 51.43500 22.76700
C  15.40800 51.96700 21.87500
C  15.89800 52.01500 20.47300
C  17.15900 51.12200 20.52800
C  17.32600 50.89900 22.06300
C  14.81100 51.51500 19.43600
C  18.37300 51.75900 19.89200
C  19.31100 50.89000 18.94400
N  17.87500 50.66600 24.92700
C  18.78800 50.12500 23.97000
C  19.92900 49.60900 24.58400
C  19.61300 49.76500 26.02700
C  18.39100 50.39600 26.12200
C  21.06800 49.00500 23.80100
C  20.08400 49.42100 27.34800
O  21.10900 48.83200 27.76500
C  19.03300 50.05400 28.36100
C  18.61000 48.90900 29.29400
O  17.68800 48.14800 29.15500
O  19.44600 48.93000 30.34000
C  18.89100 48.39200 31.57900
H  12.67200 52.77800 27.60400
H  13.64300 52.98800 21.37600
H  19.16200 49.90200 21.84500
H  16.43200 50.69000 29.90300
H  14.27900 52.55600 29.54200
H  12.98100 50.93600 29.92800
H  14.34400 49.79000 30.22100
H  13.69900 49.84400 28.68800
H  16.76600 53.60200 29.11800
H  18.11800 52.56100 29.61500
H  16.62500 54.13900 31.19700
H  17.89500 53.01900 31.59800
H  10.86100 55.07200 25.87200
H  11.02500 53.71900 26.96300
H  9.98700 53.49700 25.59800
H  10.21800 55.60100 23.54200
H  9.27600 54.07500 23.55300
H  9.47700 54.97000 22.01600
H  16.09900 53.07700 20.33000
H  16.88700 50.14200 20.13600
H  14.10300 50.91100 20.00300
H  15.26200 51.02000 18.57600
H  14.37000 52.44200 19.06900
H  19.03500 51.98400 20.72800
H  18.05800 52.60000 19.27300
H  19.29500 51.16800 17.89000
H  18.96200 49.85700 18.92600
H  20.35100 50.92300 19.26900
H  20.92000 48.71900 22.76000
H  21.33400 48.15000 24.42300
H  21.86100 49.75300 23.79900
H  19.59300 50.76800 28.96400
H  18.27500 47.51600 31.37500
H  18.27600 49.15900 32.05000
H  19.74400 48.10200 32.19200

