158

Mg 43.17700 42.46300 25.75700
C  42.39400 44.85500 28.26600
C  44.46500 40.49600 28.24900
C  44.35600 40.39300 23.48800
C  42.21400 44.81100 23.37000
N  43.48000 42.76500 27.94700
C  42.94200 43.72700 28.80600
C  43.19000 43.43900 30.36800
C  44.11400 42.10100 30.27900
C  44.03500 41.76500 28.67500
C  45.50700 42.35100 30.90100
C  41.86800 43.39900 31.16600
C  41.49200 42.32900 32.26100
H  40.86000 42.89300 33.46400
N  44.09500 40.59800 25.83800
C  44.47600 39.93800 27.00500
C  44.86800 38.56900 26.63200
C  44.70600 38.53900 25.20900
C  44.42800 39.85900 24.80500
C  45.30800 37.50400 27.67300
C  44.95400 37.38100 24.22800
O  44.86000 37.46100 22.99900
C  45.18100 36.05000 24.80900
N  43.27700 42.59500 23.74800
C  43.84400 41.57300 23.00700
C  43.76100 41.91000 21.51400
C  42.73000 43.11900 21.49500
C  42.75100 43.56200 22.95000
C  45.09600 42.31500 20.88000
C  41.34000 42.74100 20.91800
C  40.36400 42.08200 21.89200
N  42.48400 44.42600 25.78300
C  42.14500 45.26500 24.74100
C  41.69700 46.52400 25.29400
C  41.78500 46.39800 26.65800
C  42.23600 45.08800 26.88600
C  41.25700 47.68700 24.47300
C  41.54300 47.10000 27.87000
O  41.31800 48.26300 28.10400
C  41.84700 46.12600 28.95100
C  42.88200 46.67800 29.90400
O  44.10800 46.59100 29.69300
O  42.38000 47.16600 31.08900
C  43.36400 47.33000 32.15400
H  44.89500 39.90000 29.05600
H  44.74300 39.72900 22.71200
H  41.91000 45.58400 22.66100
H  43.80200 44.24500 30.77300
H  43.73300 41.21600 30.78800
H  45.71800 43.40900 31.05700
H  46.23500 41.82300 30.28600
H  45.72600 41.89600 31.86700
H  41.00800 43.38300 30.49700
H  41.79200 44.42100 31.53600
H  42.37300 41.74400 32.52600
H  40.85800 41.55700 31.82500
H  45.26800 37.89500 28.69000
H  46.31500 37.17700 27.41500
H  44.66000 36.64700 27.86000
H  45.55400 35.37700 24.03800
H  44.28800 35.69500 25.32500
H  46.04800 36.17600 25.45800
H  43.42100 40.98800 21.04200
H  43.11600 43.99600 20.97500
H  45.73600 42.58700 21.71900
H  44.88800 43.25400 20.36600
H  45.52500 41.51700 20.27300
H  41.54700 42.13000 20.04000
H  41.02100 43.73300 20.60100
H  40.22000 41.10400 21.43200
H  39.42200 42.62800 21.84600
H  40.60100 42.05600 22.95600
H  40.16900 47.67400 24.40800
H  41.60900 47.51500 23.45600
H  41.66300 48.65800 24.75900
H  40.87300 46.03300 29.43000
H  44.04300 46.47800 32.18100
H  42.82800 47.43700 33.09700
H  43.79000 48.33100 32.08300
Mg -1.95600 33.80900 26.96300
C  -3.76500 32.06200 29.45500
C  -0.73300 35.90000 29.31700
C  -0.67500 35.54700 24.47100
C  -3.93700 31.97800 24.62000
N  -2.42000 34.12600 29.17400
C  -2.90100 33.11400 29.92300
C  -2.70500 33.45000 31.43500
C  -1.98900 34.79700 31.39200
C  -1.65600 34.95700 29.88200
C  -2.82700 35.92100 31.97900
C  -1.87000 32.28400 32.18300
C  -2.52600 31.89500 33.60600
H  -1.49700 31.95200 34.77700
N  -0.76400 35.37100 26.92700
C  -0.31700 36.07400 27.96200
C  0.69500 37.02100 27.49700
C  0.69200 36.97300 26.10100
C  -0.27400 35.87800 25.75500
C  1.46600 37.91200 28.48600
C  1.47100 37.78600 25.09100
O  1.47800 37.51800 23.92700
C  2.29700 39.04000 25.52300
N  -2.25000 33.72600 24.80100
C  -1.56200 34.52300 23.99500
C  -2.13600 34.44200 22.57100
C  -2.99800 33.13500 22.62200
C  -3.09700 32.89100 24.10500
C  -2.96600 35.66900 22.13700
C  -2.30000 31.99300 21.79800
C  -1.27200 31.04900 22.50200
N  -3.49400 32.36600 26.97600
C  -4.09600 31.64400 25.95900
C  -4.87700 30.53600 26.46600
C  -4.77200 30.63600 27.90800
C  -3.93500 31.76100 28.09600
C  -5.49000 29.42900 25.59400
C  -5.26500 30.18700 29.23200
O  -6.11200 29.37500 29.51300
C  -4.44200 31.00600 30.27100
C  -5.39500 31.54200 31.19300
O  -6.16300 32.45700 30.98900
O  -5.46800 30.74100 32.34100
C  -6.47700 30.90200 33.40000
H  -0.23500 36.55300 30.03700
H  -0.33600 36.28900 23.74400
H  -4.50600 31.57100 23.78200
H  -3.70100 33.63900 31.83300
H  -1.04300 34.89900 31.92500
H  -3.65800 35.57900 32.59500
H  -3.32500 36.41200 31.14300
H  -2.16300 36.60200 32.51100
H  -0.83900 32.63400 32.24900
H  -1.75500 31.36300 31.61100
H  -2.78300 30.83800 33.68300
H  -3.34800 32.57200 33.84000
H  1.31900 38.96600 28.25100
H  2.51600 37.62100 28.46500
H  1.13800 37.70700 29.50500
H  2.89000 39.41800 24.69000
H  2.96000 38.62000 26.28000
H  1.71000 39.83100 25.98800
H  -1.28100 34.32800 21.90400
H  -4.04100 33.31600 22.36300
H  -2.59300 36.12900 21.22300
H  -3.08200 36.47700 22.86000
H  -4.01000 35.45800 21.90200
H  -1.95000 32.42200 20.85900
H  -3.10300 31.38000 21.38800
H  -1.62500 30.82500 23.50800
H  -0.26800 31.47500 22.48600
H  -1.39700 30.09000 21.99900
H  -4.76500 29.23100 24.80400
H  -6.37700 29.86100 25.13000
H  -5.65800 28.47300 26.09100
H  -3.74800 30.31900 30.75500
H  -7.19000 31.71900 33.29200
H  -5.97400 31.12000 34.34200
H  -6.98200 29.96100 33.62200

