158

Mg 9.30100 3.95900 27.17000
C  10.33700 2.36800 30.03100
C  7.19200 5.85100 29.00600
C  7.89600 4.91400 24.30000
C  10.46200 1.01700 25.31500
N  8.65300 3.99600 29.29100
C  9.43700 3.43900 30.24800
C  9.09200 4.00800 31.61100
C  7.84400 4.95100 31.35900
C  7.89400 5.03200 29.82400
C  6.45700 4.48500 31.93900
C  10.36200 4.51100 32.33000
C  10.06300 5.26000 33.60500
H  11.14600 5.29400 34.68200
N  7.79600 5.29500 26.71300
C  6.98600 5.98100 27.62500
C  6.20300 6.94800 26.84300
C  6.50600 6.76300 25.50400
C  7.46500 5.57900 25.43200
C  5.22200 7.95200 27.48900
C  6.00300 7.54900 24.25700
O  6.49200 7.37000 23.17300
C  4.88200 8.55900 24.49100
N  9.19600 2.97800 25.07500
C  8.56600 3.70500 24.11000
C  8.88400 3.13900 22.72900
C  9.62300 1.85700 23.01000
C  9.81900 1.89800 24.52800
C  7.76100 3.22500 21.64700
C  10.88200 1.46200 22.25200
C  10.99300 0.07800 21.47700
N  10.30900 2.20100 27.56600
C  10.72500 1.18200 26.69400
C  11.46900 0.17900 27.46300
C  11.42500 0.65100 28.76900
C  10.62500 1.84200 28.79800
C  12.20700 -1.03000 26.89400
C  11.87300 0.42100 30.09300
O  12.56700 -0.44400 30.60800
C  11.10700 1.46600 30.97500
C  10.14900 0.79400 31.88300
O  9.14600 0.15300 31.55200
O  10.70500 0.90600 33.21800
C  9.90500 0.41700 34.30600
H  6.54800 6.46900 29.63400
H  7.69400 5.34500 23.31700
H  10.85500 0.20000 24.70700
H  8.86500 3.15100 32.24500
H  8.10000 5.88500 31.85800
H  6.47500 3.46700 32.32800
H  5.74700 4.46000 31.11200
H  5.95300 5.08800 32.69400
H  11.09100 5.04800 31.72400
H  10.96600 3.64700 32.60600
H  9.23500 4.75900 34.10700
H  9.78300 6.26800 33.30100
H  4.23900 7.68300 27.10300
H  5.53600 8.93800 27.14600
H  5.30500 7.83000 28.56900
H  4.12300 8.16600 25.16800
H  4.34000 8.69900 23.55600
H  5.31200 9.47000 24.90800
H  9.65300 3.75000 22.25600
H  8.89900 1.04400 22.94200
H  6.88700 3.63100 22.15700
H  7.38400 2.29900 21.21400
H  8.06600 3.86900 20.82200
H  11.67700 1.47900 22.99700
H  11.24200 2.27000 21.61600
H  10.00000 -0.36500 21.41300
H  11.75900 -0.55200 21.93000
H  11.32500 0.19800 20.44600
H  13.29000 -0.97800 27.00200
H  12.02100 -1.13300 25.82500
H  11.84100 -1.90500 27.43300
H  11.81300 2.01000 31.60300
H  10.06700 1.04300 35.18400
H  10.41600 -0.45100 34.72300
H  8.84100 0.20900 34.19400
Mg -11.59600 17.44400 42.63700
C  -8.15700 17.57900 42.77300
C  -11.92100 20.73400 42.35200
C  -14.91700 16.93800 42.18600
C  -11.26300 13.78700 42.34800
N  -10.17600 18.99500 42.47600
C  -8.81500 18.86200 42.53300
C  -8.20900 20.27000 42.65600
C  -9.49500 21.20200 42.82400
C  -10.60400 20.27600 42.52700
C  -9.76300 22.04100 44.15400
C  -7.25200 20.61000 41.45000
C  -5.66100 20.64700 41.53000
H  -4.80600 19.88800 40.51100
N  -13.20700 18.69500 42.32900
C  -13.14900 20.05500 42.26400
C  -14.45200 20.66300 42.22400
C  -15.36100 19.57700 42.16700
C  -14.55200 18.36000 42.11300
C  -14.66500 22.17000 42.12700
C  -16.88000 19.69500 42.09900
O  -17.46600 20.77400 42.25900
C  -17.67600 18.46700 41.96400
N  -12.80200 15.64200 42.15800
C  -14.16200 15.77700 42.07700
C  -14.76500 14.44800 42.01200
C  -13.64600 13.44300 41.70300
C  -12.46900 14.33000 42.09300
C  -15.42400 14.18300 43.42100
C  -13.59900 13.12600 40.19600
C  -14.05600 11.73100 39.88800
N  -10.11200 15.96400 42.73400
C  -10.11900 14.55600 42.68500
C  -8.76500 14.05300 42.81000
C  -7.98500 15.17800 42.96700
C  -8.80200 16.28500 42.80300
C  -8.33800 12.56600 42.80600
C  -6.61700 15.66800 43.06900
O  -5.61100 15.01100 43.11900
C  -6.67800 17.32300 42.94900
C  -6.27200 17.64500 44.42000
O  -7.14400 17.87600 45.25700
O  -4.90900 17.63700 44.61600
C  -4.54400 17.63700 46.04800
H  -11.95100 21.82600 42.34000
H  -15.96100 16.61900 42.22300
H  -11.30000 12.71400 42.14400
H  -7.60200 20.27300 43.56100
H  -9.37300 22.03800 42.13400
H  -9.79200 23.10900 43.94100
H  -8.98700 21.90000 44.90600
H  -10.72000 21.71900 44.56500
H  -7.56800 21.57500 41.05500
H  -7.47300 19.86700 40.68400
H  -5.38700 20.33800 42.53900
H  -5.32700 21.65900 41.30400
H  -14.81600 22.53700 41.11200
H  -13.83400 22.77300 42.49400
H  -15.49100 22.33100 42.82100
H  -18.70400 18.77500 41.77500
H  -17.72800 17.93400 42.91400
H  -17.39900 17.84700 41.11100
H  -15.54900 14.48600 41.25500
H  -13.64800 12.55500 42.33500
H  -16.50000 14.08100 43.28000
H  -15.32400 14.92000 44.21700
H  -15.17300 13.21500 43.85500
H  -12.55700 13.02900 39.89000
H  -14.13800 13.88300 39.62600
H  -14.74900 11.45400 40.68300
H  -13.24600 11.00400 39.83300
H  -14.64400 11.73600 38.96900
H  -8.51200 12.06700 43.75900
H  -7.26100 12.56200 42.63800
H  -8.83900 12.02800 42.00100
H  -5.93800 17.75500 42.27500
H  -3.51800 17.27400 46.10200
H  -5.21500 16.95000 46.56300
H  -4.68600 18.64200 46.44400

