158

Mg 55.23700 24.64900 45.06200
C  52.25800 26.51000 43.97900
C  53.71500 21.84500 44.12400
C  58.15800 23.23500 45.66900
C  56.70300 27.92800 45.54400
N  53.33300 24.31400 43.94600
C  52.29500 25.10600 43.59100
C  51.25800 24.36200 42.89400
C  51.54100 22.89800 43.48900
C  52.98900 23.01800 43.85300
C  50.66700 22.48900 44.74900
C  51.47500 24.49200 41.37900
C  50.30700 25.04300 40.59100
H  50.10200 24.42900 39.22500
N  55.91300 22.77800 44.89100
C  55.12500 21.69700 44.47800
C  55.88900 20.46100 44.65600
C  57.19200 20.87600 45.11700
C  57.13200 22.35500 45.32300
C  55.30900 19.12800 44.36600
C  58.36400 19.79400 45.29900
O  58.15400 18.63300 44.98000
C  59.72500 20.23900 45.65900
N  57.23600 25.51200 45.44300
C  58.29200 24.62600 45.69900
C  59.52000 25.44500 46.08900
C  58.97300 26.94600 46.15000
C  57.57600 26.80100 45.70900
C  60.24900 24.95400 47.43600
C  59.71800 27.87400 45.18900
C  60.64300 28.87900 45.77400
N  54.63100 26.74600 45.02400
C  55.33500 27.91900 45.31800
C  54.43500 28.99800 45.37100
C  53.26400 28.53500 44.76300
C  53.39500 27.14000 44.57700
C  54.68500 30.37900 45.81300
C  51.87700 28.92800 44.46100
O  51.25000 30.00200 44.55800
C  51.23100 27.60900 43.84900
C  50.73400 28.01600 42.49800
O  51.46900 28.35200 41.49600
O  49.38200 28.08600 42.53400
C  48.82400 28.58200 41.32100
H  53.17900 20.90200 43.99300
H  59.00200 22.65700 46.05200
H  57.16900 28.86900 45.84200
H  50.29500 24.82200 43.11500
H  51.41400 22.12500 42.73000
H  50.03700 23.33600 45.02400
H  51.29400 22.23600 45.60400
H  50.03900 21.66800 44.40600
H  51.51400 23.46100 41.02600
H  52.38500 25.03800 41.12700
H  50.54600 26.08500 40.37800
H  49.38600 24.95700 41.16700
H  54.31900 19.12400 44.82200
H  55.91300 18.24200 44.56000
H  55.19400 19.09200 43.28200
H  60.20700 19.30400 45.94600
H  59.68600 20.79200 46.59800
H  60.09800 20.84000 44.83000
H  60.34400 25.23200 45.40700
H  59.00000 27.40800 47.13700
H  60.40100 25.77500 48.13600
H  61.25200 24.58500 47.22100
H  59.63300 24.26200 48.01000
H  59.00700 28.29000 44.47600
H  60.37300 27.27000 44.56100
H  61.17700 29.34800 44.94700
H  61.34300 28.40400 46.46100
H  60.04700 29.61800 46.31000
H  53.80700 30.97700 45.56700
H  55.53000 30.77000 45.24700
H  54.75600 30.47000 46.89600
H  50.34800 27.30800 44.41200
H  49.24400 29.57300 41.14800
H  47.75000 28.46100 41.46100
H  49.10800 28.06800 40.40300
Mg 1.02600 43.83200 26.04500
C  2.73800 43.75100 29.10900
C  -1.83000 42.94300 27.84900
C  -0.43100 43.17300 23.22800
C  4.08900 44.04500 24.47700
N  0.42100 43.53800 28.33900
C  1.30900 43.58900 29.36500
C  0.65100 43.30000 30.75900
C  -0.78300 42.90100 30.29600
C  -0.80400 43.20900 28.72900
C  -1.22200 41.42200 30.64000
C  0.68000 44.55200 31.68300
C  1.25800 44.22700 33.05000
H  0.75000 43.07600 33.82900
N  -0.87200 43.15700 25.61800
C  -1.93900 42.98400 26.44100
C  -3.16900 42.74900 25.69700
C  -2.80400 42.81900 24.35200
C  -1.35000 42.99000 24.35600
C  -4.57700 42.65100 26.38500
C  -3.79100 42.66600 23.13700
O  -3.37900 42.51700 22.00700
C  -5.29200 42.58000 23.36300
N  1.73300 43.60800 24.16500
C  0.92600 43.36200 23.14400
C  1.79800 43.22600 21.82300
C  3.14100 43.82400 22.18500
C  2.97700 43.81200 23.75800
C  1.72500 41.74600 21.42100
C  3.43400 45.19000 21.58900
C  3.06800 46.45800 22.34200
N  3.03800 44.01900 26.58200
C  4.18700 44.08800 25.83100
C  5.35100 43.96500 26.68100
C  4.78500 43.89400 27.97600
C  3.40300 43.91300 27.83400
C  6.82600 44.06800 26.19300
C  5.17000 43.81700 29.38000
O  6.27100 43.86300 29.94600
C  3.89300 43.66700 30.17900
C  3.95000 42.38800 30.83400
O  3.61200 41.32800 30.27700
O  4.61700 42.49100 32.08200
C  4.78900 41.08200 32.67200
H  -2.64300 42.49400 28.42400
H  -0.96600 43.02000 22.28800
H  5.00900 44.12300 23.89400
H  1.20300 42.46400 31.18900
H  -1.58400 43.49500 30.73600
H  -1.44800 40.95800 29.68000
H  -2.00800 41.43800 31.39500
H  -0.33100 40.92400 31.02300
H  -0.36900 44.81400 31.81800
H  1.24400 45.34900 31.19900
H  1.23000 45.16300 33.60800
H  2.29100 44.01700 32.77300
H  -4.27400 42.60700 27.43100
H  -5.05700 41.71300 26.10600
H  -5.13900 43.53400 26.08100
H  -5.74000 42.51200 22.37100
H  -5.68300 43.47900 23.84000
H  -5.50600 41.62200 23.83500
H  1.35200 43.68800 20.94300
H  3.90900 43.20600 21.72100
H  1.07700 41.48700 20.58300
H  1.31800 41.02900 22.13400
H  2.75400 41.46000 21.19900
H  3.09200 45.27900 20.55800
H  4.50200 45.18800 21.37500
H  3.77500 46.67600 23.14300
H  2.19200 46.31500 22.97600
H  2.97000 47.31900 21.68100
H  6.97000 44.95500 25.57700
H  7.01300 43.15000 25.63500
H  7.52600 44.17900 27.02100
H  3.82700 44.41400 30.97000
H  5.38500 41.21800 33.57400
H  5.45100 40.59900 31.95400
H  3.84600 40.63600 32.99100

