158

Mg 24.64200 -7.11100 48.67000
C  27.13700 -5.12300 47.05400
C  22.54100 -6.47400 45.91900
C  22.61600 -9.58500 49.69600
C  27.16400 -8.14100 50.94700
N  24.87300 -5.96900 46.72200
C  25.96500 -5.24700 46.32100
C  25.64100 -4.55100 44.96700
C  24.11700 -4.84000 44.61200
C  23.79600 -5.79400 45.84400
C  23.19100 -3.58600 44.59300
C  26.56800 -4.95200 43.80900
C  27.39200 -3.92000 43.09900
H  27.21600 -3.69000 41.64100
N  22.68400 -7.76600 48.14500
C  22.04300 -7.28600 47.03200
C  20.70000 -7.89700 47.05200
C  20.63500 -8.81200 48.19000
C  22.03900 -8.82600 48.68200
C  19.69300 -7.73900 46.00500
C  19.49800 -9.63200 48.79600
O  18.39300 -9.62700 48.30600
C  19.61500 -10.33500 50.10700
N  24.86800 -8.57100 50.17000
C  23.88700 -9.60800 50.33100
C  24.16600 -10.39000 51.63700
C  25.56000 -9.84200 52.12600
C  25.88100 -8.77700 51.06600
C  23.00000 -10.43700 52.70200
C  26.56000 -11.03700 52.31200
C  27.25300 -10.96300 53.66700
N  26.67500 -6.57900 49.11400
C  27.54600 -7.18800 49.95900
C  28.87900 -6.62800 49.83400
C  28.76800 -5.75800 48.72300
C  27.43400 -5.86700 48.27700
C  29.99600 -6.95900 50.76600
C  29.46700 -4.84000 47.86800
O  30.64200 -4.36400 47.98800
C  28.44000 -4.39300 46.73400
C  28.31200 -2.92000 46.97000
O  27.98400 -2.35500 48.03400
O  28.55200 -2.28200 45.79800
C  28.69800 -0.80400 45.88100
H  21.86300 -6.28400 45.08400
H  22.13100 -10.43800 50.17300
H  27.90800 -8.54300 51.63700
H  25.75400 -3.48700 45.17800
H  24.00100 -5.39200 43.67900
H  22.64900 -3.56100 43.64800
H  23.62400 -2.61500 44.83700
H  22.40900 -3.64700 45.35000
H  26.00400 -5.41000 42.99600
H  27.23400 -5.69700 44.24500
H  28.45400 -4.16100 43.07400
H  27.17900 -2.96800 43.58600
H  18.68700 -7.71000 46.42300
H  19.77000 -8.56300 45.29700
H  19.81800 -6.76800 45.52600
H  20.09800 -11.29600 49.92800
H  18.59900 -10.51700 50.45600
H  20.16300 -9.64700 50.75100
H  24.28000 -11.41800 51.29200
H  25.48500 -9.30700 53.07200
H  22.12400 -9.91900 52.31300
H  23.36500 -9.89100 53.57100
H  22.66800 -11.42800 53.01300
H  27.36600 -10.85100 51.60200
H  26.15100 -12.04000 52.18900
H  28.29100 -10.73300 53.42700
H  27.18400 -11.93700 54.15300
H  26.93300 -10.28800 54.46000
H  30.07900 -6.23600 51.57700
H  30.87300 -6.90500 50.12100
H  29.83500 -7.96100 51.16400
H  28.92600 -4.66500 45.79600
H  28.93600 -0.54200 44.85000
H  29.43900 -0.43700 46.59100
H  27.69100 -0.46300 46.12400
Mg -1.78300 34.51900 26.27500
C  -3.14600 32.56100 28.92700
C  -0.65700 36.73400 28.45100
C  -0.88600 36.19100 23.56100
C  -3.41800 32.07700 24.07700
N  -2.00500 34.59300 28.43500
C  -2.43800 33.71300 29.27900
C  -2.10500 34.24900 30.73100
C  -1.45500 35.60100 30.59000
C  -1.39500 35.70200 29.08400
C  -2.03800 36.80100 31.35900
C  -1.30300 33.10400 31.46800
C  -1.90400 32.50500 32.74500
H  -1.03500 32.43700 34.05200
N  -0.84100 36.20000 26.02800
C  -0.35300 36.95700 27.06000
C  0.49000 37.99200 26.54800
C  0.37900 37.89700 25.12900
C  -0.44300 36.67200 24.80400
C  1.25800 38.96500 27.52700
C  0.98400 38.75200 24.06000
O  0.70800 38.56700 22.86500
C  1.93600 39.83000 24.42900
N  -2.36000 34.23000 24.08300
C  -1.67600 35.05000 23.21600
C  -1.78400 34.60300 21.78600
C  -2.32300 33.08400 22.06700
C  -2.64000 33.09900 23.51600
C  -2.83600 35.35000 20.94200
C  -1.41100 31.86400 21.63100
C  -0.04900 31.87300 22.36200
N  -3.17000 32.75600 26.42500
C  -3.67300 31.84900 25.46100
C  -4.38800 30.77000 26.10400
C  -4.27200 31.04700 27.49100
C  -3.51600 32.23500 27.61700
C  -4.80900 29.53700 25.42600
C  -4.59200 30.49300 28.82100
O  -5.14200 29.46100 29.18300
C  -3.86600 31.52100 29.79400
C  -4.85700 32.13900 30.78300
O  -5.54800 33.07800 30.48100
O  -4.88300 31.50800 31.99800
C  -5.90200 31.98400 32.85500
H  -0.40700 37.52900 29.15600
H  -0.51600 36.69000 22.66300
H  -3.74300 31.38900 23.29400
H  -3.09800 34.36600 31.16500
H  -0.40500 35.60300 30.88200
H  -2.56300 37.45000 30.65700
H  -1.32300 37.39600 31.92800
H  -2.79300 36.54100 32.10100
H  -0.40200 33.51100 31.92800
H  -1.03600 32.33600 30.74100
H  -1.92400 31.43500 32.53400
H  -2.87900 32.96200 32.90900
H  0.92000 39.99600 27.42400
H  2.29700 38.80000 27.24200
H  1.30100 38.70100 28.58400
H  2.33400 40.40200 23.59000
H  2.72800 39.36300 25.01500
H  1.41700 40.50700 25.10700
H  -0.81800 34.62600 21.28000
H  -3.29300 32.88300 21.61200
H  -3.25900 36.16800 21.52500
H  -3.59500 34.68800 20.52400
H  -2.30100 35.70400 20.06100
H  -1.29600 31.94400 20.55000
H  -1.97400 30.95800 21.86000
H  -0.00100 32.66200 23.11300
H  0.78800 32.02100 21.68000
H  0.23000 30.94800 22.86700
H  -4.17400 29.37400 24.55600
H  -5.86400 29.60700 25.16300
H  -4.67600 28.66300 26.06500
H  -3.19300 31.01900 30.48800
H  -5.46400 32.61200 33.63100
H  -6.33900 31.06900 33.25600
H  -6.75600 32.48300 32.39700

