158

Mg 40.60600 8.66900 29.68900
C  42.31000 10.03600 32.53300
C  38.35900 7.25100 31.85500
C  39.10400 7.33600 27.01200
C  42.96400 10.19500 27.69100
N  40.49500 8.53500 31.98200
C  41.22200 9.21700 32.88700
C  40.61600 9.07200 34.30200
C  39.55300 7.97800 34.05300
C  39.46900 7.85100 32.50800
C  39.80300 6.65100 34.74500
C  40.11300 10.55800 34.70700
C  40.77700 11.19500 35.94000
H  39.93000 11.87800 36.97000
N  38.97900 7.50600 29.48300
C  38.18500 7.03200 30.43400
C  37.11400 6.28700 29.89000
C  37.22000 6.40100 28.48200
C  38.46800 7.06700 28.26200
C  36.04500 5.61800 30.74500
C  36.16600 5.98400 27.38700
O  36.32400 6.11800 26.15200
C  34.86100 5.22800 27.84500
N  40.89700 8.87800 27.66900
C  40.19600 8.17200 26.72600
C  40.75600 8.34600 25.24100
C  41.93900 9.28200 25.47900
C  41.92200 9.45600 27.06100
C  41.15500 7.03400 24.48600
C  41.83800 10.71900 24.79100
C  42.95700 11.08700 23.77200
N  42.37100 9.85800 29.98600
C  43.24000 10.33800 29.07100
C  44.30400 11.02500 29.72700
C  44.00100 10.96900 31.02800
C  42.79500 10.23300 31.14800
C  45.40700 11.70600 29.09100
C  44.36100 11.41800 32.34700
O  45.27000 12.14100 32.73600
C  43.26800 10.91400 33.26200
C  43.93600 10.17900 34.42800
O  44.40700 9.11000 34.34900
O  44.03300 11.02100 35.54300
C  44.72700 10.34400 36.66400
H  37.49300 7.03700 32.48600
H  38.66200 6.81900 26.15800
H  43.65900 10.63000 26.97000
H  41.43000 8.65800 34.89800
H  38.57700 8.42100 34.25000
H  39.88700 5.77700 34.10000
H  38.97800 6.38300 35.40500
H  40.71000 6.74700 35.34300
H  39.08400 10.31700 34.97100
H  40.10900 11.34900 33.95700
H  41.53700 11.91200 35.62900
H  41.40900 10.43300 36.39600
H  36.59900 5.13500 31.55000
H  35.52900 4.78400 30.26800
H  35.27500 6.29800 31.11000
H  34.31100 5.81200 28.58300
H  35.36900 4.30300 28.11800
H  34.23300 5.23300 26.95400
H  39.86100 8.75200 24.77000
H  42.88900 8.87500 25.13200
H  40.47100 6.95000 23.64200
H  41.02600 6.25000 25.23300
H  42.20800 7.10900 24.21800
H  41.77200 11.55300 25.49000
H  40.86500 10.81000 24.30800
H  43.76900 10.36100 23.80200
H  43.32400 11.97300 24.29000
H  42.46600 11.08000 22.79900
H  45.13600 12.67500 28.67300
H  45.72200 11.04800 28.28100
H  46.28200 11.68100 29.74100
H  42.93600 11.87500 33.65600
H  45.79300 10.14100 36.55900
H  44.15000 9.51100 37.06600
H  44.67500 10.96700 37.55700
Mg -10.69400 38.74000 40.62700
C  -9.06500 35.64000 39.80000
C  -8.02600 40.31500 39.12500
C  -12.56700 41.55000 40.40500
C  -13.47700 36.92100 41.27900
N  -8.76700 38.01000 39.68100
C  -8.33500 36.71800 39.36300
C  -6.91700 36.61800 38.70400
C  -6.59800 38.15200 38.61000
C  -7.84700 38.89600 39.22300
C  -5.18200 38.51900 39.29100
C  -6.92300 35.74700 37.42100
C  -6.45900 36.38900 36.11100
H  -7.45900 37.22300 35.28500
N  -10.27600 40.75900 40.12000
C  -9.11000 41.17200 39.49400
C  -9.11900 42.59200 39.32300
C  -10.39000 43.05500 39.75200
C  -11.16900 41.78500 40.14700
C  -7.94100 43.38700 38.79700
C  -10.81500 44.53100 39.81000
O  -10.09000 45.43900 39.43400
C  -12.12200 44.86300 40.36700
N  -12.73900 39.21700 40.57200
C  -13.22500 40.40200 40.76900
C  -14.77700 40.38000 41.03000
C  -15.04000 38.82800 41.27100
C  -13.67700 38.29300 41.02800
C  -15.16900 41.20500 42.24900
C  -16.10300 38.21800 40.29400
C  -17.48300 38.00100 40.89700
N  -11.20500 36.67600 40.71300
C  -12.42200 36.10200 41.08700
C  -12.23100 34.66100 41.27100
C  -10.94800 34.39400 40.72500
C  -10.36600 35.67100 40.41500
C  -13.23100 33.63300 41.79600
C  -10.01200 33.37300 40.39900
O  -10.01700 32.14700 40.50100
C  -8.72300 34.16600 39.81400
C  -7.44600 33.93200 40.67700
O  -7.39400 33.95000 41.89200
O  -6.32100 33.75500 39.86000
C  -5.01100 33.59500 40.57200
H  -7.17000 40.78500 38.63700
H  -13.26100 42.38500 40.51700
H  -14.28100 36.31100 41.69600
H  -6.34800 36.10700 39.48200
H  -6.41000 38.52000 37.60200
H  -4.79600 37.59900 39.73200
H  -5.21500 39.33100 40.01700
H  -4.55200 38.80100 38.44700
H  -7.97100 35.47600 37.29600
H  -6.32300 34.86700 37.65600
H  -6.12100 35.61800 35.42000
H  -5.60700 37.04700 36.28500
H  -8.23400 43.59300 37.76800
H  -7.04800 42.76800 38.71200
H  -7.65600 44.18500 39.48200
H  -12.22500 44.53800 41.40300
H  -12.86100 44.39400 39.71700
H  -12.30400 45.90800 40.11600
H  -15.29100 40.76600 40.15000
H  -15.37700 38.60500 42.28400
H  -15.81500 41.99000 41.85600
H  -14.31700 41.72000 42.69200
H  -15.65700 40.58000 42.99700
H  -15.64800 37.34600 39.82600
H  -16.28700 38.89500 39.46000
H  -18.20500 38.44200 40.21000
H  -17.60600 38.31100 41.93500
H  -17.54300 36.91600 40.80800
H  -14.22100 33.75200 41.35700
H  -13.25200 33.81300 42.87100
H  -12.94400 32.58300 41.73800
H  -8.68400 33.83200 38.77700
H  -4.87100 32.63200 41.06300
H  -4.85200 34.39200 41.29900
H  -4.29000 33.70600 39.76200

