158

Mg 44.03700 3.31300 47.56600
C  42.15800 6.28900 47.43400
C  41.03600 1.55300 47.62900
C  45.85300 0.56800 47.32800
C  46.92500 5.30300 47.00000
N  41.89100 3.90400 47.35700
C  41.34200 5.16000 47.49100
C  39.78100 5.11300 47.46900
C  39.53200 3.55000 47.63600
C  40.92600 2.96400 47.70600
C  38.63300 3.08100 48.77000
C  39.05900 5.69300 46.31200
C  39.62100 5.14200 44.98400
H  40.05000 6.32200 43.99800
N  43.49400 1.27500 47.45800
C  42.19200 0.75600 47.63100
C  42.31000 -0.67300 47.49300
C  43.65900 -1.02500 47.25500
C  44.42500 0.25100 47.33300
C  41.13000 -1.55300 47.67200
C  44.17700 -2.42000 46.98600
O  43.39300 -3.40600 47.01700
C  45.62200 -2.60600 46.65900
N  46.03800 3.02200 47.33900
C  46.56900 1.76000 47.27300
C  48.13700 1.70300 47.07300
C  48.41400 3.21100 46.90700
C  47.01600 3.91400 47.11600
C  48.83700 0.96300 48.23100
C  49.12600 3.49300 45.48100
C  50.63300 3.77000 45.51000
N  44.51000 5.33600 47.37400
C  45.70100 5.98300 47.11500
C  45.47700 7.38600 47.17100
C  44.12300 7.54200 47.28400
C  43.53800 6.28500 47.37200
C  46.53800 8.41900 46.96100
C  43.04000 8.54800 47.31000
O  43.06400 9.77900 47.34300
C  41.72100 7.74200 47.52800
C  41.11700 8.15300 48.87700
O  41.62900 8.00600 49.99800
O  39.79500 8.54200 48.66000
C  39.01100 8.69000 49.85600
H  40.10500 0.98800 47.71400
H  46.49600 -0.31200 47.28200
H  47.87200 5.80700 46.79800
H  39.36000 5.54600 48.37700
H  39.03300 3.14500 46.75600
H  39.36700 2.93800 49.56300
H  38.10200 2.13300 48.69300
H  37.98700 3.89900 49.08700
H  39.20000 6.77300 46.35600
H  38.00300 5.49000 46.49400
H  38.95500 4.42000 44.51200
H  40.48600 4.48200 45.06400
H  40.97600 -2.14500 46.77000
H  40.16700 -1.05400 47.77900
H  41.26100 -2.28100 48.47300
H  46.21400 -2.44200 47.55900
H  45.77700 -1.82300 45.91700
H  45.74000 -3.58600 46.19800
H  48.34000 1.21400 46.12100
H  49.14700 3.60100 47.61400
H  49.70700 1.54200 48.54100
H  49.15200 -0.04400 47.95700
H  48.14900 0.82100 49.06500
H  48.65000 4.39700 45.10100
H  48.96500 2.67900 44.77400
H  51.05300 3.30300 46.40100
H  50.85500 4.83700 45.46800
H  51.02100 3.22600 44.64900
H  47.38800 8.25800 47.62400
H  45.99500 9.29400 47.31800
H  46.91100 8.48200 45.93900
H  41.05700 7.99000 46.70100
H  37.98000 8.96400 49.63200
H  39.33500 9.40700 50.61000
H  38.99200 7.72500 50.36100
Mg -5.02400 24.80900 26.70700
C  -3.76400 26.81600 29.44700
C  -6.01300 22.56400 29.18300
C  -6.16100 22.88900 24.16200
C  -3.39900 26.84400 24.50400
N  -4.90800 24.75600 29.10800
C  -4.51600 25.77900 29.97900
C  -5.07700 25.52600 31.38100
C  -5.57500 24.00900 31.31000
C  -5.56100 23.77900 29.82400
C  -4.61400 23.01400 32.11700
C  -6.19200 26.57500 31.84900
C  -5.97600 27.22100 33.21500
H  -6.96300 26.80400 34.25600
N  -5.96000 22.97000 26.64400
C  -6.29500 22.24400 27.77000
C  -6.83600 21.02300 27.26500
C  -6.83500 21.04200 25.84900
C  -6.35700 22.35700 25.45000
C  -7.42800 20.07200 28.13700
C  -7.30800 20.07200 24.75100
O  -7.38900 20.34200 23.53200
C  -7.59400 18.64300 25.22400
N  -4.99000 24.85400 24.65400
C  -5.54900 24.06700 23.74100
C  -5.24600 24.35100 22.31700
C  -4.32800 25.66800 22.43600
C  -4.24800 25.80500 23.95700
C  -4.56000 23.17200 21.57000
C  -4.88600 26.96700 21.75300
C  -3.99100 27.71300 20.79800
N  -3.91400 26.53400 26.86300
C  -3.27900 27.20200 25.85700
C  -2.55600 28.26500 26.41000
C  -2.68400 28.13800 27.77400
C  -3.54600 27.08900 28.06900
C  -1.71500 29.26300 25.55200
C  -2.37200 28.77400 29.02000
O  -1.63000 29.72500 29.25100
C  -3.02100 27.92400 30.20600
C  -1.88700 27.37900 31.06500
O  -0.77700 27.08900 30.63200
O  -2.27900 27.21300 32.35400
C  -1.26400 26.72400 33.32000
H  -6.30300 21.81000 29.91800
H  -6.40400 22.26900 23.29700
H  -2.76700 27.38300 23.79400
H  -4.28200 25.49800 32.12700
H  -6.56300 23.71300 31.66200
H  -4.18300 22.20900 31.52100
H  -5.19000 22.58200 32.93500
H  -3.80200 23.59300 32.55800
H  -7.17900 26.11100 31.84900
H  -6.22100 27.36200 31.09500
H  -5.98200 28.29700 33.04100
H  -5.02300 26.89800 33.63400
H  -8.44300 19.89800 27.77900
H  -7.45300 20.30600 29.20100
H  -6.87000 19.14900 27.97900
H  -7.86200 17.88000 24.49300
H  -8.39100 18.71700 25.96300
H  -6.62800 18.43400 25.68400
H  -6.25300 24.47600 21.92000
H  -3.33200 25.36500 22.11500
H  -4.00300 22.55700 22.27700
H  -3.92500 23.41600 20.71900
H  -5.37000 22.49400 21.29900
H  -5.11900 27.69100 22.53400
H  -5.81600 26.81700 21.20500
H  -3.60000 28.61500 21.26900
H  -4.47200 27.90400 19.83900
H  -3.15300 27.07700 20.51600
H  -2.20800 29.81100 24.75000
H  -0.81800 28.74900 25.20600
H  -1.47900 29.91900 26.39000
H  -3.68800 28.51000 30.83800
H  -0.31000 27.25000 33.27700
H  -1.22900 25.66400 33.06900
H  -1.76400 26.85200 34.27900

