158

Mg 35.77300 2.64600 30.77700
C  33.30000 3.57400 33.24100
C  38.13300 2.79000 33.35300
C  38.15800 2.11300 28.55500
C  33.37100 2.81000 28.46500
N  35.70600 2.99200 33.04300
C  34.62000 3.37300 33.79700
C  35.01600 3.65100 35.23700
C  36.59000 3.64900 35.18200
C  36.84000 3.05000 33.82000
C  37.35900 4.94900 35.52500
C  34.25700 2.60600 36.17400
C  34.09300 2.88100 37.64300
H  35.01600 3.91400 38.31800
N  37.91000 2.50900 30.95900
C  38.66500 2.63000 32.05400
C  40.08000 2.43700 31.69700
C  40.10600 2.17400 30.30100
C  38.72000 2.27300 29.85700
C  41.23000 2.57100 32.64500
C  41.25700 1.73600 29.37300
O  41.12700 1.56300 28.15600
C  42.62300 1.58200 29.96700
N  35.73300 2.41900 28.83600
C  36.83700 2.19900 28.08400
C  36.45000 1.94600 26.63000
C  34.89300 1.96300 26.61600
C  34.64100 2.45500 27.98900
C  37.08000 2.96500 25.56500
C  34.09800 0.65000 26.29300
C  34.05900 0.32600 24.78500
N  33.78200 3.22300 30.78100
C  32.89000 3.15500 29.71400
C  31.58100 3.47400 30.12300
C  31.71100 3.74400 31.51100
C  33.04700 3.56000 31.87500
C  30.38200 3.52500 29.22200
C  30.97600 3.95400 32.74800
O  29.77200 4.01800 32.98100
C  31.99900 3.99700 33.96300
C  31.96500 5.32700 34.56700
O  32.56600 6.32800 34.12600
O  31.17300 5.32200 35.63900
C  31.23400 6.54500 36.52100
H  38.88400 2.83200 34.14500
H  38.90800 2.03200 27.76400
H  32.63300 2.87300 27.66200
H  34.67300 4.62500 35.58900
H  36.75600 2.92900 35.98300
H  37.86200 5.28400 34.61800
H  38.22500 4.73600 36.15100
H  36.65000 5.72600 35.81100
H  34.90300 1.73200 36.08700
H  33.29200 2.33100 35.75000
H  34.24500 1.98600 38.24600
H  33.04000 3.05300 37.86900
H  40.99700 3.04600 33.59800
H  41.91300 3.30000 32.20900
H  41.87000 1.73000 32.91300
H  42.55800 1.02300 30.90100
H  43.15200 2.51900 30.13800
H  43.33600 1.05800 29.33000
H  36.82800 0.93600 26.46900
H  34.60400 2.79800 25.97900
H  37.78800 2.48800 24.88700
H  37.58200 3.78000 26.08600
H  36.29300 3.45900 24.99600
H  33.08200 0.87800 26.61800
H  34.33000 -0.23400 26.88600
H  34.68100 1.06500 24.27900
H  33.10100 0.25300 24.27000
H  34.47200 -0.67300 24.64500
H  29.74300 2.79400 29.71700
H  30.46300 3.24200 28.17300
H  29.70500 4.37900 29.24300
H  31.73500 3.25100 34.71200
H  31.17200 6.22900 37.56200
H  30.40500 7.18700 36.22200
H  32.19300 7.05300 36.41700
Mg 41.92200 41.11600 27.31600
C  41.05800 43.34300 29.61200
C  43.02600 38.92800 29.72700
C  42.64700 38.90900 24.82200
C  41.08300 43.53100 24.77700
N  41.88900 41.06200 29.36600
C  41.48000 42.13500 30.14100
C  41.56300 41.81200 31.67900
C  42.50200 40.57000 31.62500
C  42.49400 40.15400 30.18100
C  43.89900 40.67800 32.32300
C  40.18400 41.57900 32.38100
C  39.96700 42.57000 33.52500
H  39.15100 41.85800 34.72700
N  42.71800 39.14600 27.29800
C  43.08000 38.37800 28.40600
C  43.40400 37.11900 27.91400
C  43.25400 37.03700 26.50700
C  42.88000 38.39500 26.12300
C  43.74800 36.03900 28.88800
C  43.49700 35.89100 25.54300
O  43.40500 36.00500 24.30500
C  43.95700 34.52700 26.03700
N  42.16700 41.32400 25.07500
C  42.33700 40.16100 24.31900
C  42.40500 40.55700 22.85100
C  41.66300 41.86700 22.76000
C  41.62600 42.31200 24.29600
C  43.84000 40.48800 22.21800
C  40.25700 41.76400 22.06100
C  39.10900 41.23000 22.95300
N  41.14300 43.06500 27.15700
C  40.82800 43.91400 26.10900
C  40.36700 45.17300 26.67600
C  40.38300 44.98300 28.04700
C  40.85700 43.66700 28.27600
C  39.95000 46.40200 25.89400
C  40.18400 45.61800 29.26300
O  39.79700 46.76100 29.48000
C  40.59300 44.58700 30.33000
C  41.57300 45.10600 31.26300
O  42.75100 44.87700 31.28300
O  40.87300 45.75500 32.29600
C  41.64200 46.18200 33.47900
H  43.29400 38.22300 30.51800
H  42.80900 38.20000 24.00700
H  40.84600 44.31700 24.05700
H  42.10800 42.71200 31.96300
H  41.98300 39.82700 32.23000
H  43.90200 40.08300 33.23600
H  44.18700 41.68400 32.62900
H  44.69700 40.36200 31.65000
H  40.19000 40.55200 32.74700
H  39.35700 41.72800 31.68800
H  39.43000 43.48100 33.26300
H  40.96200 42.86100 33.86200
H  42.93200 35.32000 28.81900
H  43.65900 36.41400 29.90800
H  44.71000 35.59300 28.63600
H  44.15400 33.72600 25.32400
H  43.18700 34.18600 26.72900
H  44.82200 34.69800 26.67800
H  41.87200 39.76000 22.33300
H  42.24700 42.58500 22.18500
H  44.54800 40.70500 23.01700
H  43.96200 41.13500 21.34900
H  44.06900 39.47500 21.88800
H  40.35100 41.07300 21.22400
H  39.95000 42.70500 21.60500
H  39.41100 40.74400 23.88100
H  38.49900 40.53700 22.37400
H  38.37100 42.01400 23.12500
H  39.51200 45.94500 25.00600
H  40.76900 47.11200 25.77500
H  39.14400 46.89300 26.43900
H  39.69200 44.21500 30.81800
H  41.90100 45.31100 34.08100
H  41.14100 46.89200 34.13800
H  42.63000 46.58100 33.24900

