158

Mg -2.09000 34.63600 26.06800
C  -3.65900 32.86700 28.60200
C  -0.86000 36.81000 28.43600
C  -0.85200 36.54900 23.57800
C  -3.74000 32.58600 23.74600
N  -2.21400 34.80600 28.25600
C  -2.80700 33.93100 29.09000
C  -2.51100 34.27400 30.54100
C  -1.80100 35.67100 30.43100
C  -1.58300 35.77300 28.90400
C  -2.66700 36.85600 31.02700
C  -1.72500 33.18200 31.37200
C  -2.37100 32.75000 32.74500
H  -1.44100 33.00800 33.99200
N  -0.87300 36.17600 26.02000
C  -0.40000 36.89800 27.10700
C  0.57900 37.88300 26.62200
C  0.64300 37.79000 25.20700
C  -0.39500 36.81700 24.87200
C  1.29900 38.76400 27.64200
C  1.57800 38.38300 24.20700
O  1.57900 38.05900 23.01100
C  2.73500 39.34600 24.56400
N  -2.49200 34.70900 23.94300
C  -1.79900 35.58400 23.16000
C  -1.90700 35.11100 21.68000
C  -2.76900 33.82200 21.74700
C  -3.05300 33.68100 23.19500
C  -2.53500 36.27300 20.84900
C  -2.00700 32.53300 21.20100
C  -1.21400 31.63900 22.07200
N  -3.46500 33.10500 26.06900
C  -4.03100 32.35300 25.06000
C  -4.80400 31.29700 25.60500
C  -4.71500 31.50700 26.95600
C  -3.89800 32.58100 27.22100
C  -5.62700 30.28500 24.77600
C  -5.22900 30.97600 28.20300
O  -6.02300 30.08900 28.48700
C  -4.57600 31.88500 29.32900
C  -5.64000 32.54800 30.14300
O  -6.04700 33.66200 29.87800
O  -5.94900 31.81800 31.27700
C  -6.90600 32.55100 32.18800
H  -0.51600 37.55000 29.16200
H  -0.59900 37.22100 22.75600
H  -4.13900 31.85600 23.03900
H  -3.49500 34.25300 31.00700
H  -0.86100 35.78900 30.96800
H  -3.17500 37.30000 30.17100
H  -1.92100 37.51500 31.47200
H  -3.43200 36.47900 31.70600
H  -0.70900 33.48500 31.62600
H  -1.84600 32.34900 30.67900
H  -2.67100 31.70200 32.75800
H  -3.33600 33.25200 32.81900
H  1.48500 39.77200 27.27000
H  2.26900 38.26900 27.69400
H  0.84900 38.83300 28.63200
H  3.07700 39.90500 23.69300
H  3.57200 38.77700 24.96900
H  2.29700 40.12000 25.19400
H  -0.89200 34.87600 21.36000
H  -3.72500 33.97600 21.24600
H  -2.74400 37.11000 21.51600
H  -3.45500 36.02300 20.32200
H  -1.77300 36.70300 20.19900
H  -1.34200 32.96900 20.45600
H  -2.76400 31.92400 20.70800
H  -1.63600 30.63500 22.03100
H  -1.13500 32.00600 23.09500
H  -0.15500 31.53300 21.83900
H  -5.51200 29.35200 25.32700
H  -5.04600 30.16400 23.86200
H  -6.62300 30.70800 24.64200
H  -4.05100 31.18000 29.97400
H  -6.43900 33.50600 32.42900
H  -7.17600 32.01300 33.09600
H  -7.78800 32.72000 31.57000
Mg -12.28300 15.91800 41.52200
C  -9.08400 14.49300 41.33200
C  -11.11200 18.79600 40.06800
C  -15.45200 16.74500 40.88400
C  -13.41800 12.79200 42.75500
N  -10.40600 16.46600 40.59800
C  -9.16800 15.78600 40.73600
C  -7.98700 16.65800 40.28800
C  -8.68500 18.02700 40.05300
C  -10.14500 17.79800 40.27500
C  -8.13000 19.13800 41.12500
C  -7.23600 16.21900 39.01700
C  -5.87300 16.71000 38.86600
H  -5.66900 17.69100 37.68900
N  -13.10900 17.54400 40.56200
C  -12.47900 18.65000 40.24200
C  -13.37300 19.65200 40.01300
C  -14.65500 19.08200 40.11600
C  -14.44800 17.70200 40.44200
C  -13.02400 21.06200 39.58000
C  -16.01700 19.80000 39.81800
O  -16.01400 20.98700 39.49500
C  -17.39200 19.07900 39.96100
N  -14.17000 14.85700 41.71800
C  -15.33400 15.49900 41.48200
C  -16.55400 14.64400 41.99800
C  -15.91300 13.36200 42.56800
C  -14.42500 13.69500 42.40200
C  -17.52800 15.36100 42.99600
C  -16.42900 12.01100 41.90400
C  -17.41100 11.16800 42.74900
N  -11.45100 14.10500 42.08800
C  -12.04800 12.94000 42.52500
C  -11.01600 11.98200 42.86800
C  -9.82700 12.60400 42.45500
C  -10.16200 13.86400 41.90800
C  -11.21500 10.66100 43.60400
C  -8.36600 12.41900 42.37900
O  -7.63800 11.56900 42.80000
C  -7.86200 13.70200 41.65000
C  -6.92600 14.41500 42.55300
O  -7.23000 15.27400 43.35200
O  -5.66700 13.98200 42.28600
C  -4.70400 14.84600 42.92800
H  -10.78600 19.82900 39.93300
H  -16.46000 17.15900 40.95500
H  -13.82600 11.87200 43.17900
H  -7.22800 16.72400 41.06800
H  -8.69500 18.33500 39.00700
H  -9.03800 19.64000 41.45900
H  -7.51400 19.90800 40.66000
H  -7.50900 18.73800 41.92700
H  -7.87500 16.45800 38.16700
H  -7.20000 15.13700 39.14000
H  -5.16200 15.92000 38.62500
H  -5.49300 17.14900 39.78900
H  -13.07000 21.21800 38.50200
H  -12.03400 21.35700 39.92700
H  -13.67700 21.81600 40.01900
H  -18.08100 19.68600 39.37300
H  -17.73900 19.04700 40.99400
H  -17.32500 18.11400 39.45900
H  -17.12800 14.42700 41.09700
H  -16.11400 13.33200 43.63900
H  -17.58000 14.95100 44.00400
H  -18.52900 15.39700 42.56500
H  -17.09400 16.35600 43.08700
H  -15.56700 11.34900 41.81900
H  -16.83700 12.11100 40.89900
H  -18.29600 11.73700 43.03300
H  -16.92300 10.69000 43.59900
H  -17.72000 10.44100 41.99700
H  -10.57200 9.82900 43.31600
H  -12.17000 10.37400 43.16500
H  -11.29800 10.85800 44.67300
H  -7.42800 13.28800 40.74000
H  -4.80200 15.84300 42.49700
H  -3.73200 14.43100 42.65900
H  -4.74500 14.95300 44.01200

