158

Mg 1.42600 -1.23800 44.03000
C  4.83600 -0.36500 43.78500
C  0.59300 1.59000 42.45900
C  -1.76000 -2.49100 43.93600
C  2.50400 -4.11800 45.95300
N  2.64100 0.37400 43.20000
C  4.00000 0.59700 43.25700
C  4.35500 2.00900 42.77100
C  2.96800 2.67100 42.57200
C  1.98100 1.52400 42.75000
C  2.67600 3.91300 43.50700
C  5.36500 2.15500 41.52400
C  5.45300 1.03700 40.49400
H  5.18600 1.36600 39.05400
N  -0.32800 -0.58300 43.14900
C  -0.45000 0.62100 42.50200
C  -1.81700 0.66800 41.99900
C  -2.58700 -0.45600 42.53500
C  -1.52800 -1.23700 43.18500
C  -2.28000 1.84800 41.12700
C  -4.05500 -0.76200 42.37000
O  -4.74300 0.11000 41.83600
C  -4.80100 -2.00800 42.82700
N  0.54000 -3.15200 44.69900
C  -0.87100 -3.25600 44.68000
C  -1.25500 -4.54800 45.47900
C  0.07500 -4.90300 46.32100
C  1.14300 -3.96700 45.66400
C  -2.57300 -4.43000 46.38800
C  0.53000 -6.36500 46.16000
C  0.89500 -6.85300 44.72800
N  3.27700 -2.07700 44.72900
C  3.53100 -3.29700 45.46800
C  4.89500 -3.39800 45.68600
C  5.50600 -2.25000 45.06100
C  4.45300 -1.53200 44.42600
C  5.59800 -4.56500 46.36500
C  6.75500 -1.59300 44.76400
O  7.91400 -1.93300 45.00300
C  6.35100 -0.30000 43.94100
C  6.78700 0.93200 44.65700
O  6.43800 1.30000 45.74100
O  7.74600 1.63800 43.96500
C  8.21000 2.87900 44.51200
H  0.29500 2.57300 42.08900
H  -2.83600 -2.61200 44.07800
H  2.75700 -4.92700 46.64100
H  4.83500 2.43500 43.65200
H  2.96500 3.10000 41.57000
H  2.64200 4.83200 42.92200
H  3.38000 4.04000 44.33000
H  1.70500 3.85900 43.99800
H  6.38400 2.12100 41.91100
H  5.19800 3.07800 40.96900
H  4.80600 0.19300 40.73400
H  6.45700 0.61400 40.45600
H  -2.77700 2.60400 41.73400
H  -3.08900 1.52700 40.47100
H  -1.50700 2.22700 40.45800
H  -5.80300 -2.22500 42.45600
H  -4.80400 -2.10900 43.91200
H  -4.35600 -2.93500 42.46600
H  -1.56100 -5.41000 44.88600
H  0.07200 -4.61500 47.37200
H  -3.20700 -5.29700 46.20000
H  -3.16900 -3.53500 46.21100
H  -2.38000 -4.37000 47.45900
H  -0.40600 -6.87700 46.37800
H  1.32500 -6.56200 46.88000
H  1.94900 -7.12700 44.77800
H  0.67900 -6.17700 43.90100
H  0.34000 -7.74600 44.44000
H  5.51300 -4.52500 47.45100
H  6.63700 -4.64900 46.04700
H  5.11400 -5.45100 45.95500
H  7.00300 -0.35800 43.06900
H  9.07500 3.17200 43.91700
H  8.45600 2.81700 45.57200
H  7.35600 3.55300 44.43900
Mg -12.02700 38.08300 42.20600
C  -9.82000 35.28700 41.49500
C  -9.62500 40.10200 40.67100
C  -14.37900 40.44200 42.11300
C  -14.29100 35.74200 43.42300
N  -9.98400 37.67600 41.08500
C  -9.34300 36.49700 40.91800
C  -7.95400 36.69500 40.19000
C  -7.77500 38.33700 40.28800
C  -9.22900 38.76300 40.67400
C  -6.63300 38.94000 41.14000
C  -7.94300 36.13300 38.72800
C  -6.82400 35.06000 38.57200
H  -5.66400 35.31400 37.50300
N  -11.94800 40.03800 41.53400
C  -10.90800 40.67200 40.95900
C  -11.27200 42.07600 40.85100
C  -12.67700 42.24400 41.18100
C  -13.06600 40.84300 41.70900
C  -10.33000 43.16500 40.38600
C  -13.46600 43.57200 41.18200
O  -12.88500 44.65900 41.06800
C  -14.97000 43.61000 41.57500
N  -14.04600 38.00900 42.51700
C  -14.81700 39.15000 42.46300
C  -16.26300 38.82100 42.93200
C  -16.28800 37.27100 43.13900
C  -14.75700 36.97900 42.98900
C  -16.80500 39.65400 44.10800
C  -17.32800 36.37900 42.31100
C  -16.75300 35.78300 40.97200
N  -12.06800 35.97800 42.47100
C  -13.00500 35.24600 43.12900
C  -12.56400 33.90500 43.27800
C  -11.32200 33.85800 42.60700
C  -11.07200 35.19400 42.17800
C  -13.38300 32.83400 43.79900
C  -10.24600 33.04500 42.15300
O  -10.06700 31.83800 42.24000
C  -9.24100 33.91200 41.38800
C  -7.86000 33.74200 42.01300
O  -7.17600 32.76300 41.81100
O  -7.44200 34.82200 42.78500
C  -6.25900 34.58900 43.52900
H  -8.82800 40.79700 40.40000
H  -15.12300 41.23100 42.24500
H  -15.10300 35.02800 43.58000
H  -7.22100 36.23000 40.84900
H  -7.47300 38.63500 39.28400
H  -6.98900 39.87700 41.57000
H  -5.83200 39.10500 40.42000
H  -6.41600 38.24500 41.95000
H  -7.88500 36.95700 38.01700
H  -8.92300 35.70400 38.51700
H  -7.24500 34.06800 38.41200
H  -6.24800 35.03200 39.49700
H  -10.12200 43.85100 41.20700
H  -10.86500 43.76400 39.64900
H  -9.38500 42.80300 39.98300
H  -15.32000 43.31200 42.56400
H  -15.45700 42.87000 40.94000
H  -15.31700 44.60000 41.27800
H  -16.89500 38.97900 42.05800
H  -16.48400 37.05900 44.19000
H  -17.13800 38.98400 44.90000
H  -17.61300 40.28100 43.72900
H  -16.04700 40.35000 44.46800
H  -18.15900 37.00000 41.97700
H  -17.78000 35.62000 42.94900
H  -16.96800 34.72100 40.84700
H  -15.66900 35.77100 40.86200
H  -17.18200 36.21300 40.06700
H  -14.39100 32.88400 43.38800
H  -13.29000 32.82400 44.88500
H  -13.01700 31.86100 43.47200
H  -9.12300 33.56900 40.36000
H  -5.96200 33.54500 43.62800
H  -6.31700 34.96000 44.55300
H  -5.37900 35.09300 43.12900

