158

Mg 45.44300 3.78000 46.98900
C  43.37400 6.48700 46.62900
C  42.65800 1.60200 46.58100
C  47.40400 1.01800 47.07200
C  48.23200 5.88500 46.82600
N  43.31200 4.02600 46.43400
C  42.65400 5.25300 46.42700
C  41.16500 5.11500 46.31000
C  40.94200 3.58200 46.41800
C  42.43900 3.01000 46.44700
C  40.16600 3.22100 47.67900
C  40.72600 5.63500 44.93800
C  39.69400 6.74700 44.87000
H  39.92500 7.83200 43.80700
N  45.05000 1.52200 46.94300
C  43.86000 0.91500 46.76500
C  44.07200 -0.52000 46.89500
C  45.47500 -0.78300 46.93700
C  46.04200 0.58400 46.98900
C  42.92900 -1.45500 46.66000
C  46.19400 -2.09400 46.82500
O  45.54500 -3.09600 46.84500
C  47.68900 -2.18000 46.89000
N  47.53400 3.47400 46.62400
C  48.08000 2.24900 46.99900
C  49.59800 2.41400 47.28300
C  49.83500 3.96700 47.00000
C  48.44300 4.51500 46.76800
C  50.08200 1.85200 48.60900
C  50.63900 4.25800 45.66100
C  51.71200 5.40100 45.66400
N  45.82400 5.81300 46.79800
C  47.01800 6.53300 46.81800
C  46.63600 7.98700 46.91900
C  45.22400 8.03500 46.77900
C  44.75300 6.67400 46.76500
C  47.57100 9.14600 47.09400
C  44.08700 8.87200 46.75000
O  44.00900 10.11700 46.81800
C  42.86800 7.93400 46.61600
C  41.89400 8.28400 47.61300
O  41.93200 7.90000 48.74600
O  40.82800 9.01300 47.03100
C  39.73200 9.29100 48.00200
H  41.75000 1.00100 46.49800
H  48.18300 0.32100 47.38700
H  49.19100 6.34500 47.07300
H  40.58900 5.69000 47.03500
H  40.48500 3.09900 45.55500
H  39.23200 2.74400 47.38300
H  39.75300 4.07600 48.21300
H  40.67100 2.50200 48.32400
H  40.33700 4.88300 44.25100
H  41.58500 5.96100 44.35100
H  39.71800 7.30000 45.81000
H  38.67200 6.42600 44.66800
H  42.29800 -1.66500 47.52300
H  43.21500 -2.47100 46.38900
H  42.22600 -0.97100 45.98100
H  47.97200 -3.20000 46.63100
H  48.06600 -1.92900 47.88100
H  48.10300 -1.57700 46.08200
H  50.01300 1.91300 46.40900
H  50.38500 4.33500 47.86600
H  50.79600 1.04800 48.43400
H  49.26000 1.60200 49.27900
H  50.71800 2.54500 49.16000
H  49.91100 4.48500 44.88200
H  51.21300 3.37400 45.38400
H  51.51200 6.18900 44.93800
H  52.70800 4.98400 45.51200
H  51.75700 5.76700 46.69000
H  47.04400 10.09600 47.00200
H  48.25100 9.05700 46.24600
H  48.10300 8.98900 48.03300
H  42.41200 8.12300 45.64400
H  39.95600 10.10400 48.69200
H  39.31900 8.41500 48.50200
H  38.93400 9.77300 47.43800
Mg -10.38500 41.05100 40.57500
C  -9.18700 37.76700 39.75400
C  -7.24200 42.19100 39.33200
C  -11.71600 43.95800 39.98500
C  -13.44900 39.60800 41.18200
N  -8.40700 40.03300 39.73200
C  -8.17800 38.72900 39.48800
C  -6.80400 38.45100 38.92900
C  -6.14200 39.86800 39.07900
C  -7.32400 40.76200 39.47400
C  -5.01700 39.96000 40.08600
C  -6.90100 37.95500 37.46300
C  -5.49600 37.61300 36.91600
H  -5.46200 36.63600 35.73800
N  -9.57000 42.88100 39.91700
C  -8.29600 43.14200 39.50500
C  -8.16600 44.54100 39.44800
C  -9.40300 45.07800 39.57300
C  -10.31700 43.97800 39.70500
C  -6.79100 45.13800 39.11100
C  -9.61300 46.58900 39.63900
O  -8.65100 47.32100 39.49500
C  -10.89300 47.29500 39.88200
N  -12.28600 41.71200 40.62800
C  -12.62400 42.98500 40.43000
C  -14.08500 43.28300 40.73300
C  -14.59500 41.88300 41.15900
C  -13.39100 41.01200 40.97600
C  -14.35700 44.54300 41.58800
C  -15.84400 41.50500 40.37400
C  -16.85400 40.72700 41.13000
N  -11.12500 39.03500 40.63700
C  -12.41100 38.63900 40.94000
C  -12.42800 37.23100 40.95400
C  -11.18600 36.76200 40.47900
C  -10.45400 37.95600 40.21700
C  -13.55200 36.28600 41.21400
C  -10.35700 35.63800 40.16300
O  -10.55100 34.44400 40.25400
C  -9.02700 36.28200 39.55600
C  -7.94300 35.82400 40.36900
O  -7.92900 35.92300 41.56700
O  -7.14000 34.96900 39.61800
C  -6.26500 34.08900 40.41800
H  -6.24000 42.54900 39.08400
H  -12.18400 44.93800 39.87200
H  -14.39300 39.08800 41.36200
H  -6.21700 37.65100 39.37900
H  -5.74800 40.21500 38.12400
H  -4.02800 40.04600 39.63500
H  -5.00300 39.10800 40.76600
H  -5.12200 40.77000 40.80800
H  -7.28000 38.69000 36.75200
H  -7.64800 37.18800 37.25600
H  -4.93800 37.24600 37.77700
H  -5.10100 38.61000 36.72100
H  -6.88800 46.07500 38.56200
H  -6.16400 44.52900 38.46000
H  -6.29000 45.33800 40.05800
H  -10.51700 48.29300 40.10500
H  -11.25900 46.80000 40.78200
H  -11.56500 47.19100 39.03000
H  -14.49100 43.46100 39.73700
H  -14.77400 41.93400 42.23300
H  -15.23000 44.36100 42.21400
H  -14.61000 45.34300 40.89300
H  -13.45500 44.84000 42.12500
H  -15.51300 40.97000 39.48400
H  -16.32800 42.40600 39.99600
H  -16.80600 39.71400 40.73100
H  -17.85200 41.16400 41.09000
H  -16.59500 40.72000 42.18800
H  -13.80000 35.58400 40.41900
H  -14.49200 36.74200 41.52800
H  -13.28900 35.68700 42.08600
H  -8.88600 36.07400 38.49600
H  -5.67100 33.48600 39.73100
H  -6.96900 33.46300 40.96600
H  -5.64600 34.70700 41.06800

