158

Mg 16.94200 -2.24000 28.32700
C  15.99300 -0.39600 31.01300
C  18.90400 -4.27100 30.50400
C  18.55500 -3.67700 25.68600
C  15.66600 0.06700 26.08700
N  17.35500 -2.34000 30.54900
C  16.87100 -1.43000 31.45000
C  17.36900 -1.73600 32.88700
C  18.39600 -2.91700 32.67100
C  18.23000 -3.22200 31.13600
C  19.92400 -2.55400 33.00800
C  16.13300 -2.19500 33.80400
C  16.35400 -2.18200 35.27700
H  17.62100 -1.52700 35.90800
N  18.30500 -3.85100 28.13100
C  18.97800 -4.52000 29.13100
C  19.61300 -5.68200 28.59800
C  19.58400 -5.53000 27.15400
C  18.84400 -4.30300 26.97000
C  20.30400 -6.86200 29.40300
C  20.11800 -6.42400 26.02500
O  19.96000 -6.25000 24.82800
C  20.65900 -7.75700 26.42800
N  17.15300 -1.81300 26.08700
C  17.78400 -2.56800 25.27000
C  17.52000 -2.25600 23.80600
C  16.38700 -1.17800 23.97400
C  16.36500 -0.96800 25.50400
C  18.78200 -1.72700 23.12000
C  15.05000 -1.62100 23.16800
C  13.71000 -1.76900 23.97100
N  15.87200 -0.64300 28.43600
C  15.45900 0.25000 27.45400
C  14.73000 1.24700 28.12800
C  14.94800 1.06500 29.54300
C  15.65000 -0.15900 29.66800
C  13.94600 2.45400 27.39100
C  14.71100 1.65500 30.81600
O  14.18500 2.70200 31.08800
C  15.35500 0.72300 31.81900
C  16.34200 1.52600 32.55900
O  17.47100 1.77100 32.22000
O  15.79900 1.90900 33.74500
C  16.65400 2.74500 34.51400
H  19.43900 -4.95000 31.17000
H  18.96700 -4.11300 24.77400
H  15.09400 0.61300 25.33300
H  17.79900 -0.78700 33.20700
H  18.01100 -3.75200 33.25600
H  20.36000 -3.17100 33.79400
H  20.03900 -1.56700 33.45600
H  20.50900 -2.55400 32.08800
H  15.84100 -3.16400 33.39900
H  15.29700 -1.51100 33.65500
H  16.27900 -3.18300 35.70300
H  15.43900 -1.69700 35.61500
H  19.75300 -7.74300 29.07500
H  20.10000 -6.79300 30.47200
H  21.35400 -7.06200 29.18700
H  21.51300 -7.51300 27.06100
H  21.03600 -8.43800 25.66500
H  19.93200 -8.39000 26.93600
H  17.19100 -3.10400 23.20500
H  16.70600 -0.28700 23.43200
H  18.60900 -0.91900 22.40900
H  19.23400 -2.57500 22.60600
H  19.54700 -1.39600 23.82200
H  15.33400 -2.52100 22.62300
H  14.82200 -0.82300 22.46200
H  13.92500 -1.72300 25.03800
H  13.25400 -2.74000 23.77900
H  13.14200 -0.91100 23.61200
H  13.49500 3.09100 28.15200
H  13.13300 2.01900 26.80900
H  14.49800 2.94200 26.58800
H  14.58400 0.46600 32.54500
H  16.33100 2.98300 35.52700
H  16.67600 3.70400 33.99600
H  17.65600 2.31800 34.56200
Mg 47.35400 44.85600 43.03000
C  43.88600 44.47400 42.83800
C  47.61400 41.43900 42.60300
C  50.56500 45.30800 42.25300
C  46.85800 48.38300 42.65100
N  45.88100 43.18900 42.86300
C  44.54300 43.24400 42.83600
C  43.93400 41.89200 42.55300
C  45.11800 40.94000 42.79000
C  46.28300 41.85300 42.66400
C  45.15100 39.95800 44.02100
C  43.30500 41.67100 41.10300
C  44.22200 41.98000 39.91100
H  44.91300 40.86400 39.17700
N  48.86600 43.56600 42.64900
C  48.81700 42.15600 42.60500
C  50.18100 41.62700 42.41100
C  51.06700 42.72100 42.15000
C  50.17400 43.93400 42.32800
C  50.51300 40.16300 42.45500
C  52.56700 42.64900 41.71600
O  53.13400 41.56300 41.57300
C  53.36400 43.85500 41.35100
N  48.49500 46.52900 42.35500
C  49.86600 46.47900 42.29100
C  50.58500 47.87300 42.09100
C  49.30200 48.82500 42.10800
C  48.12200 47.89200 42.46000
C  51.68200 48.14200 43.20700
C  49.00300 49.65400 40.83300
C  49.37200 51.16200 40.89800
N  45.69500 46.17600 42.91900
C  45.67500 47.57600 42.82300
C  44.32100 47.98200 42.78300
C  43.47500 46.81300 42.85200
C  44.41000 45.77700 42.87400
C  43.86700 49.32000 42.35300
C  42.18200 46.24900 42.87200
O  41.08900 46.79800 42.93300
C  42.40300 44.69400 42.89300
C  41.75700 44.29300 44.15800
O  42.33300 44.33800 45.23800
O  40.45700 43.83500 43.93100
C  39.68400 43.39500 45.13400
H  47.83400 40.38500 42.41700
H  51.63300 45.49500 42.12000
H  46.78600 49.46900 42.56500
H  43.10400 41.78100 43.25000
H  45.13500 40.32100 41.89300
H  45.94900 40.16900 44.73200
H  45.32600 38.94300 43.66200
H  44.16800 39.88600 44.48600
H  42.37700 42.22000 40.94600
H  42.97500 40.63700 40.99700
H  45.08400 42.60100 40.15500
H  43.71700 42.67400 39.23800
H  49.92400 39.64900 43.21400
H  51.56400 39.97300 42.67300
H  50.30700 39.77000 41.45900
H  52.74700 44.43500 40.66400
H  54.31000 43.59700 40.87700
H  53.56200 44.48800 42.21700
H  51.07400 47.84200 41.11700
H  49.34000 49.53400 42.93500
H  51.80500 47.21900 43.77300
H  51.46900 48.83400 44.02200
H  52.61400 48.36700 42.68900
H  47.92000 49.61600 40.71900
H  49.58000 49.32000 39.97100
H  49.76100 51.60100 41.81700
H  48.47800 51.72000 40.61900
H  50.11100 51.38300 40.12800
H  43.07700 49.17300 41.61700
H  44.69500 49.86100 41.89400
H  43.54300 49.90100 43.21700
H  41.84200 44.16000 42.12600
H  39.49000 44.20300 45.83900
H  40.27300 42.62100 45.62600
H  38.66200 43.10400 44.89200

