158

Mg 54.10500 24.16000 44.91500
C  51.66300 26.47300 44.16300
C  52.39800 21.74900 43.17500
C  56.94200 22.18800 44.93200
C  55.93200 26.70000 46.29100
N  52.35400 24.17100 43.65300
C  51.45200 25.20100 43.60300
C  50.19300 24.80700 42.76200
C  50.34300 23.27500 42.83900
C  51.84900 23.03500 43.13500
C  49.50000 22.54100 43.96900
C  50.24000 25.36200 41.27300
C  50.87000 24.64300 40.08000
H  50.98300 25.41300 38.78700
N  54.64400 22.23400 44.28100
C  53.76100 21.42400 43.61400
C  54.30200 20.09200 43.46700
C  55.71300 20.21600 43.88400
C  55.82700 21.58900 44.42000
C  53.64900 18.99100 42.57000
C  56.78100 19.03400 43.72900
O  56.46900 17.98100 43.14600
C  58.22200 19.19100 44.25100
N  56.16900 24.39400 45.48700
C  57.09900 23.45100 45.48900
C  58.27300 23.90600 46.33400
C  57.80200 25.23600 47.01200
C  56.54700 25.51100 46.20300
C  58.72000 22.87800 47.39000
C  58.95000 26.23600 46.93700
C  58.99600 27.11200 45.67700
N  53.81500 26.22700 45.19400
C  54.68700 27.11900 45.78100
C  54.02700 28.42300 45.84700
C  52.80600 28.23800 45.22200
C  52.78800 26.88600 44.82900
C  54.51000 29.65000 46.51400
C  51.50700 28.82300 44.94800
O  51.09400 29.96000 45.25500
C  50.78000 27.69800 44.12600
C  50.44400 28.23000 42.81100
O  51.26300 28.72300 42.06600
O  49.16800 28.18800 42.45900
C  48.75700 28.68900 41.14200
H  51.78000 20.91800 42.83000
H  57.88500 21.63900 44.97600
H  56.49100 27.52100 46.74600
H  49.29200 25.02200 43.33700
H  50.18200 22.76200 41.89000
H  48.89200 23.25100 44.52900
H  50.17500 22.16800 44.73900
H  48.87700 21.78100 43.49900
H  50.89800 26.18200 41.55700
H  49.30400 25.76300 40.88300
H  50.28600 23.74000 39.90700
H  51.83000 24.22500 40.38300
H  54.15500 18.04300 42.74900
H  53.51100 19.21900 41.51300
H  52.65700 18.85800 43.00200
H  58.96600 18.42300 44.04200
H  58.08000 19.44100 45.30300
H  58.52200 20.04500 43.64300
H  59.14700 24.13200 45.72300
H  57.60100 25.19500 48.08300
H  59.80100 23.01300 47.38700
H  58.34100 21.88200 47.16200
H  58.37400 23.13900 48.39000
H  59.85500 25.64100 47.06600
H  58.87800 26.86100 47.82700
H  58.57200 26.58100 44.82500
H  60.02900 27.39400 45.47600
H  58.47200 28.05500 45.84000
H  55.59900 29.67800 46.54000
H  54.26100 29.54300 47.57000
H  54.14800 30.61100 46.14800
H  49.87900 27.53000 44.71700
H  49.52200 28.58800 40.37300
H  48.50400 29.74300 41.26200
H  47.86100 28.15700 40.82100
Mg -5.46900 25.21200 25.77900
C  -3.85000 26.52900 28.72800
C  -7.02200 23.04200 27.95300
C  -6.72700 23.84500 23.14800
C  -3.21600 27.06600 23.95600
N  -5.38200 24.87900 28.06800
C  -4.85200 25.59200 29.05400
C  -5.46400 25.30800 30.39500
C  -6.18900 24.00400 30.11200
C  -6.09000 23.80800 28.59000
C  -5.71400 22.79800 30.93300
C  -6.36500 26.53000 30.93300
C  -6.22700 26.94600 32.32600
H  -5.66400 25.88400 33.33500
N  -6.75300 23.68400 25.57400
C  -7.33400 22.95400 26.57300
C  -8.34200 22.01600 25.99800
C  -8.30200 22.22500 24.57500
C  -7.25300 23.29200 24.36500
C  -9.15400 21.02200 26.76000
C  -9.12700 21.69300 23.42800
O  -9.00600 22.03600 22.24200
C  -10.21000 20.77400 23.84300
N  -5.00900 25.47100 23.86200
C  -5.72300 24.78800 22.93100
C  -5.19600 25.08200 21.54800
C  -4.16100 26.31000 21.73000
C  -4.13400 26.27400 23.27600
C  -4.64700 23.85000 20.98300
C  -4.54300 27.68100 21.15900
C  -3.40600 28.37600 20.44000
N  -3.84400 26.51800 26.22200
C  -3.07800 27.20300 25.33600
C  -2.06700 28.08300 26.00900
C  -2.32500 27.85400 27.36000
C  -3.40700 26.86400 27.44300
C  -1.27200 29.16400 25.29700
C  -2.00700 28.23900 28.70300
O  -1.20200 29.09900 29.06800
C  -2.94200 27.41600 29.59900
C  -1.99000 26.57100 30.40500
O  -1.40200 25.58300 30.04700
O  -1.87800 27.13100 31.64500
C  -0.92300 26.43400 32.52000
H  -7.68700 22.46500 28.59800
H  -7.22900 23.46200 22.25700
H  -2.56600 27.68100 23.33000
H  -4.75200 24.95200 31.13900
H  -7.22700 24.22400 30.36100
H  -4.89000 22.27700 30.44500
H  -6.58300 22.14100 30.92600
H  -5.45700 22.89400 31.98800
H  -7.39200 26.20400 30.77300
H  -6.23200 27.45900 30.37800
H  -7.19700 27.29600 32.67900
H  -5.54100 27.78800 32.23000
H  -10.13200 21.41600 27.03800
H  -8.60800 20.73600 27.65900
H  -9.19900 20.08100 26.21300
H  -9.60200 19.94400 24.20300
H  -10.72400 20.38800 22.96300
H  -10.91900 21.16200 24.57300
H  -5.93600 25.33800 20.78900
H  -3.15500 26.01100 21.43500
H  -3.58000 24.03600 20.86500
H  -5.13600 23.57000 20.04900
H  -4.64500 23.06000 21.73400
H  -4.81800 28.23200 22.05800
H  -5.35000 27.56400 20.43700
H  -2.63200 27.66400 20.15500
H  -2.99200 29.14300 21.09400
H  -3.87400 28.79800 19.55000
H  -1.93800 29.92400 24.88800
H  -0.63500 28.67100 24.56300
H  -0.78400 29.75000 26.07600
H  -3.57600 28.10700 30.15500
H  -1.22200 25.38700 32.46500
H  -0.88700 26.62200 33.59300
H  0.05900 26.44900 32.04800

