158

Mg -0.19800 7.96100 24.62200
C  0.44100 8.95900 28.01600
C  -0.38300 4.72900 25.70700
C  -0.58500 7.16900 21.48700
C  0.02900 11.35400 23.74700
N  0.05100 6.94900 26.67300
C  0.32400 7.53200 27.89400
C  0.62100 6.48100 28.96500
C  0.43500 5.08800 28.13000
C  0.01500 5.59600 26.79000
C  1.66100 3.99500 28.12500
C  -0.27900 6.41900 30.25600
C  0.56600 6.61800 31.52100
H  1.77900 5.77800 31.84700
N  -0.43300 6.19200 23.72800
C  -0.46600 4.92900 24.36400
C  -0.49400 3.89800 23.31100
C  -0.54000 4.62400 22.05100
C  -0.54200 6.03400 22.37600
C  -0.66600 2.42300 23.60300
C  -0.63000 4.07200 20.62500
O  -0.73700 4.82700 19.62200
C  -0.50500 2.56600 20.42500
N  -0.30400 9.10500 22.86400
C  -0.44500 8.50300 21.68200
C  -0.40400 9.54500 20.48100
C  -0.33600 10.83400 21.28500
C  -0.13100 10.40900 22.75300
C  0.79800 9.42800 19.49600
C  -1.63300 11.76800 21.15700
C  -2.89100 11.21700 21.86600
N  0.26500 9.81600 25.61000
C  0.18800 11.12500 25.13100
C  0.61500 12.05000 26.20600
C  0.66900 11.25800 27.29800
C  0.47300 9.88800 26.94300
C  0.86700 13.45900 26.02700
C  0.89600 11.32900 28.73600
O  1.10500 12.30600 29.51000
C  0.83700 9.81600 29.21900
C  2.18600 9.63300 29.73700
O  3.11300 9.15400 29.15100
O  2.19000 9.92300 31.09000
C  3.32400 9.44800 31.87600
H  -0.20200 3.68300 25.96300
H  -0.72900 6.87400 20.44600
H  0.01900 12.35700 23.31500
H  1.68000 6.54800 29.21400
H  -0.48100 4.61600 28.48600
H  1.53300 3.56700 27.13100
H  1.57900 3.23000 28.89700
H  2.60900 4.51000 28.28000
H  -0.75400 5.45200 30.41800
H  -1.04100 7.19500 30.19000
H  -0.14600 6.48500 32.33500
H  0.78400 7.68100 31.42000
H  -1.50900 2.07300 23.00700
H  -0.91700 2.25600 24.65100
H  0.28900 2.00100 23.29200
H  0.35200 2.16100 20.96300
H  -0.39100 2.49300 19.34300
H  -1.40600 2.07500 20.79300
H  -1.36100 9.34300 19.99900
H  0.55300 11.42300 21.05900
H  1.35800 10.34200 19.29700
H  0.38200 9.03700 18.56800
H  1.43000 8.66600 19.95200
H  -1.96900 11.87000 20.12500
H  -1.32100 12.71700 21.59400
H  -3.59800 10.97300 21.07300
H  -3.32700 12.11500 22.30400
H  -2.70800 10.30700 22.43800
H  1.65500 13.74900 26.72100
H  0.01000 14.09900 26.23800
H  1.19500 13.62500 25.00100
H  0.07600 9.78600 29.99800
H  3.47300 10.20100 32.65100
H  4.15300 9.35100 31.17500
H  3.16000 8.51500 32.41600
Mg 41.03100 8.52600 29.87600
C  42.72600 9.92100 32.63500
C  38.60000 7.46800 32.08300
C  39.31800 7.13900 27.25700
C  43.83700 8.75000 28.04800
N  40.69000 8.71800 32.14800
C  41.49500 9.45700 33.02200
C  40.75200 9.53100 34.36100
C  39.53600 8.67200 34.17700
C  39.57300 8.30200 32.69400
C  39.38500 7.33000 34.98900
C  40.62800 11.03100 34.94500
C  39.87400 11.33800 36.24400
H  40.67900 12.14500 37.34600
N  39.17400 7.49000 29.67600
C  38.40300 7.10500 30.71700
C  37.20500 6.48200 30.18500
C  37.33700 6.47000 28.77700
C  38.60000 7.10800 28.47900
C  36.09500 6.08200 31.09200
C  36.53300 5.79000 27.67700
O  36.78200 5.78800 26.45700
C  35.32200 4.98400 28.07000
N  41.51100 7.94300 28.02400
C  40.61600 7.47500 27.11100
C  41.35200 7.04300 25.75500
C  42.72800 7.66900 26.00200
C  42.71000 8.17400 27.43400
C  41.30000 5.54000 25.43600
C  43.06800 8.80100 24.88600
C  42.34900 10.11700 25.20700
N  42.89800 9.34000 30.20000
C  44.01400 9.31400 29.32600
C  45.08500 9.96800 29.99700
C  44.67400 10.28600 31.25500
C  43.33000 9.77300 31.36000
C  46.33700 10.21300 29.33600
C  45.06600 10.83700 32.46500
O  46.02400 11.42600 32.84300
C  43.81500 10.53500 33.53500
C  44.26500 9.69300 34.65200
O  45.02100 8.72600 34.54800
O  43.64700 10.02300 35.79900
C  44.18200 9.34300 36.96800
H  37.88500 7.19000 32.85900
H  38.91200 6.76200 26.31600
H  44.68100 8.67600 27.35900
H  41.30800 9.01800 35.14500
H  38.65700 9.30000 34.32400
H  39.48400 6.54800 34.23600
H  38.39500 7.29200 35.44300
H  40.17700 7.04700 35.68300
H  40.09600 11.65600 34.22800
H  41.61800 11.42100 35.18100
H  39.55400 10.36300 36.61100
H  38.99200 11.96400 36.10500
H  36.25400 6.04400 32.17000
H  35.89100 5.02000 30.95000
H  35.20400 6.68300 30.91200
H  35.62700 4.25500 28.82100
H  35.03300 4.45000 27.16400
H  34.52500 5.62700 28.44300
H  40.82700 7.54500 24.94200
H  43.56100 6.97000 26.08000
H  42.33100 5.19100 25.50400
H  40.96500 5.44500 24.40300
H  40.64400 5.01400 26.12900
H  42.77600 8.57400 23.86100
H  44.15200 8.89500 24.93700
H  41.55300 10.19600 24.46800
H  42.97100 11.01000 25.15600
H  41.80200 10.16300 26.14900
H  46.58700 9.39400 28.66100
H  47.17300 10.28900 30.03000
H  46.18300 11.15000 28.80000
H  43.55000 11.51300 33.93600
H  45.25800 9.23600 37.10200
H  43.72300 8.36100 37.08200
H  43.82000 9.86600 37.85300

