158

Mg 30.00700 57.91300 41.51900
C  27.05100 56.22500 40.81300
C  31.76300 55.47400 40.03700
C  32.59200 60.13700 41.37200
C  28.02900 60.57200 42.95100
N  29.45100 56.19900 40.37400
C  28.20200 55.59900 40.36700
C  28.27500 54.33200 39.38700
C  29.84600 53.90900 39.53500
C  30.38400 55.31800 39.85000
C  30.23500 52.80200 40.55300
C  27.77800 54.63900 37.98400
C  27.19300 53.47700 37.10300
H  26.61000 53.85100 35.76700
N  31.97500 57.79900 40.95700
C  32.55000 56.62600 40.41800
C  33.99700 56.79000 40.38600
C  34.24300 58.15900 40.76000
C  32.90200 58.77500 41.06900
C  34.95800 55.71500 39.86900
C  35.66900 58.73800 40.92500
O  36.69800 58.09600 40.88400
C  35.81800 60.27100 41.12000
N  30.23000 60.08400 41.91800
C  31.40500 60.75500 41.79800
C  31.31500 62.22600 42.30200
C  29.85900 62.27500 42.77200
C  29.32400 60.89400 42.53400
C  32.34500 62.55800 43.31300
C  29.10500 63.39600 41.98700
C  27.87000 64.02600 42.71600
N  27.99500 58.38000 41.93900
C  27.31400 59.38700 42.52700
C  25.86700 59.04700 42.68000
C  25.70600 57.84000 41.99200
C  26.97800 57.45900 41.52200
C  24.74300 59.93200 43.20200
C  24.81100 56.77800 41.53300
O  23.57800 56.76400 41.77300
C  25.54300 55.74400 40.74300
C  25.47600 54.41700 41.41600
O  26.09600 54.20000 42.41400
O  24.67100 53.51700 40.76200
C  24.62800 52.33400 41.51600
H  32.39000 54.64200 39.71100
H  33.39000 60.88300 41.39100
H  27.61800 61.42900 43.48800
H  27.67900 53.55800 39.87000
H  30.13300 53.61200 38.52600
H  31.30800 52.72600 40.72700
H  29.90600 51.85200 40.13300
H  29.71600 53.06500 41.47500
H  28.67600 54.92700 37.43800
H  27.03400 55.42900 37.88600
H  26.35100 53.10500 37.68700
H  27.96900 52.75700 36.84200
H  35.84300 56.09500 39.35800
H  34.49100 54.92600 39.28000
H  35.48400 55.27700 40.71800
H  35.30700 60.70000 41.98200
H  35.45400 60.64100 40.16200
H  36.87600 60.52400 41.04600
H  31.41900 62.85400 41.41800
H  29.71200 62.53600 43.82000
H  33.05200 61.74200 43.45600
H  31.98300 62.83700 44.30300
H  32.86900 63.45900 42.99400
H  28.67300 63.03300 41.05400
H  29.68500 64.28700 41.75000
H  27.89900 65.11400 42.66000
H  27.87000 63.66800 43.74600
H  26.94000 63.76400 42.21000
H  24.38600 60.57700 42.39900
H  25.16900 60.64400 43.90900
H  23.98300 59.30600 43.67100
H  25.22400 55.76700 39.70100
H  25.63200 51.90900 41.50800
H  23.97700 51.68700 40.92800
H  24.21400 52.46100 42.51600
Mg 16.48100 52.31900 26.32800
C  17.93100 50.66500 29.20200
C  13.95800 53.39100 28.52800
C  15.25100 53.84500 23.76400
C  19.11500 50.91000 24.34900
N  16.06200 52.06500 28.58500
C  16.85100 51.44700 29.59800
C  16.34600 51.71400 31.06300
C  15.06200 52.46800 30.73900
C  14.99900 52.68200 29.17300
C  13.79200 51.67100 31.29200
C  17.44700 52.66700 31.82000
C  17.77600 52.27300 33.25800
H  16.87000 51.16700 33.87900
N  14.80700 53.35100 26.13700
C  13.82300 53.71600 27.10800
C  12.79900 54.59000 26.46100
C  13.24600 54.79800 25.06400
C  14.46900 53.95700 24.95700
C  11.58700 55.21000 27.17000
C  12.54700 55.64000 23.91500
O  13.02500 55.67400 22.82200
C  11.30700 56.44800 24.21800
N  17.03100 52.25300 24.26300
C  16.41100 53.11000 23.37900
C  17.16600 53.17900 22.04400
C  18.46100 52.32000 22.31600
C  18.18700 51.78000 23.70500
C  16.27000 52.50000 20.94700
C  19.79300 53.16800 22.37900
C  20.73200 52.83600 21.21100
N  18.04900 50.93100 26.58200
C  19.07400 50.56800 25.73100
C  20.05600 49.78300 26.39300
C  19.65600 49.82300 27.79100
C  18.41700 50.45800 27.85000
C  21.21900 48.96900 25.74400
C  20.19400 49.49900 29.14900
O  21.20900 48.91800 29.51300
C  19.02600 49.93600 30.11800
C  18.49000 48.65200 30.70100
O  17.64800 47.91800 30.20000
O  19.19000 48.39000 31.82700
C  18.76700 47.18800 32.59900
H  13.23900 53.75800 29.26300
H  14.89100 54.38300 22.88500
H  20.04600 50.66100 23.83500
H  16.20300 50.81100 31.65500
H  15.16900 53.43900 31.22200
H  13.90800 50.59100 31.37300
H  12.92900 51.79300 30.63700
H  13.50400 52.00200 32.29000
H  17.08600 53.68500 31.67200
H  18.30600 52.71400 31.15000
H  17.85200 53.17800 33.86100
H  18.79400 51.89100 33.19000
H  11.89400 56.17600 27.57100
H  11.29100 54.54200 27.97900
H  10.67300 55.32000 26.58600
H  10.95600 56.99200 23.34100
H  11.60000 57.24000 24.90700
H  10.41000 55.85200 24.38500
H  17.34900 54.21500 21.75600
H  18.50300 51.59700 21.50200
H  16.24700 53.22400 20.13200
H  15.26300 52.45900 21.36300
H  16.58600 51.52100 20.58900
H  20.29500 53.14700 23.34600
H  19.50200 54.21500 22.29400
H  20.96800 53.78600 20.73100
H  20.30900 52.07700 20.55200
H  21.56500 52.29400 21.65900
H  20.86200 48.70300 24.74900
H  21.24400 48.08000 26.37400
H  22.13300 49.56300 25.74900
H  19.45600 50.55900 30.90200
H  17.69700 46.98100 32.58400
H  19.01400 47.38900 33.64100
H  19.21100 46.28700 32.17400

