158

Mg 2.00000 -1.74900 43.35200
C  5.37300 -0.62400 42.68300
C  0.76500 0.84700 41.57800
C  -1.05200 -3.36300 43.26800
C  3.53700 -4.87000 44.24200
N  2.98300 -0.23500 42.08200
C  4.31000 0.15400 42.10000
C  4.51500 1.44900 41.28600
C  3.08800 2.08700 41.34600
C  2.21000 0.82000 41.51400
C  2.88400 3.11200 42.49900
C  4.87900 1.11500 39.81800
C  6.09200 1.88400 39.26400
H  6.07800 2.15500 37.79300
N  0.08800 -1.24600 42.65800
C  -0.20900 -0.08800 42.00100
C  -1.63100 -0.07300 41.75400
C  -2.27300 -1.24100 42.28200
C  -1.07900 -2.03800 42.73400
C  -2.36000 1.12700 40.93700
C  -3.74000 -1.56400 42.31700
O  -4.48600 -0.77600 41.69500
C  -4.28800 -2.72200 43.11300
N  1.36100 -3.70700 43.65300
C  0.02600 -4.14600 43.63300
C  -0.07500 -5.63900 43.88500
C  1.37500 -6.12400 43.88600
C  2.14900 -4.80300 43.92700
C  -0.97800 -6.18300 45.03300
C  1.61500 -7.11000 42.75500
C  2.18400 -8.50800 43.09700
N  4.05500 -2.52800 43.73900
C  4.44500 -3.86300 44.04400
C  5.87300 -3.89100 44.19000
C  6.29900 -2.62400 43.57900
C  5.13500 -1.87700 43.32600
C  6.73100 -4.95100 44.83000
C  7.42000 -1.78200 43.25200
O  8.59600 -2.06500 43.25200
C  6.83200 -0.37700 42.82500
C  7.15500 0.56100 43.90300
O  7.16900 0.23400 45.09000
O  7.21600 1.85900 43.45700
C  7.48900 2.85600 44.56900
H  0.37900 1.71900 41.04500
H  -2.01400 -3.87100 43.17400
H  3.94400 -5.82600 44.57900
H  5.19100 2.15000 41.77600
H  2.73100 2.55300 40.42800
H  3.77900 3.73400 42.51200
H  2.88300 2.53100 43.42200
H  2.02000 3.77300 42.43900
H  4.03500 1.39200 39.18600
H  5.16000 0.06200 39.82600
H  6.97200 1.25700 39.40300
H  6.25900 2.86400 39.71100
H  -1.82300 1.31200 40.00700
H  -2.12800 2.06800 41.43400
H  -3.37900 0.94400 40.59700
H  -5.28400 -2.55400 43.52300
H  -3.61400 -2.89100 43.95300
H  -4.34800 -3.65600 42.55500
H  -0.52100 -6.03200 42.97100
H  1.69000 -6.60400 44.81300
H  -1.81900 -6.70700 44.57900
H  -1.39900 -5.48600 45.75700
H  -0.56000 -6.98400 45.64200
H  2.46400 -6.73100 42.18700
H  0.83700 -7.31200 42.01900
H  3.18500 -8.55200 42.66600
H  1.48700 -9.21400 42.64600
H  2.17200 -8.70300 44.16900
H  6.13800 -5.37900 45.63800
H  7.59200 -4.40100 45.20900
H  6.94400 -5.82100 44.21000
H  7.24300 0.01700 41.89600
H  7.46300 3.87100 44.17300
H  8.53500 2.78400 44.87000
H  6.69300 2.67000 45.29000
Mg 47.50200 25.33900 28.20100
C  48.38200 27.58300 30.82400
C  46.77200 23.01300 30.65300
C  46.89200 23.11800 25.83300
C  48.62400 27.60300 25.91700
N  47.61800 25.31300 30.54500
C  47.87700 26.37100 31.36800
C  47.65000 26.04900 32.90100
C  47.36900 24.47100 32.80700
C  47.25200 24.20100 31.25100
C  48.53000 23.63200 33.37200
C  46.53900 26.92800 33.55800
C  45.81600 26.35900 34.76200
H  45.45600 27.35900 35.92000
N  46.79200 23.38400 28.26400
C  46.50700 22.59200 29.33400
C  46.09000 21.29300 28.92500
C  46.01300 21.35600 27.42400
C  46.50400 22.69300 27.10600
C  45.67900 20.22900 29.91100
C  45.47400 20.41200 26.40100
O  45.30300 20.74900 25.23900
C  45.16100 19.00400 26.86100
N  47.70200 25.39500 26.13700
C  47.49300 24.27400 25.34800
C  47.99200 24.45000 23.90500
C  48.40500 25.95500 23.86100
C  48.20000 26.36500 25.37000
C  49.04800 23.43400 23.55300
C  47.50300 26.84000 22.92700
C  48.13800 27.74800 21.92800
N  48.21300 27.29100 28.27500
C  48.63900 28.11700 27.24400
C  49.18200 29.37900 27.77300
C  49.04900 29.22100 29.18300
C  48.55000 27.91800 29.40000
C  49.73200 30.54900 26.94700
C  49.27500 29.87000 30.46900
O  49.68400 30.99800 30.68800
C  48.86300 28.80600 31.53500
C  50.04800 28.49900 32.46300
O  51.05800 27.93100 32.16500
O  49.69400 28.86700 33.75400
C  50.54900 28.26100 34.76400
H  46.52800 22.26900 31.41400
H  46.81800 22.41700 24.99900
H  48.98900 28.23400 25.10400
H  48.60200 26.21900 33.40300
H  46.35000 24.27000 33.13800
H  49.02300 23.04600 32.59600
H  48.05700 22.91500 34.04200
H  49.18200 24.35300 33.86500
H  45.84700 27.09100 32.73200
H  47.01900 27.85600 33.86700
H  46.24700 25.45000 35.18200
H  44.92400 25.85400 34.39200
H  46.42200 19.44000 30.02000
H  44.76800 19.78200 29.51300
H  45.48600 20.56700 30.92900
H  44.83100 18.46000 25.97700
H  44.43100 18.91900 27.66500
H  46.06400 18.57900 27.30100
H  47.08700 24.27800 23.32300
H  49.43400 26.19600 23.59700
H  49.97800 23.96000 23.76900
H  49.07300 23.32600 22.46800
H  49.00800 22.43400 23.98400
H  46.94200 27.53300 23.55400
H  46.64100 26.36400 22.45900
H  47.67800 27.66400 20.94300
H  49.21000 27.57800 21.82000
H  47.98300 28.76300 22.29300
H  49.51500 30.45200 25.88300
H  50.79700 30.65300 27.15700
H  49.27400 31.43400 27.38900
H  47.94200 29.02500 32.07500
H  51.39300 28.88500 35.06100
H  50.90800 27.25100 34.56800
H  49.88500 28.13200 35.61900

