158

Mg 48.65400 46.77200 42.44500
C  45.41000 46.82800 41.16600
C  48.97600 43.49900 41.06900
C  51.92100 46.84600 42.95900
C  48.48000 50.21000 42.94300
N  47.44500 45.47600 41.12500
C  46.11800 45.65400 40.82600
C  45.52500 44.45900 40.13100
C  46.49100 43.30900 40.37600
C  47.74700 44.12800 40.90700
C  45.98200 42.23700 41.38500
C  45.34200 44.83700 38.65800
C  43.90700 44.56900 38.05400
H  43.96600 43.66800 36.76600
N  50.24100 45.39300 42.11100
C  50.17300 44.09600 41.57100
C  51.52000 43.49000 41.46200
C  52.46500 44.42100 42.04700
C  51.55600 45.62300 42.33900
C  51.76200 42.05000 40.90400
C  53.93900 44.21500 42.21000
O  54.46800 43.11900 41.93000
C  54.80600 45.31700 42.72200
N  50.02700 48.39400 42.95900
C  51.31100 48.08000 43.20100
C  52.05100 49.30200 43.75300
C  51.03500 50.48800 43.34200
C  49.74800 49.69600 43.15800
C  52.36700 49.03400 45.22300
C  51.40600 51.28100 42.05000
C  52.68800 52.24300 42.24400
N  47.18000 48.19000 42.33700
C  47.27700 49.55000 42.62000
C  45.89400 50.04500 42.46300
C  45.13500 49.01700 41.91300
C  45.98600 47.91700 41.81100
C  45.57100 51.39500 42.99200
C  43.78900 48.66600 41.49900
O  42.73500 49.35800 41.39600
C  43.90900 47.16900 41.09500
C  43.15100 46.38600 42.07300
O  43.61700 45.88100 43.06500
O  41.84400 46.15500 41.55700
C  41.02600 45.14800 42.19100
H  49.06400 42.47000 40.71600
H  52.96900 46.83800 43.26700
H  48.33400 51.29000 42.88100
H  44.53400 44.18800 40.49700
H  46.70900 42.81700 39.42800
H  46.11500 42.62200 42.39600
H  46.61400 41.38300 41.14300
H  44.96400 41.99500 41.08000
H  46.01400 44.25900 38.02300
H  45.58300 45.88800 38.50200
H  43.44300 45.54600 37.91900
H  43.24700 44.03800 38.74000
H  52.45500 41.49800 41.53900
H  52.19100 42.15500 39.90700
H  50.85200 41.45200 40.86600
H  54.50900 46.23800 42.22000
H  55.84900 45.06000 42.53500
H  54.72100 45.50100 43.79200
H  52.90200 49.45800 43.09100
H  50.93500 51.13200 44.21500
H  51.90200 49.67600 45.97100
H  53.42800 49.19900 45.40700
H  52.02700 48.01200 45.39000
H  50.62400 52.01000 41.83900
H  51.45200 50.64300 41.16800
H  53.35900 52.06700 41.40400
H  53.04700 52.13000 43.26700
H  52.39400 53.28000 42.08600
H  46.22000 51.74500 43.79400
H  44.55800 51.53800 43.36800
H  45.75100 52.09800 42.17900
H  43.33600 47.03000 40.17800
H  40.41500 45.63200 42.95200
H  41.57100 44.43600 42.81200
H  40.41800 44.78600 41.36200
Mg 9.61600 47.87300 26.27500
C  7.63300 47.89700 29.20800
C  12.23900 49.05600 28.09600
C  11.36100 47.44100 23.52100
C  6.63000 46.96800 24.46900
N  9.78500 48.48200 28.44000
C  8.95200 48.28300 29.49400
C  9.59900 48.58400 30.80300
C  10.80900 49.38400 30.30900
C  11.03100 48.97500 28.83800
C  10.69900 50.94100 30.42900
C  10.09500 47.33100 31.57800
C  10.82300 47.61300 32.85700
H  10.57900 46.60000 33.99600
N  11.52500 48.35200 25.89500
C  12.52500 48.81400 26.75000
C  13.78700 48.86800 26.00700
C  13.50700 48.45200 24.68500
C  12.11100 47.99400 24.68500
C  15.04200 49.40400 26.56400
C  14.45800 48.42900 23.58700
O  14.02300 47.96100 22.56800
C  15.84800 48.85400 23.67500
N  8.99600 47.32900 24.20900
C  10.01200 47.19200 23.33700
C  9.53800 46.61500 21.99700
C  7.94500 46.43800 22.22100
C  7.82900 46.89300 23.75500
C  9.94000 47.43600 20.76000
C  7.49300 44.93000 21.91100
C  7.62900 43.96900 23.01200
N  7.52700 47.57100 26.64300
C  6.44600 47.27600 25.82200
C  5.23700 47.24400 26.63000
C  5.70500 47.39800 27.96600
C  7.06300 47.66300 27.91500
C  3.79800 46.88800 26.16600
C  5.35200 47.35500 29.35800
O  4.35800 47.05500 29.90900
C  6.55300 47.73500 30.14700
C  6.76200 46.57700 31.07100
O  6.87800 45.42000 30.78600
O  6.68500 47.04600 32.32000
C  6.21900 46.11900 33.34500
H  13.06700 49.28400 28.77200
H  11.92600 47.11600 22.64600
H  5.71400 46.75700 23.91300
H  8.89200 49.13900 31.41900
H  11.76600 49.15000 30.77600
H  9.95000 51.34000 31.11400
H  10.45600 51.41700 29.47900
H  11.70300 51.23400 30.73700
H  10.74900 46.78600 30.89700
H  9.31600 46.58600 31.73900
H  10.27600 48.49400 33.19000
H  11.84300 47.99100 32.79300
H  14.99900 49.58000 27.63900
H  15.44400 50.31500 26.12000
H  15.89300 48.73100 26.45900
H  16.47100 48.35800 24.42000
H  15.99300 49.91800 23.86200
H  16.34900 48.55400 22.75500
H  10.00700 45.64700 21.82000
H  7.36700 47.11400 21.59000
H  9.08400 48.08400 20.57500
H  10.08300 46.76100 19.91500
H  10.75000 48.13300 20.97400
H  8.14300 44.59700 21.10300
H  6.47000 45.01400 21.54400
H  8.34200 44.34800 23.74400
H  8.15700 43.09300 22.63500
H  6.62700 43.76600 23.39200
H  3.74300 47.32900 25.17000
H  3.00300 47.33000 26.76700
H  3.63700 45.81000 26.17800
H  6.41700 48.63500 30.74700
H  5.48600 46.69600 33.90900
H  7.07100 45.99300 34.01300
H  5.88400 45.13600 33.01200

