158

Mg 8.71500 2.98900 27.77900
C  10.12100 1.59100 30.71200
C  6.91200 5.22800 29.90800
C  7.29400 4.44500 25.14400
C  10.18300 0.55600 25.83200
N  8.42000 3.27000 30.07500
C  9.13700 2.60500 31.08200
C  8.83300 3.14500 32.48300
C  7.90800 4.32400 32.16700
C  7.60600 4.27500 30.60400
C  6.62500 4.36500 33.06900
C  10.15300 3.63000 33.10300
C  10.07500 4.28500 34.47100
H  10.35600 3.41900 35.69500
N  7.30300 4.61700 27.51400
C  6.71300 5.34100 28.51900
C  5.91400 6.38900 27.90800
C  6.19600 6.38200 26.48600
C  6.95400 5.13800 26.28400
C  5.18900 7.52100 28.70700
C  5.85100 7.33300 25.38400
O  6.10600 7.12600 24.21100
C  5.21900 8.60800 25.74500
N  8.75100 2.59100 25.73700
C  8.02400 3.32100 24.83300
C  8.19200 2.74800 23.46800
C  9.33500 1.64600 23.63600
C  9.39500 1.52000 25.16000
C  6.89100 2.17200 22.72400
C  10.68900 1.91400 22.96800
C  11.48900 0.85200 22.31900
N  9.87100 1.35800 28.11500
C  10.40700 0.46100 27.25800
C  11.28000 -0.49400 27.92300
C  11.15600 -0.09200 29.29600
C  10.35700 1.06300 29.34900
C  12.00100 -1.66500 27.32200
C  11.56900 -0.45300 30.61200
O  12.20900 -1.42900 30.99600
C  10.94700 0.63400 31.61600
C  10.12200 0.10300 32.68900
O  9.02400 -0.41900 32.56900
O  10.89600 0.02000 33.87100
C  10.22200 -0.66000 34.99600
H  6.44400 6.06300 30.43400
H  6.88400 4.94100 24.26200
H  10.83800 -0.07300 25.22600
H  8.41200 2.36900 33.12300
H  8.47700 5.23900 32.32800
H  5.95600 5.01100 32.50000
H  6.76100 4.68700 34.10100
H  6.30000 3.32700 32.99200
H  10.68600 4.20700 32.34800
H  10.88000 2.82000 33.15800
H  9.00600 4.33400 34.67400
H  10.62500 5.22600 34.48200
H  5.79000 8.43000 28.67400
H  5.05400 7.32100 29.77000
H  4.32500 7.79100 28.10000
H  5.20700 9.25700 24.87000
H  5.64200 9.07700 26.63300
H  4.22500 8.31600 26.08400
H  8.66400 3.63100 23.03800
H  8.95200 0.72200 23.20100
H  6.86200 1.11600 22.45400
H  6.66700 2.70300 21.79900
H  6.00800 2.28100 23.35400
H  11.33600 2.21600 23.79100
H  10.62800 2.71700 22.23400
H  11.01200 -0.12800 22.35800
H  12.47500 0.80700 22.78100
H  11.71500 1.10400 21.28200
H  11.83300 -1.65000 26.24500
H  11.57700 -2.60700 27.67000
H  13.07400 -1.66900 27.51300
H  11.74100 1.24200 32.05100
H  10.04200 -1.69100 34.69100
H  9.22700 -0.29000 35.24000
H  10.81600 -0.59400 35.90700
Mg 41.35800 7.96300 28.68500
C  42.87500 9.19500 31.72200
C  39.32200 5.95600 30.68100
C  40.28900 6.40100 25.85500
C  43.80400 9.69100 26.85900
N  41.09400 7.64800 31.00400
C  41.78700 8.32700 31.97200
C  41.23300 7.85300 33.34700
C  40.38800 6.58800 33.00700
C  40.20800 6.76200 31.49200
C  40.87500 5.21400 33.51000
C  40.45600 8.99700 34.14000
C  40.95200 9.34600 35.55500
H  41.34300 10.72400 35.78100
N  39.90100 6.46200 28.25300
C  39.12100 5.85900 29.22600
C  38.10500 5.05600 28.58600
C  38.40700 5.19700 27.17300
C  39.56000 6.02100 27.02600
C  37.07300 4.30800 29.41900
C  37.53700 4.68400 26.06300
O  37.71900 4.95700 24.90000
C  36.30400 3.85900 26.38300
N  41.97700 8.04300 26.59500
C  41.31300 7.34100 25.63000
C  41.89800 7.60400 24.25200
C  42.92800 8.84800 24.56400
C  42.83500 8.99000 26.11200
C  42.56700 6.34200 23.60000
C  42.47400 10.18900 23.90400
C  41.10500 10.75700 24.23000
N  42.95100 9.17200 29.07800
C  43.90000 9.73600 28.25100
C  44.91500 10.37700 29.04100
C  44.43700 10.22700 30.36900
C  43.29700 9.45800 30.34200
C  46.12500 11.12200 28.58200
C  44.81200 10.58500 31.76700
O  45.74400 11.29800 32.14800
C  43.81200 9.91000 32.67600
C  44.58300 8.95000 33.53800
O  44.72000 7.77600 33.25600
O  45.07300 9.60800 34.63800
C  45.69200 8.71500 35.60000
H  38.75800 5.29200 31.33900
H  39.85300 6.10300 24.89900
H  44.66100 10.13000 26.34300
H  42.04700 7.59300 34.02300
H  39.40700 6.75000 33.45500
H  41.67500 5.42800 34.21800
H  41.27500 4.51800 32.77300
H  40.07400 4.72900 34.06800
H  39.41700 8.69600 34.27100
H  40.52600 9.88900 33.51800
H  41.80600 8.72000 35.81500
H  40.10400 9.01000 36.15200
H  36.11600 4.53900 28.95200
H  37.10400 4.65700 30.45100
H  37.33200 3.25000 29.46000
H  36.61400 2.96700 26.92700
H  35.86200 3.44100 25.47800
H  35.53800 4.41100 26.92800
H  41.00100 7.81400 23.67000
H  43.95500 8.62000 24.27900
H  42.61300 5.53800 24.33400
H  43.44600 6.55500 22.99100
H  41.89100 5.85100 22.90100
H  42.50300 10.06800 22.82200
H  43.19100 10.89700 24.32000
H  40.59800 11.06400 23.31500
H  41.17500 11.62000 24.89300
H  40.43700 9.98700 24.61700
H  46.28700 10.92300 27.52300
H  46.98200 10.79100 29.16800
H  46.03300 12.18900 28.78800
H  43.27000 10.70600 33.18700
H  46.27000 7.91700 35.13500
H  44.84100 8.34000 36.16800
H  46.40500 9.30400 36.17700

