158

Mg 29.24500 57.89200 42.02700
C  26.45500 56.16600 40.60300
C  31.31800 55.99900 40.11700
C  31.76900 59.92200 42.95100
C  26.93400 60.11900 43.31500
N  28.92600 56.36900 40.46300
C  27.69800 55.80300 40.08200
C  27.95200 54.88200 38.86500
C  29.51100 54.55000 38.95800
C  29.95500 55.72900 39.88500
C  29.87800 53.24400 39.78000
C  27.52200 55.67500 37.55200
C  26.53100 54.85800 36.67100
H  27.01500 54.67300 35.21000
N  31.36300 57.87200 41.65800
C  31.99400 56.94600 40.90300
C  33.41100 57.18400 40.91500
C  33.59800 58.40000 41.68800
C  32.24400 58.82300 42.17900
C  34.45600 56.29400 40.27000
C  34.92700 59.05600 41.98600
O  35.92000 58.67800 41.41800
C  35.02700 60.19000 42.88800
N  29.28800 59.81600 42.89700
C  30.48800 60.34500 43.28700
C  30.19100 61.70600 44.08500
C  28.67400 61.56800 44.45100
C  28.26200 60.41300 43.46800
C  31.03400 61.98900 45.38300
C  27.84200 62.93600 44.38800
C  27.33300 63.48200 45.73400
N  27.08700 58.11000 42.09500
C  26.31000 59.04600 42.68800
C  24.89100 58.76000 42.44900
C  24.87800 57.64000 41.62300
C  26.26000 57.24000 41.51200
C  23.62600 59.37800 42.94300
C  24.10900 56.71500 40.76500
O  22.93600 56.71800 40.38800
C  25.09000 55.62900 40.25800
C  24.70800 54.32700 40.85500
O  24.42100 54.25100 42.05700
O  24.90300 53.28200 39.99800
C  24.71300 51.96300 40.57800
H  31.91100 55.27100 39.55900
H  32.54700 60.60000 43.31200
H  26.21800 60.76100 43.83200
H  27.33300 54.00300 39.04500
H  29.96100 54.65100 37.97000
H  29.79400 52.42400 39.06600
H  29.12900 52.98500 40.52900
H  30.89800 53.39300 40.13200
H  28.39500 55.95100 36.96000
H  26.95600 56.58800 37.73700
H  25.57900 55.38300 36.59200
H  26.17100 53.98200 37.21000
H  35.21400 56.18000 41.04500
H  34.92200 56.88100 39.47900
H  34.06800 55.29400 40.07600
H  34.39000 60.92900 42.40100
H  36.06400 60.52500 42.87600
H  34.64300 59.98900 43.88800
H  30.40800 62.53800 43.41500
H  28.47000 61.02500 45.37400
H  31.71300 61.16800 45.61300
H  30.27700 61.99800 46.16700
H  31.44500 62.99600 45.31500
H  26.99100 62.83400 43.71400
H  28.44300 63.77000 44.02700
H  26.45000 64.11300 45.63400
H  28.16900 63.95100 46.25300
H  27.12100 62.67100 46.43000
H  22.68000 59.23500 42.42100
H  23.91900 60.42800 42.94500
H  23.45600 58.99100 43.94800
H  24.97800 55.52500 39.17900
H  25.08600 51.82200 41.59200
H  25.03300 51.18700 39.88300
H  23.63500 51.81900 40.65200
Mg -12.67000 16.88700 42.06300
C  -9.74100 15.20500 41.49500
C  -11.63000 19.47400 40.22800
C  -15.89000 18.03900 42.21500
C  -14.03000 13.76900 43.32100
N  -10.91500 17.24700 40.87900
C  -9.79400 16.47100 40.88900
C  -8.63800 17.13600 40.09300
C  -9.10500 18.70300 40.02700
C  -10.68100 18.44500 40.28600
C  -8.56300 19.72000 41.05200
C  -8.25600 16.47700 38.73800
C  -6.72500 16.29700 38.46300
H  -6.03700 16.97500 37.31700
N  -13.64100 18.62900 41.45500
C  -13.01700 19.55900 40.68500
C  -13.93600 20.59600 40.55800
C  -15.18900 20.27900 41.15400
C  -14.96900 18.91500 41.61900
C  -13.50700 21.90200 39.81200
C  -16.43100 21.15800 41.20400
O  -16.44200 22.25600 40.73100
C  -17.68800 20.73500 42.00900
N  -14.69300 16.01000 42.69600
C  -15.74700 16.77300 42.76600
C  -16.97800 15.97600 43.24300
C  -16.43200 14.60300 43.50500
C  -14.98600 14.79400 43.17600
C  -17.67400 16.66100 44.50400
C  -16.99000 13.41800 42.64500
C  -16.99500 12.03800 43.24900
N  -11.96400 14.92300 42.47700
C  -12.64100 13.78600 42.89400
C  -11.68700 12.68900 43.01500
C  -10.46800 13.20700 42.54000
C  -10.76000 14.51000 42.10100
C  -11.99600 11.36400 43.63200
C  -9.06500 12.93100 42.22100
O  -8.33600 11.94900 42.30900
C  -8.55200 14.31600 41.61600
C  -7.50300 14.92200 42.53800
O  -7.78300 15.60800 43.49600
O  -6.24100 14.63100 42.11400
C  -5.10700 15.23600 42.79300
H  -11.27900 20.41700 39.80600
H  -16.89200 18.47100 42.22500
H  -14.43300 12.85700 43.76500
H  -7.74200 17.11600 40.71300
H  -8.99500 19.15500 39.04100
H  -7.72000 19.32600 41.62000
H  -9.34600 19.91300 41.78500
H  -8.11200 20.58900 40.57300
H  -8.86200 17.07300 38.05500
H  -8.72300 15.49200 38.76300
H  -6.51700 15.22700 38.47700
H  -6.16100 16.70800 39.30100
H  -13.57000 21.67500 38.74800
H  -12.53600 22.26000 40.15600
H  -14.25100 22.63300 40.12800
H  -17.44200 20.40100 43.01700
H  -18.13500 19.97400 41.36900
H  -18.32300 21.62200 42.02900
H  -17.77100 15.96400 42.49500
H  -16.46000 14.38300 44.57200
H  -17.43900 16.12300 45.42200
H  -18.73500 16.62300 44.25500
H  -17.30500 17.66300 44.71900
H  -16.43500 13.47700 41.70900
H  -18.00800 13.67600 42.35200
H  -16.39100 11.37000 42.63400
H  -17.98900 11.60100 43.35000
H  -16.49200 12.02600 44.21600
H  -12.38400 11.57000 44.62900
H  -11.00300 10.92500 43.72700
H  -12.63600 10.67900 43.07500
H  -8.11700 14.21600 40.62200
H  -4.52700 14.36000 43.08500
H  -5.35800 15.82000 43.67800
H  -4.59200 15.77500 41.99800

