158

Mg 17.12000 -2.15900 27.30600
C  15.77100 -0.14900 29.84900
C  19.41900 -3.44600 29.41800
C  18.89400 -3.37100 24.61900
C  15.11400 -0.37700 24.99400
N  17.57000 -1.74300 29.36900
C  16.82100 -0.99400 30.28700
C  17.28400 -1.24000 31.71000
C  18.46600 -2.15700 31.56700
C  18.49400 -2.53200 30.05500
C  19.81800 -1.55000 32.05900
C  16.12500 -1.95400 32.45700
C  15.89300 -1.38300 33.95300
H  17.07000 -0.69300 34.71000
N  18.67800 -3.54200 27.14700
C  19.51000 -3.94100 28.12800
C  20.51100 -4.81900 27.54700
C  20.40800 -4.79500 26.16700
C  19.32200 -3.87400 25.90700
C  21.50400 -5.53700 28.44300
C  21.16700 -5.45300 25.14600
O  20.89600 -5.33400 23.93200
C  22.30100 -6.29000 25.33500
N  16.96100 -1.97200 25.19000
C  17.85600 -2.47500 24.27300
C  17.53300 -1.99000 22.88900
C  16.19500 -1.26000 23.00700
C  16.01700 -1.24500 24.49100
C  18.64300 -1.12900 22.24100
C  14.99500 -1.82300 22.19300
C  13.92500 -2.61800 22.96900
N  15.74000 -0.48600 27.34700
C  14.97000 0.04700 26.32200
C  14.10800 1.07900 26.93100
C  14.35600 0.98400 28.30300
C  15.37900 0.04300 28.47400
C  13.25500 2.02600 26.15900
C  14.02700 1.54800 29.64500
O  13.11900 2.31500 29.99000
C  14.89300 0.74600 30.70400
C  15.66400 1.70500 31.49800
O  16.83700 1.97800 31.19800
O  14.88500 2.34200 32.46600
C  15.69100 3.45000 33.07100
H  20.03200 -3.85300 30.22500
H  19.55100 -3.55200 23.76600
H  14.49200 0.13700 24.25900
H  17.53600 -0.24200 32.06900
H  18.36000 -3.13800 32.03100
H  20.34500 -2.33900 32.59500
H  19.69200 -0.67700 32.70000
H  20.38200 -1.21500 31.18900
H  16.25500 -3.02300 32.62200
H  15.24200 -1.92000 31.81900
H  15.43800 -2.23400 34.46000
H  15.06600 -0.67300 33.93100
H  21.78100 -6.52700 28.08000
H  21.17400 -5.66900 29.47300
H  22.48300 -5.07600 28.58000
H  22.71500 -6.58600 24.37100
H  22.05800 -7.15400 25.95400
H  22.99900 -5.63400 25.85500
H  17.32900 -2.79700 22.18500
H  16.25400 -0.20200 22.75000
H  18.15700 -0.33500 21.67400
H  19.15500 -1.62000 21.41300
H  19.39500 -0.69600 22.90100
H  15.38900 -2.56100 21.49400
H  14.54600 -0.98200 21.66500
H  13.08000 -1.97800 23.22200
H  14.30700 -3.18000 23.82200
H  13.54100 -3.35200 22.26100
H  12.65200 1.56600 25.37700
H  13.85200 2.77800 25.64300
H  12.66700 2.60900 26.86900
H  14.21900 0.15800 31.32700
H  16.38600 3.85500 32.33500
H  16.08500 2.99900 33.98200
H  15.22800 4.39300 33.36000
Mg 48.60500 44.93600 42.96200
C  45.16300 45.04400 42.10600
C  48.61100 41.59800 42.12700
C  51.98900 45.01400 43.36800
C  48.45400 48.40900 43.51200
N  47.10700 43.52100 41.95100
C  45.74600 43.81000 41.89900
C  44.94600 42.54500 41.58700
C  46.02400 41.47000 41.50300
C  47.34200 42.15700 42.00700
C  45.68800 40.20200 42.33200
C  44.11900 42.71300 40.22800
C  44.92700 43.42900 39.16700
H  44.87500 42.72400 37.72800
N  50.10300 43.53700 42.55000
C  49.86700 42.27200 42.30700
C  51.10100 41.52500 42.39400
C  52.15100 42.42200 42.67600
C  51.43700 43.73400 42.87500
C  51.23300 40.03000 42.11900
C  53.66800 42.17500 42.73700
O  53.96800 40.99300 42.54300
C  54.65100 43.20600 42.99800
N  50.12500 46.62100 42.96800
C  51.38400 46.31200 43.37200
C  52.08400 47.62100 43.82400
C  51.03200 48.65900 43.86800
C  49.77200 47.87100 43.45800
C  52.87400 47.44500 45.19200
C  51.18100 49.89500 42.84000
C  52.00600 51.09800 43.24200
N  47.18300 46.47600 42.89700
C  47.24500 47.78600 43.25900
C  45.95400 48.45400 43.15300
C  45.12700 47.42000 42.71400
C  45.85900 46.20800 42.63800
C  45.79200 49.94100 43.30100
C  43.77100 47.13400 42.22800
O  42.77500 47.85300 42.14700
C  43.70700 45.55500 41.85800
C  42.60600 44.87400 42.65600
O  41.71100 44.17700 42.27200
O  42.78500 45.24900 43.98500
C  41.80000 44.74100 44.91200
H  48.56900 40.51300 42.00900
H  53.02000 44.97900 43.72600
H  48.28400 49.48600 43.57000
H  44.21400 42.37100 42.37600
H  46.16800 41.09600 40.48900
H  44.61600 40.26500 42.51700
H  46.32000 40.19400 43.22000
H  45.92600 39.30600 41.75800
H  43.20000 43.24500 40.47200
H  43.83500 41.72200 39.87300
H  45.92800 43.67300 39.52400
H  44.47500 44.41600 39.06900
H  51.96300 39.79100 41.34600
H  50.32100 39.53600 41.78300
H  51.53200 39.56100 43.05600
H  54.59200 44.13100 42.42500
H  55.59900 42.71400 42.78300
H  54.82200 43.31300 44.06900
H  52.80300 47.79700 43.02400
H  50.96000 48.95700 44.91400
H  53.89600 47.66000 44.87800
H  52.65900 46.40100 45.41600
H  52.67200 48.21000 45.94200
H  50.17600 50.16300 42.51500
H  51.72000 49.45500 42.00000
H  52.89700 51.19500 42.62100
H  52.19300 51.01100 44.31200
H  51.31800 51.92500 43.06700
H  46.30400 50.43400 42.47400
H  46.16900 50.27300 44.26800
H  44.71300 50.06600 43.21100
H  43.40500 45.56000 40.81100
H  41.66100 43.66900 44.77600
H  40.83400 45.24700 44.89900
H  42.13300 44.93700 45.93100

