158

Mg 46.97100 25.08400 29.41700
C  48.02800 27.48900 31.86800
C  45.61500 23.35300 32.19300
C  46.46200 22.49900 27.33700
C  48.54000 26.90700 26.99100
N  46.78800 25.49500 31.82800
C  47.24200 26.52300 32.51500
C  46.84700 26.39600 34.06200
C  46.17000 24.93300 34.06900
C  46.21400 24.55500 32.60600
C  46.82100 23.88700 35.05000
C  45.95500 27.59800 34.57700
C  46.42900 28.27900 35.90800
H  46.76300 27.28200 37.01600
N  46.08200 23.19100 29.66100
C  45.56600 22.64200 30.90400
C  45.02000 21.33000 30.62100
C  45.28000 21.00800 29.17200
C  46.01300 22.24300 28.64700
C  44.39100 20.49900 31.62300
C  45.01600 19.75000 28.50100
O  45.44600 19.50300 27.35200
C  44.23000 18.63600 29.19700
N  47.37900 24.80300 27.41600
C  47.02700 23.58600 26.81200
C  47.44200 23.71600 25.25000
C  48.05200 25.15600 25.14100
C  48.06500 25.63800 26.60200
C  48.50400 22.57000 24.80300
C  47.15100 26.01300 24.17300
C  47.90000 27.07700 23.26400
N  48.03500 26.88000 29.38600
C  48.63600 27.46500 28.27900
C  49.25300 28.73200 28.77000
C  49.00500 28.74800 30.16900
C  48.33300 27.58700 30.46900
C  49.92000 29.72700 27.95400
C  49.27800 29.47500 31.39300
O  49.90800 30.52600 31.58200
C  48.65200 28.70100 32.54300
C  49.78000 28.36500 33.53200
O  50.44800 27.33200 33.79700
O  49.75800 29.38500 34.40800
C  50.42300 29.14900 35.70400
H  45.04700 22.95000 33.03300
H  46.28000 21.64600 26.68000
H  48.96700 27.55300 26.22100
H  47.82100 26.36800 34.54900
H  45.15300 25.07400 34.43500
H  46.03000 23.14200 35.13800
H  47.07200 24.40300 35.97600
H  47.66000 23.39400 34.55900
H  44.93300 27.31600 34.83000
H  45.92900 28.32200 33.76300
H  45.73900 28.98300 36.37400
H  47.41200 28.73000 35.77200
H  44.20500 21.03900 32.55100
H  45.10300 19.68100 31.74000
H  43.45200 20.00700 31.36500
H  43.29100 19.08300 29.52500
H  44.84600 18.18100 29.97100
H  44.13000 17.79000 28.51800
H  46.53800 23.62800 24.64800
H  49.09300 25.13300 24.81800
H  48.34200 22.08900 23.83800
H  48.44700 21.75900 25.53000
H  49.48800 22.99800 24.99400
H  46.37400 26.55600 24.71200
H  46.69900 25.27500 23.51000
H  47.61500 26.96000 22.21900
H  48.97600 26.94400 23.37300
H  47.58900 28.05000 23.64400
H  49.82600 30.69900 28.43800
H  49.48500 29.98300 26.98900
H  50.98500 29.57900 27.77700
H  47.95100 29.33700 33.08500
H  51.31000 28.51700 35.75100
H  49.69500 28.72100 36.39400
H  50.68000 30.10100 36.16800
Mg 26.67000 49.98500 26.95100
C  24.79600 51.15600 29.70100
C  29.12600 49.24700 29.19500
C  28.52200 49.31400 24.25100
C  24.16000 51.22000 24.90500
N  26.87200 50.18800 29.18900
C  26.02700 50.64600 30.10000
C  26.42600 50.23200 31.55600
C  27.92900 49.69500 31.34800
C  28.01400 49.79400 29.82100
C  29.04300 50.53400 32.05500
C  25.41900 49.21600 32.12000
C  24.45500 49.73500 33.23400
H  24.37600 49.15000 34.56900
N  28.62700 49.46900 26.74700
C  29.49700 49.18300 27.78600
C  30.75900 48.80400 27.15300
C  30.62900 48.82500 25.74800
C  29.18900 49.19500 25.53300
C  31.94200 48.42600 27.95300
C  31.65200 48.63100 24.66700
O  31.33300 48.76800 23.45900
C  33.08400 48.17700 25.06200
N  26.37300 50.25600 24.84200
C  27.26000 49.78300 23.95200
C  26.63700 49.77000 22.50400
C  25.25600 50.44200 22.69200
C  25.23400 50.64400 24.23600
C  27.50500 50.39500 21.32800
C  24.18000 49.43100 22.23600
C  23.57300 49.76900 20.80300
N  24.85300 50.91000 27.18700
C  23.98800 51.45800 26.22400
C  22.85200 52.12500 26.85200
C  23.12500 51.95800 28.19500
C  24.32100 51.22700 28.33800
C  21.74900 52.85900 26.10800
C  22.63000 52.28400 29.53300
O  21.58700 52.85300 29.86400
C  23.61400 51.65700 30.52300
C  23.93200 52.69900 31.59800
O  24.77100 53.57200 31.41900
O  23.05300 52.64200 32.65100
C  23.04200 53.82000 33.48100
H  29.82300 48.77300 29.88900
H  29.19100 49.20600 23.39400
H  23.44500 51.62200 24.18400
H  26.46500 51.14400 32.15100
H  27.99200 48.67300 31.72000
H  28.55100 51.04000 32.88500
H  29.47400 51.27800 31.38400
H  29.86000 49.91600 32.42700
H  25.84200 48.31100 32.55500
H  24.73100 48.92100 31.32800
H  23.48200 49.54200 32.78100
H  24.49200 50.82000 33.33200
H  32.67500 49.21400 27.77900
H  32.27900 47.44800 27.60900
H  31.73900 48.43600 29.02400
H  33.20200 47.51700 25.92100
H  33.47100 49.15800 25.34000
H  33.67400 47.83000 24.21400
H  26.51900 48.75400 22.13000
H  25.20300 51.37700 22.13500
H  28.31100 50.89600 21.86400
H  26.83900 51.05400 20.77100
H  27.75700 49.61200 20.61300
H  23.39700 49.41500 22.99400
H  24.40500 48.36600 22.18100
H  23.48500 48.89600 20.15600
H  24.12000 50.60800 20.37400
H  22.58600 50.19700 20.97600
H  22.12200 53.76400 25.62900
H  20.87200 53.02800 26.73300
H  21.48300 52.19800 25.28300
H  22.95000 50.86100 30.85900
H  22.17000 53.80900 34.13500
H  22.92000 54.75200 32.92900
H  23.91900 53.93200 34.11800

