158

Mg 41.24500 8.82500 29.42800
C  42.99400 9.51100 32.43100
C  39.11900 6.82700 31.25100
C  39.94800 7.81600 26.48300
C  44.06200 10.02700 27.70900
N  41.20400 8.21600 31.62800
C  41.79100 8.87600 32.69800
C  41.16300 8.57900 34.05600
C  40.00100 7.59100 33.65000
C  40.03200 7.59800 32.07000
C  40.26300 6.10900 34.07200
C  40.62200 9.97800 34.67000
C  40.72400 10.20100 36.16100
H  41.19800 11.60900 36.80700
N  39.63900 7.66300 28.99700
C  38.90400 6.92500 29.88600
C  37.80500 6.31200 29.11700
C  37.94600 6.75100 27.71900
C  39.21000 7.43600 27.67300
C  36.75400 5.40100 29.78300
C  37.09800 6.50800 26.49400
O  37.47600 6.86600 25.36400
C  35.77300 5.74600 26.58200
N  41.94300 8.93500 27.32200
C  41.19800 8.43800 26.34200
C  41.76300 8.85300 24.99600
C  43.05400 9.66700 25.39600
C  43.07700 9.55700 26.87000
C  42.10600 7.61300 24.14900
C  43.00200 11.14700 24.97800
C  41.78600 12.01400 25.16400
N  43.14500 9.59600 29.86900
C  44.15100 10.05700 29.08300
C  45.24400 10.65100 29.85000
C  44.81300 10.49800 31.19800
C  43.54000 9.81900 31.11500
C  46.55600 11.36600 29.40800
C  45.19000 10.80200 32.51800
O  46.11300 11.45200 32.99500
C  44.00000 10.12900 33.44700
C  44.52700 9.09400 34.44700
O  44.46200 7.87300 34.37800
O  45.18600 9.77100 35.39400
C  45.63600 8.98100 36.54400
H  38.29200 6.36300 31.79300
H  39.61900 7.45200 25.50700
H  44.81300 10.61400 27.17600
H  41.85300 8.09600 34.74800
H  39.04300 7.92700 34.04800
H  39.53700 5.83300 34.83600
H  41.28000 5.98000 34.44400
H  40.25800 5.42900 33.22000
H  39.54300 10.05700 34.53800
H  41.05800 10.76600 34.05600
H  41.34000 9.38900 36.54600
H  39.76500 9.97600 36.62900
H  37.06700 4.97900 30.73800
H  36.58500 4.51800 29.16700
H  35.82600 5.93100 29.99500
H  35.18300 6.38900 27.23500
H  35.96700 4.87500 27.20800
H  35.41400 5.61600 25.56100
H  41.05000 9.46800 24.44700
H  43.93300 9.12700 25.04600
H  42.08300 6.74800 24.81200
H  43.02900 7.62400 23.57100
H  41.36800 7.41600 23.37200
H  42.96000 11.20100 23.89000
H  43.99600 11.51100 25.23800
H  42.18000 13.00800 25.37800
H  41.14600 11.67500 25.97800
H  41.26200 12.21600 24.23000
H  46.33900 12.37100 29.76900
H  46.52000 11.43100 28.32100
H  47.38200 10.85500 29.90400
H  43.52300 10.90600 34.04400
H  46.38300 9.56300 37.08400
H  46.09100 8.02900 36.27200
H  44.75200 8.89000 37.17400
Mg 8.44900 48.05000 26.22100
C  6.61700 47.91900 29.17800
C  11.21600 48.90700 28.04800
C  10.23000 48.14600 23.34500
C  5.59600 47.29400 24.46900
N  8.84400 48.39600 28.42200
C  7.94900 48.23000 29.44100
C  8.66700 48.39100 30.82200
C  9.98400 48.99300 30.36400
C  10.02800 48.75200 28.86200
C  10.20100 50.40200 30.90900
C  8.75200 46.97000 31.64900
C  9.50600 47.12200 32.91200
H  8.76100 47.35600 34.19900
N  10.42200 48.37100 25.72800
C  11.42900 48.63500 26.65700
C  12.69800 48.74600 25.92100
C  12.48800 48.39700 24.59500
C  10.99400 48.29100 24.53700
C  13.93100 49.07800 26.60600
C  13.43200 48.21700 23.55000
O  13.04000 48.01400 22.40700
C  14.94200 48.29700 23.81000
N  7.94000 48.01100 24.15200
C  8.90000 48.02300 23.13200
C  8.23800 47.70300 21.81400
C  6.80300 47.28600 22.15300
C  6.75000 47.56000 23.71700
C  8.27400 48.76800 20.71800
C  6.53800 45.83800 21.73200
C  7.19200 44.77000 22.63900
N  6.51700 47.70000 26.64500
C  5.48200 47.37900 25.84300
C  4.30600 47.12000 26.62600
C  4.69800 47.40700 27.96100
C  6.02400 47.72400 27.95900
C  2.89900 46.84200 26.17300
C  4.24200 47.55700 29.25900
O  3.12000 47.49200 29.75800
C  5.49300 47.69100 30.15300
C  5.55600 46.41600 30.91600
O  5.76400 45.32900 30.40600
O  5.24000 46.62300 32.23800
C  5.00400 45.41400 33.08200
H  12.14000 49.14900 28.57700
H  10.80100 47.93300 22.43900
H  4.68700 47.07000 23.90700
H  8.11500 49.07000 31.47100
H  10.79000 48.37400 30.75700
H  10.53600 51.05900 30.10700
H  10.90800 50.29500 31.73100
H  9.24900 50.80000 31.25900
H  9.26200 46.24300 31.01700
H  7.72100 46.64500 31.78600
H  10.25800 47.91100 32.88300
H  10.21400 46.29300 32.93900
H  14.66700 48.27300 26.59800
H  13.82200 49.42500 27.63400
H  14.42700 49.90700 26.10100
H  15.14600 47.56700 24.59300
H  15.30000 49.31500 23.96600
H  15.46600 47.73800 23.03500
H  8.81600 46.85600 21.44500
H  6.14000 47.96600 21.61800
H  8.02800 49.75000 21.12200
H  7.44200 48.45000 20.09000
H  9.22800 48.67700 20.19800
H  6.97800 45.81900 20.73500
H  5.46900 45.76700 21.52900
H  6.43000 44.17900 23.14700
H  7.79200 45.25700 23.40900
H  7.90600 44.12900 22.12100
H  2.83900 46.49500 25.14100
H  2.26900 47.72900 26.25200
H  2.39600 46.05900 26.74000
H  5.45700 48.47700 30.90700
H  4.26100 44.74500 32.64700
H  4.59000 45.65900 34.06000
H  5.97900 44.96600 33.26800

