158

Mg 16.65300 51.82600 26.81400
C  18.84800 50.74600 29.32900
C  14.52700 52.87700 29.38900
C  14.65600 53.06300 24.57600
C  18.90300 50.75300 24.45200
N  16.65900 51.75000 29.12800
C  17.68200 51.30700 29.88600
C  17.40600 51.53000 31.32600
C  15.85800 51.92600 31.36200
C  15.59900 52.20100 29.86100
C  14.88600 50.90500 31.95400
C  18.35500 52.66500 31.86300
C  18.26100 53.04100 33.42600
H  17.38200 52.10100 34.30500
N  14.77400 52.71000 26.94600
C  14.19000 53.23100 28.08200
C  13.09600 54.03800 27.67300
C  13.07400 54.14800 26.26000
C  14.22200 53.29700 25.86100
C  12.13400 54.66600 28.71600
C  12.18800 54.86100 25.32300
O  12.29600 54.82400 24.10200
C  11.13100 55.78700 25.96000
N  16.75100 51.72000 24.82500
C  15.71800 52.30700 24.01000
C  15.88100 51.92600 22.49200
C  17.42800 51.64700 22.52300
C  17.69300 51.28400 23.98800
C  15.09100 50.65800 21.98200
C  18.23400 52.91500 21.93300
C  19.47500 52.58200 21.04700
N  18.52600 50.89600 26.75500
C  19.27600 50.48600 25.72400
C  20.52200 49.91500 26.17800
C  20.33700 49.92600 27.56600
C  19.11000 50.55500 27.90100
C  21.62500 49.45500 25.33600
C  20.98700 49.68900 28.86200
O  22.10500 49.23600 29.17800
C  20.00400 50.15000 30.00300
C  19.66300 48.93800 30.82600
O  19.14500 47.92800 30.37300
O  20.06300 49.09600 32.17200
C  19.59900 48.08700 33.15800
H  13.89300 53.20300 30.21600
H  13.97700 53.37700 23.78100
H  19.58800 50.45800 23.65400
H  17.48300 50.62900 31.93500
H  15.83900 52.91700 31.81500
H  14.21300 51.44000 32.62400
H  15.40900 50.07800 32.43400
H  14.28700 50.48300 31.14700
H  18.10900 53.55400 31.28200
H  19.39400 52.40600 31.66500
H  17.95500 54.07800 33.56200
H  19.31600 53.18900 33.65600
H  11.33500 53.95700 28.93500
H  11.75900 55.64900 28.43300
H  12.59100 54.77400 29.69900
H  11.57900 56.65200 26.45000
H  10.49500 55.20100 26.62400
H  10.48800 55.99600 25.10500
H  15.74200 52.68200 21.71900
H  17.76500 50.77000 21.96900
H  14.26000 50.45700 22.65800
H  15.64300 49.72100 22.04900
H  14.78600 50.82500 20.94800
H  18.57300 53.46100 22.81300
H  17.55700 53.67100 21.53500
H  19.24900 52.86600 20.01900
H  19.71300 51.51800 21.02800
H  20.35600 53.01900 21.51700
H  21.98300 50.14900 24.57600
H  21.41900 48.53600 24.78700
H  22.42400 49.18700 26.02700
H  20.64700 50.77000 30.62800
H  18.89400 47.34200 32.79000
H  19.01100 48.65600 33.87800
H  20.48300 47.62000 33.59100
Mg 10.00600 47.67000 26.70500
C  7.90800 47.72800 29.51100
C  12.53200 49.04600 28.59500
C  11.86400 47.78900 23.99400
C  7.09600 47.49300 24.68600
N  10.18600 48.15300 28.83400
C  9.25300 48.10100 29.88700
C  9.88300 48.45700 31.20400
C  11.10600 49.29600 30.69000
C  11.36600 48.71900 29.29800
C  10.87400 50.78400 30.59600
C  10.23700 47.16600 32.05700
C  10.23800 47.21700 33.62300
H  9.70200 46.03400 34.54000
N  11.99000 48.12100 26.34500
C  12.86900 48.70300 27.29000
C  14.17000 48.70300 26.54200
C  14.00300 48.04100 25.26800
C  12.59300 47.98600 25.12700
C  15.46600 49.17100 27.24000
C  14.97700 47.49900 24.20000
O  14.65800 46.78500 23.26300
C  16.46000 47.73500 24.36800
N  9.51900 47.49900 24.59600
C  10.46600 47.71100 23.67800
C  10.00200 47.31300 22.26900
C  8.48300 47.19800 22.45400
C  8.32000 47.41300 23.97800
C  10.49300 48.21100 21.09100
C  7.92400 45.81000 22.06300
C  6.95500 45.87100 20.90100
N  7.91600 47.62700 26.98700
C  6.87700 47.54800 26.10100
C  5.61400 47.44600 26.77600
C  5.96200 47.53400 28.14100
C  7.40200 47.63700 28.20700
C  4.27600 47.41700 26.16200
C  5.45200 47.58600 29.51500
O  4.35700 47.59900 30.00100
C  6.69300 47.70400 30.44600
C  6.90000 46.43300 31.21000
O  7.16700 45.31800 30.79400
O  6.66900 46.71800 32.54000
C  6.64800 45.46000 33.35600
H  13.28000 49.55600 29.20600
H  12.37200 47.48500 23.07600
H  6.28300 47.35500 23.97000
H  9.09600 48.92400 31.79600
H  12.00800 49.17200 31.28800
H  10.89300 51.07900 29.54700
H  11.70000 51.36100 31.01100
H  9.89700 51.04300 31.00500
H  11.25800 46.88800 31.79400
H  9.64700 46.34100 31.65800
H  9.72200 48.11600 33.96000
H  11.25600 47.41000 33.95900
H  15.16700 49.47800 28.24300
H  15.84900 50.07000 26.75700
H  16.25700 48.42300 27.30300
H  16.73600 48.33300 25.23600
H  16.96300 48.03100 23.44700
H  16.92000 46.77300 24.59400
H  10.33100 46.29500 22.05900
H  7.89500 47.98700 21.98700
H  11.07100 49.06900 21.43600
H  9.69800 48.53800 20.42100
H  11.13300 47.64900 20.41100
H  7.31500 45.46900 22.90000
H  8.68100 45.07300 21.79600
H  6.01600 45.35600 21.10000
H  7.39400 45.58300 19.94500
H  6.58700 46.88500 20.74100
H  4.02600 46.44100 25.74600
H  4.16200 48.14600 25.35900
H  3.48300 47.58600 26.89100
H  6.80900 48.55600 31.11700
H  6.65900 45.72800 34.41300
H  7.54600 44.87500 33.16000
H  5.74600 44.86200 33.23000

