158

Mg 34.68600 2.81700 29.84900
C  32.20700 3.78000 32.18400
C  36.95800 2.59900 32.46000
C  37.07400 1.98400 27.62500
C  32.36300 3.29600 27.28400
N  34.59000 3.30300 32.01600
C  33.46300 3.53500 32.80700
C  33.78600 3.55500 34.31100
C  35.31400 3.32700 34.32600
C  35.61600 2.98700 32.83300
C  36.20500 4.35600 35.03400
C  33.05700 2.49800 35.10900
C  33.00100 2.52700 36.64200
H  33.86700 3.48400 37.39100
N  36.68000 2.42700 30.00300
C  37.46000 2.36600 31.22100
C  38.82600 1.98000 30.82400
C  38.92500 1.74200 29.47400
C  37.54000 2.07100 28.95000
C  39.94700 1.82800 31.79000
C  40.04200 1.37200 28.61300
O  39.81200 1.06200 27.46800
C  41.50300 1.32000 29.15000
N  34.71200 2.81200 27.74800
C  35.78500 2.28400 27.07500
C  35.34400 1.99200 25.55100
C  33.94700 2.59200 25.44500
C  33.65200 2.95600 26.90400
C  36.36300 2.57800 24.45600
C  32.98200 1.68900 24.55000
C  32.04600 0.78900 25.31100
N  32.65100 3.38700 29.69700
C  31.86500 3.52500 28.59000
C  30.56200 3.99700 29.02700
C  30.62400 4.16500 30.42000
C  31.96200 3.79000 30.77500
C  29.27900 4.02200 28.20000
C  29.92700 4.52900 31.60200
O  28.80000 5.03500 31.75800
C  30.86500 4.19200 32.85800
C  31.02000 5.47300 33.59100
O  31.44900 6.56100 33.09900
O  30.77900 5.21900 34.89000
C  31.06600 6.25100 35.90700
H  37.64800 2.51200 33.30300
H  37.79500 1.65600 26.87400
H  31.68500 3.52300 26.45800
H  33.51900 4.51600 34.75100
H  35.52700 2.45600 34.94500
H  36.79900 4.91200 34.30900
H  36.84300 3.86900 35.77200
H  35.67300 5.01200 35.72300
H  33.63400 1.62700 34.79700
H  32.05500 2.44300 34.68400
H  33.02200 1.52900 37.08100
H  31.99200 2.83400 36.91500
H  40.31300 0.80100 31.77800
H  39.62300 2.11300 32.79000
H  40.74600 2.52400 31.53600
H  41.69200 2.33400 29.50400
H  42.21900 1.04200 28.37600
H  41.64000 0.65300 30.00000
H  35.28400 0.90400 25.54700
H  34.06300 3.60100 25.05100
H  36.95000 3.47000 24.67800
H  35.84800 2.83000 23.52900
H  37.07900 1.77600 24.27700
H  33.46200 1.00600 23.85000
H  32.45200 2.41700 23.93600
H  31.06400 1.12600 24.97900
H  32.20900 0.80600 26.38900
H  32.05600 -0.22800 24.91900
H  29.59000 3.52700 27.28000
H  28.97800 5.06800 28.14400
H  28.55600 3.43900 28.77000
H  30.43700 3.46500 33.54800
H  31.98900 5.95700 36.40600
H  30.35600 6.27800 36.73400
H  31.21500 7.23600 35.46500
Mg 53.32500 24.39400 43.37700
C  50.54000 26.49700 42.99600
C  51.37400 21.72800 42.37100
C  56.19500 22.67300 42.80300
C  55.17400 27.27500 44.10900
N  51.25100 24.16000 42.65500
C  50.31600 25.17900 42.60700
C  48.91400 24.60000 42.19900
C  49.11600 23.03800 42.38300
C  50.65700 22.95400 42.47100
C  48.43000 22.47000 43.71300
C  48.42900 25.06800 40.81300
C  49.40600 25.40100 39.64900
H  49.02700 24.96000 38.23200
N  53.76500 22.47400 42.79400
C  52.77200 21.49500 42.50800
C  53.43600 20.24000 42.24900
C  54.85900 20.37400 42.53600
C  55.02700 21.92200 42.74000
C  52.70500 18.88800 41.88500
C  55.80600 19.27900 42.62300
O  55.51500 18.12400 42.29600
C  57.28500 19.47100 43.01300
N  55.39700 24.89400 43.30000
C  56.37200 24.01800 43.04200
C  57.72700 24.64500 43.41000
C  57.42200 26.17700 43.72000
C  55.93500 26.15900 43.71100
C  58.32900 23.84600 44.65100
C  58.07200 27.11400 42.59200
C  57.90100 26.79100 41.07700
N  52.93900 26.39600 43.71400
C  53.76200 27.44500 44.06300
C  52.94700 28.62500 44.37200
C  51.69200 28.26900 43.94900
C  51.75600 26.92800 43.49400
C  53.44100 29.88300 44.93000
C  50.31000 28.68700 43.90800
O  49.90400 29.79300 44.21800
C  49.44700 27.69200 43.10900
C  49.22100 28.32800 41.84900
O  50.02800 28.62300 40.97400
O  47.83200 28.57400 41.79700
C  47.24800 28.91000 40.48500
H  50.80600 20.86100 42.02600
H  57.18700 22.21900 42.75500
H  55.78700 28.15700 44.30400
H  48.24900 25.14500 42.86800
H  48.77200 22.43000 41.54600
H  47.63100 23.17000 43.95700
H  49.14600 22.34900 44.52600
H  47.86700 21.59700 43.38100
H  47.98500 26.05000 40.97100
H  47.72300 24.30600 40.48000
H  50.41700 25.12500 39.94800
H  49.34300 26.48800 39.60000
H  52.84000 18.75900 40.81200
H  51.65800 19.00100 42.16600
H  53.07600 18.00700 42.40900
H  57.63200 18.61500 43.59000
H  57.24500 20.27300 43.75100
H  57.93700 19.75400 42.18600
H  58.49400 24.47100 42.65500
H  57.69300 26.42300 44.74600
H  58.68600 24.56800 45.38500
H  59.14600 23.22800 44.28000
H  57.51300 23.25600 45.07100
H  59.14600 27.07800 42.77200
H  57.73300 28.12600 42.81200
H  57.59800 27.74800 40.65300
H  57.16100 26.03200 40.82500
H  58.87800 26.48800 40.70100
H  53.89300 30.51500 44.16500
H  54.04600 29.63100 45.80100
H  52.62200 30.45900 45.36100
H  48.52400 27.42700 43.62300
H  47.64900 29.88800 40.21700
H  46.16300 28.92000 40.58800
H  47.42500 28.16100 39.71300

