158

Mg 17.07000 -2.93500 28.25500
C  16.17700 -0.82400 30.92500
C  18.71300 -5.02900 30.41200
C  18.31200 -4.51000 25.55800
C  15.94000 -0.27300 26.04700
N  17.32000 -2.93400 30.44800
C  16.91200 -1.97100 31.35900
C  17.36200 -2.31800 32.79800
C  18.27100 -3.64800 32.55700
C  18.03200 -3.95100 31.05700
C  19.81000 -3.42900 32.97000
C  16.07900 -2.63200 33.62400
C  16.05900 -1.84100 34.96600
H  17.40800 -1.45000 35.59200
N  18.29000 -4.56100 28.03000
C  18.87200 -5.34200 29.04100
C  19.63700 -6.41600 28.49300
C  19.42500 -6.36000 27.09400
C  18.68300 -5.09500 26.79800
C  20.30600 -7.48900 29.36500
C  19.91100 -7.30700 26.02200
O  19.74600 -7.09900 24.84100
C  20.68000 -8.59100 26.46200
N  17.00000 -2.50800 26.07900
C  17.65400 -3.33700 25.21900
C  17.69200 -2.75900 23.77800
C  16.67800 -1.53400 23.88500
C  16.54300 -1.41200 25.45200
C  19.08600 -2.38000 23.30800
C  15.44200 -1.85300 22.98700
C  15.39500 -1.16200 21.65100
N  16.16300 -0.97200 28.41000
C  15.69200 -0.10700 27.41900
C  15.00800 0.97900 28.10200
C  15.21300 0.73200 29.47100
C  15.91900 -0.41100 29.60100
C  14.15500 2.01300 27.41100
C  14.98700 1.28400 30.79500
O  14.54300 2.35700 31.14400
C  15.63700 0.26600 31.80800
C  16.58100 0.95600 32.67600
O  17.72000 1.38100 32.30600
O  15.98000 1.35900 33.84900
C  16.60800 2.43800 34.58800
H  19.28500 -5.59300 31.15100
H  18.66200 -4.90800 24.60400
H  15.71800 0.61100 25.44500
H  17.87600 -1.42400 33.15200
H  17.97400 -4.45700 33.22500
H  19.98300 -4.36500 33.50100
H  19.98400 -2.52400 33.55200
H  20.28800 -3.42200 31.99000
H  15.96900 -3.70100 33.80600
H  15.19000 -2.28100 33.10000
H  15.45700 -2.38700 35.69300
H  15.43300 -0.94900 34.95200
H  19.59800 -8.31800 29.36700
H  20.46800 -7.26600 30.42000
H  21.27700 -7.79500 28.97500
H  20.87300 -9.10600 25.52100
H  20.12700 -9.15400 27.21400
H  21.66900 -8.30900 26.82300
H  17.39100 -3.67100 23.26100
H  17.17300 -0.61500 23.57400
H  18.98600 -1.39600 22.85000
H  19.48300 -3.11700 22.60900
H  19.87200 -2.33400 24.06200
H  14.58300 -1.56100 23.59100
H  15.33300 -2.92800 22.84400
H  14.43800 -0.63900 21.64400
H  15.52400 -1.99700 20.96200
H  16.23000 -0.46200 21.65800
H  14.43100 2.93800 27.91600
H  13.10000 1.77500 27.54800
H  14.50600 2.22100 26.40000
H  14.79400 -0.09900 32.39500
H  16.94000 3.18800 33.87000
H  17.33500 2.14500 35.34600
H  15.86200 3.01900 35.12900
Mg 46.37300 44.33900 42.67200
C  43.08200 43.15700 42.35400
C  47.32700 40.96600 42.15700
C  49.46500 45.42100 42.12400
C  45.18400 47.64100 42.63900
N  45.35300 42.29600 42.23400
C  43.98000 42.07600 42.23000
C  43.62800 40.61300 41.86100
C  44.96300 39.88500 42.23600
C  45.96900 41.11800 42.17900
C  44.91900 39.13300 43.62200
C  42.95700 40.42200 40.40000
C  43.53900 41.31500 39.29600
H  44.32800 40.66300 38.08800
N  48.13800 43.29100 42.27800
C  48.34200 41.94700 42.09600
C  49.77700 41.67700 41.79400
C  50.35000 42.95100 41.62100
C  49.31800 43.95400 42.02200
C  50.38900 40.31200 41.67500
C  51.74900 43.24900 41.04400
O  52.35400 42.29500 40.52200
C  52.36800 44.58100 40.84200
N  47.15800 46.22200 42.44500
C  48.49700 46.37900 42.37500
C  48.95100 47.87800 42.55400
C  47.56900 48.62600 42.41900
C  46.59400 47.42700 42.46800
C  49.57600 48.15900 43.95200
C  47.36600 49.45700 41.10900
C  47.47200 50.97500 41.17700
N  44.50500 45.33300 42.50500
C  44.14700 46.66600 42.67200
C  42.61800 46.69900 42.85800
C  42.20900 45.32100 42.73000
C  43.41600 44.58400 42.45500
C  41.80500 47.91000 43.10300
C  41.01700 44.54600 42.77100
O  39.82500 44.80500 42.90700
C  41.51900 43.08000 42.38900
C  41.04200 42.25900 43.57300
O  40.02500 41.56500 43.68200
O  41.80500 42.58200 44.64700
C  41.51200 41.99600 45.99500
H  47.57100 39.91400 41.99600
H  50.45000 45.89000 42.08500
H  44.94800 48.66300 42.94400
H  42.93400 40.38100 42.66800
H  45.19000 39.21500 41.40700
H  43.92900 38.76600 43.89500
H  45.15900 39.81900 44.43400
H  45.59500 38.28500 43.73000
H  41.90900 40.69800 40.51600
H  42.94000 39.40400 40.00900
H  44.41500 41.84600 39.66900
H  42.79500 42.06100 39.01400
H  50.45100 39.98100 40.63900
H  49.80600 39.56700 42.21600
H  51.37900 40.23700 42.12600
H  51.79300 45.21100 40.16300
H  53.38300 44.45400 40.46400
H  52.51800 45.04100 41.81800
H  49.72600 48.12200 41.82600
H  47.50000 49.25400 43.30700
H  48.83400 47.95200 44.72300
H  49.88600 49.20200 44.01300
H  50.48400 47.56000 44.02100
H  46.39300 49.27100 40.65400
H  48.14900 49.26400 40.37600
H  47.70400 51.42400 40.21100
H  48.24200 51.23800 41.90300
H  46.60500 51.48700 41.59600
H  41.34400 48.32800 42.20900
H  42.34600 48.72000 43.59200
H  40.93200 47.55900 43.65400
H  41.14000 42.70600 41.43700
H  41.78600 42.81100 46.66600
H  42.04500 41.11000 46.33900
H  40.49000 41.79300 46.31700

