158

Mg 1.86400 8.58000 26.61400
C  2.03500 10.77000 29.45400
C  1.55600 5.99700 28.78200
C  1.74200 6.62200 23.97100
C  1.91500 11.45500 24.64600
N  1.94300 8.43700 28.72000
C  1.91300 9.44800 29.65700
C  1.75100 8.84500 31.08500
C  2.01500 7.36500 30.84900
C  1.84100 7.23300 29.38600
C  3.35300 6.80100 31.44800
C  0.25300 9.10500 31.56800
C  0.16900 9.59700 33.03300
H  1.14800 8.93800 33.91900
N  1.54300 6.54700 26.41900
C  1.39400 5.65400 27.44900
C  1.25900 4.36100 26.88200
C  1.54000 4.49300 25.49600
C  1.64400 5.94100 25.25800
C  0.86800 3.09800 27.64800
C  1.50300 3.42900 24.39200
O  1.72900 3.73900 23.22600
C  1.32400 1.93600 24.72300
N  1.94500 9.02400 24.61900
C  1.77700 7.99400 23.67700
C  1.97900 8.56600 22.27700
C  1.86600 10.12600 22.46800
C  1.95400 10.24500 24.00600
C  3.18000 8.10800 21.47100
C  0.52700 10.66100 21.90500
C  0.35300 12.14400 21.59800
N  2.09000 10.72500 26.90500
C  2.08200 11.75700 26.03000
C  2.20600 12.99100 26.66500
C  2.08100 12.68800 28.01700
C  2.04300 11.25100 28.10500
C  2.35000 14.35100 26.06700
C  2.05600 13.24600 29.39200
O  2.07400 14.40200 29.80800
C  1.86600 11.98200 30.36300
C  2.91200 12.06500 31.49300
O  4.12200 12.01100 31.33200
O  2.22600 12.25600 32.64900
C  3.08300 12.62400 33.81800
H  1.44800 5.22300 29.54600
H  1.56900 6.04300 23.06200
H  1.94500 12.28900 23.94200
H  2.56800 9.19600 31.71500
H  1.26400 6.74600 31.33900
H  3.74900 6.03500 30.78200
H  3.25700 6.48300 32.48700
H  3.94400 7.71700 31.42200
H  -0.28200 8.16600 31.42700
H  -0.32800 9.83500 31.00400
H  -0.81000 9.23400 33.34500
H  0.05900 10.67300 33.17000
H  -0.10400 2.67600 27.39300
H  0.86500 3.33700 28.71200
H  1.56800 2.31900 27.34700
H  2.04100 1.35500 25.30400
H  1.29000 1.42000 23.76300
H  0.37600 1.76100 25.23200
H  1.05900 8.19800 21.82300
H  2.70100 10.65400 22.00700
H  3.70300 7.49200 22.20300
H  3.87800 8.88900 21.16900
H  2.80400 7.39200 20.74100
H  -0.28600 10.41000 22.58600
H  0.35000 10.08200 20.99900
H  -0.30700 12.21400 20.73300
H  1.31700 12.64800 21.53300
H  -0.05700 12.69400 22.44500
H  1.63300 15.04100 26.51200
H  2.27100 14.39600 24.98100
H  3.33400 14.73600 26.33800
H  0.85300 11.92900 30.76100
H  3.64600 13.53800 33.63000
H  3.80000 11.85500 34.10400
H  2.36500 12.95400 34.56900
Mg 35.07900 48.29300 25.81500
C  35.10600 46.38800 28.88900
C  33.82400 50.97000 27.67100
C  34.61900 50.02900 22.94900
C  35.54000 45.37200 24.18400
N  34.57800 48.58300 28.01100
C  34.87000 47.79000 29.06500
C  34.82700 48.53900 30.42700
C  33.99400 49.78900 29.96700
C  34.17300 49.85000 28.46700
C  32.50200 49.82200 30.49700
C  36.24000 48.56100 31.18100
C  36.36300 48.09500 32.64500
H  36.34100 49.19400 33.68800
N  34.49400 50.25500 25.37000
C  34.09800 51.18900 26.24300
C  33.81100 52.45400 25.55400
C  34.14000 52.16700 24.20500
C  34.44300 50.71900 24.13500
C  33.34400 53.73700 26.25800
C  34.14900 53.12800 23.00900
O  34.70300 52.84900 21.93500
C  33.63000 54.49400 23.09500
N  35.17800 47.78300 23.80800
C  34.91900 48.67800 22.75900
C  34.89700 47.93300 21.41400
C  35.46700 46.50000 21.85500
C  35.32800 46.52200 23.37300
C  33.57400 47.93200 20.68900
C  36.86600 46.14700 21.40100
C  37.05700 44.89300 20.49900
N  35.25000 46.21800 26.33400
C  35.51400 45.13000 25.55400
C  35.74800 43.91100 26.40600
C  35.61500 44.44400 27.73600
C  35.22800 45.76300 27.63300
C  36.10700 42.53400 25.97800
C  35.66700 44.11200 29.09800
O  36.10100 43.07500 29.57800
C  35.51500 45.38500 29.92100
C  34.45800 45.03200 30.96200
O  33.39400 44.45000 30.72700
O  34.97500 45.22700 32.20500
C  34.18500 44.87400 33.40900
H  33.35600 51.80000 28.20500
H  34.31200 50.52500 22.02500
H  35.72800 44.43200 23.66100
H  34.16600 47.94100 31.05400
H  34.36400 50.73000 30.37400
H  32.45000 50.51900 31.33400
H  32.29100 48.83700 30.91400
H  31.76300 50.05200 29.72900
H  36.51200 49.61600 31.22100
H  36.98400 47.94700 30.67300
H  37.22400 47.42700 32.64000
H  35.52300 47.46400 32.93900
H  34.03000 54.48700 25.86300
H  33.44700 53.85200 27.33700
H  32.31300 53.94500 25.97400
H  32.70400 54.45400 23.66900
H  33.54700 54.73700 22.03500
H  34.47400 54.99700 23.56700
H  35.65800 48.46200 20.84000
H  34.69900 45.77600 21.58600
H  32.80100 48.33400 21.34500
H  33.16900 46.97700 20.35400
H  33.60000 48.52600 19.77600
H  37.47400 45.83500 22.25000
H  37.42800 46.96100 20.94400
H  37.78300 44.20600 20.93500
H  37.41600 45.23400 19.52900
H  36.04400 44.50100 20.41200
H  35.21600 41.91400 26.08400
H  36.94800 42.13200 26.54300
H  36.47100 42.61600 24.95400
H  36.54300 45.50800 30.26300
H  33.20900 45.35000 33.50300
H  34.68200 45.22800 34.31200
H  34.05000 43.79200 33.37400

