158

Mg 45.80800 17.51700 28.16400
C  44.09800 16.75400 31.18700
C  47.92900 19.47000 30.08100
C  47.39600 18.23500 25.52700
C  43.34800 15.77400 26.40900
N  46.01000 17.98800 30.36100
C  45.29800 17.44600 31.36000
C  45.86400 17.83100 32.75300
C  46.78500 18.99600 32.37700
C  46.94200 18.82700 30.83400
C  46.22300 20.40500 32.85300
C  46.49200 16.59100 33.37300
C  46.22300 16.36600 34.85900
H  45.89300 17.67800 35.67500
N  47.47800 18.73600 27.81700
C  48.26800 19.36700 28.71600
C  49.40500 19.93100 27.99000
C  49.23400 19.66600 26.59700
C  48.05900 18.82100 26.64800
C  50.52900 20.50700 28.81000
C  50.02100 20.02600 25.32300
O  49.72900 19.79300 24.14200
C  51.29800 20.83600 25.47500
N  45.18700 17.34700 26.22000
C  46.11100 17.65200 25.32800
C  45.66500 17.22900 23.88600
C  44.59900 16.09500 24.20400
C  44.20800 16.51900 25.68400
C  45.26200 18.32700 22.86600
C  45.17900 14.61900 24.12800
C  44.62600 13.82400 22.94600
N  44.06900 16.47600 28.61300
C  43.19500 15.75700 27.83100
C  42.05300 15.25400 28.62300
C  42.46800 15.59500 29.94500
C  43.62100 16.34500 29.89800
C  40.79800 14.59500 28.17300
C  42.06700 15.43100 31.42300
O  41.22600 14.74100 31.95600
C  43.19000 16.21100 32.22700
C  42.57000 17.28200 32.94600
O  42.13400 18.26900 32.38100
O  42.61400 17.05600 34.37200
C  41.85000 18.04100 35.11200
H  48.55800 20.12200 30.69000
H  47.88600 18.33800 24.55700
H  42.75300 15.03400 25.86900
H  45.04200 18.20000 33.36700
H  47.71300 18.82700 32.92300
H  46.38100 20.51300 33.92600
H  45.14800 20.43500 32.67600
H  46.66400 21.24400 32.31400
H  47.55900 16.53000 33.15700
H  46.28700 15.67200 32.82300
H  47.15700 16.00000 35.28500
H  45.46100 15.58700 34.88500
H  51.38000 20.70200 28.15600
H  50.71900 19.84700 29.65600
H  50.10800 21.44800 29.16500
H  52.13200 20.20800 25.78800
H  51.16700 21.75200 26.05100
H  51.65200 21.17400 24.50100
H  46.46600 16.64500 23.43200
H  43.65900 16.19700 23.66200
H  44.23300 18.31600 22.50500
H  45.97500 18.26500 22.04500
H  45.30900 19.30700 23.34200
H  44.93500 14.09400 25.05200
H  46.26700 14.55700 24.14800
H  44.12100 14.44300 22.20500
H  44.06900 12.94900 23.28200
H  45.43900 13.29900 22.44400
H  40.91600 14.31800 27.12500
H  39.99100 15.28000 28.43500
H  40.73000 13.68000 28.76100
H  43.59500 15.48000 32.92700
H  42.02300 19.06100 34.77000
H  42.23600 18.05300 36.13100
H  40.78500 17.81000 35.13300
Mg 36.35100 49.92400 25.19600
C  36.46000 48.21700 28.24900
C  34.64900 52.48500 26.77800
C  35.63300 51.21500 22.08800
C  37.70000 47.08500 23.66300
N  35.67400 50.30000 27.31400
C  35.94000 49.52000 28.37200
C  35.45600 50.11100 29.65800
C  34.71600 51.40700 29.15200
C  35.11100 51.47100 27.67800
C  33.15800 51.23400 29.39900
C  36.54000 50.48200 30.65600
C  36.11000 50.34600 32.09100
H  34.66400 50.25100 32.47400
N  35.34300 51.68900 24.54300
C  34.73700 52.60800 25.32200
C  34.37100 53.69200 24.47000
C  34.47100 53.23900 23.14400
C  35.13600 52.00300 23.20400
C  33.72300 54.92400 24.96700
C  34.17700 54.07600 21.85700
O  34.24800 53.63500 20.66800
C  33.49400 55.42400 21.94100
N  36.45100 49.13900 23.11400
C  36.24400 49.98200 22.04800
C  36.79600 49.26300 20.75200
C  37.75500 48.19700 21.37800
C  37.33400 48.13900 22.83000
C  35.69400 48.61100 19.91300
C  39.24500 48.61600 21.39200
C  40.18000 47.44600 21.16900
N  37.11000 48.05500 25.77700
C  37.44000 46.99500 25.00600
C  37.81200 45.92100 25.99600
C  37.43500 46.38900 27.20900
C  36.98200 47.68200 27.05100
C  38.35500 44.59400 25.68200
C  37.48900 45.96700 28.59100
O  37.96900 45.00600 29.18100
C  36.81600 47.20000 29.33100
C  35.79600 46.66600 30.24800
O  34.62700 46.63800 29.99400
O  36.35800 46.12200 31.33100
C  35.41200 45.61000 32.34700
H  34.10700 53.30700 27.25100
H  35.36900 51.64800 21.12100
H  38.01700 46.15400 23.18700
H  34.67400 49.48700 30.09000
H  35.07800 52.27800 29.69800
H  32.91500 50.48600 30.15300
H  32.70100 51.06500 28.42400
H  32.71700 52.17000 29.74200
H  36.97400 51.47400 30.53500
H  37.42500 49.84800 30.60700
H  36.62300 51.07500 32.71700
H  36.57300 49.39600 32.35600
H  34.24300 55.80800 24.59800
H  33.55900 55.00900 26.04100
H  32.75800 54.99200 24.46400
H  32.53100 55.31800 22.44000
H  33.52200 55.75300 20.90200
H  34.18800 56.17900 22.31100
H  37.36900 50.02300 20.22000
H  37.67600 47.17100 21.01900
H  35.55300 49.33900 19.11400
H  34.82000 48.61900 20.56400
H  35.95700 47.61100 19.56600
H  39.52200 49.04100 22.35700
H  39.46500 49.33100 20.59900
H  40.94900 47.39200 21.93900
H  40.69700 47.67500 20.23700
H  39.62700 46.53800 20.93200
H  38.15800 44.19700 24.68700
H  38.14800 43.88700 26.48500
H  39.43500 44.74200 25.65700
H  37.57700 47.66500 29.95700
H  34.87200 44.77200 31.90600
H  34.66900 46.38000 32.55700
H  36.03900 45.36700 33.20400

