158

Mg 34.72000 3.10200 30.26600
C  32.22500 3.96500 32.40000
C  37.01600 3.14300 32.82200
C  37.20100 2.48900 27.95600
C  32.50900 3.29900 27.56600
N  34.61600 3.21000 32.41100
C  33.51200 3.73300 33.00300
C  33.77100 3.84400 34.55800
C  35.34000 3.81000 34.65700
C  35.66400 3.41800 33.20000
C  36.09500 5.08100 35.11500
C  33.13400 2.63600 35.23700
C  32.37800 3.09000 36.47500
H  33.14900 4.00700 37.50900
N  36.75400 2.74500 30.39600
C  37.52700 2.80100 31.55900
C  38.87800 2.42000 31.25700
C  38.98400 2.29800 29.82600
C  37.61800 2.55000 29.33000
C  40.01800 2.42000 32.32700
C  40.24800 1.96000 29.01100
O  40.22600 1.65100 27.82000
C  41.58600 1.79500 29.65800
N  34.87500 2.83000 28.06800
C  35.99400 2.66200 27.37700
C  35.77900 2.67100 25.87100
C  34.22100 2.59600 25.84200
C  33.82400 2.81500 27.26400
C  36.48800 3.88100 25.24200
C  33.62400 1.26700 25.23200
C  34.23400 0.84500 23.93600
N  32.80900 3.52200 29.96300
C  32.08900 3.69200 28.85800
C  30.76300 4.13000 29.18400
C  30.79600 4.29900 30.62100
C  32.03900 3.84000 30.99700
C  29.61200 4.32000 28.27400
C  29.98900 4.62500 31.82000
O  28.80500 4.85100 31.90800
C  30.95400 4.44300 33.04700
C  31.23800 5.84100 33.51600
O  32.06700 6.63000 33.10200
O  30.51700 6.11000 34.65400
C  30.82400 7.41200 35.25200
H  37.69500 2.95100 33.65500
H  37.93000 2.07600 27.25500
H  31.82300 3.26000 26.71700
H  33.41000 4.79500 34.95100
H  35.67800 3.03500 35.34400
H  36.81200 4.82700 35.89600
H  35.50600 5.94900 35.41100
H  36.67100 5.48800 34.28300
H  33.90500 1.96600 35.61800
H  32.41500 2.20100 34.54400
H  32.16100 2.11900 36.92100
H  31.48100 3.65600 36.22500
H  40.99100 2.82600 32.05000
H  40.35600 1.38400 32.35600
H  39.66300 2.73400 33.30800
H  42.29500 1.23800 29.04500
H  41.43600 1.04200 30.43100
H  41.87900 2.77600 30.03100
H  36.16300 1.77700 25.38000
H  33.79700 3.34700 25.17600
H  35.71700 4.56600 24.88900
H  37.13300 3.43500 24.48500
H  37.14900 4.38700 25.94500
H  32.56400 1.40900 25.02400
H  33.71200 0.35400 25.82100
H  33.41400 0.26500 23.51100
H  35.10600 0.24700 24.20200
H  34.54000 1.74000 23.39400
H  29.90300 4.93700 27.42300
H  28.74800 4.84700 28.68000
H  29.35300 3.28300 28.05700
H  30.51200 3.74900 33.76200
H  30.59400 8.19900 34.53300
H  31.88100 7.45900 35.51200
H  30.13400 7.50000 36.09200
Mg 40.49900 9.34700 29.61900
C  42.16100 10.45800 32.37000
C  38.27000 7.52300 31.65300
C  38.90900 8.17700 26.90600
C  43.03200 10.61800 27.57500
N  40.29900 8.94300 31.76900
C  41.04200 9.66600 32.65100
C  40.54700 9.38500 34.08000
C  39.42000 8.30000 33.81900
C  39.29100 8.25300 32.33500
C  39.67900 6.84700 34.41100
C  39.90100 10.71500 34.77700
C  39.41800 10.49100 36.26700
H  39.99400 11.29000 37.41800
N  38.82100 8.03200 29.29900
C  38.00300 7.52000 30.22000
C  36.88700 6.85100 29.61500
C  37.00100 7.14800 28.19800
C  38.29400 7.78400 28.07900
C  35.84800 6.17400 30.43900
C  36.00000 6.90300 27.06600
O  36.14800 7.22600 25.89400
C  34.56700 6.27700 27.44700
N  41.07200 9.07200 27.55900
C  40.19000 8.76400 26.63300
C  40.70000 9.04400 25.26500
C  41.78100 10.14800 25.51900
C  41.96600 9.95800 27.02900
C  41.27100 7.77400 24.54000
C  41.32000 11.49600 24.99600
C  40.70800 12.55900 25.91700
N  42.34100 10.25700 29.85500
C  43.21500 10.73700 28.95800
C  44.26300 11.51500 29.67700
C  43.89100 11.35500 30.97400
C  42.72700 10.58800 31.06000
C  45.29600 12.39400 29.02200
C  44.21000 11.85300 32.30800
O  45.02600 12.72200 32.68100
C  43.11600 11.19700 33.24200
C  43.78500 10.42600 34.27400
O  44.68400 9.65600 34.06700
O  43.09800 10.69900 35.48900
C  43.75300 10.12300 36.65400
H  37.56700 7.09600 32.37100
H  38.44100 7.82400 25.98500
H  43.83500 11.07000 26.98900
H  41.30100 8.94900 34.73500
H  38.43200 8.52600 34.21900
H  38.83700 6.59600 35.05700
H  40.54000 6.92900 35.07500
H  39.73200 6.06200 33.65700
H  39.00700 10.93700 34.19400
H  40.63000 11.51400 34.64100
H  39.43200 9.41800 36.46100
H  38.36400 10.76600 36.22700
H  35.30000 5.41100 29.88700
H  35.06300 6.83900 30.79800
H  36.38100 5.64600 31.23000
H  33.83700 6.62300 26.71600
H  34.31300 6.81800 28.35800
H  34.61400 5.22700 27.73800
H  39.89600 9.49200 24.68000
H  42.81800 10.03100 25.20500
H  40.93000 6.83800 24.98200
H  42.35900 7.72400 24.58800
H  40.89100 7.76900 23.51800
H  40.58400 11.31600 24.21200
H  42.19200 11.96800 24.54400
H  40.88200 12.34700 26.97200
H  39.63000 12.70900 25.85300
H  41.15000 13.54800 25.79800
H  45.04100 12.89500 28.08800
H  46.11200 11.72600 28.74700
H  45.65400 13.15300 29.71700
H  42.48100 12.01500 33.58300
H  43.53700 9.05500 36.64100
H  43.58200 10.64200 37.59800
H  44.84100 10.17500 36.62100

