158

Mg 40.74100 9.81100 29.03600
C  42.41700 10.80900 31.91900
C  38.18800 8.60800 31.01100
C  39.56400 8.27900 26.38100
C  43.68100 10.74700 27.19600
N  40.34800 9.65700 31.24400
C  41.13200 10.20400 32.16400
C  40.31200 10.23600 33.49000
C  39.13200 9.23800 33.21900
C  39.15400 9.30100 31.74200
C  39.18200 7.82200 33.84300
C  39.95700 11.66300 34.01600
C  39.70400 11.85300 35.48300
H  40.76900 12.60000 36.27700
N  39.11800 8.69000 28.68400
C  38.11000 8.29900 29.63700
C  36.98900 7.65000 28.99100
C  37.33300 7.66900 27.60100
C  38.76600 8.21900 27.53700
C  35.83500 7.00500 29.78000
C  36.48300 7.23700 26.43700
O  36.87700 7.37100 25.30300
C  35.10500 6.66800 26.70300
N  41.53600 9.53600 27.09400
C  40.81500 8.87900 26.18400
C  41.43500 8.98100 24.78400
C  42.74600 9.75800 25.04200
C  42.66300 10.13900 26.50900
C  41.65400 7.57700 24.23000
C  43.01800 10.95900 24.04800
C  42.40700 12.31100 24.41300
N  42.64200 10.71900 29.39300
C  43.71700 11.02500 28.58200
C  44.74600 11.66900 29.34000
C  44.29700 11.54700 30.67200
C  43.01200 11.00300 30.61700
C  46.06500 12.03000 28.86300
C  44.61100 11.88100 32.02900
O  45.55900 12.49600 32.48700
C  43.47900 11.34600 32.91400
C  44.04500 10.41700 33.90700
O  44.61700 9.42400 33.65000
O  43.59000 10.77400 35.21100
C  43.77100 9.62300 36.11700
H  37.29900 8.26400 31.54400
H  39.06600 7.99800 25.45100
H  44.48000 11.18700 26.59400
H  40.86400 9.77100 34.30600
H  38.18700 9.71600 33.47700
H  39.68000 7.15600 33.13900
H  38.18200 7.56100 34.19000
H  39.92800 7.75000 34.63400
H  39.14700 12.03000 33.38500
H  40.73000 12.37100 33.71500
H  39.63000 10.92300 36.04800
H  38.78000 12.42800 35.54000
H  35.87000 6.74300 30.83800
H  35.54800 6.12500 29.20400
H  34.96700 7.66100 29.71700
H  34.63700 6.58100 25.72200
H  34.54900 7.40000 27.28800
H  35.08100 5.69300 27.18900
H  40.77900 9.42300 24.03400
H  43.61400 9.09800 25.04900
H  41.59700 6.87100 25.05900
H  42.59800 7.42600 23.70600
H  40.86600 7.30400 23.52800
H  42.63700 10.60600 23.08900
H  44.10400 10.95700 23.96400
H  41.90700 12.28400 25.38100
H  41.74900 12.51700 23.56900
H  43.23100 13.02400 24.44400
H  46.11600 12.18000 27.78500
H  46.68800 11.18800 29.16300
H  46.44100 12.92600 29.35700
H  42.99200 12.17800 33.42300
H  43.08700 8.77400 36.10500
H  43.67200 10.01100 37.13100
H  44.78400 9.24800 35.97100
Mg 54.10100 24.08000 44.90600
C  51.43400 26.18800 43.85700
C  52.66200 21.59600 42.81000
C  57.04800 22.46500 44.77600
C  55.60800 26.72400 46.54000
N  52.30800 23.93400 43.42100
C  51.34500 24.89300 43.20500
C  50.05500 24.34400 42.59500
C  50.36300 22.82700 42.58400
C  51.87600 22.74000 42.94500
C  49.44700 21.86600 43.43400
C  49.70300 24.84300 41.18800
C  50.96300 25.07000 40.24400
H  50.68500 25.81200 38.95200
N  54.73200 22.21000 44.02700
C  53.98900 21.33500 43.19300
C  54.82600 20.20400 42.80400
C  56.07100 20.47100 43.36800
C  56.01900 21.72200 44.15400
C  54.28100 19.05300 41.96500
C  57.31700 19.59400 43.05600
O  57.25700 18.68700 42.28400
C  58.58400 19.66200 43.85500
N  56.10400 24.45200 45.61400
C  57.11100 23.65200 45.43500
C  58.37100 24.21300 46.18100
C  57.94700 25.68100 46.47300
C  56.45200 25.66300 46.17200
C  58.95400 23.28700 47.30300
C  58.64400 26.92300 45.74200
C  58.86900 28.17200 46.61700
N  53.60000 25.91900 45.28400
C  54.26600 26.87300 45.98000
C  53.42600 28.10700 46.11300
C  52.34500 27.87100 45.27300
C  52.46900 26.55300 44.74200
C  53.60800 29.35100 46.93900
C  51.07900 28.42100 44.76300
O  50.56700 29.50800 44.97500
C  50.36400 27.34300 43.93500
C  49.94900 27.84000 42.61600
O  50.65500 28.14100 41.69700
O  48.59600 28.01400 42.61600
C  47.96100 28.55100 41.38200
H  52.17200 20.83000 42.20600
H  58.03400 22.00900 44.67100
H  56.08700 27.56000 47.05400
H  49.41000 24.56800 43.44400
H  50.27800 22.39900 41.58500
H  48.84000 22.41400 44.15400
H  50.01600 21.18900 44.07100
H  48.81400 21.22200 42.82300
H  49.14600 25.77700 41.11300
H  49.12000 23.99700 40.82200
H  51.39500 24.08400 40.07200
H  51.67200 25.69700 40.78500
H  53.22800 18.85400 42.16600
H  54.76200 18.10600 42.21100
H  54.53500 19.26800 40.92700
H  59.16700 18.74400 43.77400
H  58.28000 19.83600 44.88700
H  59.13300 20.53200 43.49300
H  59.23400 24.06300 45.53200
H  57.97000 25.98300 47.52000
H  59.98200 23.00600 47.07100
H  58.37600 22.36300 47.31500
H  59.03300 23.77200 48.27500
H  58.00600 27.19100 44.90000
H  59.64800 26.70500 45.37700
H  59.88500 28.55800 46.53400
H  58.59200 27.99200 47.65500
H  58.25000 28.95200 46.17300
H  54.50900 29.26500 47.54700
H  52.74600 29.49400 47.59100
H  53.61200 30.24800 46.32100
H  49.51900 27.08700 44.57400
H  48.19600 27.90900 40.53200
H  48.17900 29.60100 41.18700
H  46.90300 28.45400 41.62600

