158

Mg 6.89500 56.29800 41.91800
C  5.90300 52.95600 41.95900
C  9.86200 55.25100 40.59900
C  7.57800 59.52600 41.26900
C  3.69400 57.28500 43.08800
N  7.68000 54.33400 41.17200
C  7.07000 53.12100 41.26300
C  7.99000 52.06800 40.54000
C  9.39800 52.77500 40.70200
C  8.98000 54.22400 40.79600
C  10.35400 52.28700 41.81200
C  7.69100 51.82700 39.01700
C  7.84800 50.41100 38.52400
H  7.02000 49.99900 37.33300
N  8.62500 57.30900 41.22200
C  9.75300 56.68300 40.79200
C  10.62800 57.71000 40.32400
C  9.98800 58.95600 40.43000
C  8.69000 58.68500 41.02700
C  11.98100 57.39900 39.63100
C  10.52900 60.31500 39.93400
O  11.55200 60.40300 39.26300
C  9.84000 61.67200 40.17500
N  5.75500 58.18500 42.03400
C  6.26600 59.33200 41.64500
C  5.34100 60.47700 41.82900
C  4.11700 59.82100 42.61000
C  4.47200 58.29300 42.53100
C  5.78900 61.83700 42.50200
C  2.70800 60.17800 41.99000
C  1.64700 60.87500 42.87200
N  5.07400 55.34000 42.42900
C  3.99300 55.84300 43.06100
C  3.12000 54.74800 43.51600
C  3.78300 53.63700 42.97000
C  5.00700 54.00100 42.41200
C  1.77400 54.83200 44.20200
C  3.74200 52.17900 42.74400
O  2.78500 51.39700 42.94000
C  5.12800 51.71200 42.25400
C  4.91500 50.78100 41.09600
O  4.50700 51.06100 39.95000
O  5.21800 49.51800 41.47300
C  4.63900 48.44500 40.66800
H  10.86700 54.87700 40.39200
H  7.77000 60.53600 40.90000
H  2.74700 57.49000 43.59100
H  8.05300 51.16000 41.14000
H  10.04800 52.79300 39.82700
H  9.98100 51.53700 42.50900
H  10.70800 53.10800 42.43500
H  11.12300 51.66700 41.34900
H  8.31100 52.54100 38.47500
H  6.63800 52.07600 38.88300
H  7.51300 49.81100 39.37000
H  8.90600 50.27200 38.30100
H  11.79100 57.66500 38.59100
H  12.14000 56.33000 39.48500
H  12.81700 57.96400 40.04200
H  9.59400 61.94500 41.20100
H  8.90600 61.61100 39.61600
H  10.47500 62.44000 39.73400
H  4.98300 60.67500 40.81900
H  4.10700 60.06000 43.67300
H  6.01400 62.42400 41.61200
H  6.70200 61.62900 43.05900
H  5.05200 62.28000 43.17300
H  2.20500 59.27900 41.63400
H  2.88100 60.80900 41.11800
H  1.90600 60.76900 43.92500
H  0.67500 60.41100 42.70800
H  1.59000 61.93800 42.63500
H  1.59900 54.10200 44.99300
H  1.12800 54.54300 43.37300
H  1.56300 55.85100 44.52700
H  5.72200 51.18600 43.00100
H  4.80000 48.68700 39.61800
H  3.56900 48.30300 40.82100
H  5.06400 47.47100 40.91000
Mg 15.69000 51.04700 25.51000
C  17.72500 50.48800 28.30500
C  13.13100 51.86000 27.58800
C  13.78800 51.43200 22.78400
C  18.44700 50.27700 23.44100
N  15.52900 51.37000 27.71800
C  16.45100 50.94700 28.64500
C  16.01200 51.15100 30.09000
C  14.45000 51.30800 29.82400
C  14.35300 51.69200 28.29500
C  13.53400 50.07300 30.29800
C  16.68800 52.41700 30.72500
C  16.79400 52.53100 32.18800
H  15.84800 51.72600 33.08800
N  13.71200 51.53400 25.18300
C  12.75900 51.76900 26.16700
C  11.46900 52.00900 25.52800
C  11.65800 51.97900 24.14300
C  13.13500 51.55900 23.97400
C  10.20000 52.34400 26.28500
C  10.74200 52.15300 22.97300
O  11.06600 52.03800 21.80600
C  9.29400 52.45200 23.31000
N  16.08300 50.94700 23.42100
C  15.13100 51.15600 22.49600
C  15.72500 51.15900 21.01800
C  17.27500 51.03200 21.31900
C  17.30300 50.69500 22.83300
C  15.14000 50.02600 20.13300
C  18.18000 52.21400 20.92200
C  18.86200 52.21500 19.56300
N  17.70300 50.30200 25.74400
C  18.69900 50.09300 24.82600
C  19.85100 49.66700 25.57100
C  19.56600 49.89400 26.94000
C  18.20200 50.28600 26.99200
C  21.12900 49.36600 24.84800
C  20.13900 49.85400 28.29100
O  21.20000 49.49100 28.66100
C  18.97000 50.32400 29.14100
C  18.76300 49.44100 30.33000
O  17.99300 48.54900 30.27900
O  19.51400 49.82900 31.38100
C  19.37300 49.05000 32.59900
H  12.29900 52.05800 28.26600
H  13.22200 51.46400 21.85000
H  19.25600 50.17200 22.71400
H  16.17300 50.30600 30.76000
H  14.05300 52.16000 30.37600
H  12.80000 50.36000 31.05000
H  14.21100 49.31200 30.68600
H  12.89200 49.64400 29.52900
H  16.10100 53.30000 30.47300
H  17.69300 52.61800 30.35500
H  16.60500 53.55100 32.52400
H  17.82600 52.34300 32.48500
H  9.30100 51.73300 26.21100
H  9.89900 53.35200 25.99800
H  10.31800 52.32800 27.36800
H  9.12900 53.35900 23.89200
H  8.86300 51.54800 23.74000
H  8.87000 52.51100 22.30700
H  15.56500 52.11500 20.51900
H  17.68400 50.14500 20.83600
H  14.68400 49.22100 20.70800
H  15.90300 49.57500 19.49900
H  14.36900 50.50900 19.53200
H  18.98000 52.23500 21.66200
H  17.80300 53.21300 21.14000
H  19.71000 51.53600 19.65200
H  19.23900 53.20700 19.31800
H  18.22500 51.82200 18.77100
H  21.55800 50.21200 24.30900
H  21.05700 48.44600 24.26900
H  21.82500 49.13800 25.65500
H  19.38400 51.22800 29.58800
H  19.99100 49.58200 33.32300
H  19.67000 48.00400 32.66500
H  18.34600 49.09100 32.96100

