158

Mg 35.59200 2.20900 29.75100
C  33.64200 3.45800 32.35400
C  38.39900 2.31900 31.78300
C  37.36400 1.18400 27.13500
C  32.91500 2.81700 27.55000
N  35.98800 3.05200 31.74000
C  34.99300 3.22300 32.72200
C  35.65600 3.37100 34.13600
C  37.17900 3.14100 33.87700
C  37.22000 2.89200 32.37100
C  38.18100 4.17800 34.33300
C  34.92400 2.33900 35.06900
C  34.69800 2.73300 36.56200
H  35.49800 4.02000 37.04600
N  37.59900 1.71400 29.50100
C  38.60900 1.81300 30.46600
C  39.89400 1.17500 30.02900
C  39.56300 0.99500 28.61000
C  38.14100 1.34500 28.35900
C  41.07200 0.91500 30.98800
C  40.50000 0.42200 27.60400
O  40.15200 0.24300 26.43000
C  41.89900 -0.00600 27.93000
N  35.25300 2.12600 27.62000
C  36.10000 1.63100 26.78100
C  35.56100 1.54900 25.30900
C  34.07400 1.91900 25.58900
C  34.05200 2.31600 27.00000
C  36.24400 2.53400 24.39300
C  33.19000 0.62500 25.38200
C  32.29200 0.66300 24.22600
N  33.69900 2.94100 29.86700
C  32.72000 3.12300 28.91100
C  31.52700 3.58300 29.56400
C  31.81500 3.69000 30.88200
C  33.16500 3.33800 31.01600
C  30.16900 3.94300 28.99800
C  31.26000 4.04900 32.13900
O  30.09600 4.40000 32.39000
C  32.48000 3.87900 33.15200
C  32.66100 5.16400 33.85800
O  32.94900 6.22100 33.32400
O  32.41800 4.97800 35.21400
C  32.42000 6.14200 36.07200
H  39.27800 2.26200 32.42900
H  37.98100 0.80200 26.31900
H  31.97500 2.90500 27.00200
H  35.52900 4.39900 34.47500
H  37.42100 2.19300 34.35800
H  37.62000 4.98600 34.80300
H  38.66200 4.54700 33.42700
H  38.88600 3.78700 35.06600
H  35.46900 1.39500 35.05200
H  34.00000 1.94900 34.64400
H  35.15500 1.89900 37.09500
H  33.65000 2.82400 36.85000
H  41.70800 0.11900 30.59900
H  40.51600 0.63500 31.88200
H  41.61000 1.85500 31.11400
H  42.50800 0.87300 28.13900
H  42.32900 -0.42200 27.01900
H  41.76300 -0.77600 28.68900
H  35.70600 0.51400 24.99900
H  33.62400 2.73500 25.02300
H  36.65400 3.38200 24.94200
H  35.72900 2.84000 23.48200
H  37.17800 2.02500 24.15600
H  32.65300 0.40000 26.30300
H  33.80300 -0.27100 25.28000
H  32.47100 -0.19500 23.57800
H  32.06300 1.63700 23.79200
H  31.39400 0.26900 24.70000
H  29.60400 3.07700 28.65100
H  30.22400 4.64100 28.16300
H  29.52400 4.37900 29.76100
H  32.18500 3.11900 33.87600
H  32.62700 5.85300 37.10200
H  31.36200 6.40700 36.08900
H  33.16600 6.86500 35.74400
Mg 42.41300 41.62700 25.65300
C  41.41100 43.87600 28.15900
C  43.62700 39.56700 28.14200
C  43.60200 39.48000 23.27100
C  41.85400 44.10100 23.28700
N  42.36600 41.63600 27.91000
C  42.00400 42.69800 28.66300
C  42.16300 42.39500 30.15200
C  42.91300 41.05100 30.15800
C  43.02400 40.73400 28.64700
C  44.28100 40.87900 30.93300
C  40.79000 42.46800 31.02700
C  40.79100 42.95100 32.45500
H  40.07000 42.06600 33.56100
N  43.43000 39.78200 25.71100
C  43.82500 39.08000 26.84500
C  44.41800 37.81000 26.47800
C  44.36600 37.69600 25.04100
C  43.74400 38.96700 24.62100
C  44.94400 36.75400 27.43300
C  44.83300 36.57000 24.18000
O  44.75900 36.61200 22.96000
C  45.60800 35.49000 24.75700
N  42.76300 41.82500 23.59200
C  43.21300 40.76600 22.82800
C  43.06900 41.05400 21.32300
C  42.55300 42.65000 21.29800
C  42.43500 42.90400 22.79900
C  44.32400 40.79800 20.59300
C  41.08900 42.83600 20.71000
C  40.92700 44.11300 19.87100
N  41.57200 43.53800 25.64600
C  41.48000 44.43300 24.60200
C  40.85600 45.59900 25.10100
C  40.84800 45.44200 26.51200
C  41.39000 44.15500 26.77900
C  40.44800 46.79900 24.30400
C  40.47700 46.08500 27.68300
O  39.93300 47.20100 27.94300
C  40.85900 45.09200 28.83800
C  41.84400 45.72900 29.91200
O  43.01200 45.95300 29.69300
O  41.20700 45.98500 31.13200
C  41.99300 46.43200 32.32000
H  44.03800 38.95700 28.94900
H  43.93400 38.83600 22.45400
H  41.64700 44.87500 22.54500
H  42.82600 43.16700 30.54400
H  42.23000 40.32200 30.59400
H  44.32000 41.69700 31.65200
H  45.16100 40.90000 30.28900
H  44.20400 39.95700 31.50900
H  40.41800 41.44400 31.05400
H  39.98200 42.88000 30.42400
H  40.31400 43.93100 32.47900
H  41.80400 43.18300 32.78400
H  44.75900 37.10700 28.44700
H  46.01800 36.63400 27.29100
H  44.38800 35.82000 27.35000
H  46.54400 35.85100 25.18300
H  45.99900 34.84600 23.96900
H  44.96500 35.02600 25.50400
H  42.28400 40.43900 20.88200
H  43.31200 43.29100 20.84900
H  45.12400 41.16700 21.23400
H  44.36500 41.37000 19.66600
H  44.26300 39.72500 20.40900
H  40.38500 42.85900 21.54100
H  40.82500 41.95200 20.13000
H  41.60100 44.94200 20.08700
H  39.87000 44.33700 20.01400
H  41.15800 43.96800 18.81600
H  40.07700 47.56000 24.99000
H  39.63200 46.50500 23.64400
H  41.29800 47.27400 23.81400
H  39.88100 44.98800 29.31000
H  42.39000 45.57000 32.85600
H  41.38200 47.06400 32.96500
H  42.89800 47.00400 32.11600

