158

Mg 53.59000 24.41500 45.23900
C  51.34300 26.86000 44.20500
C  51.57700 22.01000 43.77700
C  56.17500 22.13500 45.22600
C  55.71400 26.87900 46.26500
N  51.66000 24.42800 44.18300
C  50.95800 25.52200 43.79400
C  49.74800 25.20500 42.97300
C  49.62600 23.66800 43.21100
C  51.08000 23.33200 43.74300
C  48.37500 23.22200 44.03600
C  49.89300 25.57500 41.46300
C  51.36700 25.85400 41.02500
H  52.36500 24.64800 41.06800
N  53.80200 22.23500 44.65700
C  52.83000 21.45400 44.13600
C  53.25300 20.10800 43.95700
C  54.52700 20.08100 44.56600
C  54.92000 21.48500 44.79300
C  52.43600 18.98500 43.31800
C  55.42400 18.92100 44.73100
O  54.91300 17.80600 44.63800
C  56.80200 19.03700 45.18200
N  55.67500 24.52200 45.36400
C  56.45500 23.43600 45.55500
C  57.88500 23.78500 46.03500
C  57.75500 25.34500 46.35000
C  56.28300 25.61200 45.91500
C  58.27500 22.93500 47.25600
C  58.82200 26.19300 45.47200
C  59.53200 27.27700 46.41600
N  53.52900 26.45800 45.38800
C  54.41300 27.33900 46.00800
C  53.78700 28.62400 46.09800
C  52.63200 28.52600 45.27100
C  52.46800 27.15800 44.95600
C  54.49300 29.83300 46.80200
C  51.55400 29.23400 44.72400
O  51.25700 30.39800 44.81200
C  50.57800 28.14200 44.11000
C  50.20500 28.52400 42.72700
O  50.98000 28.82400 41.80100
O  48.83800 28.66300 42.66700
C  48.38100 29.11800 41.34100
H  50.89800 21.27100 43.34700
H  57.09200 21.55400 45.35100
H  56.35400 27.58800 46.79300
H  48.82700 25.63300 43.37000
H  49.65300 23.25400 42.20300
H  47.67500 23.12600 43.20600
H  47.94200 24.03500 44.61900
H  48.58800 22.30200 44.58000
H  49.33400 26.50200 41.33700
H  49.43400 24.84200 40.79900
H  51.94000 26.57800 41.60500
H  51.25800 26.19300 39.99400
H  53.05100 18.27300 42.76600
H  51.85200 19.51600 42.56700
H  51.93500 18.58400 44.19900
H  57.40900 18.14100 45.05600
H  56.96900 19.25000 46.23800
H  57.22500 19.82300 44.55700
H  58.56800 23.56400 45.21400
H  57.91300 25.52100 47.41400
H  57.51800 22.17200 47.43600
H  58.34900 23.61300 48.10700
H  59.23400 22.43900 47.10500
H  58.41800 26.72000 44.60700
H  59.56500 25.45700 45.16600
H  59.27800 27.19500 47.47300
H  59.42700 28.27600 45.99300
H  60.60700 27.14200 46.30300
H  54.94500 29.38900 47.68800
H  53.74900 30.59600 47.03200
H  55.26800 30.37100 46.25600
H  49.67300 28.15400 44.71800
H  47.33100 28.82700 41.37600
H  48.77900 28.72400 40.40600
H  48.30300 30.20500 41.33200
Mg 43.30500 42.44400 26.20300
C  41.84300 44.71700 28.72200
C  44.21400 40.48700 28.81500
C  44.39900 40.33500 23.90600
C  42.21800 44.76600 23.81200
N  43.10600 42.68000 28.48900
C  42.46800 43.60400 29.27900
C  42.54800 43.26800 30.77200
C  43.63400 42.09100 30.76400
C  43.68800 41.71700 29.26800
C  44.97000 42.46100 31.38200
C  41.19700 42.69200 31.14700
C  40.68600 43.05700 32.59900
H  41.75100 43.27300 33.78900
N  44.18400 40.63400 26.33700
C  44.37600 39.96100 27.49100
C  44.91600 38.67000 27.12400
C  44.86100 38.55200 25.77100
C  44.48500 39.85100 25.28100
C  45.48200 37.65500 28.02500
C  45.14700 37.30100 24.86700
O  45.13800 37.41000 23.63100
C  45.18800 35.90500 25.32000
N  43.51200 42.63500 24.22200
C  43.90700 41.57700 23.45900
C  43.81900 41.95600 21.97400
C  43.01300 43.27100 21.93800
C  42.85300 43.59900 23.43900
C  45.22600 41.97300 21.30800
C  41.64900 43.19300 21.19100
C  40.69400 42.12800 21.85400
N  42.37200 44.39400 26.23700
C  42.09200 45.18300 25.14700
C  41.64000 46.44400 25.60300
C  41.44600 46.34500 26.98800
C  41.91800 45.04000 27.35800
C  41.35400 47.70200 24.83400
C  41.02400 46.96100 28.21300
O  40.49300 48.04300 28.31600
C  41.16500 45.87400 29.33400
C  42.05100 46.49100 30.40900
O  43.24800 46.68200 30.19900
O  41.38000 46.68000 31.59800
C  42.23300 47.03000 32.70000
H  44.62300 39.92200 29.65500
H  44.56100 39.63200 23.08600
H  41.84800 45.26500 22.91400
H  42.80500 44.13500 31.38000
H  43.38500 41.13500 31.22600
H  45.84200 42.34300 30.73900
H  45.16100 41.86900 32.27700
H  45.01500 43.51300 31.66400
H  41.21800 41.61200 30.99800
H  40.51800 43.23200 30.48700
H  39.93200 42.32200 32.88000
H  40.08100 43.96300 32.61000
H  45.69900 38.13100 28.98100
H  46.42600 37.26300 27.64700
H  44.65500 36.97400 28.23000
H  45.52500 35.16900 24.59000
H  44.25800 35.61500 25.81100
H  46.00600 35.87800 26.04000
H  43.32200 41.13600 21.45700
H  43.69200 43.97000 21.45000
H  46.12400 42.14200 21.90200
H  45.18500 42.76200 20.55800
H  45.28700 41.06700 20.70500
H  41.81300 42.74600 20.21100
H  41.20000 44.17200 21.02400
H  41.12900 41.63900 22.72600
H  40.27000 41.29600 21.29300
H  39.72300 42.55400 22.10600
H  41.45000 47.50100 23.76700
H  42.04500 48.51000 25.07200
H  40.43700 48.23400 25.08800
H  40.14500 45.72200 29.68600
H  42.86600 46.18200 32.96100
H  41.52400 47.30500 33.48100
H  42.91300 47.84100 32.44200

