158

Mg 0.54900 7.67600 26.07300
C  1.09700 9.64800 28.93800
C  0.09800 5.00000 28.17300
C  0.28900 5.90500 23.35300
C  0.60300 10.56300 24.26700
N  0.57300 7.37700 28.29600
C  0.78600 8.35500 29.20700
C  0.45900 7.77500 30.57300
C  0.61800 6.26600 30.34400
C  0.34500 6.18600 28.89800
C  1.98000 5.56800 30.74800
C  -0.87500 8.25000 31.23600
C  -1.00000 7.98100 32.74600
H  0.29300 7.91100 33.67300
N  0.37600 5.68900 25.78400
C  0.23500 4.76100 26.83700
C  0.13100 3.38700 26.18600
C  0.12700 3.61900 24.72100
C  0.33400 5.10400 24.54000
C  -0.18100 2.13100 27.02500
C  0.05900 2.63000 23.52500
O  -0.03100 2.88500 22.36700
C  -0.05600 1.07600 23.80800
N  0.53600 8.12400 24.09300
C  0.32700 7.25700 23.14500
C  0.34000 7.91800 21.68300
C  -0.02200 9.36900 22.10700
C  0.38500 9.34000 23.59500
C  1.67600 7.82300 20.89500
C  -1.52600 9.68500 21.89500
C  -1.79300 10.84400 20.93300
N  0.83700 9.73600 26.46100
C  0.83900 10.81700 25.60500
C  1.16400 12.06400 26.31000
C  1.15700 11.59300 27.67100
C  1.11800 10.19800 27.66200
C  1.37100 13.43300 25.78100
C  1.31500 12.07700 28.93300
O  1.50500 13.23900 29.31500
C  1.19900 10.85600 29.85800
C  2.47400 10.81400 30.63700
O  3.57100 10.48700 30.19600
O  2.25200 11.29800 31.88100
C  3.41500 11.24200 32.74900
H  -0.05700 4.12400 28.80600
H  0.21600 5.23100 22.49700
H  0.48500 11.36800 23.53900
H  1.20000 8.17300 31.26700
H  -0.21400 5.83000 30.89700
H  2.31200 6.25600 31.52600
H  2.60700 5.47000 29.86200
H  1.81000 4.60700 31.23300
H  -1.67900 7.69200 30.75600
H  -1.15900 9.28300 31.03600
H  -1.64400 7.11000 32.87000
H  -1.59700 8.75600 33.22600
H  -1.23400 2.10300 27.30500
H  0.40800 2.14700 27.94200
H  -0.03700 1.16000 26.55200
H  0.24100 0.55100 22.90000
H  -1.06900 0.72900 24.01100
H  0.55500 0.72200 24.63900
H  -0.46600 7.44200 21.12400
H  0.49600 10.09800 21.48400
H  1.95200 8.73300 20.36200
H  1.58000 6.90400 20.31800
H  2.48100 7.81300 21.63000
H  -1.94200 9.90100 22.87900
H  -2.00300 8.80900 21.45400
H  -0.94500 11.34100 20.46100
H  -2.25000 11.64400 21.51600
H  -2.45200 10.55300 20.11500
H  0.51600 13.86300 25.25900
H  2.26600 13.55300 25.17000
H  1.57500 14.06900 26.64300
H  0.38500 10.94000 30.57800
H  3.08000 11.66000 33.69900
H  4.33500 11.69700 32.38500
H  3.59300 10.18900 32.97100
Mg 42.29600 41.35400 26.11100
C  41.55600 43.77200 28.53700
C  43.62900 39.43900 28.55400
C  43.51600 39.47500 23.68200
C  41.92000 44.00000 23.71900
N  42.48500 41.62200 28.34800
C  41.94400 42.59900 29.15000
C  41.97100 42.20900 30.67100
C  42.86300 40.98900 30.66500
C  43.01900 40.65700 29.11500
C  44.22500 41.20700 31.39800
C  40.55500 41.88200 31.23200
C  40.57500 41.51200 32.70600
H  39.90700 42.52000 33.67400
N  43.29200 39.65500 26.11700
C  43.77400 38.99200 27.22600
C  44.40500 37.83800 26.81800
C  44.41100 37.77700 25.38100
C  43.69100 38.98700 24.97700
C  45.04100 36.89400 27.84900
C  45.04600 36.78300 24.44100
O  45.14200 36.99400 23.24500
C  45.81000 35.49400 25.00100
N  42.48800 41.66900 23.97600
C  42.97700 40.67100 23.22000
C  42.87900 41.02300 21.73100
C  42.41400 42.47600 21.73400
C  42.18900 42.75900 23.22100
C  44.09900 40.74000 20.83700
C  41.10800 42.56400 20.89200
C  40.68500 43.92800 20.36500
N  41.64100 43.40600 26.06400
C  41.58700 44.34700 25.05100
C  41.24800 45.61900 25.51400
C  41.02700 45.37700 26.89100
C  41.38600 44.07800 27.15100
C  41.04600 46.85000 24.65100
C  40.70800 46.06300 28.16500
O  40.37400 47.21000 28.37200
C  40.96900 44.97100 29.24900
C  41.96800 45.53100 30.24400
O  43.16300 45.64800 30.01000
O  41.40600 45.61100 31.43300
C  42.31800 45.51100 32.59200
H  44.07300 38.84300 29.35400
H  43.60400 38.76800 22.85500
H  41.79100 44.86000 23.05900
H  42.51000 43.00400 31.18700
H  42.45000 40.09500 31.13300
H  44.21500 40.72100 32.37400
H  44.29300 42.27200 31.61600
H  45.02100 40.83900 30.75100
H  40.35100 40.97700 30.65900
H  39.80600 42.63100 30.97500
H  41.61400 41.59700 33.02300
H  40.18300 40.54400 33.02000
H  44.83900 35.86600 27.54900
H  44.56800 36.89300 28.83100
H  46.12600 37.00300 27.83900
H  46.48000 35.82900 25.79300
H  46.37900 35.09500 24.16200
H  45.20200 34.74900 25.51400
H  42.10500 40.37500 21.32000
H  43.18800 43.14400 21.35400
H  44.38400 41.52100 20.13200
H  43.89300 39.92400 20.14400
H  44.92600 40.49900 21.50500
H  40.33400 42.17000 21.55000
H  41.09800 41.81900 20.09600
H  41.23300 44.83300 20.62900
H  39.67100 44.27900 20.55700
H  40.89000 43.92500 19.29400
H  40.02100 46.94400 24.29400
H  41.82700 46.90000 23.89200
H  41.14200 47.71600 25.30600
H  40.07900 44.63900 29.78400
H  43.08400 46.27900 32.70000
H  42.85300 44.56300 32.55400
H  41.67900 45.57700 33.47300

