158

Mg 36.63500 49.61400 24.59600
C  36.45300 47.74400 27.63000
C  35.30100 52.36700 26.28300
C  35.90900 51.13300 21.58700
C  37.51200 46.78000 22.93800
N  35.84700 49.90200 26.68200
C  35.91100 49.04900 27.72700
C  35.58600 49.89700 29.00600
C  35.01000 51.26000 28.47100
C  35.42600 51.17500 27.04900
C  33.48100 51.49500 28.66600
C  36.81900 50.13300 29.94000
C  36.54800 50.04000 31.45400
H  35.22700 49.68900 31.94300
N  35.75800 51.52500 24.00000
C  35.41700 52.56400 24.87600
C  34.94700 53.67100 24.05000
C  35.24700 53.32300 22.72100
C  35.63200 51.91200 22.72500
C  34.28000 54.80800 24.74600
C  35.28200 54.17900 21.49300
O  35.52400 53.79200 20.39400
C  34.95400 55.56400 21.61900
N  36.74600 49.03400 22.54400
C  36.49400 49.90900 21.49300
C  36.83500 49.18800 20.12400
C  37.63600 47.93100 20.61200
C  37.29100 47.86700 22.13200
C  35.57100 48.88300 19.31100
C  39.16000 48.04200 20.36900
C  39.88000 46.67000 20.43300
N  36.95600 47.60900 25.16100
C  37.34100 46.58500 24.35800
C  37.56400 45.36000 25.19900
C  37.30000 45.80000 26.50600
C  36.82300 47.12100 26.42300
C  38.19500 44.16200 24.74600
C  37.26500 45.39000 27.91000
O  37.54200 44.32300 28.36600
C  36.72700 46.67100 28.70800
C  35.49700 46.10600 29.32800
O  34.45800 45.86200 28.76400
O  35.78500 45.75300 30.62100
C  34.73900 45.05700 31.20200
H  35.17200 53.22900 26.94100
H  35.68800 51.51200 20.58700
H  37.89000 45.95600 22.32900
H  34.82200 49.35700 29.56600
H  35.57000 52.12500 28.82900
H  33.14000 50.99500 29.57300
H  32.88900 51.03400 27.87600
H  33.17400 52.53600 28.77100
H  37.27600 51.10400 29.74600
H  37.55300 49.36700 29.69000
H  36.98200 50.98100 31.79300
H  37.21400 49.27000 31.84400
H  35.02000 55.55400 25.03400
H  33.81200 54.51500 25.68600
H  33.45900 55.30500 24.23100
H  33.87500 55.65400 21.48700
H  35.41100 56.17900 20.84400
H  35.23900 55.95300 22.59700
H  37.38800 49.86200 19.46900
H  37.26100 46.97000 20.26100
H  34.69900 49.41500 19.69200
H  35.38200 47.81000 19.27700
H  35.69100 49.30100 18.31100
H  39.47900 48.68900 21.18600
H  39.32400 48.74400 19.55100
H  40.56100 46.47600 19.60400
H  39.18600 45.83300 20.50500
H  40.50200 46.59900 21.32500
H  39.01800 43.91300 25.41700
H  38.69800 44.20800 23.78000
H  37.48000 43.36400 24.54600
H  37.28500 47.04900 29.56500
H  34.88400 45.16500 32.27700
H  34.80000 43.99200 30.98200
H  33.69400 45.19800 30.92600
Mg 9.89700 48.28400 26.01200
C  7.92100 48.33600 28.91700
C  12.51700 49.65400 27.94300
C  11.79700 48.25800 23.32600
C  6.94300 47.87200 24.03900
N  10.19200 48.93400 28.15900
C  9.21500 48.83500 29.13300
C  9.75300 49.21500 30.48500
C  11.05800 49.98800 30.01900
C  11.31700 49.48500 28.60100
C  11.21900 51.55800 30.06400
C  10.05300 48.04500 31.45300
C  10.19200 48.65500 32.95100
H  9.58700 47.75700 34.06000
N  11.97100 48.61700 25.67900
C  12.87200 49.14500 26.62300
C  14.21500 49.12200 26.09400
C  14.02400 48.77900 24.73100
C  12.52700 48.57600 24.48500
C  15.47500 49.43200 26.93400
C  15.09000 48.75600 23.57600
O  14.77500 48.57300 22.42100
C  16.59100 48.78500 23.85800
N  9.45100 48.08600 24.05200
C  10.44300 48.08000 23.09700
C  9.78200 47.93600 21.64400
C  8.32200 47.57800 21.92500
C  8.17900 47.84400 23.44300
C  9.82000 49.10200 20.71700
C  8.01500 46.06300 21.73700
C  8.67600 45.00500 22.68800
N  7.82900 48.13000 26.40100
C  6.79100 47.90400 25.51100
C  5.59700 47.74100 26.27000
C  5.97500 47.82400 27.59400
C  7.36900 48.04700 27.62500
C  4.27600 47.42700 25.64100
C  5.47900 47.69500 28.92800
O  4.34900 47.42100 29.31400
C  6.75100 47.90900 29.89500
C  7.02200 46.59400 30.56800
O  7.80300 45.75000 30.11400
O  6.35600 46.44800 31.68900
C  6.64900 45.24800 32.45300
H  13.33100 50.11100 28.50900
H  12.31000 48.39400 22.37200
H  6.02500 47.58800 23.52100
H  9.22800 50.02400 30.99400
H  11.93800 49.67500 30.58100
H  12.28900 51.76600 30.08700
H  10.73800 51.89300 30.98300
H  10.69100 52.04700 29.24500
H  11.05000 47.69500 31.18200
H  9.30700 47.25100 31.43500
H  9.77600 49.65100 33.10600
H  11.27500 48.64600 33.06900
H  15.60200 50.50700 27.06400
H  16.28400 48.82300 26.53100
H  15.39400 49.03200 27.94400
H  17.01300 47.80900 24.09700
H  16.76700 49.55800 24.60600
H  17.02200 49.05700 22.89500
H  10.23800 47.12800 21.07200
H  7.59500 48.22400 21.43300
H  9.47800 48.77800 19.73400
H  10.84400 49.46900 20.65400
H  9.24100 49.94800 21.08900
H  8.46700 45.66900 20.82700
H  6.95500 45.83700 21.62400
H  8.26900 45.20300 23.68000
H  9.75200 45.17900 22.69600
H  8.31000 44.01200 22.42700
H  4.17800 48.00400 24.72100
H  3.56000 47.50400 26.45900
H  4.18000 46.38000 25.35300
H  6.49000 48.63900 30.66100
H  7.72300 45.07700 32.37900
H  6.07800 44.38200 32.11800
H  6.44900 45.37700 33.51700

