158

Mg 2.84100 -2.09700 44.96800
C  5.71600 -0.30200 43.85400
C  0.91800 -0.39300 42.75400
C  0.48600 -4.33300 45.36900
C  5.13000 -4.21700 46.72700
N  3.30000 -0.64500 43.49800
C  4.49200 0.06300 43.27200
C  4.27600 1.03400 42.20200
C  2.72800 1.08900 41.92000
C  2.28300 -0.01300 42.84100
C  2.05100 2.53000 42.08300
C  5.06400 0.65500 40.89300
C  5.78200 1.86100 40.24500
H  6.37200 1.49400 38.88700
N  0.87500 -2.29100 44.32100
C  0.25000 -1.36200 43.51400
C  -1.11000 -1.65300 43.46100
C  -1.30300 -2.91400 44.03900
C  0.04100 -3.21200 44.65600
C  -2.15600 -0.84100 42.82200
C  -2.56400 -3.86600 44.01000
O  -3.48600 -3.48400 43.25700
C  -2.69900 -5.10300 44.76800
N  2.82300 -3.97200 46.00400
C  1.65700 -4.72600 46.00200
C  1.75400 -5.97300 46.84700
C  3.28500 -6.02300 47.20000
C  3.83400 -4.69200 46.53300
C  0.82300 -5.96700 48.17700
C  4.01400 -7.32800 46.89200
C  3.83400 -8.00000 45.50800
N  4.97000 -2.25400 45.29400
C  5.72000 -3.06800 46.14000
C  7.14600 -2.56400 46.25300
C  7.17900 -1.54700 45.25500
C  5.86600 -1.42700 44.70300
C  8.29700 -3.11700 47.10300
C  8.07500 -0.54500 44.64500
O  9.24000 -0.34000 44.76200
C  7.12000 0.29100 43.73500
C  7.14900 1.60400 44.26100
O  7.10300 1.84800 45.45000
O  7.37400 2.55200 43.26600
C  7.51600 3.93300 43.76400
H  0.23000 0.15300 42.10500
H  -0.33100 -5.05100 45.47100
H  5.89500 -4.80100 47.24300
H  4.63200 1.98300 42.60300
H  2.44400 0.66400 40.95700
H  1.65600 2.83500 41.11400
H  2.83400 3.28400 42.17000
H  1.37000 2.50400 42.93400
H  4.39100 0.18200 40.17700
H  5.83100 -0.07600 41.14800
H  6.70100 2.03700 40.80300
H  5.13400 2.72900 40.12300
H  -2.90900 -0.73300 43.60200
H  -2.45300 -1.35900 41.91000
H  -1.71900 0.15300 42.73000
H  -2.50900 -4.80700 45.80000
H  -1.89600 -5.69300 44.32500
H  -3.61400 -5.67900 44.63300
H  1.47600 -6.89300 46.33300
H  3.22700 -5.83500 48.27200
H  -0.22300 -5.90300 47.87700
H  0.93600 -5.10100 48.82800
H  1.07100 -6.85100 48.76600
H  3.63800 -8.04800 47.61900
H  5.07600 -7.11600 47.01900
H  3.47500 -7.13700 44.94700
H  3.20400 -8.88900 45.50400
H  4.84200 -8.23900 45.16600
H  8.59400 -4.03600 46.59600
H  7.86800 -3.19300 48.10200
H  9.14000 -2.43200 47.18100
H  7.54100 0.28700 42.72900
H  8.57500 4.19000 43.75800
H  6.92500 4.07800 44.66900
H  7.00100 4.49000 42.98100
Mg 48.02500 34.79300 27.67700
C  45.94000 33.34700 30.19300
C  48.32300 37.46300 29.85700
C  49.17000 36.70700 25.17300
C  47.19200 32.17300 25.55000
N  47.10600 35.38100 29.74200
C  46.44200 34.60800 30.66100
C  46.72200 34.96100 32.08500
C  47.05600 36.44600 31.85200
C  47.60800 36.39100 30.42900
C  45.99400 37.51100 32.25000
C  47.99400 34.15200 32.47900
C  48.31100 34.18100 33.89200
H  47.37300 35.02700 34.82300
N  48.80500 36.77800 27.61600
C  48.84200 37.69900 28.56800
C  49.37500 39.00200 28.06400
C  49.65300 38.76300 26.67100
C  49.14200 37.40300 26.43200
C  49.46200 40.24400 28.97000
C  50.25100 39.69600 25.66000
O  50.33100 39.44500 24.46000
C  50.82400 40.93200 26.16600
N  48.11800 34.50400 25.67800
C  48.72700 35.40300 24.84000
C  48.82400 34.88800 23.40200
C  48.48900 33.35000 23.62000
C  47.88800 33.31600 25.04100
C  47.81500 35.61000 22.51000
C  49.74500 32.47000 23.61900
C  49.90000 31.39500 22.55500
N  46.90700 33.04500 27.83300
C  46.67800 32.00800 26.88000
C  46.10400 30.91000 27.59400
C  45.72000 31.42200 28.85100
C  46.25800 32.68800 28.96600
C  45.82000 29.52900 27.13200
C  45.13800 31.06100 30.10600
O  44.78400 29.94400 30.40700
C  45.02400 32.32500 30.95300
C  45.35500 31.94100 32.42200
O  46.25900 31.23300 32.79400
O  44.37400 32.46900 33.28500
C  44.44000 32.33100 34.72500
H  48.33200 38.31400 30.54100
H  49.47600 37.38500 24.37300
H  47.17400 31.26800 24.94000
H  45.83800 34.82400 32.70800
H  47.83800 36.63000 32.58900
H  45.03800 37.02900 32.45900
H  45.66500 38.10300 31.39700
H  46.28100 38.02200 33.16900
H  48.86200 34.52200 31.93200
H  47.79000 33.14200 32.12300
H  49.27500 34.68200 33.97500
H  48.27400 33.15900 34.26900
H  50.45500 40.58500 29.26000
H  49.01400 40.18400 29.96200
H  48.80600 41.02600 28.58600
H  51.50000 41.39400 25.44600
H  51.47200 40.65800 26.99900
H  50.03200 41.65300 26.36600
H  49.84100 35.01500 23.03100
H  47.74200 33.06500 22.87900
H  47.12500 36.23900 23.07400
H  47.18200 34.86200 22.03300
H  48.43600 36.21600 21.85100
H  49.81100 31.84600 24.51000
H  50.56900 33.18200 23.57000
H  49.09900 31.47800 21.82000
H  49.97900 30.40200 22.99800
H  50.78300 31.52200 21.92900
H  46.21600 28.80700 27.84700
H  46.22100 29.34900 26.13400
H  44.75400 29.41800 26.93500
H  44.02900 32.76500 30.89300
H  45.46200 32.21900 35.08700
H  43.94800 31.43700 35.10900
H  44.02600 33.13300 35.33600

