158

Mg 40.75900 8.37200 28.96800
C  42.73700 9.42400 31.67900
C  38.51300 7.06600 31.16100
C  39.12900 7.26900 26.33200
C  43.37200 9.50300 26.83700
N  40.70100 8.24900 31.13200
C  41.54000 8.78800 32.05600
C  40.99500 8.56800 33.47900
C  39.75200 7.55800 33.25700
C  39.61700 7.65600 31.75700
C  40.06500 6.10200 33.70000
C  40.67500 9.88500 34.19900
C  40.04900 9.77700 35.51100
H  40.84600 10.01900 36.81800
N  39.02800 7.48400 28.78400
C  38.23000 6.97600 29.79500
C  37.06300 6.33900 29.18800
C  37.21200 6.34900 27.79500
C  38.52300 6.97200 27.58400
C  35.90700 5.75300 30.01800
C  36.37200 5.70300 26.76700
O  36.58100 5.76600 25.55900
C  35.07400 5.05600 27.23700
N  41.17900 8.45400 26.91200
C  40.36100 7.89700 26.02700
C  40.98900 7.84000 24.57100
C  42.17300 8.86400 24.74700
C  42.26400 8.96700 26.27500
C  41.42200 6.42500 24.12800
C  42.08200 10.23800 24.09300
C  40.95200 11.26200 24.51200
N  42.75500 9.11100 29.14800
C  43.63100 9.64900 28.18200
C  44.77700 10.18400 28.82800
C  44.46700 10.08100 30.19800
C  43.17100 9.54800 30.37300
C  45.85500 10.78900 28.18200
C  45.03200 10.39900 31.49300
O  46.08500 10.92700 31.77300
C  43.91700 9.99500 32.53900
C  44.54200 8.95900 33.37400
O  44.60300 7.77000 33.07300
O  44.97000 9.44600 34.56500
C  44.77200 8.47800 35.66600
H  37.76900 6.54000 31.76200
H  38.70200 6.70600 25.49900
H  43.99600 10.05900 26.13400
H  41.75200 7.99500 34.01400
H  38.80800 7.82800 33.72900
H  41.10800 6.06700 34.01600
H  39.97600 5.45900 32.82500
H  39.35300 5.74100 34.44200
H  40.25000 10.62300 33.51700
H  41.68900 10.25900 34.34200
H  39.57800 8.79400 35.49600
H  39.16000 10.40100 35.60400
H  34.95000 6.15500 29.68600
H  36.00500 5.78900 31.10200
H  35.84500 4.68100 29.82900
H  34.48800 4.85600 26.34000
H  34.60000 5.91900 27.70400
H  35.09200 4.17700 27.88300
H  40.29400 8.28200 23.85600
H  43.17100 8.50300 24.49600
H  40.66400 6.00900 23.46500
H  41.62700 5.81400 25.00700
H  42.35100 6.53000 23.56700
H  41.80800 9.97600 23.07100
H  43.03700 10.76400 24.09100
H  40.51200 11.71400 23.62300
H  41.41500 12.05800 25.09500
H  40.10500 10.72600 24.94200
H  45.51600 11.53200 27.46000
H  46.68900 10.15600 27.88000
H  46.21100 11.47100 28.95300
H  43.60700 10.85100 33.13900
H  43.70100 8.27400 35.63800
H  45.02000 8.80400 36.67600
H  45.25700 7.51200 35.52600
Mg 30.53600 57.92600 40.44500
C  27.66000 55.99400 39.64200
C  32.47700 55.24300 39.53700
C  33.04500 60.04800 40.22300
C  28.31700 60.64700 40.90700
N  30.04900 55.85500 39.87900
C  28.89500 55.29100 39.55100
C  29.19200 53.88900 38.93300
C  30.60000 53.51900 39.50300
C  31.12000 54.93800 39.72500
C  30.61400 52.76500 40.82900
C  29.12000 53.99300 37.40500
C  27.80400 53.35800 36.82700
H  26.90600 54.13900 35.88600
N  32.59400 57.61700 40.05500
C  33.16900 56.49900 39.61100
C  34.58900 56.75200 39.35700
C  34.80000 58.16800 39.60100
C  33.47500 58.70900 39.94900
C  35.64400 55.73300 38.95000
C  36.09300 59.03800 39.31900
O  37.07000 58.47000 38.99900
C  36.16400 60.50100 39.53600
N  30.62200 60.08500 40.39800
C  31.81600 60.69500 40.51200
C  31.74900 62.10400 40.97800
C  30.22000 62.29000 41.26300
C  29.63200 60.94500 40.81500
C  32.61300 62.43000 42.23800
C  29.54900 63.61300 40.54900
C  28.95600 64.73500 41.50300
N  28.39000 58.30000 40.40100
C  27.62100 59.45200 40.60500
C  26.23100 59.12300 40.49500
C  26.21400 57.78000 40.15000
C  27.52800 57.32700 40.07600
C  25.04300 60.04000 40.72900
C  25.31700 56.65900 39.85300
O  24.09900 56.55300 39.89400
C  26.27400 55.47000 39.58700
C  26.00100 54.43400 40.63900
O  26.73200 54.23500 41.59500
O  24.85300 53.67400 40.42100
C  24.85600 52.40100 41.13000
H  33.05000 54.39100 39.16400
H  33.93200 60.64700 40.44300
H  27.77800 61.55900 41.17100
H  28.38100 53.34100 39.41200
H  31.19600 53.02500 38.73600
H  31.38900 53.09900 41.51900
H  30.78500 51.75700 40.45300
H  29.66300 52.80300 41.35900
H  29.95800 53.55600 36.86200
H  29.10600 55.05400 37.15400
H  27.09200 53.10400 37.61200
H  28.08000 52.46800 36.26300
H  35.76500 55.57300 37.87800
H  35.35900 54.79700 39.43000
H  36.59300 56.01800 39.40500
H  36.02200 60.67800 40.60200
H  35.42800 61.10200 39.00200
H  37.15400 60.87100 39.26900
H  32.05800 62.67400 40.10200
H  30.11500 62.43700 42.33800
H  32.71100 63.51200 42.32200
H  33.60000 61.97500 42.31900
H  32.01100 62.14800 43.10200
H  28.75600 63.17000 39.94700
H  30.33300 64.10100 39.97000
H  28.73800 64.18700 42.42000
H  28.00900 65.20600 41.23800
H  29.71300 65.50700 41.64400
H  25.15900 60.65600 41.62100
H  24.05200 59.58600 40.74300
H  25.25200 60.86100 40.04300
H  26.07800 55.10300 38.58000
H  24.30200 51.66000 40.55400
H  24.47100 52.53100 42.14100
H  25.84500 51.99200 41.33400

