158

Mg 23.53400 -5.76100 44.82400
C  25.81400 -3.41000 43.71000
C  21.14600 -4.28300 42.80400
C  21.76600 -8.56400 44.89900
C  26.29800 -7.56300 46.07400
N  23.53800 -4.13500 43.42500
C  24.53900 -3.25500 43.19500
C  24.14700 -2.10900 42.29000
C  22.56100 -2.23800 42.28100
C  22.35700 -3.58500 42.93700
C  21.70300 -1.10700 42.93900
C  24.69000 -2.06200 40.84000
C  25.11900 -0.67100 40.37000
H  24.88400 -0.34400 38.86300
N  21.59900 -6.24300 44.14800
C  20.87600 -5.59100 43.28700
C  19.76100 -6.30500 42.98000
C  19.91100 -7.53400 43.46900
C  21.12400 -7.50600 44.28100
C  18.69600 -5.80800 41.99100
C  19.04300 -8.79100 43.13800
O  18.13100 -8.70500 42.35300
C  19.22500 -10.13200 43.84200
N  24.02800 -7.75300 45.54200
C  23.00100 -8.71900 45.53700
C  23.51200 -10.09600 45.90500
C  24.97300 -9.72200 46.50100
C  25.10400 -8.27300 46.07300
C  22.56100 -10.79300 46.97900
C  26.14800 -10.51800 45.82300
C  26.26700 -12.00900 46.27700
N  25.65200 -5.42000 45.18000
C  26.60400 -6.29100 45.57900
C  27.98000 -5.65300 45.47400
C  27.70300 -4.51000 44.75600
C  26.28900 -4.47700 44.55200
C  29.34800 -6.22700 45.72900
C  28.21800 -3.27400 44.16400
O  29.37600 -2.81100 44.17900
C  27.08000 -2.63400 43.35000
C  27.07400 -1.18700 43.60600
O  26.50100 -0.60500 44.46200
O  27.97600 -0.56200 42.70600
C  28.15600 0.85400 42.84600
H  20.29900 -3.82300 42.29000
H  21.23200 -9.50700 45.03300
H  27.17400 -8.02400 46.53500
H  24.34900 -1.22100 42.88700
H  22.22500 -2.48100 41.27300
H  22.30800 -0.23400 43.18400
H  21.29400 -1.59300 43.82500
H  20.87200 -0.85300 42.28200
H  24.02800 -2.45500 40.06900
H  25.52900 -2.75800 40.85400
H  26.20400 -0.61000 40.45500
H  24.83100 0.14200 41.03700
H  18.82800 -5.95100 40.91900
H  18.55700 -4.72800 42.04300
H  17.73300 -6.29300 42.15600
H  18.48400 -10.91000 43.66000
H  19.10800 -9.82800 44.88200
H  20.23400 -10.50500 43.66300
H  23.70300 -10.85000 45.14100
H  24.90600 -9.80800 47.58500
H  22.26400 -11.82700 46.80100
H  21.61000 -10.26800 47.06300
H  23.07100 -10.93200 47.93200
H  27.10300 -10.15800 46.20500
H  26.08900 -10.49600 44.73500
H  27.22100 -12.42300 45.94800
H  25.36000 -12.53400 45.97600
H  26.17700 -12.06500 47.36200
H  29.67200 -6.64300 44.77400
H  29.23500 -6.99900 46.48900
H  30.00100 -5.41900 46.05900
H  27.34800 -2.74000 42.29900
H  28.00000 1.26600 41.84900
H  29.16600 1.03100 43.21600
H  27.53100 1.46100 43.50100
Mg -5.15900 25.23100 26.87500
C  -4.15300 26.88000 29.87900
C  -7.05900 23.06300 28.89900
C  -5.58100 23.32600 24.11600
C  -2.92400 27.24800 25.19200
N  -5.64700 25.14400 29.08500
C  -5.07900 25.83200 30.13200
C  -5.54300 25.38300 31.53600
C  -6.24900 24.03200 31.16800
C  -6.44900 24.11600 29.63600
C  -5.44700 22.75200 31.55800
C  -6.51200 26.33800 32.17600
C  -6.55500 26.32500 33.71400
H  -5.84500 25.17700 34.53700
N  -6.31300 23.68800 26.59400
C  -7.06200 22.93600 27.45900
C  -7.98500 22.07500 26.66000
C  -7.52500 22.08300 25.32300
C  -6.30900 22.96900 25.32300
C  -9.15500 21.29100 27.26200
C  -8.17200 21.46700 24.09300
O  -7.72200 21.57200 22.91700
C  -9.44400 20.58500 24.18100
N  -4.36900 25.28500 24.95300
C  -4.63700 24.34200 23.99100
C  -4.08800 24.80500 22.60400
C  -3.39000 26.15100 22.94300
C  -3.62000 26.28700 24.42600
C  -3.14800 23.75100 21.98500
C  -3.75400 27.38800 22.02200
C  -2.79600 27.61100 20.77700
N  -3.83300 26.77900 27.37200
C  -3.06600 27.56400 26.54700
C  -2.45000 28.63000 27.31800
C  -2.82800 28.40600 28.67800
C  -3.62200 27.27900 28.65900
C  -1.65200 29.70500 26.78300
C  -2.71100 28.80700 30.10100
O  -2.07900 29.74300 30.58900
C  -3.52000 27.77900 30.89600
C  -2.53000 27.03500 31.71100
O  -1.62400 26.29500 31.34500
O  -2.72000 27.40900 33.01300
C  -1.89000 26.74300 33.95100
H  -7.69700 22.37700 29.46000
H  -5.73700 22.70400 23.23200
H  -2.32900 28.05200 24.75400
H  -4.70900 25.10400 32.18000
H  -7.25400 23.86700 31.55800
H  -5.97900 22.17800 32.31700
H  -4.43000 23.08800 31.76100
H  -5.39300 22.05100 30.72500
H  -7.46200 25.91900 31.84200
H  -6.35600 27.30300 31.69200
H  -7.56200 26.28600 34.12800
H  -6.23000 27.25900 34.17300
H  -8.99600 20.21300 27.26600
H  -10.07200 21.33400 26.67400
H  -9.32000 21.65900 28.27500
H  -9.51100 19.85700 24.99000
H  -9.52400 19.96400 23.28900
H  -10.33800 21.19600 24.30200
H  -4.98000 25.01200 22.01200
H  -2.30500 26.04500 22.94900
H  -2.10300 23.92700 21.73300
H  -3.55300 23.54100 20.99500
H  -3.20700 22.88600 22.64600
H  -3.82300 28.21700 22.72600
H  -4.77400 27.39500 21.63900
H  -2.31500 26.69400 20.43800
H  -2.04100 28.34100 21.06800
H  -3.29700 28.18300 19.99500
H  -1.90800 30.21200 25.85300
H  -0.64000 29.32000 26.65300
H  -1.79100 30.36800 27.63700
H  -4.30400 28.21700 31.51400
H  -0.82500 26.97000 33.89100
H  -2.07000 25.67000 33.89400
H  -2.18900 26.89000 34.98800

