158

Mg 26.59300 0.34200 29.27700
C  28.39600 -0.33200 32.25200
C  23.80600 0.86700 31.14900
C  24.91900 0.56900 26.44700
C  29.45000 -0.50900 27.34100
N  26.08300 0.06500 31.52800
C  27.03900 0.00500 32.51000
C  26.44500 0.37100 33.88400
C  24.93100 0.52800 33.49100
C  24.91000 0.59400 31.93900
C  23.91700 -0.46100 34.16300
C  27.05900 1.69400 34.52400
C  26.23700 2.20800 35.80600
H  26.95500 2.32700 37.15500
N  24.59900 0.78700 28.86700
C  23.62800 0.96600 29.75400
C  22.38400 1.20200 28.99000
C  22.69700 1.00700 27.59600
C  24.14900 0.80400 27.58500
C  21.06500 1.41200 29.66200
C  21.69900 1.02300 26.44000
O  22.13300 0.89200 25.26500
C  20.19700 1.15700 26.69100
N  27.10300 -0.09200 27.02100
C  26.17100 0.12100 26.10000
C  26.80600 -0.07600 24.69100
C  28.28900 -0.16000 24.99500
C  28.28600 -0.31400 26.54700
C  26.09500 -1.18000 23.85800
C  29.26200 0.97500 24.55100
C  30.09600 0.75700 23.25600
N  28.49500 -0.36500 29.64000
C  29.58900 -0.48900 28.76800
C  30.75700 -0.80500 29.54200
C  30.36000 -0.76400 30.87100
C  28.97600 -0.46700 30.91500
C  32.08700 -1.04700 28.95400
C  30.83700 -0.78000 32.24800
O  31.91300 -0.99600 32.73800
C  29.55700 -0.30900 33.14400
C  29.49200 -1.21900 34.22900
O  29.29000 -2.44200 34.12200
O  29.82300 -0.62000 35.47400
C  29.87000 -1.46100 36.63100
H  22.94700 1.09500 31.78300
H  24.38400 0.58800 25.49500
H  30.32400 -0.70800 26.71700
H  26.58100 -0.46300 34.57200
H  24.72700 1.56900 33.74000
H  24.48700 -0.93900 34.96000
H  23.55600 -1.17000 33.41800
H  22.95500 -0.09500 34.52200
H  27.17600 2.51800 33.82100
H  28.01300 1.37700 34.94600
H  25.31500 1.63500 35.90100
H  25.89600 3.15900 35.39600
H  21.15600 1.54800 30.73900
H  20.51400 0.48400 29.51400
H  20.54000 2.24000 29.18500
H  19.86000 2.04500 27.22500
H  19.90400 0.37500 27.39100
H  19.65500 1.02200 25.75500
H  26.63900 0.86600 24.17000
H  28.64700 -1.10700 24.59300
H  25.97300 -0.86200 22.82200
H  25.08400 -1.25600 24.25600
H  26.55500 -2.16600 23.78700
H  29.90600 1.28700 25.37300
H  28.54100 1.77400 24.37300
H  30.17100 -0.31800 23.08700
H  31.07700 1.20600 23.40700
H  29.57300 1.24300 22.43200
H  32.65500 -0.11700 28.98100
H  32.12100 -1.39500 27.92200
H  32.66800 -1.81400 29.46800
H  29.76700 0.67600 33.56100
H  29.86500 -2.55000 36.58300
H  29.09300 -1.19400 37.34700
H  30.83100 -1.23800 37.09300
Mg 26.30300 49.97300 25.54000
C  24.48800 51.30300 28.25800
C  28.70900 48.78500 27.74700
C  27.93900 48.68200 22.93300
C  24.04800 51.63700 23.38100
N  26.56400 50.02900 27.78000
C  25.65600 50.61800 28.63700
C  26.19500 50.44400 30.01300
C  27.67000 49.95800 29.87600
C  27.66800 49.55500 28.40300
C  28.67900 51.10600 30.09500
C  25.26200 49.46800 30.83200
C  24.63400 50.14000 32.08900
H  25.52900 50.44800 33.35200
N  27.98500 48.78500 25.36700
C  28.76600 48.40900 26.34500
C  29.93500 47.76500 25.69700
C  29.60900 47.51300 24.38000
C  28.41900 48.32300 24.16000
C  31.27800 47.36000 26.40600
C  30.41400 46.76100 23.30000
O  30.04300 46.51200 22.18200
C  31.79800 46.13100 23.62800
N  26.05400 50.25200 23.42800
C  26.87000 49.56500 22.53900
C  26.52600 49.88600 21.09300
C  25.22700 50.77700 21.25500
C  25.08100 50.92700 22.79300
C  27.63500 50.50300 20.27600
C  23.90900 50.18400 20.61300
C  23.24800 48.92200 21.17800
N  24.55200 51.20100 25.74800
C  23.80100 51.83500 24.78300
C  22.67000 52.47600 25.45600
C  22.91800 52.36700 26.81400
C  24.06400 51.56200 26.96700
C  21.56800 53.19100 24.75300
C  22.44200 52.78300 28.11100
O  21.49600 53.45300 28.44700
C  23.48800 52.14900 29.06000
C  24.07400 53.27500 29.90900
O  25.07300 53.89100 29.67200
O  23.31600 53.53700 31.02700
C  23.80700 54.54300 32.03000
H  29.52000 48.34700 28.33300
H  28.44900 48.29600 22.04800
H  23.37400 52.11300 22.66600
H  26.21100 51.38400 30.56500
H  27.92800 49.12900 30.53400
H  29.33500 50.78200 30.90300
H  28.22100 52.02800 30.45400
H  29.23200 51.29400 29.17500
H  25.91000 48.68000 31.21500
H  24.54000 48.87300 30.27300
H  23.79500 49.53700 32.43700
H  24.12800 51.03400 31.72300
H  31.35700 47.93900 27.32700
H  32.17100 47.48900 25.79500
H  31.44700 46.31600 26.67000
H  31.99100 45.47200 22.78200
H  31.73900 45.49600 24.51200
H  32.65700 46.79800 23.69800
H  25.98000 49.05500 20.64800
H  25.45800 51.78800 20.92000
H  28.60300 50.43100 20.77200
H  27.34900 51.52600 20.03300
H  27.68700 50.08200 19.27200
H  24.22900 50.03800 19.58200
H  23.25300 51.05200 20.55300
H  23.91500 48.35400 21.82600
H  22.99300 48.28700 20.33000
H  22.29500 49.15300 21.65300
H  21.17800 52.61200 23.91600
H  21.80400 54.16800 24.33100
H  20.76300 53.32500 25.47500
H  22.89600 51.57300 29.77200
H  23.02500 54.83300 32.73200
H  24.12600 55.44300 31.50300
H  24.53600 54.08200 32.69600

