158

Mg 0.62700 7.65900 27.00600
C  1.27600 9.78700 29.63400
C  0.69000 4.94700 29.24700
C  0.16800 5.52600 24.44100
C  1.35200 10.24500 24.75900
N  0.87700 7.40100 29.14700
C  1.09200 8.42400 30.00800
C  1.52200 7.94200 31.43300
C  1.27500 6.37200 31.31700
C  0.97800 6.16300 29.81600
C  2.24800 5.36700 31.92200
C  0.64400 8.58400 32.64400
C  1.16700 8.52300 34.01900
H  0.21800 8.03500 35.13200
N  0.48000 5.46400 26.79900
C  0.55600 4.61900 27.89200
C  0.23100 3.27000 27.36900
C  -0.04600 3.41200 25.93500
C  0.15900 4.85300 25.67200
C  0.32200 2.03600 28.23600
C  -0.41200 2.35600 24.91700
O  -0.55100 2.58300 23.70200
C  -0.71000 0.97600 25.40100
N  0.80500 7.83700 24.87900
C  0.42000 6.81500 24.10800
C  0.28700 7.24900 22.61800
C  0.50600 8.87000 22.77100
C  0.89000 9.02500 24.18200
C  1.37300 6.59800 21.73400
C  -0.79500 9.57500 22.33100
C  -0.58500 10.67200 21.23200
N  1.01600 9.68400 27.06800
C  1.37100 10.64700 26.12100
C  1.68900 11.89600 26.68800
C  1.70100 11.59100 28.08900
C  1.26800 10.24800 28.21600
C  2.00300 13.19200 25.97000
C  2.06300 12.15300 29.39000
O  2.53200 13.18800 29.75400
C  1.67600 10.96000 30.40600
C  2.81600 10.71600 31.35800
O  3.87200 10.12700 31.06000
O  2.74500 11.58400 32.40900
C  3.92600 11.89600 33.22700
H  0.44800 4.07300 29.85500
H  0.09900 4.82900 23.60300
H  1.49100 11.05300 24.03900
H  2.58500 7.86900 31.66400
H  0.33100 6.03500 31.74500
H  2.89000 5.12400 31.07500
H  1.63400 4.55800 32.31600
H  2.88800 5.90900 32.61800
H  -0.32000 8.07600 32.67500
H  0.42000 9.62200 32.39400
H  1.51400 9.50800 34.33300
H  1.99300 7.81300 34.02000
H  -0.66200 1.57300 28.15600
H  0.58500 2.17800 29.28400
H  1.07100 1.37000 27.80700
H  0.23600 0.46000 25.56100
H  -1.16300 0.46500 24.55100
H  -1.43700 0.87100 26.20600
H  -0.70800 6.99700 22.25000
H  1.38300 9.18500 22.20600
H  1.82300 5.81500 22.34400
H  2.08700 7.40100 21.54900
H  0.95100 6.32000 20.76900
H  -1.28200 10.06500 23.17500
H  -1.54500 8.84100 22.03600
H  -1.38500 10.40500 20.54100
H  0.40100 10.58400 20.77700
H  -0.70900 11.66100 21.67400
H  2.21600 12.96800 24.92400
H  2.75600 13.73100 26.54300
H  1.03400 13.68300 26.06300
H  0.82800 11.36200 30.96100
H  3.84200 12.90600 33.62800
H  4.85000 11.73700 32.67100
H  3.77800 11.15300 34.01100
Mg 40.95600 9.66400 30.17800
C  42.92200 10.84800 32.76300
C  38.53200 8.71900 32.52200
C  39.11900 8.47800 27.68000
C  43.54800 10.34200 27.86900
N  40.82700 9.51800 32.43700
C  41.73900 10.27900 33.28400
C  41.10300 10.41700 34.73500
C  39.86300 9.47900 34.59600
C  39.67000 9.29000 33.08300
C  39.91300 8.15700 35.42900
C  40.77600 11.89400 35.12200
C  40.03500 12.07400 36.49700
H  40.58600 13.01700 37.61600
N  39.16400 8.74000 30.14600
C  38.29200 8.49500 31.17300
C  37.04000 7.88100 30.63700
C  37.21500 7.84500 29.18300
C  38.47900 8.39100 28.93300
C  35.88800 7.33600 31.51000
C  36.26300 7.25100 28.10000
O  36.43900 7.24400 26.88700
C  35.02600 6.53200 28.65400
N  41.30400 9.51100 28.12100
C  40.42900 8.93000 27.31200
C  40.92100 8.90200 25.81900
C  42.26200 9.65900 25.86700
C  42.40000 9.92900 27.41200
C  40.93800 7.50500 25.27600
C  42.35600 10.97200 25.02400
C  41.14400 11.97700 25.13800
N  42.86500 10.35900 30.27500
C  43.78200 10.67100 29.23400
C  44.91600 11.32200 29.88200
C  44.57600 11.44200 31.24000
C  43.34900 10.82800 31.36600
C  46.14500 11.77200 29.14100
C  45.06100 11.95900 32.55200
O  46.12600 12.52500 32.90500
C  43.99200 11.57100 33.54100
C  44.57600 10.74800 34.72000
O  45.20400 9.68000 34.66600
O  44.33300 11.42200 35.92300
C  44.97300 10.84300 37.07500
H  37.68100 8.60600 33.19700
H  38.63200 8.16500 26.75500
H  44.17500 10.54000 26.99700
H  41.92300 10.13300 35.39500
H  38.98600 9.99500 34.98600
H  40.14700 7.30800 34.78700
H  38.90700 8.09000 35.84300
H  40.62800 8.17300 36.25100
H  40.11500 12.33400 34.37400
H  41.72400 12.42600 35.20200
H  39.80000 11.07600 36.86800
H  39.05600 12.51600 36.31400
H  35.90900 7.56900 32.57500
H  35.79400 6.26600 31.32400
H  35.01900 7.89100 31.15600
H  35.45200 5.77000 29.30600
H  34.49300 6.13300 27.79000
H  34.44900 7.23100 29.25900
H  40.19100 9.44300 25.21700
H  43.08500 8.98000 25.64500
H  40.61200 6.75400 25.99600
H  41.94600 7.22300 24.97300
H  40.20500 7.18600 24.53500
H  42.38400 10.53000 24.02800
H  43.28500 11.50300 25.22700
H  41.46100 12.96700 25.46400
H  40.44200 11.63900 25.90100
H  40.61300 12.05900 24.19000
H  46.01600 11.83900 28.06100
H  46.95500 11.08000 29.36900
H  46.36900 12.77000 29.51900
H  43.68500 12.53900 33.93800
H  44.45800 11.30600 37.91600
H  46.04500 11.02700 37.14300
H  44.88700 9.76200 37.19000

