158

Mg 30.84400 58.91100 40.50100
C  28.01000 57.06300 39.49400
C  32.77700 56.19200 39.60000
C  33.53400 60.80000 40.96800
C  28.78400 61.66500 40.88300
N  30.42500 56.92200 39.29400
C  29.23700 56.39000 39.19700
C  29.39200 55.05900 38.47900
C  30.85100 54.69500 38.92500
C  31.40200 56.03800 39.31100
C  30.86900 53.68500 40.05500
C  29.20400 55.27100 36.98100
C  27.90900 54.64200 36.41400
H  27.15000 55.33700 35.31800
N  32.89000 58.54100 40.33100
C  33.48700 57.38100 39.96500
C  34.92600 57.55600 39.94900
C  35.16200 58.86900 40.28600
C  33.79900 59.49100 40.54900
C  35.91700 56.51600 39.52600
C  36.45900 59.53600 40.31700
O  37.52800 58.96700 40.11900
C  36.72600 61.01900 40.39500
N  31.12400 60.94200 41.01400
C  32.35200 61.52500 41.13300
C  32.24500 63.02500 41.35200
C  30.71000 63.31200 41.09100
C  30.12800 61.91700 41.02300
C  32.76100 63.44900 42.73000
C  30.47500 64.17300 39.78400
C  29.57200 65.38000 39.96100
N  28.71600 59.33100 40.36100
C  28.10000 60.51300 40.58600
C  26.66500 60.31300 40.42700
C  26.55100 58.95700 40.12100
C  27.85900 58.43200 39.98600
C  25.64400 61.30900 40.52300
C  25.67700 57.83500 39.87900
O  24.45500 57.82100 39.77000
C  26.54300 56.62200 39.36800
C  26.22000 55.44300 40.15300
O  26.76000 54.98900 41.14900
O  25.12100 54.92200 39.54500
C  24.61900 53.60600 40.04200
H  33.41100 55.30200 39.59100
H  34.30800 61.56600 41.05500
H  28.07300 62.49400 40.88200
H  28.71900 54.28400 38.84500
H  31.52400 54.48300 38.09400
H  31.45600 54.17000 40.83500
H  31.46700 52.82800 39.74400
H  29.88900 53.33700 40.38000
H  30.03100 54.78600 36.46200
H  29.17100 56.33200 36.73400
H  27.22100 54.38300 37.21900
H  28.23700 53.67800 36.02400
H  36.47500 55.92200 40.25000
H  36.63100 56.97800 38.84500
H  35.42400 55.69900 39.00000
H  36.52100 61.42600 41.38500
H  36.04200 61.49400 39.69200
H  37.73100 61.30700 40.08500
H  32.87500 63.31200 40.51100
H  30.26400 63.75800 41.98000
H  33.82200 63.22600 42.83500
H  32.16600 62.99200 43.52100
H  32.65500 64.53100 42.64400
H  29.88700 63.63100 39.04300
H  31.41200 64.54000 39.36500
H  28.88100 65.34400 39.11800
H  30.21600 66.25500 39.87100
H  28.90800 65.34100 40.82400
H  25.83700 61.89800 41.41900
H  24.62400 60.93100 40.45200
H  25.75400 61.90900 39.61900
H  26.40000 56.49900 38.29400
H  25.11200 53.30400 40.96600
H  24.75800 52.82500 39.29400
H  23.56900 53.71800 40.31300
Mg 1.39400 41.24600 26.54400
C  3.95900 41.97300 28.77500
C  -0.39900 39.95000 29.23900
C  -0.95300 40.25600 24.37200
C  3.54600 42.18300 23.92900
N  1.68500 41.04500 28.75700
C  2.79700 41.52900 29.45700
C  2.56700 41.55200 31.03600
C  1.28000 40.63500 31.07300
C  0.81300 40.50500 29.56700
C  1.54200 39.40800 31.92300
C  2.29900 42.96000 31.59800
C  2.52300 43.18700 33.09700
H  2.59300 41.95800 34.09500
N  -0.47800 40.36400 26.76300
C  -0.97300 39.83100 27.94200
C  -2.16800 39.20000 27.61600
C  -2.48500 39.41300 26.20000
C  -1.29100 39.99900 25.69300
C  -2.99200 38.57000 28.66900
C  -3.79400 39.11800 25.34200
O  -3.90700 39.38500 24.12800
C  -4.82800 38.10800 25.80500
N  1.38900 41.10400 24.51700
C  0.21400 40.84800 23.81400
C  0.41100 41.04700 22.28800
C  1.70100 41.84500 22.31200
C  2.33400 41.59100 23.64300
C  0.40500 39.83600 21.38600
C  1.49900 43.35400 21.86100
C  2.48400 43.74000 20.69300
N  3.38000 41.97000 26.30200
C  4.15300 42.29000 25.20500
C  5.51400 42.66400 25.56300
C  5.39500 42.56600 26.94600
C  4.11300 42.18200 27.33900
C  6.64200 43.03800 24.73700
C  6.21300 42.78800 28.12500
O  7.37400 43.09100 28.26400
C  5.30500 42.38000 29.35200
C  5.94900 41.26800 30.09300
O  5.95300 40.13600 29.65900
O  6.32900 41.66900 31.32700
C  6.57000 40.51700 32.22900
H  -0.85600 39.54100 30.14200
H  -1.69400 40.07300 23.59200
H  4.16400 42.41800 23.06000
H  3.47300 41.20900 31.53600
H  0.58000 41.22500 31.66500
H  1.01000 39.55100 32.86400
H  2.60500 39.17100 31.96600
H  1.03600 38.51300 31.56300
H  1.33400 43.30800 31.23100
H  3.10200 43.54400 31.14900
H  1.70800 43.81400 33.45800
H  3.44600 43.76300 33.16800
H  -3.99400 38.54400 28.24000
H  -3.00100 39.09600 29.62300
H  -2.72200 37.51700 28.74700
H  -5.38400 38.53500 26.63900
H  -4.29200 37.22300 26.14700
H  -5.51200 37.79100 25.01900
H  -0.40600 41.70400 21.99000
H  2.45600 41.36300 21.69200
H  1.37300 39.58200 20.95300
H  -0.29900 40.00700 20.57100
H  0.10000 38.94500 21.93400
H  1.67700 44.01700 22.70800
H  0.44200 43.52600 21.65800
H  2.00500 44.42400 19.99300
H  2.79100 42.81000 20.21400
H  3.36000 44.25200 21.09200
H  7.33900 43.51200 25.42800
H  6.39800 43.91700 24.14100
H  6.98300 42.17500 24.16400
H  5.17000 43.23200 30.01800
H  7.49400 39.99500 31.98200
H  5.77100 39.77500 32.25100
H  6.61600 41.03600 33.18700

