158

Mg -2.81200 34.77700 25.73000
C  -3.95000 33.09100 28.78800
C  -1.48500 37.16500 27.90600
C  -2.17500 36.47300 23.03800
C  -4.66700 32.45900 24.00800
N  -2.56600 35.01500 28.14700
C  -3.18900 34.22400 29.14500
C  -2.73300 34.66300 30.50300
C  -2.16100 36.10700 30.19900
C  -1.97900 36.05500 28.67300
C  -3.11500 37.31300 30.67700
C  -1.70600 33.70500 31.24500
C  -2.29000 33.02700 32.62300
H  -1.30000 32.92600 33.79900
N  -1.98800 36.58600 25.52100
C  -1.43700 37.35700 26.51400
C  -0.70400 38.45500 25.85600
C  -0.92700 38.28700 24.41900
C  -1.65500 37.07900 24.26500
C  0.08300 39.52000 26.61400
C  -0.35200 39.08700 23.30900
O  -0.73500 38.96500 22.15900
C  0.68800 40.12100 23.58900
N  -3.53100 34.63200 23.82300
C  -3.12400 35.47100 22.77900
C  -3.50600 34.96200 21.46300
C  -4.31600 33.68100 21.76100
C  -4.10600 33.50900 23.28500
C  -4.35600 35.96300 20.51200
C  -3.84200 32.38100 20.98700
C  -2.69000 31.54500 21.67300
N  -4.00500 33.07600 26.22200
C  -4.57600 32.16000 25.36600
C  -5.15000 31.04200 26.06200
C  -4.85900 31.41300 27.42800
C  -4.29300 32.66300 27.46600
C  -5.79200 29.80900 25.48500
C  -5.07500 30.97700 28.79700
O  -5.59200 29.93700 29.17500
C  -4.49700 32.04500 29.80300
C  -5.65800 32.48600 30.57400
O  -6.67500 33.09000 30.20600
O  -5.38700 32.15600 31.83200
C  -6.35200 32.34600 32.85800
H  -1.06800 37.94900 28.54200
H  -1.79600 36.88600 22.10100
H  -4.87500 31.55500 23.43100
H  -3.63700 34.62100 31.11100
H  -1.21000 36.20600 30.72200
H  -4.04700 36.80600 30.92600
H  -3.14400 38.03000 29.85600
H  -2.66200 37.76900 31.55700
H  -0.74600 34.13400 31.53100
H  -1.46900 32.97200 30.47400
H  -2.84300 32.12000 32.37600
H  -3.01000 33.79900 32.89400
H  -0.43700 40.47500 26.53400
H  1.07400 39.46100 26.16400
H  0.13300 39.27800 27.67600
H  1.17300 40.29100 22.62800
H  1.42800 39.76900 24.30800
H  0.25500 41.09100 23.83400
H  -2.63200 34.68800 20.87300
H  -5.36600 33.83800 21.51600
H  -4.61300 36.84100 21.10400
H  -5.25900 35.48800 20.12800
H  -3.85700 36.32200 19.61200
H  -3.47000 32.76200 20.03600
H  -4.66900 31.71400 20.74400
H  -2.54000 31.71100 22.74000
H  -1.76900 31.80700 21.15300
H  -2.90300 30.49900 21.45300
H  -6.87800 29.89200 25.51800
H  -5.66400 28.85600 25.99800
H  -5.63700 29.68000 24.41400
H  -3.60200 31.73700 30.34300
H  -7.25200 32.89500 32.58300
H  -6.06300 32.69900 33.84800
H  -6.65600 31.32300 33.07900
Mg -9.68300 18.05900 42.85100
C  -6.32500 17.40600 42.46500
C  -9.08900 21.35700 41.89700
C  -13.09600 18.57900 42.40000
C  -10.30900 14.59800 43.06700
N  -7.86800 19.22000 42.40800
C  -6.63700 18.74200 42.22900
C  -5.55100 19.78700 41.98600
C  -6.45200 21.16800 42.01900
C  -7.88800 20.54400 42.05400
C  -6.26400 22.07600 43.27600
C  -4.78100 19.55500 40.61300
C  -5.72800 18.99000 39.48800
H  -5.42300 19.39100 38.03800
N  -10.94800 19.71000 42.42700
C  -10.46200 20.93000 42.08400
C  -11.59900 21.77600 41.75200
C  -12.81300 21.08100 42.00500
C  -12.32900 19.71700 42.24600
C  -11.48400 23.17000 41.25300
C  -14.16800 21.65200 41.88900
O  -14.32800 22.79900 41.61900
C  -15.42300 20.89200 42.18600
N  -11.39900 16.81400 42.66500
C  -12.65400 17.24900 42.54900
C  -13.70800 16.19300 42.65700
C  -12.84600 14.82800 42.81700
C  -11.39100 15.45500 42.81800
C  -14.67600 16.38600 43.80600
C  -13.18700 13.71800 41.66200
C  -13.49600 12.23600 42.09000
N  -8.55900 16.33100 42.97300
C  -8.93600 14.99400 43.10300
C  -7.78700 14.17700 43.10600
C  -6.75300 15.09200 42.87400
C  -7.24700 16.37800 42.87300
C  -7.76800 12.60600 43.12000
C  -5.29200 15.20800 42.61200
O  -4.41600 14.32600 42.48200
C  -4.98700 16.74000 42.49100
C  -4.13600 17.20800 43.57100
O  -2.94900 17.37900 43.41000
O  -4.79200 17.20200 44.76900
C  -3.84700 17.41800 45.91300
H  -8.85700 22.33600 41.47300
H  -14.17000 18.77400 42.36100
H  -10.57400 13.54300 43.16300
H  -4.96200 19.71100 42.90000
H  -6.31900 21.72500 41.09200
H  -5.46300 21.79100 43.95800
H  -7.18600 22.15500 43.85200
H  -6.03900 23.08500 42.93200
H  -3.92500 18.89400 40.75100
H  -4.35400 20.49900 40.27400
H  -6.65300 19.54300 39.65000
H  -5.79100 17.91700 39.66900
H  -12.27900 23.45000 40.56200
H  -10.54800 23.34200 40.72200
H  -11.42100 23.87600 42.08100
H  -15.35800 20.29200 43.09400
H  -15.50300 20.18600 41.35900
H  -16.22500 21.62000 42.30800
H  -14.12800 16.09800 41.65500
H  -12.90700 14.41800 43.82500
H  -14.38100 17.36500 44.18400
H  -14.55300 15.71000 44.65100
H  -15.74300 16.49200 43.61200
H  -12.27700 13.72300 41.06200
H  -13.99400 14.06500 41.01600
H  -13.52200 12.14200 43.17500
H  -12.76200 11.59700 41.60000
H  -14.42900 11.90500 41.63200
H  -7.82900 12.17100 44.11800
H  -6.88600 12.26400 42.57800
H  -8.66500 12.29900 42.58100
H  -4.48300 17.02000 41.56600
H  -3.24400 16.53800 46.13600
H  -4.51400 17.63700 46.74700
H  -3.15200 18.25100 45.81400

