158

Mg 9.61400 47.94500 26.77300
C  8.12100 48.40700 29.78100
C  12.60400 49.16700 28.22600
C  11.10700 47.84000 23.72700
C  6.63000 47.31700 25.34300
N  10.28100 48.70200 28.78400
C  9.46100 48.71700 29.84300
C  10.33400 49.09500 31.10500
C  11.67000 49.62100 30.49200
C  11.49200 49.09500 29.05600
C  11.82100 51.14200 30.59700
C  10.41900 47.97100 32.21000
C  9.85000 48.28300 33.61400
H  9.80900 47.17400 34.73200
N  11.59700 48.33300 26.11100
C  12.68900 48.82900 26.84200
C  13.88700 48.72700 26.00800
C  13.46800 48.40000 24.66900
C  11.97000 48.17300 24.79700
C  15.34200 48.89200 26.67100
C  14.30800 48.26300 23.44400
O  13.81000 48.06300 22.31700
C  15.87200 48.46600 23.44400
N  8.96600 47.56300 24.84300
C  9.69700 47.64700 23.70600
C  8.92700 47.33400 22.40200
C  7.54400 46.88600 22.97200
C  7.67200 47.30700 24.48700
C  8.86400 48.55200 21.50800
C  7.11200 45.40400 22.65800
C  8.13000 44.37900 23.09400
N  7.73800 47.95600 27.36500
C  6.58000 47.57000 26.74800
C  5.45800 47.57400 27.66200
C  6.07800 47.86100 28.85300
C  7.45000 48.09600 28.62400
C  4.07100 47.07400 27.40000
C  5.74200 47.98800 30.23700
O  4.67200 47.85200 30.83000
C  7.09000 48.20800 30.96100
C  7.17900 46.89900 31.64800
O  7.92100 45.97900 31.29000
O  6.53300 46.92600 32.81600
C  6.49600 45.70300 33.67500
H  13.45000 49.58100 28.77700
H  11.61700 47.76400 22.76400
H  5.63000 47.08600 24.97100
H  9.90700 49.87400 31.73800
H  12.54500 49.16700 30.95700
H  11.74800 51.66900 29.64500
H  12.72800 51.43100 31.12800
H  10.97300 51.37900 31.24000
H  11.47100 47.71700 32.33900
H  9.86200 47.10900 31.84300
H  8.83400 48.56600 33.34000
H  10.48300 49.11000 33.93500
H  15.23900 48.89500 27.75600
H  15.75000 49.85900 26.37800
H  15.98300 48.04000 26.44600
H  16.28400 48.72300 22.46800
H  16.05900 47.42200 23.69700
H  16.32500 49.14300 24.16700
H  9.35200 46.51200 21.82700
H  6.80000 47.58300 22.58500
H  9.53700 49.31800 21.89100
H  7.92400 49.10000 21.56500
H  9.14900 48.26200 20.49700
H  7.01900 45.22900 21.58600
H  6.09600 45.21200 23.00200
H  8.56500 44.11700 22.12900
H  7.86700 43.41600 23.53300
H  8.87100 44.81800 23.76100
H  3.87400 46.24000 28.07300
H  3.90600 46.88700 26.33900
H  3.24100 47.72900 27.66500
H  6.87800 48.99400 31.68600
H  6.14400 44.76500 33.24500
H  5.86400 45.91900 34.53700
H  7.54200 45.49500 33.89800
Mg 0.91300 42.91600 26.93600
C  2.44500 43.16300 30.02500
C  -1.89600 41.80900 28.45800
C  -0.17900 42.29500 23.88700
C  4.03800 43.94700 25.39200
N  0.41300 42.46600 29.07700
C  1.19000 42.73800 30.19700
C  0.39300 42.48000 31.47200
C  -0.99200 41.88400 30.96800
C  -0.83600 42.08300 29.41200
C  -1.29300 40.47400 31.48400
C  0.26500 43.70900 32.52100
C  0.34300 43.25100 34.07100
H  -0.84800 43.34500 35.00700
N  -0.78200 42.17300 26.26900
C  -1.84200 41.70400 27.03200
C  -2.92800 41.29000 26.24400
C  -2.54500 41.62100 24.87600
C  -1.02400 41.95000 24.95300
C  -4.25400 40.76100 26.79700
C  -3.32300 41.59900 23.59000
O  -2.92500 41.93400 22.50300
C  -4.69400 41.09700 23.64900
N  1.82200 43.35000 24.89800
C  1.10600 42.85000 23.80200
C  1.82300 43.09000 22.52200
C  3.09200 43.81700 23.04700
C  3.02300 43.71900 24.51800
C  2.14000 41.66800 21.82800
C  3.31700 45.21800 22.37900
C  3.75700 45.27200 20.91200
N  2.89700 43.42400 27.50500
C  4.00700 43.79500 26.78700
C  5.11100 43.91400 27.73800
C  4.57500 43.58100 29.01300
C  3.17200 43.39200 28.85800
C  6.61700 44.18600 27.49200
C  4.86500 43.41900 30.38500
O  5.92900 43.45200 31.01200
C  3.51500 43.21900 31.16600
C  3.56200 42.00100 31.97200
O  3.43600 40.83100 31.61300
O  4.01300 42.37100 33.16000
C  4.36100 41.34000 34.14600
H  -2.71000 41.31900 28.99500
H  -0.59700 42.08200 22.90100
H  4.92600 44.17900 24.80100
H  0.81600 41.72500 32.13500
H  -1.79000 42.58400 31.21600
H  -1.73200 39.89100 30.67400
H  -2.06400 40.60000 32.24400
H  -0.43600 39.95800 31.91700
H  -0.70800 44.16000 32.32500
H  0.97600 44.48900 32.25100
H  1.16400 43.82500 34.50100
H  0.82300 42.28600 34.23500
H  -4.32000 40.51700 27.85700
H  -4.51700 39.81900 26.31500
H  -5.03300 41.50900 26.65200
H  -5.38400 41.69700 24.24400
H  -4.67700 40.06800 24.00800
H  -5.08400 40.94100 22.64300
H  1.41900 43.74400 21.74900
H  3.90200 43.18400 22.68500
H  2.36500 41.00500 22.66400
H  3.02500 41.72600 21.19500
H  1.31100 41.23500 21.26900
H  3.96700 45.85500 22.98000
H  2.31400 45.61800 22.52700
H  4.72700 45.77000 20.92800
H  3.00500 45.84700 20.37100
H  3.80100 44.24500 20.55000
H  6.73400 45.14400 27.99800
H  6.79600 44.33200 26.42600
H  7.14100 43.24700 27.67100
H  3.31900 44.15300 31.69300
H  5.40400 41.02800 34.20400
H  3.68300 40.48800 34.16900
H  4.18400 41.72300 35.15100

