158

Mg 35.81000 1.35500 30.04000
C  33.74800 2.07100 32.66200
C  38.44800 1.48100 32.33000
C  38.03200 0.84100 27.49900
C  33.22100 1.63800 27.76000
N  36.08700 1.73900 32.26300
C  35.01800 1.90500 33.16100
C  35.49200 1.92500 34.61800
C  37.05400 2.07600 34.46700
C  37.22700 1.73300 32.87700
C  37.66800 3.48700 34.82600
C  35.15800 0.53400 35.31500
C  34.87600 0.63100 36.90700
H  35.21700 1.97600 37.75500
N  37.95400 1.13400 29.91500
C  38.84300 1.15300 30.96900
C  40.16600 0.84000 30.51000
C  40.11700 0.66700 29.08000
C  38.68300 0.80400 28.75500
C  41.37200 0.66600 31.36800
C  41.16200 0.48900 28.03700
O  40.96200 0.26300 26.85600
C  42.60400 0.68200 28.44100
N  35.64300 1.06800 27.97000
C  36.64200 1.02400 27.10400
C  36.16500 0.93400 25.64200
C  34.61300 1.16800 25.76600
C  34.43500 1.23900 27.32500
C  36.80100 1.94000 24.59800
C  33.65800 0.07300 25.14800
C  33.52000 -1.28300 25.93300
N  33.87900 1.77200 30.13800
C  32.91800 1.86600 29.15700
C  31.63000 2.18600 29.75400
C  31.87900 2.21100 31.20300
C  33.23800 1.93800 31.33700
C  30.30500 2.36700 28.98800
C  31.30700 2.31500 32.53500
O  30.12900 2.44300 32.87100
C  32.51200 2.19700 33.57400
C  32.32700 3.31200 34.51200
O  32.76300 4.51000 34.29200
O  31.73000 2.88100 35.69200
C  31.31300 3.96700 36.60600
H  39.31900 1.52000 32.98700
H  38.69400 0.76100 26.63400
H  32.49500 1.77800 26.95700
H  35.05000 2.78000 35.12900
H  37.54200 1.35600 35.12400
H  36.87700 4.23700 34.80500
H  38.41600 3.78400 34.09100
H  38.05800 3.39400 35.83900
H  35.82800 -0.25600 34.97800
H  34.19700 0.41000 34.81500
H  35.28700 -0.26300 37.37700
H  33.80200 0.44900 36.95800
H  41.12200 0.81600 32.41800
H  42.20900 1.26800 31.01400
H  41.66200 -0.38000 31.26400
H  42.76600 -0.01700 29.26200
H  42.64900 1.73200 28.73000
H  43.37700 0.52200 27.69000
H  36.33700 -0.12800 25.46800
H  34.42500 2.15300 25.33800
H  37.44000 1.44300 23.86800
H  37.28000 2.80500 25.05700
H  36.03600 2.44800 24.01100
H  34.08800 -0.15200 24.17200
H  32.64300 0.43300 24.97900
H  34.05600 -2.01600 25.33000
H  32.49200 -1.53400 26.19200
H  34.00300 -1.23100 26.90900
H  30.52300 2.33700 27.92000
H  29.83900 3.29400 29.32200
H  29.66200 1.56200 29.34400
H  32.30200 1.28500 34.13300
H  32.15100 4.54900 36.98800
H  30.66400 3.56800 37.38600
H  30.80400 4.77100 36.07400
Mg 29.67000 59.69600 41.17200
C  26.71800 57.96200 40.30500
C  31.32100 56.90500 39.84600
C  32.43900 61.56100 40.81400
C  27.78100 62.50900 41.86900
N  29.05000 57.72100 40.11400
C  27.80000 57.16400 39.96000
C  27.81100 55.84000 39.16700
C  29.28700 55.45400 39.34800
C  29.96400 56.77500 39.76600
C  29.49500 54.35700 40.44200
C  27.36700 56.16600 37.68700
C  26.34400 55.13100 36.99300
H  26.75400 54.52100 35.61800
N  31.63500 59.26000 40.54000
C  32.12000 58.05600 40.11700
C  33.53400 58.23300 39.95400
C  33.92200 59.52800 40.31800
C  32.62900 60.20300 40.61100
C  34.34500 57.19400 39.38500
C  35.36400 60.07700 40.22800
O  36.35700 59.36500 39.89600
C  35.66000 61.54400 40.40700
N  30.03300 61.71900 41.12600
C  31.30500 62.23500 41.13800
C  31.32000 63.76100 41.31700
C  29.84100 64.01500 41.77800
C  29.16200 62.64600 41.67500
C  32.46400 64.35300 42.18100
C  29.05000 65.05100 40.96500
C  28.40100 66.08000 41.84000
N  27.68600 60.17600 41.20400
C  27.00500 61.36300 41.51600
C  25.58700 61.11900 41.47000
C  25.46300 59.83600 41.01300
C  26.73700 59.27500 40.84000
C  24.60900 62.12400 41.77700
C  24.48100 58.86200 40.56700
O  23.26700 58.89200 40.52300
C  25.26700 57.68800 39.98400
C  24.89600 56.33500 40.52800
O  25.14800 55.82100 41.63200
O  24.06700 55.82200 39.64400
C  23.25500 54.68000 40.13200
H  31.77400 55.94200 39.60500
H  33.25000 62.28100 40.68800
H  27.12800 63.31800 42.20200
H  27.10700 55.11400 39.57600
H  29.82800 55.22600 38.42900
H  29.87000 54.89800 41.31000
H  30.36900 53.79000 40.12200
H  28.61800 53.74800 40.66300
H  28.27100 56.21500 37.08100
H  27.00300 57.19200 37.62700
H  25.35600 55.56700 36.84500
H  26.26400 54.33300 37.73100
H  33.81100 56.66200 38.59800
H  34.73800 56.49800 40.12700
H  35.34000 57.49600 39.05800
H  35.24500 62.33500 39.78300
H  36.73500 61.65600 40.26600
H  35.48200 61.67600 41.47400
H  31.43500 64.07400 40.27900
H  29.77500 64.25800 42.83800
H  33.16300 64.78400 41.46500
H  32.89400 63.55400 42.78500
H  32.12900 65.02400 42.97300
H  28.23100 64.50500 40.49700
H  29.68000 65.66300 40.32000
H  27.32300 65.94300 41.76000
H  28.70400 67.09400 41.58000
H  28.67200 65.93000 42.88500
H  24.66800 62.56700 42.77100
H  23.62100 61.68700 41.63200
H  24.88800 62.78500 40.95600
H  25.17500 57.55100 38.90600
H  22.50700 55.03400 40.84200
H  23.86100 53.94200 40.65700
H  22.71700 54.17200 39.33100

