158

Mg 0.96700 -1.60400 44.35300
C  3.91200 -0.28100 43.22500
C  -0.72900 0.93000 42.70500
C  -1.99300 -3.29800 44.74400
C  2.80200 -4.37800 45.43200
N  1.55700 0.01300 43.00800
C  2.81100 0.44600 42.70900
C  2.83500 1.88800 42.16300
C  1.38200 2.32000 42.21000
C  0.66400 1.04800 42.71000
C  1.26000 3.53500 43.16200
C  3.61000 1.95300 40.73000
C  4.78100 2.91100 40.64200
H  5.71400 2.55900 39.56400
N  -1.07600 -1.19800 43.95000
C  -1.51700 -0.12800 43.24000
C  -2.95800 -0.19200 43.17700
C  -3.37200 -1.43800 43.70200
C  -2.14000 -2.06200 44.18300
C  -3.66500 0.84700 42.39200
C  -4.76400 -1.96200 43.71300
O  -5.65000 -1.31600 43.18700
C  -5.07000 -3.19800 44.49400
N  0.43400 -3.41400 45.20300
C  -0.80500 -3.97200 45.14900
C  -0.79200 -5.50400 45.29000
C  0.74500 -5.84700 45.40100
C  1.39400 -4.46300 45.38800
C  -1.65800 -6.06700 46.55600
C  1.33600 -6.80700 44.33600
C  2.58700 -7.65600 44.74600
N  2.93200 -2.24500 44.47000
C  3.57200 -3.26900 45.00300
C  4.99600 -3.18200 44.96800
C  5.18300 -1.96400 44.33100
C  3.86000 -1.47400 43.99100
C  6.02900 -4.22500 45.48500
C  6.18600 -1.09400 43.68700
O  7.41500 -1.18200 43.58700
C  5.35700 0.14600 43.12600
C  5.78000 1.26300 44.03300
O  5.43600 1.43900 45.24500
O  6.81400 2.12300 43.42000
C  7.19400 3.19400 44.27700
H  -1.30000 1.82500 42.44900
H  -2.75300 -4.08200 44.73900
H  3.45000 -5.20500 45.72800
H  3.36800 2.55600 42.84000
H  0.83800 2.60000 41.30700
H  0.21200 3.83000 43.11700
H  1.98000 4.27700 42.81600
H  1.52300 3.29600 44.19200
H  2.95900 2.31400 39.93500
H  3.93500 0.95800 40.42800
H  5.34900 2.81300 41.56700
H  4.42400 3.93200 40.50500
H  -3.83100 1.65200 43.10700
H  -4.59100 0.46200 41.96400
H  -3.07600 1.14800 41.52600
H  -4.72900 -4.00100 43.84100
H  -6.15300 -3.23900 44.60900
H  -4.54500 -3.05000 45.43800
H  -1.20800 -5.88200 44.35600
H  1.00300 -6.12000 46.42400
H  -2.02300 -5.22600 47.14500
H  -0.93300 -6.67100 47.10100
H  -2.50200 -6.71100 46.30900
H  1.64300 -6.18800 43.49300
H  0.47900 -7.42200 44.06100
H  3.40800 -7.39800 44.07700
H  2.32700 -8.68900 44.51400
H  2.92100 -7.44600 45.76200
H  7.02200 -3.86300 45.21800
H  5.91900 -5.21100 45.03300
H  5.87400 -4.22800 46.56300
H  5.75900 0.37700 42.14000
H  6.31200 3.67700 44.69700
H  7.80200 3.94800 43.77600
H  7.78000 2.80600 45.11000
Mg 54.25000 24.50900 44.93100
C  51.62300 26.78700 44.23300
C  52.05100 21.93600 44.23800
C  56.93400 22.42800 44.85400
C  56.24300 27.05500 45.88400
N  52.03600 24.40900 44.33600
C  51.22000 25.47000 44.02400
C  49.85900 24.92500 43.52500
C  49.91600 23.42300 43.98300
C  51.39900 23.20000 44.20300
C  48.90600 23.14200 45.13700
C  49.50900 25.17100 42.03900
C  50.70400 25.25800 41.07700
H  51.54500 23.91800 40.95200
N  54.47700 22.43000 44.48400
C  53.41700 21.56100 44.30600
C  53.99100 20.23300 44.12500
C  55.38900 20.35900 44.19100
C  55.71300 21.77700 44.49300
C  53.05200 19.12800 43.79900
C  56.45000 19.18100 44.00400
O  56.07200 18.04200 43.86900
C  58.00500 19.43300 43.93700
N  56.42400 24.85200 45.08400
C  57.21200 23.77500 45.19500
C  58.68000 24.29900 45.55500
C  58.42400 25.79500 45.90000
C  56.92400 25.91700 45.62900
C  59.45800 23.53300 46.66300
C  59.28200 26.81800 45.13700
C  60.17600 27.83500 45.85100
N  54.03800 26.59300 44.92600
C  54.93300 27.46000 45.47700
C  54.25700 28.75200 45.56000
C  52.93200 28.56200 45.11900
C  52.85600 27.18600 44.77300
C  54.81000 30.01400 46.21000
C  51.63800 29.18100 44.79400
O  51.21500 30.34800 45.01200
C  50.78900 28.00600 44.17400
C  50.55800 28.48600 42.79800
O  51.41000 28.87000 42.03400
O  49.25900 28.42300 42.42500
C  48.96000 28.57700 40.98900
H  51.34600 21.10200 44.19300
H  57.74000 21.71600 45.04100
H  56.82100 27.85900 46.34500
H  49.15800 25.59100 44.02900
H  49.44600 22.81200 43.21200
H  48.83400 24.14000 45.56900
H  49.24000 22.40600 45.86800
H  47.96200 22.84800 44.67900
H  48.92700 26.09200 42.06900
H  48.77600 24.44600 41.68400
H  51.25900 26.19000 41.18900
H  50.26800 25.42000 40.09100
H  52.71300 19.41400 42.80300
H  52.15500 19.09000 44.41700
H  53.55800 18.16300 43.75400
H  58.11100 20.18900 43.15800
H  58.49400 18.51700 43.60600
H  58.46000 19.70800 44.88900
H  59.24400 24.26600 44.62200
H  58.54100 25.91900 46.97600
H  60.32000 23.05700 46.19500
H  58.85400 22.71700 47.06000
H  59.72500 24.04800 47.58600
H  58.55100 27.44700 44.62800
H  59.97200 26.46100 44.37300
H  60.21200 28.75200 45.26400
H  61.20700 27.53600 46.04100
H  59.84000 28.05200 46.86500
H  55.85000 29.80200 46.45700
H  54.11500 30.21000 47.02700
H  54.84200 30.88400 45.55500
H  49.84500 27.87000 44.70300
H  48.24000 27.76700 40.87700
H  49.79200 28.53700 40.28500
H  48.42900 29.52900 40.97100

