158

Mg 25.80900 1.13700 28.79900
C  27.84900 1.10900 31.70200
C  23.16100 1.51300 30.68500
C  24.05400 1.08700 26.02700
C  28.72300 0.35500 26.96200
N  25.56500 1.29100 30.97800
C  26.47200 1.29500 31.92900
C  25.85000 1.57200 33.31600
C  24.33100 1.51800 33.02500
C  24.33900 1.42800 31.48200
C  23.58900 0.29100 33.64900
C  26.15900 2.92500 34.05500
C  26.95400 2.79700 35.35400
H  26.58800 3.85500 36.42600
N  23.85600 1.26000 28.43800
C  22.87500 1.48800 29.33100
C  21.65100 1.65300 28.55700
C  21.92200 1.55100 27.16900
C  23.35300 1.29600 27.17200
C  20.33800 1.82400 29.23500
C  21.01700 1.66100 26.04000
O  21.38300 1.51300 24.85700
C  19.52300 2.03000 26.25300
N  26.38100 0.66200 26.79500
C  25.43600 0.86600 25.80000
C  26.04300 0.79400 24.39500
C  27.62700 0.60500 24.67100
C  27.60600 0.57500 26.25400
C  25.32900 -0.25300 23.54700
C  28.58300 1.76000 24.12500
C  29.49400 1.42700 22.89500
N  27.79500 0.67400 29.22600
C  28.84500 0.39300 28.34300
C  30.12300 0.27100 29.15300
C  29.73500 0.51600 30.44800
C  28.32500 0.76300 30.42900
C  31.44800 -0.04700 28.52800
C  30.33600 0.75700 31.77900
O  31.47500 0.69500 32.20000
C  29.09900 1.18900 32.65700
C  29.05400 0.26500 33.82600
O  28.50700 -0.84000 33.81500
O  29.68100 0.90100 34.87800
C  29.77300 0.21100 36.12800
H  22.33700 1.83700 31.32400
H  23.56500 1.32600 25.08000
H  29.53100 0.06100 26.29000
H  26.03500 0.72000 33.97100
H  23.85400 2.44000 33.35800
H  22.72000 0.74400 34.12500
H  24.16600 -0.27900 34.37800
H  23.17600 -0.40600 32.92000
H  25.26400 3.46400 34.36400
H  26.79600 3.45500 33.34600
H  28.01600 2.88500 35.12500
H  26.75500 1.84700 35.84900
H  19.87100 2.79200 29.05700
H  20.50700 1.76900 30.31100
H  19.56000 1.09500 29.00900
H  19.46900 2.88200 26.92900
H  19.08300 1.09800 26.60800
H  18.92800 2.24700 25.36600
H  25.86600 1.77400 23.95100
H  28.07400 -0.26700 24.19500
H  24.51400 -0.71600 24.10300
H  26.02400 -1.04700 23.27700
H  24.94500 0.10100 22.59000
H  29.31700 2.11000 24.85000
H  27.89400 2.57500 23.90700
H  29.26500 2.18000 22.14200
H  29.32000 0.39600 22.58500
H  30.54800 1.52200 23.15500
H  31.40500 -0.01900 27.43900
H  31.70400 -1.03300 28.91600
H  32.11100 0.73600 28.89700
H  29.21200 2.23800 32.93100
H  28.86700 0.48100 36.67100
H  30.68400 0.52600 36.63500
H  29.84700 -0.87500 36.07800
Mg 55.46200 25.37100 45.57100
C  52.59600 27.10200 44.47100
C  54.08600 22.45600 44.79900
C  58.56000 24.09300 45.74400
C  56.79300 28.58500 46.59900
N  53.66100 24.92700 44.80000
C  52.59800 25.65600 44.37200
C  51.30700 24.80800 44.03700
C  51.71600 23.36100 44.65600
C  53.30800 23.55700 44.86600
C  51.07300 22.90000 45.95600
C  51.05900 24.76000 42.51500
C  49.51500 24.70600 42.23300
H  49.04100 23.59300 41.23700
N  56.19300 23.47000 45.41900
C  55.50400 22.43800 44.91500
C  56.38300 21.33100 44.74400
C  57.62500 21.70300 45.18300
C  57.52700 23.12700 45.57700
C  55.86800 20.00000 44.28600
C  58.87200 20.79600 45.23800
O  58.79600 19.64400 44.82700
C  60.23000 21.22000 45.78400
N  57.37800 26.21500 46.01500
C  58.50500 25.46900 46.04100
C  59.77400 26.25000 46.49600
C  59.18200 27.69900 46.61400
C  57.63900 27.53600 46.41100
C  60.47900 25.69000 47.75200
C  60.01400 28.69200 45.67800
C  59.57500 28.84700 44.19400
N  54.79100 27.44500 45.54800
C  55.46000 28.60900 46.04100
C  54.52200 29.71100 45.87600
C  53.40000 29.19000 45.27500
C  53.63100 27.82500 45.08000
C  54.87200 31.04000 46.42200
C  52.08600 29.49600 44.70400
O  51.43800 30.49400 44.58600
C  51.62300 28.10300 44.05400
C  51.51100 28.32000 42.54400
O  52.37900 28.58200 41.76300
O  50.24200 28.22000 42.20700
C  49.90900 28.43500 40.80000
H  53.65300 21.48500 44.54600
H  59.59200 23.74400 45.67500
H  57.33200 29.48000 46.91600
H  50.40000 25.12000 44.55500
H  51.58100 22.56400 43.92500
H  50.53200 21.95700 45.87300
H  50.31100 23.55000 46.38700
H  51.81000 22.92400 46.75900
H  51.46700 23.82400 42.13400
H  51.55300 25.61200 42.04700
H  49.24800 25.70400 41.88500
H  48.96200 24.54800 43.15900
H  54.93400 19.92000 44.84300
H  56.31500 19.07400 44.64900
H  55.73800 19.98200 43.20400
H  60.86200 21.60500 44.98400
H  60.68900 20.40400 46.34400
H  60.01800 21.94600 46.56900
H  60.49300 26.15200 45.68200
H  59.32000 28.02900 47.64400
H  61.54100 25.93800 47.74200
H  60.47800 24.60500 47.85800
H  59.98900 25.99600 48.67700
H  61.05400 28.37200 45.62300
H  60.05400 29.68400 46.12800
H  59.51800 29.86000 43.79700
H  58.63300 28.30900 44.08700
H  60.29600 28.44500 43.48300
H  55.92300 31.14000 46.69400
H  54.39700 31.26100 47.37800
H  54.53900 31.72400 45.64200
H  50.62000 27.90000 44.42900
H  49.51700 29.44800 40.70600
H  49.11900 27.73900 40.51700
H  50.68800 28.50500 40.04000

