158

Mg 8.97800 4.05800 27.89300
C  10.33800 2.45200 30.85700
C  7.28500 6.22400 29.92000
C  7.44000 5.11800 25.17300
C  10.70000 1.72100 25.92600
N  8.71600 4.27100 30.18200
C  9.43200 3.59100 31.22000
C  9.14200 4.12300 32.56200
C  8.13600 5.31700 32.23300
C  8.07900 5.34900 30.65900
C  6.67300 5.21000 32.61200
C  10.44000 4.59500 33.23400
C  10.85500 3.95500 34.54200
H  11.36600 4.95400 35.60800
N  7.51000 5.40700 27.65300
C  6.92700 6.24200 28.53900
C  6.16600 7.26600 27.88200
C  6.10900 6.86400 26.49700
C  7.07500 5.71400 26.35300
C  5.47200 8.46200 28.50000
C  5.23600 7.32900 25.33400
O  5.35600 6.95100 24.18900
C  4.16700 8.29800 25.61300
N  9.12900 3.50700 25.87500
C  8.34500 4.08400 24.87300
C  8.63500 3.66600 23.42800
C  9.75000 2.61900 23.74600
C  9.90700 2.62600 25.28500
C  7.43500 3.22400 22.58800
C  11.15100 2.86100 23.10600
C  11.68900 1.79400 22.17500
N  10.27800 2.50000 28.22100
C  10.92000 1.67000 27.29600
C  11.75800 0.71300 27.98700
C  11.57600 0.99100 29.32300
C  10.65700 2.12700 29.46300
C  12.68500 -0.33200 27.34500
C  12.01400 0.65900 30.68800
O  12.84100 -0.12100 31.13200
C  11.24500 1.61500 31.68100
C  10.58900 0.85000 32.75200
O  9.52800 0.22400 32.65400
O  11.31600 0.93200 33.94600
C  10.72700 0.21000 35.02400
H  6.96000 7.02700 30.58500
H  7.05900 5.56300 24.25100
H  11.16400 1.04300 25.20700
H  8.59500 3.33500 33.08100
H  8.54900 6.31300 32.39300
H  6.10000 4.87600 31.74700
H  6.30400 6.17300 32.96500
H  6.51700 4.54800 33.46300
H  10.31300 5.65000 33.47400
H  11.28500 4.39300 32.57500
H  11.69100 3.26900 34.40600
H  10.03000 3.32300 34.87000
H  5.76800 9.43400 28.10700
H  5.63100 8.42700 29.57800
H  4.40700 8.25900 28.38100
H  3.62500 8.50900 24.69100
H  4.48600 9.22100 26.09700
H  3.41100 7.91800 26.30100
H  9.11400 4.57300 23.05900
H  9.29900 1.69000 23.39700
H  6.54800 3.17000 23.22000
H  7.59000 2.20000 22.24800
H  7.25300 3.89400 21.74700
H  11.87700 2.97900 23.91100
H  11.17500 3.83100 22.61000
H  12.04500 2.10200 21.19200
H  10.97000 0.97600 22.13200
H  12.54100 1.33500 22.67600
H  13.47900 -0.50800 28.07100
H  13.06700 0.06800 26.40600
H  12.13300 -1.26200 27.20900
H  11.93500 2.18100 32.30700
H  10.22700 -0.70300 34.70000
H  10.07400 0.77600 35.68800
H  11.53700 -0.22400 35.61100
Mg 40.93300 8.66700 28.79700
C  42.62800 10.13500 31.45600
C  38.79200 7.24500 31.15500
C  39.23200 6.96000 26.18900
C  43.38200 9.67000 26.67000
N  40.82600 8.66000 31.02100
C  41.47200 9.43500 31.85600
C  40.98600 9.45800 33.29000
C  39.73700 8.55100 33.18300
C  39.75400 8.08700 31.71000
C  39.77600 7.30200 34.17700
C  40.84500 10.92900 33.94600
C  39.81700 11.04800 35.05700
H  40.38900 11.14200 36.50100
N  39.21400 7.34800 28.66900
C  38.45900 6.89000 29.77900
C  37.36500 6.19000 29.31200
C  37.45100 6.14700 27.91600
C  38.67700 6.82200 27.50900
C  36.32300 5.57700 30.20000
C  36.48300 5.45200 26.92800
O  36.71800 5.48000 25.72500
C  35.22400 4.66400 27.39800
N  41.33500 8.13300 26.70400
C  40.48000 7.57100 25.83100
C  40.81400 7.96600 24.42600
C  42.08300 8.90200 24.60600
C  42.28000 8.92500 26.10800
C  40.93400 6.76700 23.48300
C  41.97700 10.28600 23.90700
C  41.45900 11.57500 24.62800
N  42.66700 9.68800 28.94800
C  43.60200 9.98400 28.00800
C  44.75500 10.66600 28.62700
C  44.31000 10.89100 29.92100
C  43.12900 10.17500 30.15000
C  45.91100 11.18300 27.87800
C  44.65800 11.53600 31.19500
O  45.60000 12.16300 31.57800
C  43.61600 11.03300 32.26600
C  44.20500 10.24800 33.35100
O  44.53600 9.06400 33.30100
O  44.40500 10.99200 34.47300
C  44.90600 10.39400 35.67200
H  38.05700 6.95400 31.90800
H  38.71100 6.50000 25.34700
H  44.07600 10.22300 26.03300
H  41.77900 8.95100 33.83900
H  38.82500 9.14600 33.23000
H  40.64700 7.43400 34.82000
H  39.87600 6.40900 33.55900
H  38.92300 7.31100 34.85600
H  40.58400 11.71300 33.23500
H  41.81600 11.29000 34.28500
H  39.35600 10.06000 35.09000
H  39.22800 11.90400 34.72700
H  36.57600 5.68500 31.25400
H  36.38600 4.49900 30.05000
H  35.34900 6.01800 29.98700
H  35.57200 3.77700 27.92700
H  34.62800 4.37600 26.53200
H  34.62100 5.38800 27.94600
H  40.09400 8.63500 23.95700
H  42.87900 8.24700 24.25400
H  41.28600 5.86600 23.98400
H  41.73600 7.18500 22.87500
H  39.97300 6.69900 22.97200
H  41.29500 10.08400 23.08100
H  42.93100 10.59200 23.47800
H  41.19600 11.50600 25.68300
H  40.55100 11.95400 24.15800
H  42.16900 12.38200 24.44700
H  46.86600 11.02000 28.37800
H  45.83000 12.23800 27.61800
H  46.02800 10.59100 26.97100
H  43.03900 11.86500 32.66900
H  45.34700 9.41200 35.50500
H  44.05300 10.30200 36.34400
H  45.58300 11.05800 36.21000

