158

Mg 2.35900 -2.32100 44.36600
C  5.79100 -1.51000 43.51700
C  1.40600 0.43700 42.67000
C  -0.76200 -3.45500 44.63000
C  3.57800 -5.43600 45.41800
N  3.47900 -0.71900 43.10800
C  4.86600 -0.53100 43.03400
C  5.10900 0.63800 42.07800
C  3.72400 1.35800 42.10800
C  2.79100 0.25700 42.68600
C  3.77400 2.66800 42.95200
C  5.49800 0.03900 40.67900
C  6.62400 0.76300 39.95600
H  6.65500 0.80700 38.44000
N  0.46300 -1.48700 43.80500
C  0.30100 -0.29200 43.20000
C  -1.10500 -0.04200 43.03600
C  -1.78200 -1.17700 43.59500
C  -0.73500 -2.13000 44.04000
C  -1.51300 1.11400 42.31000
C  -3.20000 -1.32800 43.63000
O  -3.91400 -0.55300 43.02700
C  -3.76500 -2.46000 44.28000
N  1.57400 -4.18300 44.81400
C  0.23700 -4.37900 44.91600
C  -0.15700 -5.76200 45.54500
C  1.26600 -6.39700 45.62300
C  2.23600 -5.25700 45.30900
C  -0.97900 -5.82400 46.87100
C  1.48200 -7.60800 44.62600
C  1.86500 -9.02300 45.17600
N  4.27600 -3.30500 44.63600
C  4.63500 -4.53200 45.08200
C  6.06100 -4.80400 44.97200
C  6.60800 -3.57400 44.45700
C  5.44900 -2.76900 44.19800
C  6.78700 -6.06700 45.34900
C  7.76000 -2.81700 44.09600
O  8.93000 -3.11600 44.05800
C  7.25300 -1.37500 43.59000
C  7.72200 -0.35300 44.57200
O  7.83600 -0.52400 45.75900
O  8.06900 0.81200 43.88800
C  8.18700 2.00800 44.67000
H  1.27300 1.31900 42.03900
H  -1.68100 -3.87500 45.04600
H  3.86300 -6.42600 45.78400
H  5.84300 1.33500 42.48400
H  3.43200 1.65900 41.10200
H  3.35200 3.55000 42.47100
H  4.81400 2.87700 43.20200
H  3.24100 2.59300 43.90000
H  4.59400 0.08300 40.07200
H  5.83000 -0.99400 40.78400
H  7.49900 0.15500 40.18400
H  6.77200 1.77200 40.34100
H  -2.47200 1.19700 41.79700
H  -0.85900 1.14600 41.43900
H  -1.52300 1.94800 43.01300
H  -3.27300 -3.39700 44.01700
H  -4.83800 -2.53100 44.10200
H  -3.57400 -2.25600 45.33300
H  -0.68500 -6.26200 44.73400
H  1.47500 -6.78100 46.62100
H  -1.18100 -4.93000 47.46000
H  -0.54800 -6.54000 47.57000
H  -2.00400 -6.09500 46.61600
H  2.35000 -7.27000 44.05900
H  0.58400 -7.65600 44.01000
H  1.04900 -9.72700 45.01300
H  1.93500 -8.92400 46.25900
H  2.85100 -9.32400 44.82300
H  6.60600 -6.67600 44.46300
H  6.31300 -6.54200 46.20800
H  7.83500 -5.86300 45.56900
H  7.62800 -1.12500 42.59800
H  7.29700 2.21900 45.26200
H  8.54500 2.82600 44.04500
H  9.03700 1.79100 45.31800
Mg -5.58600 24.96800 25.38000
C  -3.84800 26.37700 28.24500
C  -7.32500 22.98300 27.65900
C  -6.99400 23.47300 22.80400
C  -3.52200 26.81600 23.26800
N  -5.50600 24.73300 27.66900
C  -4.91400 25.52000 28.63500
C  -5.33800 25.11000 30.08600
C  -6.17400 23.81000 29.81200
C  -6.32700 23.80600 28.27200
C  -5.68900 22.45000 30.44900
C  -6.07400 26.34500 30.70800
C  -5.80500 26.51000 32.24200
H  -5.56200 25.33100 33.22900
N  -7.02800 23.50800 25.28000
C  -7.66600 22.93300 26.34300
C  -8.80900 22.18200 25.81500
C  -8.68900 22.23500 24.42000
C  -7.57600 23.13700 24.08700
C  -9.72600 21.21100 26.77100
C  -9.49800 21.43400 23.41200
O  -9.17800 21.35100 22.21700
C  -10.61900 20.57600 23.95200
N  -5.18100 24.95800 23.27400
C  -5.99400 24.32900 22.40200
C  -5.63600 24.64800 21.00000
C  -4.69500 25.94200 21.15800
C  -4.38400 25.90200 22.64000
C  -5.06100 23.33200 20.38600
C  -5.38100 27.26200 20.59900
C  -4.50100 28.02200 19.64500
N  -3.91600 26.28800 25.61600
C  -3.25300 26.99800 24.68100
C  -2.28300 27.81600 25.34200
C  -2.50300 27.60400 26.77300
C  -3.49000 26.63000 26.86400
C  -1.35000 28.79000 24.68200
C  -2.14100 28.04100 28.08100
O  -1.46100 28.96900 28.45400
C  -2.89700 27.18700 29.07200
C  -2.05000 26.34400 29.92300
O  -1.29900 25.47100 29.45100
O  -2.13500 26.72700 31.26800
C  -1.54700 25.73800 32.10700
H  -7.68400 22.28100 28.41400
H  -7.43200 23.04500 21.89900
H  -3.05000 27.56300 22.62600
H  -4.43500 24.91000 30.66300
H  -7.17000 23.95900 30.22700
H  -4.95000 22.66600 31.22100
H  -5.25800 21.79000 29.69800
H  -6.53300 21.90800 30.87500
H  -7.11900 26.18900 30.44100
H  -5.64800 27.23100 30.23700
H  -6.73400 26.99500 32.54000
H  -5.01800 27.25700 32.35500
H  -9.83800 20.20700 26.36300
H  -10.68200 21.73500 26.77300
H  -9.25700 21.19400 27.75500
H  -11.12900 20.28500 23.03400
H  -11.16800 21.26400 24.59500
H  -10.25900 19.70300 24.49700
H  -6.53900 24.87700 20.43400
H  -3.79400 25.76500 20.57000
H  -3.97300 23.28000 20.40700
H  -5.46300 23.19400 19.38300
H  -5.40300 22.45800 20.94000
H  -5.72500 27.93700 21.38300
H  -6.21500 26.89900 19.99900
H  -4.59200 29.10100 19.76700
H  -4.96600 27.78000 18.68900
H  -3.44900 27.73600 19.64100
H  -2.00200 29.54700 24.24500
H  -0.75000 28.17500 24.01100
H  -0.82800 29.27000 25.51000
H  -3.48000 27.90200 29.65300
H  -1.70400 24.74100 31.69400
H  -2.09800 25.76100 33.04700
H  -0.47500 25.86400 32.25900

