158

Mg 1.74700 -1.78400 43.42700
C  5.21300 -0.90000 42.99000
C  1.07400 1.12300 41.39500
C  -1.29400 -2.99300 42.72300
C  2.81900 -4.92800 44.61700
N  2.99000 -0.06900 42.39300
C  4.40000 0.04200 42.40800
C  4.81700 1.32500 41.64400
C  3.48800 1.91900 41.12300
C  2.42600 0.96600 41.71700
C  3.27600 3.37200 41.67900
C  5.89300 1.33700 40.58500
C  6.00300 0.14700 39.56000
H  5.46800 0.48400 38.12300
N  0.03600 -0.85600 42.53100
C  -0.04400 0.32700 41.79000
C  -1.40700 0.53800 41.41200
C  -2.16300 -0.66400 41.85800
C  -1.14400 -1.58900 42.41800
C  -1.87800 1.77700 40.62800
C  -3.75200 -0.82700 41.64600
O  -4.37200 0.09600 41.05600
C  -4.49400 -1.97000 42.17200
N  0.93000 -3.73400 43.50200
C  -0.40900 -3.90800 43.28700
C  -0.92600 -5.32600 43.81900
C  0.38400 -5.86100 44.48700
C  1.46800 -4.79500 44.15300
C  -2.18600 -5.21200 44.78800
C  0.67700 -7.25500 43.77700
C  0.07300 -8.45700 44.54900
N  3.67100 -2.83600 43.83000
C  3.87300 -4.02000 44.41400
C  5.32400 -4.17900 44.69800
C  5.89300 -2.93300 44.14400
C  4.81700 -2.17400 43.59700
C  5.87100 -5.43000 45.25500
C  7.07900 -2.18900 43.85200
O  8.29800 -2.47400 43.97100
C  6.68200 -0.84500 43.19900
C  7.10300 0.26900 44.08200
O  8.21500 0.82100 43.98300
O  6.16200 0.64000 45.05400
C  6.49200 1.79900 45.81300
H  0.82800 1.91400 40.68400
H  -2.25500 -3.46800 42.51700
H  3.11200 -5.93900 44.90700
H  5.30200 1.85400 42.46400
H  3.25300 1.84500 40.06100
H  3.96400 3.63100 42.48400
H  2.31100 3.35400 42.18600
H  3.26300 4.11100 40.87900
H  6.89000 1.24300 41.01600
H  5.93300 2.29400 40.06600
H  5.47200 -0.67900 40.03300
H  7.02900 -0.21400 39.50000
H  -2.42200 1.59100 39.70200
H  -1.12200 2.52600 40.39200
H  -2.57700 2.29300 41.28700
H  -5.52900 -1.63700 42.25000
H  -4.10600 -2.18000 43.16900
H  -4.30300 -2.79100 41.48100
H  -1.29500 -5.85900 42.94300
H  0.27100 -5.93200 45.56900
H  -2.33300 -4.17400 45.08700
H  -2.04200 -5.85500 45.65500
H  -3.08800 -5.49200 44.24300
H  1.74000 -7.29700 43.54100
H  0.33600 -7.28500 42.74200
H  -0.29100 -9.26900 43.92000
H  -0.71700 -8.21900 45.26200
H  0.86700 -8.91400 45.13900
H  5.77300 -6.23200 44.52300
H  5.18600 -5.68600 46.06300
H  6.85700 -5.34700 45.71300
H  7.09700 -0.79400 42.19200
H  7.13400 1.53400 46.65300
H  5.56500 2.16300 46.25600
H  6.96500 2.58100 45.22000
Mg 36.05300 48.93200 25.72400
C  36.42000 46.93300 28.72200
C  35.09900 51.47100 27.71500
C  35.52000 50.56900 22.91400
C  36.74200 46.01200 23.87700
N  35.76700 49.09400 27.95300
C  36.00900 48.17700 28.90700
C  35.78400 48.80500 30.33500
C  35.17300 50.19300 30.00700
C  35.36700 50.25900 28.49400
C  33.71300 50.49300 30.59000
C  37.12400 48.88800 31.13800
C  37.10400 48.85100 32.68800
H  35.71700 48.90300 33.41600
N  35.39800 50.73800 25.33800
C  35.07100 51.69200 26.30800
C  34.81900 52.97300 25.68900
C  34.98000 52.75500 24.25400
C  35.31700 51.30300 24.06800
C  34.31300 54.13700 26.41000
C  34.74900 53.70800 23.11000
O  34.94100 53.37000 21.97400
C  34.29200 55.11000 23.39200
N  36.01400 48.25900 23.69800
C  35.94000 49.21100 22.74900
C  36.13400 48.55300 21.33400
C  36.66000 47.16300 21.62500
C  36.48600 47.12300 23.13500
C  34.94700 48.43800 20.41700
C  38.17700 46.71000 21.23300
C  38.14700 46.00200 19.84600
N  36.49200 46.91000 26.14100
C  36.78300 45.87400 25.32400
C  37.06700 44.69600 26.10600
C  36.84000 45.08500 27.39600
C  36.51700 46.40800 27.40700
C  37.35200 43.35300 25.60100
C  37.00800 44.54000 28.78300
O  37.38400 43.44800 29.15400
C  36.56200 45.73100 29.69900
C  35.30800 45.40900 30.36500
O  34.24800 45.28900 29.75400
O  35.54800 45.19500 31.64200
C  34.28700 44.94200 32.43400
H  34.91600 52.36300 28.31900
H  35.48100 51.11500 21.96900
H  37.00500 45.19000 23.20800
H  35.03800 48.17800 30.82300
H  35.80500 50.95300 30.46500
H  33.26700 49.59000 31.00500
H  33.03600 50.69000 29.75800
H  33.83300 51.27400 31.34000
H  37.57800 49.83500 30.84600
H  37.87000 48.18700 30.76400
H  37.66200 49.62600 33.21300
H  37.61800 47.92800 32.95800
H  34.34200 54.17900 27.49900
H  33.25900 54.32300 26.20200
H  34.83000 55.05500 26.13200
H  34.81300 55.70500 24.14300
H  33.32100 55.03000 23.88100
H  34.23100 55.55300 22.39800
H  36.90500 49.21100 20.93300
H  35.89800 46.52200 21.18000
H  34.85900 47.58100 19.75000
H  35.24000 49.24400 19.74500
H  34.03400 48.71500 20.94300
H  38.73400 46.13000 21.96800
H  38.80100 47.52700 20.87000
H  37.15000 45.81000 19.45000
H  38.59100 45.03900 20.09800
H  38.81000 46.44400 19.10200
H  37.09500 42.59500 26.34100
H  38.37300 43.24300 25.23600
H  36.64500 43.17000 24.79200
H  37.29200 45.89500 30.49200
H  34.05500 43.89900 32.21800
H  33.42000 45.59100 32.30600
H  34.56400 45.03400 33.48400

