158

Mg 17.08100 -1.12700 28.28600
C  15.67500 1.05000 30.76700
C  19.00100 -2.51700 30.60600
C  18.76300 -2.58200 25.82200
C  15.53700 1.02800 25.90100
N  17.18500 -0.71100 30.42800
C  16.52200 0.05300 31.27500
C  16.92900 -0.05200 32.81500
C  18.26500 -0.92800 32.57700
C  18.14600 -1.48200 31.09700
C  19.59400 -0.27000 32.96000
C  15.78100 -0.67700 33.69300
C  16.15200 -0.92200 35.16900
H  17.52700 -0.49100 35.85600
N  18.57600 -2.43800 28.27100
C  19.22500 -2.94900 29.37300
C  20.04300 -4.07100 28.95000
C  19.79100 -4.23200 27.53300
C  19.02100 -3.03000 27.16500
C  20.82700 -4.96800 29.83400
C  20.31200 -5.33300 26.65900
O  19.90400 -5.46000 25.50500
C  21.22500 -6.51900 27.12400
N  17.03500 -0.93300 26.10700
C  17.88400 -1.60400 25.35000
C  17.78600 -1.24900 23.88600
C  16.88400 0.06500 23.93000
C  16.48900 0.10300 25.40400
C  19.15800 -0.90500 23.33000
C  15.69800 0.00200 22.93500
C  14.41000 -0.54300 23.57300
N  15.69500 0.47200 28.29000
C  15.12100 1.23900 27.27200
C  14.20600 2.24600 27.74900
C  14.39300 2.19200 29.13000
C  15.30800 1.14900 29.40700
C  13.38100 3.19500 26.94400
C  14.08200 2.78300 30.43500
O  13.34100 3.70600 30.69200
C  14.88300 2.08600 31.48600
C  15.81500 3.04200 32.25500
O  16.61400 3.80000 31.71200
O  15.65100 2.89200 33.64500
C  16.59200 3.73100 34.46600
H  19.63600 -2.97900 31.36400
H  19.27900 -3.11500 25.02100
H  15.10200 1.69600 25.15400
H  17.11000 0.96000 33.17500
H  18.19400 -1.65200 33.38900
H  19.55800 0.71000 33.43600
H  20.39800 -0.18600 32.22900
H  20.00100 -0.96000 33.70000
H  15.57400 -1.62700 33.20000
H  14.84600 -0.13400 33.56200
H  16.04400 -1.99100 35.35600
H  15.40800 -0.32900 35.70000
H  20.41500 -5.95100 30.06400
H  20.91000 -4.50300 30.81600
H  21.81300 -4.95400 29.37000
H  20.75500 -7.21200 27.82100
H  22.14700 -6.06200 27.48500
H  21.57100 -6.99800 26.20800
H  17.20800 -2.03700 23.40200
H  17.46100 0.96500 23.71800
H  19.69000 -0.36400 24.11200
H  19.10700 -0.23300 22.47400
H  19.82400 -1.74600 23.13500
H  15.88100 -0.54400 22.00900
H  15.62000 1.03300 22.58900
H  13.80000 -0.94500 22.76400
H  13.76000 0.09800 24.16800
H  14.66900 -1.38900 24.21100
H  12.62300 3.63800 27.58900
H  12.81800 2.67100 26.17200
H  13.98200 4.07600 26.71900
H  14.19900 1.60000 32.18200
H  17.61500 3.62600 34.10400
H  16.37900 3.42100 35.48900
H  16.15800 4.73000 34.50500
Mg 29.73300 57.41700 41.20900
C  26.99000 55.51100 40.16800
C  31.83200 54.86500 39.95100
C  32.26000 59.59800 41.25100
C  27.39300 60.12000 41.69600
N  29.45600 55.46700 40.28700
C  28.27400 54.89700 39.92300
C  28.46600 53.47600 39.31400
C  29.99500 53.17200 39.56600
C  30.48500 54.59300 39.95500
C  30.27100 52.15100 40.71500
C  28.09400 53.38800 37.73200
C  28.45200 54.60900 36.91800
H  27.63100 55.06800 35.74000
N  31.77000 57.21800 40.75800
C  32.44000 56.06900 40.21800
C  33.90400 56.39500 40.32800
C  34.08700 57.76400 40.81200
C  32.67800 58.25300 40.85600
C  34.93700 55.40600 39.96700
C  35.46600 58.52800 41.10600
O  36.54200 57.91100 41.04000
C  35.40500 59.92600 41.48900
N  29.78300 59.52100 41.40800
C  31.03700 60.15700 41.53800
C  30.82700 61.69300 41.82500
C  29.27200 61.79100 41.84100
C  28.73900 60.41000 41.68800
C  31.46600 62.11300 43.16500
C  28.60600 62.79900 40.82700
C  28.02300 64.09400 41.37200
N  27.58300 57.77500 41.07000
C  26.79100 58.88600 41.23900
C  25.42300 58.59500 40.95200
C  25.48600 57.22800 40.60400
C  26.78800 56.82700 40.62100
C  24.19200 59.48500 40.99200
C  24.69200 56.07200 40.14100
O  23.52800 55.94200 39.82700
C  25.76200 54.92500 39.79200
C  25.30800 53.69100 40.47500
O  25.36400 53.42400 41.65800
O  24.53700 52.97400 39.54500
C  23.88400 51.77400 40.10600
H  32.57000 54.07500 39.79600
H  33.00400 60.39600 41.30500
H  26.78100 61.02400 41.72300
H  27.85500 52.79000 39.90000
H  30.44800 52.86000 38.62400
H  29.36900 51.84300 41.24500
H  31.01500 52.48400 41.43800
H  30.73000 51.25600 40.29400
H  27.10800 52.92200 37.72700
H  28.71700 52.61800 37.27600
H  29.43800 54.45900 36.47800
H  28.54100 55.51300 37.52000
H  35.85000 55.87100 39.59600
H  34.48900 54.89600 39.11500
H  35.19300 54.82100 40.85000
H  35.02900 60.54200 40.67300
H  36.46200 60.18600 41.54500
H  34.80800 60.00500 42.39800
H  31.32100 62.20800 41.00000
H  28.89000 62.08500 42.81900
H  32.22000 62.82800 42.83600
H  31.86900 61.21300 43.62800
H  30.77800 62.58800 43.86500
H  27.84000 62.32500 40.21300
H  29.33800 63.03900 40.05700
H  28.46400 64.94400 40.85200
H  28.30800 64.12800 42.42400
H  26.95600 64.00000 41.17100
H  23.60800 59.62000 40.08200
H  24.47700 60.45100 41.40800
H  23.59300 58.96400 41.73900
H  25.67500 54.86900 38.70700
H  24.43500 51.23200 40.87400
H  23.50900 51.16700 39.28200
H  22.90800 51.98400 40.54200

