158

Mg 1.42800 -0.79400 43.78000
C  4.68900 0.09500 43.16300
C  0.35000 1.92400 41.96100
C  -1.81500 -2.16700 43.41000
C  2.57700 -3.95400 44.88500
N  2.42300 0.69200 42.58500
C  3.76600 0.98200 42.58200
C  4.02800 2.35100 41.90000
C  2.63700 3.04900 41.85000
C  1.70500 1.81600 42.21900
C  2.47500 4.38900 42.67700
C  4.73900 2.19300 40.44300
C  5.97200 3.06200 40.25300
H  5.88900 3.97500 39.11300
N  -0.53500 -0.17200 42.87400
C  -0.70700 1.01600 42.23400
C  -2.14100 1.15100 41.85000
C  -2.82300 0.00300 42.41300
C  -1.77300 -0.85700 42.99400
C  -2.73400 2.45300 41.22500
C  -4.33200 -0.26600 42.34400
O  -5.06800 0.56800 41.84600
C  -4.93500 -1.28300 43.34300
N  0.54200 -2.80300 44.17800
C  -0.77900 -3.03600 43.95000
C  -1.17800 -4.44500 44.37600
C  0.22400 -5.01300 44.82000
C  1.20100 -3.92700 44.61400
C  -2.20000 -4.61000 45.46400
C  0.70300 -6.39300 44.27400
C  0.82700 -7.55400 45.27700
N  3.24900 -1.68600 44.16400
C  3.51700 -2.96100 44.56800
C  4.94700 -3.14200 44.62600
C  5.49200 -1.91400 44.06600
C  4.39100 -1.08900 43.77900
C  5.72300 -4.28900 45.12300
C  6.74900 -1.14700 43.82500
O  7.93200 -1.34800 44.12200
C  6.19200 0.25000 43.24600
C  6.61800 1.37300 44.05600
O  5.90400 1.98200 44.82700
O  7.94800 1.66200 43.76700
C  8.59300 2.90000 44.22000
H  0.02000 2.90400 41.61000
H  -2.74400 -2.72100 43.56100
H  3.05200 -4.85100 45.28700
H  4.66400 2.95600 42.54700
H  2.36500 3.20800 40.80700
H  2.07300 5.11400 41.97000
H  3.34700 4.83100 43.16000
H  1.66300 4.31100 43.40000
H  4.03300 2.51700 39.67900
H  4.92800 1.12200 40.37000
H  6.81000 2.39500 40.05200
H  6.09500 3.62700 41.17800
H  -3.61900 2.64300 41.83300
H  -2.96200 2.27400 40.17400
H  -2.04600 3.28900 41.34800
H  -5.95300 -0.90000 43.40800
H  -4.37000 -1.28500 44.27500
H  -4.97600 -2.27000 42.88200
H  -1.57500 -5.05400 43.56400
H  0.20800 -5.01200 45.91000
H  -2.17000 -3.67900 46.02900
H  -1.96100 -5.34500 46.23300
H  -3.19000 -4.76900 45.03700
H  1.68200 -6.29600 43.80500
H  0.03600 -6.68300 43.46200
H  1.70100 -8.15700 45.03200
H  -0.04500 -8.20800 45.26200
H  1.08600 -7.15500 46.25700
H  5.27600 -4.71100 46.02300
H  6.75600 -4.08000 45.39900
H  5.66600 -5.03700 44.33100
H  6.83500 0.19800 42.36700
H  8.14800 3.29900 45.13200
H  8.42100 3.68000 43.47800
H  9.65700 2.81400 44.43800
Mg 9.39500 47.93600 25.17800
C  7.40700 48.35100 27.86700
C  11.94000 49.63000 26.87300
C  11.43200 47.36600 22.59700
C  6.66800 46.86800 23.23900
N  9.60200 48.85200 27.14800
C  8.68600 48.77600 28.14600
C  9.30800 49.21700 29.46900
C  10.51800 50.00400 28.96300
C  10.70900 49.60300 27.51000
C  10.21700 51.53500 29.04300
C  9.72500 48.12100 30.46900
C  9.06200 48.21800 31.86900
H  9.45100 47.10000 32.88500
N  11.41800 48.44100 24.75900
C  12.32300 49.08700 25.62400
C  13.63000 49.04900 25.06600
C  13.48600 48.43700 23.82200
C  12.08400 48.03900 23.65500
C  14.87900 49.58900 25.82900
C  14.57300 48.23100 22.72000
O  14.40900 47.69100 21.59700
C  15.98600 48.74500 22.98200
N  9.02800 47.33600 23.09500
C  10.07500 47.17900 22.27400
C  9.68800 46.48600 20.94100
C  8.09300 46.39000 21.12300
C  7.85700 46.89100 22.58700
C  10.00200 47.37400 19.69800
C  7.49800 44.96200 20.87800
C  7.69000 43.95200 22.04500
N  7.45700 47.55600 25.45100
C  6.37200 47.17700 24.56500
C  5.16200 47.26700 25.30900
C  5.46900 47.62100 26.61700
C  6.89400 47.84400 26.62000
C  3.87700 47.07100 24.76600
C  4.94700 47.74800 27.92000
O  3.82700 47.64300 28.35300
C  6.21100 48.19900 28.86200
C  6.37500 47.12500 29.90900
O  7.26800 46.23700 29.83800
O  5.44000 47.15600 30.87000
C  5.70500 46.21100 31.97300
H  12.70400 50.05600 27.52600
H  12.06000 47.03700 21.76700
H  5.84200 46.45900 22.65300
H  8.58800 49.85200 29.98400
H  11.39300 49.80300 29.58100
H  10.38800 51.96200 30.03100
H  9.19100 51.79500 28.78000
H  10.79800 52.12500 28.33400
H  10.79000 48.16100 30.69900
H  9.55400 47.10700 30.11000
H  7.97300 48.26100 31.83200
H  9.35000 49.16500 32.32400
H  14.58400 49.86000 26.84300
H  15.51500 50.37000 25.41400
H  15.50200 48.70500 25.96100
H  15.96400 49.83500 22.97500
H  16.66000 48.44700 22.17800
H  16.38100 48.33300 23.91000
H  10.15600 45.50100 20.91300
H  7.58100 46.94200 20.33500
H  10.11100 48.42600 19.96100
H  9.23200 47.33300 18.92800
H  10.96700 47.05000 19.31100
H  8.06500 44.57100 20.03300
H  6.43100 45.04300 20.66900
H  8.15800 43.04900 21.65400
H  6.66400 43.68800 22.30000
H  8.22800 44.35100 22.90400
H  3.92200 46.68900 23.74600
H  3.26100 47.96300 24.88200
H  3.42600 46.24400 25.31400
H  6.04000 49.16900 29.32800
H  5.89400 45.17700 31.68500
H  4.73800 46.09800 32.46400
H  6.36400 46.57200 32.76200

