158

Mg 53.97300 24.69500 44.43100
C  51.24200 26.81800 44.17900
C  51.96400 22.19000 43.39600
C  56.77600 22.96800 43.99200
C  55.91800 27.43300 45.37300
N  51.85100 24.53600 43.59600
C  50.95700 25.52400 43.73900
C  49.57200 24.98400 43.50700
C  49.74300 23.46300 43.72800
C  51.27500 23.37100 43.49000
C  49.18300 23.01600 45.09600
C  49.07700 25.50900 42.17500
C  48.52800 24.48600 41.14500
H  48.15200 24.82800 39.70300
N  54.32300 22.82300 43.70500
C  53.36400 21.87800 43.44200
C  54.06400 20.55900 43.05900
C  55.47800 20.83700 43.35300
C  55.59500 22.27700 43.68600
C  53.38800 19.33300 42.62500
C  56.51600 19.73700 43.36300
O  56.19800 18.65200 42.93300
C  57.87800 19.85400 43.86000
N  56.04600 25.26100 44.26700
C  57.04300 24.33400 44.22500
C  58.45400 24.88700 44.50400
C  58.12900 26.36700 44.75300
C  56.56500 26.40200 44.71800
C  59.19800 24.15600 45.63500
C  58.70700 27.38500 43.80500
C  59.45500 28.54900 44.41600
N  53.71700 26.76000 44.80000
C  54.57400 27.71100 45.32100
C  53.78400 28.83900 45.66500
C  52.53600 28.52800 45.16000
C  52.50300 27.28700 44.63500
C  54.26400 30.09000 46.34000
C  51.28300 29.13000 44.90900
O  50.98500 30.34100 45.11800
C  50.30000 28.06100 44.23300
C  49.68600 28.53800 42.88200
O  50.39300 28.85600 41.92500
O  48.27800 28.69200 42.88300
C  47.77600 29.14800 41.61900
H  51.34700 21.35800 43.05100
H  57.69100 22.38900 43.85400
H  56.55900 28.18700 45.83600
H  49.02300 25.44100 44.33000
H  49.18100 22.84500 43.02700
H  48.88500 23.82000 45.76900
H  50.00600 22.43500 45.51200
H  48.28700 22.42500 44.90600
H  49.81000 26.08500 41.61000
H  48.21400 26.13000 42.41500
H  47.72100 23.92900 41.62100
H  49.33800 23.78900 40.93100
H  53.77900 19.02200 41.65700
H  52.32200 19.54300 42.53500
H  53.48500 18.50100 43.32200
H  58.44400 20.42300 43.12300
H  58.37100 18.88500 43.94400
H  57.92200 20.28300 44.86100
H  59.13100 24.76600 43.65800
H  58.36200 26.69400 45.76600
H  60.20500 24.01000 45.24300
H  58.75800 23.16800 45.76800
H  59.17800 24.65900 46.60100
H  57.97800 27.78100 43.09800
H  59.46300 26.95500 43.14700
H  59.46200 28.44900 45.50200
H  58.98600 29.47100 44.07300
H  60.43400 28.61000 43.93900
H  53.99000 30.87200 45.63100
H  55.35200 30.10700 46.40500
H  53.77100 30.26100 47.29600
H  49.46500 27.91200 44.91700
H  47.98900 28.41300 40.84300
H  48.15000 30.14800 41.39900
H  46.71500 29.39400 41.66000
Mg -11.81100 17.07900 43.00600
C  -9.04000 15.00500 42.40900
C  -9.90400 19.76600 42.02200
C  -14.70400 18.71700 42.47300
C  -13.61500 14.06600 43.72900
N  -9.78300 17.27200 42.19700
C  -8.78000 16.34300 42.10800
C  -7.46600 16.96900 41.64700
C  -7.74100 18.47000 42.16900
C  -9.25700 18.56300 42.17200
C  -7.15000 18.88600 43.52600
C  -7.15300 16.96100 40.13900
C  -5.65600 16.84400 39.72800
H  -5.27300 15.58100 38.98900
N  -12.26800 18.97300 42.24400
C  -11.29000 19.94600 41.89500
C  -12.00400 21.12100 41.58300
C  -13.42000 20.88200 41.67900
C  -13.54500 19.48000 42.24100
C  -11.17300 22.34600 41.14000
C  -14.48500 22.00300 41.43000
O  -14.20400 23.12300 41.00300
C  -15.95000 21.80200 41.88700
N  -13.85200 16.45800 43.03000
C  -14.85400 17.40100 42.92900
C  -16.20800 16.79000 43.19600
C  -15.76800 15.36300 43.75300
C  -14.29100 15.26400 43.56100
C  -17.24300 17.50500 44.06800
C  -16.56200 14.23500 42.89600
C  -17.77800 13.73000 43.74000
N  -11.48300 14.96200 43.20100
C  -12.28800 13.89100 43.51600
C  -11.51500 12.67700 43.56600
C  -10.18200 13.06400 43.19600
C  -10.26900 14.43900 42.89600
C  -12.12300 11.36800 43.75800
C  -8.88500 12.54500 42.96200
O  -8.44400 11.41300 42.96000
C  -8.16600 13.77400 42.22900
C  -6.89600 13.92500 42.98300
O  -6.87000 14.26900 44.13100
O  -5.74600 13.60200 42.25600
C  -4.58900 14.19600 42.87300
H  -9.34300 20.69700 41.92300
H  -15.61200 19.29400 42.28400
H  -14.24500 13.18100 43.83800
H  -6.65600 16.64600 42.30000
H  -7.35100 19.12300 41.38900
H  -7.03100 18.01700 44.17300
H  -7.72700 19.63100 44.07300
H  -6.11800 19.23100 43.45600
H  -7.57800 17.76700 39.54200
H  -7.68600 16.07400 39.79500
H  -5.08000 16.68900 40.64100
H  -5.27300 17.72700 39.21600
H  -11.64000 23.32300 41.26500
H  -10.73900 22.12300 40.16600
H  -10.35200 22.39700 41.85600
H  -16.02000 21.45000 42.91700
H  -16.54600 21.21700 41.18700
H  -16.50600 22.71100 42.11700
H  -16.68700 16.66500 42.22500
H  -15.82900 15.25800 44.83700
H  -17.46300 16.80200 44.87100
H  -18.14700 17.76600 43.51600
H  -16.86800 18.49100 44.34000
H  -15.95100 13.40600 42.53900
H  -16.94900 14.57200 41.93400
H  -17.71900 12.68300 44.03600
H  -18.70100 13.79800 43.16500
H  -17.91600 14.30100 44.65800
H  -12.52300 10.95800 42.83100
H  -12.92400 11.32300 44.49600
H  -11.29600 10.72700 44.06500
H  -7.97500 13.43700 41.21000
H  -4.23000 13.46100 43.59400
H  -4.69300 15.16600 43.35900
H  -3.81400 14.31500 42.11500

