158

Mg 24.76000 1.04700 28.75300
C  26.68400 0.60000 31.73400
C  21.99900 1.14700 30.63200
C  22.90700 1.13800 25.91200
C  27.64100 0.19200 26.93100
N  24.42000 0.78600 30.90800
C  25.32100 0.84500 31.95200
C  24.61600 1.05300 33.28900
C  23.07700 1.01200 32.88800
C  23.15200 0.91600 31.34200
C  22.17200 -0.02600 33.67100
C  25.07300 2.38100 34.06200
C  25.87900 2.07800 35.37700
H  25.67400 2.95300 36.60900
N  22.71800 1.23700 28.33500
C  21.73300 1.26900 29.24000
C  20.43300 1.36900 28.63000
C  20.66700 1.22100 27.24300
C  22.16700 1.21600 27.09700
C  19.10900 1.37800 29.48300
C  19.66200 1.07600 26.13500
O  20.03300 0.81400 25.01600
C  18.24100 1.16700 26.42000
N  25.17700 0.67000 26.73400
C  24.25800 0.90300 25.74400
C  24.98000 1.18700 24.42100
C  26.52900 0.97200 24.74700
C  26.48800 0.47300 26.16300
C  24.55300 0.22800 23.27000
C  27.52100 2.24800 24.48000
C  27.11300 3.51900 25.22200
N  26.75300 0.45900 29.14300
C  27.85200 0.19600 28.33500
C  29.04400 0.07200 29.04500
C  28.62700 0.21500 30.39700
C  27.30000 0.43400 30.44100
C  30.43600 -0.17900 28.47400
C  29.08700 0.34200 31.78400
O  30.18400 0.29300 32.21800
C  27.83200 0.65100 32.71600
C  27.92600 -0.37000 33.82400
O  27.69100 -1.52400 33.72500
O  28.46900 0.20600 34.96600
C  28.60100 -0.64800 36.11200
H  21.12100 1.24900 31.27300
H  22.38300 1.14100 24.95400
H  28.62400 0.08100 26.47000
H  24.89900 0.17900 33.87600
H  22.65900 2.00400 33.05800
H  21.42400 0.60300 34.15400
H  22.76000 -0.54400 34.42800
H  21.79300 -0.75800 32.95600
H  24.25800 3.00000 34.43500
H  25.69000 2.97400 33.38700
H  26.92500 2.27800 35.14300
H  25.78400 1.01600 35.60400
H  19.15500 1.48400 30.56700
H  18.48100 0.53500 29.19500
H  18.42900 2.14900 29.12100
H  18.04100 2.14300 26.86300
H  18.10500 0.35100 27.13000
H  17.45900 0.99400 25.68000
H  24.71200 2.20200 24.13100
H  26.92200 0.22500 24.05800
H  24.04100 -0.62400 23.71700
H  25.48400 -0.18500 22.88200
H  24.11000 0.78500 22.44400
H  27.46400 2.47800 23.41600
H  28.54200 1.99400 24.76400
H  27.93800 4.21500 25.06400
H  26.85000 3.36800 26.26900
H  26.27200 3.95900 24.68500
H  31.12900 0.12000 29.26000
H  30.62800 0.44700 27.60300
H  30.70200 -1.20900 28.23600
H  27.84000 1.62500 33.20500
H  29.57000 -0.62300 36.60900
H  28.48300 -1.69600 35.83900
H  27.80200 -0.38600 36.80500
Mg 47.82100 25.33300 28.93500
C  48.81100 27.54200 31.50800
C  46.69100 23.05000 31.36700
C  47.16600 23.07100 26.47500
C  49.32600 27.35600 26.59800
N  48.03200 25.24200 31.32600
C  48.27800 26.36800 32.09000
C  47.95400 26.00900 33.58100
C  47.24700 24.60700 33.43300
C  47.38400 24.21100 31.90400
C  47.74000 23.54500 34.40500
C  46.98900 27.06300 34.31700
C  47.40400 27.37900 35.82000
H  46.31300 27.68300 36.85100
N  46.87200 23.39400 28.92700
C  46.49600 22.66500 30.02400
C  45.84500 21.45200 29.54300
C  45.98900 21.45800 28.07000
C  46.71400 22.72600 27.73200
C  45.16200 20.29700 30.38600
C  45.45300 20.47900 27.09500
O  45.43600 20.68100 25.88200
C  44.73900 19.14900 27.57800
N  48.21700 25.26500 26.88800
C  47.99500 24.13600 26.13100
C  48.45100 24.46700 24.68000
C  48.80800 25.96200 24.67500
C  48.80200 26.16800 26.16600
C  49.50800 23.38600 24.20100
C  47.82200 26.98100 23.99300
C  48.30600 28.39800 23.65300
N  48.93900 27.06500 28.98600
C  49.38700 27.85600 27.95400
C  49.87000 29.12500 28.48900
C  49.62200 28.97800 29.84500
C  49.12800 27.69200 30.08500
C  50.42600 30.27200 27.71200
C  49.71400 29.74900 31.10700
O  50.07900 30.90100 31.23500
C  49.27400 28.75600 32.23800
C  50.49600 28.55400 33.05500
O  51.52000 27.91900 32.75400
O  50.34700 29.15800 34.30900
C  51.36000 28.80700 35.25900
H  46.30700 22.30900 32.07100
H  47.04600 22.29100 25.72000
H  49.79900 28.03300 25.88200
H  48.83000 25.71200 34.15800
H  46.18200 24.69500 33.64900
H  48.00600 22.71100 33.75600
H  46.95500 23.20200 35.07900
H  48.70700 23.74000 34.86800
H  45.97000 26.75100 34.09000
H  47.06500 28.01700 33.79600
H  48.01300 28.27100 35.67000
H  48.11500 26.63400 36.17800
H  45.71300 19.36800 30.24100
H  44.09700 20.27700 30.15600
H  45.08400 20.53200 31.44700
H  43.85700 19.17400 28.21800
H  45.51700 18.62200 28.13200
H  44.49200 18.57000 26.68900
H  47.59100 24.27600 24.03900
H  49.83200 26.03500 24.30900
H  49.07200 22.65500 23.51900
H  49.83000 22.92500 25.13400
H  50.36000 23.83200 23.68700
H  47.02600 27.21000 24.70100
H  47.48100 26.48600 23.08300
H  47.82800 28.75800 22.74200
H  49.39100 28.34400 23.56700
H  47.98500 29.08800 24.43300
H  51.48000 30.47100 27.90500
H  49.80600 31.14500 27.91600
H  50.15000 30.05400 26.68000
H  48.44200 29.26000 32.73100
H  52.35500 28.51500 34.92200
H  51.06700 28.02100 35.95600
H  51.42600 29.71900 35.85200

