158

Mg 24.34100 -6.37600 45.31700
C  26.42100 -4.14900 43.76500
C  21.70700 -5.38200 43.40000
C  22.72500 -9.34800 46.14000
C  27.17600 -7.65900 47.08800
N  24.13300 -4.94500 43.79200
C  25.11200 -4.08600 43.33000
C  24.51800 -3.02600 42.29500
C  22.94400 -3.28000 42.34000
C  22.89900 -4.67000 43.14000
C  22.10300 -2.14200 43.05400
C  25.11700 -3.32200 40.81100
C  25.32900 -2.00200 40.04400
H  24.87400 -1.87900 38.55900
N  22.42200 -7.18900 45.00400
C  21.47800 -6.62100 44.14500
C  20.29100 -7.49200 44.15500
C  20.50300 -8.48400 45.10100
C  21.92500 -8.41300 45.38300
C  19.06600 -7.18300 43.31400
C  19.47100 -9.36700 45.68300
O  18.36000 -9.10000 45.39900
C  19.82800 -10.34600 46.60000
N  24.97000 -8.32100 46.36100
C  24.07700 -9.34300 46.58800
C  24.63700 -10.41200 47.56700
C  26.05900 -9.76800 47.90600
C  26.07500 -8.50000 47.12200
C  23.74100 -11.03000 48.72600
C  27.26200 -10.80300 47.64000
C  28.46600 -10.96300 48.64300
N  26.40200 -6.03300 45.30400
C  27.38400 -6.55500 46.17100
C  28.67100 -5.82300 46.01700
C  28.31400 -4.93000 44.94500
C  26.99800 -5.08200 44.65300
C  29.89200 -5.97700 46.69600
C  28.86800 -3.87700 44.09700
O  29.95400 -3.38500 44.01000
C  27.58800 -3.33800 43.31500
C  27.54100 -1.86300 43.53700
O  26.90600 -1.31900 44.39300
O  28.34700 -1.21200 42.66700
C  28.43300 0.26800 42.87200
H  20.85900 -5.01800 42.81600
H  22.19000 -10.26600 46.39300
H  28.06100 -7.96800 47.64700
H  24.78500 -2.00100 42.55200
H  22.58100 -3.34100 41.31400
H  22.71700 -1.24500 43.14200
H  21.84600 -2.42600 44.07400
H  21.17000 -2.11800 42.49200
H  24.37800 -3.95400 40.31800
H  25.99400 -3.95200 40.96400
H  26.39100 -1.75800 40.01300
H  24.96800 -1.10500 40.54800
H  19.32800 -6.80700 42.32500
H  18.32800 -6.58800 43.85200
H  18.55100 -8.11900 43.09500
H  20.38800 -9.85400 47.39500
H  20.41400 -11.13900 46.13600
H  18.97800 -10.88300 47.02100
H  24.98500 -11.17100 46.86600
H  25.96400 -9.35900 48.91200
H  24.39200 -11.30500 49.55600
H  23.10900 -11.80600 48.29400
H  23.14700 -10.26200 49.22200
H  27.65200 -10.33100 46.73800
H  26.84500 -11.80500 47.53800
H  28.09900 -11.70500 49.35200
H  28.75100 -9.98200 49.02300
H  29.32900 -11.32100 48.08100
H  29.68800 -6.04600 47.76400
H  30.48500 -5.08500 46.48900
H  30.52000 -6.82300 46.41800
H  27.63300 -3.44400 42.23100
H  28.59300 0.52600 43.91900
H  27.46500 0.66000 42.55900
H  29.18800 0.83700 42.32900
Mg 17.33200 -0.67000 28.12600
C  15.96400 1.34300 30.69400
C  19.25400 -2.19100 30.34200
C  18.65400 -2.27700 25.53500
C  15.41300 1.33600 25.82400
N  17.54800 -0.41700 30.21000
C  16.80600 0.35200 31.09500
C  17.13500 -0.04900 32.50300
C  18.23500 -1.10800 32.43600
C  18.36500 -1.24100 30.92200
C  19.58500 -0.75100 33.06600
C  15.85300 -0.56600 33.25800
C  15.85900 -0.44000 34.78000
H  16.94800 0.25000 35.51400
N  18.68200 -2.00200 27.94400
C  19.43400 -2.51900 29.00000
C  20.32300 -3.50300 28.49000
C  20.24600 -3.50500 27.11800
C  19.12400 -2.58100 26.77800
C  21.39400 -4.19400 29.38900
C  21.03700 -4.25700 26.13300
O  20.75300 -4.28700 24.99100
C  22.15300 -5.07700 26.56800
N  17.10200 -0.44300 26.06000
C  17.77600 -1.31400 25.18800
C  17.31500 -1.11200 23.70500
C  16.08000 -0.11600 23.86500
C  16.27600 0.34700 25.31800
C  18.48600 -0.60400 22.85800
C  14.69400 -0.71100 23.45200
C  14.09400 -1.72100 24.41900
N  15.94100 0.96500 28.19300
C  15.31800 1.71900 27.21500
C  14.42500 2.68000 27.85400
C  14.67700 2.56300 29.16800
C  15.69900 1.59600 29.35300
C  13.38600 3.59500 27.09800
C  14.38900 3.19400 30.42100
O  13.67200 4.16000 30.72200
C  15.17100 2.32200 31.44700
C  15.96800 3.21500 32.33100
O  17.10900 3.63300 32.10100
O  15.20300 3.39300 33.48200
C  15.85300 4.07900 34.61800
H  19.91700 -2.76800 30.99000
H  19.18100 -2.74000 24.69900
H  14.76700 1.84200 25.10400
H  17.65200 0.82900 32.89000
H  17.98500 -2.01900 32.98000
H  20.41200 -0.82400 32.35900
H  19.76400 -1.59400 33.73400
H  19.61900 0.17500 33.63800
H  15.62900 -1.60800 33.03100
H  14.91400 -0.10500 32.95300
H  15.59800 -1.42800 35.15900
H  14.92200 0.11100 34.86200
H  22.36400 -3.79200 29.09700
H  21.53600 -5.27300 29.32100
H  21.35200 -4.00400 30.46100
H  21.84800 -5.88600 27.23200
H  22.86100 -4.47700 27.14000
H  22.74700 -5.44000 25.72900
H  16.99700 -2.02100 23.19500
H  16.25100 0.73700 23.20900
H  18.36100 0.47700 22.79700
H  18.31600 -1.04800 21.87700
H  19.51500 -0.84100 23.12900
H  14.83400 -1.26100 22.52200
H  14.10500 0.15200 23.14000
H  14.58400 -1.80900 25.38900
H  13.87800 -2.71100 24.01700
H  13.08500 -1.38900 24.66400
H  13.82900 4.57200 26.90500
H  12.47300 3.70300 27.68400
H  13.11600 3.12800 26.15100
H  14.41200 1.78100 32.01100
H  15.01300 4.24600 35.29200
H  16.27100 5.00700 34.22700
H  16.66200 3.53400 35.10400

