158

Mg 48.58100 46.15300 43.40000
C  45.38300 46.80600 41.92400
C  48.43800 43.02900 41.76100
C  51.76800 45.88100 43.98700
C  48.71700 49.57000 44.29000
N  47.11000 45.09300 41.89900
C  45.90400 45.60700 41.47200
C  45.22300 44.59000 40.53000
C  46.11900 43.33800 40.69500
C  47.25400 43.80000 41.52800
C  45.42400 42.07700 41.24400
C  45.04300 45.11500 39.10400
C  43.73400 44.63000 38.42500
H  43.88300 43.67200 37.16000
N  49.84300 44.58000 43.16200
C  49.62200 43.39100 42.43200
C  50.85200 42.64900 42.41300
C  51.89000 43.38400 43.10800
C  51.16500 44.70100 43.49000
C  50.92300 41.28400 41.67800
C  53.38800 42.97200 43.24700
O  53.80000 41.86100 42.83100
C  54.34400 43.98000 43.81900
N  50.05400 47.54300 44.05700
C  51.32600 47.13300 44.31500
C  52.22500 48.33100 44.70800
C  51.20100 49.39600 45.14500
C  49.91000 48.85600 44.46200
C  53.28100 47.92700 45.81500
C  51.55800 50.80700 44.64200
C  51.62300 51.84700 45.67800
N  47.36300 47.91300 43.18900
C  47.45200 49.15500 43.76000
C  46.21700 49.86800 43.62400
C  45.35200 48.98800 42.87200
C  46.12200 47.80900 42.65600
C  45.89000 51.32100 44.13000
C  44.04300 48.88400 42.28200
O  43.12400 49.64300 42.18000
C  44.08800 47.48400 41.48000
C  42.88300 46.67100 41.80700
O  41.90300 46.28000 41.08900
O  43.00400 46.42700 43.10300
C  42.11600 45.36900 43.52000
H  48.44600 42.07600 41.22800
H  52.83900 45.79500 44.18200
H  48.71600 50.62500 44.57500
H  44.24500 44.33200 40.93700
H  46.59800 43.07900 39.75100
H  45.32800 42.10200 42.33000
H  45.96100 41.15900 41.00400
H  44.47900 42.02200 40.70500
H  45.87300 44.92900 38.42300
H  45.11400 46.19300 38.95800
H  43.29300 45.60400 38.21400
H  42.94600 44.09100 38.95100
H  51.75300 40.61300 41.90200
H  50.90800 41.40600 40.59500
H  50.03800 40.67500 41.86200
H  53.90400 44.14600 44.80300
H  54.52700 44.78900 43.11200
H  55.31100 43.53100 44.04700
H  52.81700 48.56800 43.82400
H  51.14900 49.44100 46.23300
H  53.19900 48.68300 46.59600
H  54.25200 48.07000 45.34200
H  53.29300 46.93200 46.26100
H  50.96700 51.13200 43.78600
H  52.59600 50.66400 44.34100
H  51.41500 51.53800 46.70200
H  50.98400 52.69700 45.44000
H  52.65400 52.19500 45.74400
H  46.62900 52.01000 43.72100
H  45.85300 51.40100 45.21700
H  44.97500 51.70900 43.68200
H  44.00300 47.66900 40.40900
H  42.41900 45.14100 44.54200
H  42.23700 44.47400 42.90900
H  41.04000 45.51700 43.42600
Mg -5.06100 25.14300 26.33100
C  -4.07700 26.62500 29.29100
C  -7.24000 23.08100 28.06300
C  -6.24500 24.08400 23.39700
C  -2.90600 27.34600 24.51400
N  -5.55400 24.86200 28.46300
C  -5.03600 25.63000 29.46200
C  -5.65400 25.15000 30.81600
C  -6.39700 23.83500 30.43900
C  -6.36900 23.86600 28.89100
C  -5.75600 22.52700 31.05700
C  -6.43000 26.26400 31.51800
C  -6.08700 26.60800 32.96900
H  -5.76400 25.38400 33.94200
N  -6.45300 23.72700 25.83500
C  -7.31500 23.07500 26.65500
C  -8.27200 22.36300 25.88200
C  -8.02100 22.56500 24.53800
C  -6.94400 23.52900 24.52000
C  -9.35700 21.43400 26.45900
C  -8.57900 21.89500 23.28200
O  -8.18800 22.21900 22.14400
C  -9.69000 20.87000 23.35400
N  -4.37600 25.42200 24.20200
C  -5.19100 24.99700 23.26000
C  -4.62400 25.40400 21.92700
C  -3.64500 26.58500 22.21300
C  -3.61500 26.41600 23.70000
C  -3.84500 24.17700 21.28800
C  -4.23000 28.09700 21.84600
C  -3.31700 28.84700 20.87800
N  -3.70700 26.59200 26.77100
C  -2.91300 27.39900 25.94600
C  -2.16500 28.36400 26.78200
C  -2.58200 27.96800 28.10600
C  -3.51500 26.95000 28.01400
C  -1.16800 29.35900 26.33000
C  -2.44800 28.32500 29.56300
O  -1.74400 29.19800 30.08100
C  -3.37800 27.42100 30.31700
C  -2.53600 26.56200 31.14400
O  -1.85900 25.60900 30.77000
O  -2.56200 27.01100 32.46800
C  -1.79900 26.32800 33.42600
H  -8.03300 22.57100 28.61500
H  -6.59200 23.83800 22.39100
H  -2.31600 28.06400 23.94200
H  -4.80300 24.90900 31.45300
H  -7.44700 23.85100 30.73100
H  -5.04500 22.72100 31.86100
H  -5.18200 22.03200 30.27300
H  -6.57500 21.87900 31.36700
H  -7.48700 25.99800 31.53100
H  -6.28100 27.17700 30.94200
H  -6.95700 27.08400 33.42000
H  -5.26800 27.30900 33.12900
H  -10.27100 21.33400 25.87300
H  -9.75700 21.65100 27.45000
H  -9.01900 20.39900 26.50400
H  -10.61700 21.28900 23.74600
H  -9.36900 20.10300 24.05900
H  -9.80300 20.56700 22.31300
H  -5.46600 25.73600 21.31900
H  -2.74300 26.39000 21.63400
H  -4.47200 23.30600 21.47900
H  -2.90900 23.97500 21.81100
H  -3.72500 24.41100 20.23100
H  -4.37200 28.69500 22.74600
H  -5.18000 27.95700 21.32900
H  -3.08300 29.76300 21.42000
H  -3.85400 29.07700 19.95800
H  -2.39300 28.29200 20.71800
H  -0.25100 28.94200 25.91500
H  -0.87500 29.94200 27.20300
H  -1.64500 30.06500 25.64900
H  -4.04600 27.92800 31.01300
H  -0.80500 26.69400 33.16600
H  -1.85200 25.24900 33.28700
H  -1.86600 26.48200 34.50300

