158

Mg 45.35900 5.51300 48.42700
C  43.03500 8.18000 47.44200
C  42.75900 3.33300 48.13300
C  47.63400 3.08500 48.58600
C  47.80400 7.97700 48.35200
N  43.21900 5.64700 47.69400
C  42.49100 6.86500 47.43300
C  41.05700 6.47300 47.08800
C  40.86700 5.11800 47.72400
C  42.33000 4.68000 48.04600
C  39.90500 4.95700 48.96200
C  40.79400 6.58100 45.51400
C  39.69900 7.57200 45.19000
H  38.77100 7.19000 43.98500
N  45.23700 3.54000 48.34300
C  44.06000 2.72300 48.29000
C  44.37500 1.31900 48.44500
C  45.81000 1.27000 48.60700
C  46.30800 2.65300 48.58900
C  43.34100 0.29300 48.26900
C  46.57100 0.02200 48.79400
O  45.95000 -1.02100 48.92800
C  48.04800 -0.05400 48.87300
N  47.43000 5.56200 48.31200
C  48.20000 4.40800 48.40700
C  49.73400 4.84800 48.56500
C  49.70300 6.42800 48.52000
C  48.24100 6.67400 48.43400
C  50.53300 4.20900 49.75300
C  50.52900 7.12300 47.39100
C  52.00500 7.39500 47.66000
N  45.35700 7.68100 48.15500
C  46.49900 8.51600 48.16600
C  46.22600 9.90700 47.77700
C  44.82400 9.84100 47.55500
C  44.37100 8.47400 47.75200
C  47.17100 11.08000 47.70500
C  43.63000 10.50900 47.22000
O  43.53900 11.67800 46.95200
C  42.39000 9.52700 47.16000
C  41.44400 9.89000 48.21500
O  41.63800 9.79500 49.44600
O  40.27700 10.27200 47.64400
C  39.21900 10.63400 48.59500
H  41.89600 2.66600 48.17500
H  48.40300 2.32000 48.70500
H  48.52200 8.79600 48.26600
H  40.53400 7.20900 47.69800
H  40.48900 4.63000 46.82600
H  39.58100 5.92100 49.35500
H  40.46500 4.41000 49.72100
H  38.97100 4.52900 48.59900
H  40.58300 5.69000 44.92300
H  41.67200 6.99600 45.02000
H  40.18900 8.50000 44.89800
H  39.08300 7.71200 46.07800
H  42.42200 0.57800 47.75800
H  43.08800 -0.13400 49.24000
H  43.76400 -0.52600 47.68700
H  48.27000 -1.10700 49.05000
H  48.27100 0.53400 49.76200
H  48.49900 0.20000 47.91300
H  50.23800 4.47100 47.67500
H  49.97100 6.84700 49.48900
H  50.94200 5.10100 50.22700
H  51.34500 3.60400 49.34900
H  50.07500 3.47600 50.41700
H  50.00100 8.00800 47.03500
H  50.52600 6.43900 46.54300
H  52.66200 6.83300 46.99600
H  52.33900 7.15400 48.66900
H  52.20200 8.46300 47.57200
H  46.77700 11.99900 47.27100
H  48.09000 10.89200 47.15100
H  47.35800 11.25800 48.76400
H  41.95400 9.51400 46.16100
H  38.65100 11.49700 48.24700
H  39.43800 10.70000 49.66100
H  38.45400 9.86200 48.50800
Mg 16.68400 52.05200 26.26400
C  18.81000 50.35600 28.50400
C  14.38800 52.29200 28.68700
C  14.69600 53.57100 24.07700
C  19.03200 51.45700 23.76500
N  16.67300 51.41300 28.36600
C  17.67200 50.81900 29.16000
C  17.15700 50.56500 30.58200
C  15.63700 50.95900 30.51400
C  15.47300 51.54200 29.08900
C  14.61400 49.93400 31.02000
C  17.98700 51.17900 31.77500
C  17.95100 50.49000 33.11600
H  17.27600 51.32300 34.21000
N  14.79800 52.92900 26.38300
C  14.04000 52.94900 27.48400
C  12.89100 53.75400 27.17700
C  12.85800 54.06400 25.81400
C  14.17100 53.54700 25.39100
C  11.84800 54.15600 28.25900
C  11.84800 54.77100 24.99400
O  12.05400 54.94800 23.77700
C  10.46500 55.22300 25.50800
N  16.87500 52.34900 24.14100
C  15.89400 53.07800 23.49200
C  16.21100 53.13100 21.99400
C  17.68500 52.44500 21.92600
C  17.92500 52.11800 23.35700
C  15.23800 52.38700 21.07200
C  18.77900 53.34600 21.26700
C  19.17900 54.58300 21.95200
N  18.52100 51.04600 26.09700
C  19.34500 50.84400 24.99200
C  20.53400 50.10300 25.31400
C  20.34900 49.96500 26.72500
C  19.14400 50.50800 27.12600
C  21.66200 49.73700 24.44500
C  20.96800 49.34300 27.87100
O  21.98500 48.69800 27.98000
C  20.08800 49.81700 29.13900
C  19.74600 48.59700 29.96200
O  19.12100 47.62600 29.64700
O  20.34600 48.74300 31.17000
C  20.04000 47.74200 32.21800
H  13.75300 52.37100 29.57100
H  14.10200 54.17900 23.39200
H  19.86200 51.28600 23.07600
H  17.17400 49.48100 30.70300
H  15.42100 51.75800 31.22300
H  14.08100 50.27800 31.90700
H  15.21000 49.10300 31.39900
H  13.94300 49.44800 30.31100
H  17.54200 52.16100 31.93600
H  19.04200 51.23900 31.50800
H  18.93200 50.21100 33.50100
H  17.33900 49.58900 33.11800
H  12.26800 53.98500 29.25100
H  10.81500 53.80800 28.26800
H  11.83100 55.24600 28.27600
H  10.06600 54.35200 26.02800
H  9.83400 55.51100 24.66700
H  10.50800 56.00700 26.26400
H  16.16600 54.19000 21.74200
H  17.71400 51.49500 21.39100
H  14.54700 53.11700 20.65000
H  14.80400 51.64300 21.74000
H  15.77700 51.98400 20.21500
H  18.45100 53.61600 20.26300
H  19.69800 52.78000 21.11500
H  19.90700 54.43000 22.74900
H  18.45600 55.18800 22.49800
H  19.74800 55.17400 21.23500
H  21.40900 48.79600 23.95700
H  22.52400 49.53700 25.08100
H  21.83300 50.49000 23.67600
H  20.44300 50.62900 29.77300
H  20.66200 46.85000 32.15300
H  19.04100 47.30600 32.21000
H  20.09400 48.25200 33.18000

