158

Mg 0.41500 7.45700 26.17200
C  1.18500 9.51800 28.85300
C  0.55400 4.71000 28.21200
C  0.04600 5.34700 23.56800
C  1.12100 10.12100 24.10000
N  1.21100 7.16700 28.16500
C  1.16600 8.16400 29.17800
C  1.13900 7.53600 30.58400
C  1.24900 6.02500 30.28900
C  1.02500 5.91800 28.79500
C  2.57700 5.37800 30.76400
C  -0.27800 7.88700 31.32900
C  -0.13700 8.19800 32.81200
H  0.99400 7.40800 33.54000
N  0.08800 5.27700 25.92200
C  0.13100 4.34600 26.93800
C  -0.30900 3.08600 26.38300
C  -0.61400 3.30100 25.00200
C  -0.21400 4.69800 24.78200
C  -0.54700 1.92600 27.16200
C  -1.15900 2.46900 23.94700
O  -1.55600 2.86400 22.88300
C  -1.37500 1.01600 24.22100
N  0.68900 7.69900 24.06800
C  0.39300 6.69600 23.21600
C  0.49400 7.24400 21.73000
C  0.35400 8.80500 21.98400
C  0.73400 8.90400 23.48100
C  1.80300 6.73600 20.97200
C  -1.00900 9.35500 21.59500
C  -1.16900 9.80100 20.15000
N  0.93500 9.42600 26.33000
C  1.18100 10.44900 25.43400
C  1.28700 11.79200 26.08500
C  1.26900 11.44000 27.42800
C  1.07900 10.02000 27.51300
C  1.45900 13.05700 25.30900
C  1.31300 12.00300 28.80500
O  1.38200 13.13400 29.19700
C  1.14900 10.79200 29.75300
C  2.29200 10.79800 30.75300
O  3.32200 10.15000 30.76100
O  1.89600 11.62200 31.80700
C  2.54900 11.45300 33.10400
H  0.52400 3.97200 29.01700
H  -0.13600 4.74300 22.67700
H  1.07600 10.99900 23.45300
H  1.94600 7.97300 31.17200
H  0.51400 5.48800 30.88800
H  3.33500 6.08600 31.09900
H  3.02900 4.81600 29.94700
H  2.38500 4.73800 31.62500
H  -0.83700 6.95200 31.29100
H  -0.81000 8.66700 30.78400
H  -1.07600 7.74200 33.12600
H  -0.08100 9.26600 33.02000
H  -0.49100 2.18900 28.21900
H  0.17700 1.14900 26.91800
H  -1.58000 1.57800 27.15500
H  -0.38900 0.64400 24.50000
H  -1.74100 0.57800 23.29300
H  -2.06600 0.86400 25.05000
H  -0.29000 6.82900 21.09800
H  1.16500 9.34300 21.49300
H  2.49200 7.54600 20.73400
H  1.53700 6.06000 20.15900
H  2.27300 6.15000 21.76100
H  -1.30800 10.23400 22.16700
H  -1.75400 8.56900 21.71800
H  -1.86100 9.17600 19.58700
H  -0.23100 9.90100 19.60300
H  -1.59400 10.80500 20.16800
H  2.01800 12.81300 24.40600
H  2.04700 13.76100 25.89800
H  0.42600 13.39900 25.24800
H  0.21800 11.00200 30.28100
H  1.76200 11.71800 33.81000
H  3.41700 12.10900 33.03000
H  2.88800 10.44500 33.34200
Mg -8.78700 40.30200 43.07100
C  -8.03300 37.00700 41.79900
C  -5.83300 41.39300 41.62000
C  -9.86500 43.53600 43.51600
C  -11.75800 39.14400 44.30500
N  -7.21800 39.29600 41.69700
C  -7.11200 37.99100 41.37600
C  -5.75100 37.69200 40.71700
C  -5.02700 39.04700 40.89200
C  -6.09000 40.02100 41.40500
C  -3.78400 39.04800 41.81900
C  -5.81700 37.25700 39.16300
C  -5.18600 35.93600 38.80900
H  -3.98700 36.21100 37.85700
N  -7.97500 42.20200 42.69600
C  -6.69200 42.43500 42.06400
C  -6.48800 43.90800 42.03500
C  -7.60700 44.53800 42.60800
C  -8.59200 43.44300 42.94900
C  -5.20800 44.62700 41.46000
C  -7.83000 45.96200 42.76800
O  -7.00900 46.72600 42.21700
C  -8.90700 46.63400 43.62700
N  -10.57400 41.24800 43.70000
C  -10.73000 42.54100 43.92500
C  -12.02200 42.78100 44.60200
C  -12.74800 41.38200 44.77200
C  -11.61800 40.52400 44.27400
C  -11.88700 43.50900 45.99200
C  -14.14400 41.20200 44.07100
C  -15.22200 40.90700 45.08900
N  -9.68300 38.49200 43.15000
C  -10.88400 38.14800 43.80200
C  -11.12100 36.69800 43.72700
C  -10.00600 36.22500 42.98000
C  -9.22900 37.35700 42.57400
C  -12.27200 35.92600 44.19000
C  -9.49800 35.05100 42.34400
O  -9.82800 33.88000 42.54800
C  -8.19500 35.46200 41.61800
C  -7.03100 34.69700 42.06100
O  -6.46400 34.79800 43.12900
O  -6.84700 33.76400 41.08400
C  -5.61300 32.93800 41.31800
H  -4.83600 41.72600 41.32500
H  -10.20100 44.54300 43.77000
H  -12.66300 38.80100 44.81100
H  -5.26100 36.90300 41.28700
H  -4.69900 39.35700 39.89900
H  -4.08800 39.40400 42.80300
H  -3.01500 39.74800 41.49400
H  -3.48800 38.00000 41.85500
H  -5.33900 38.06000 38.60200
H  -6.88400 37.20400 38.94500
H  -5.86100 35.22500 38.33200
H  -4.71100 35.49900 39.68700
H  -5.42100 45.06400 40.48400
H  -4.40400 43.89100 41.44100
H  -4.80300 45.40100 42.11200
H  -8.65300 47.69100 43.69600
H  -9.08100 46.13900 44.58300
H  -9.85600 46.56300 43.09500
H  -12.64400 43.45900 44.01700
H  -12.77100 41.05900 45.81300
H  -10.84300 43.72300 46.21700
H  -12.20900 42.84500 46.79500
H  -12.39300 44.47400 46.01900
H  -14.21800 40.51400 43.22900
H  -14.40800 42.14200 43.58700
H  -15.47900 41.67600 45.81800
H  -14.86600 40.04300 45.65000
H  -16.15700 40.52600 44.67600
H  -13.16300 36.55500 44.20700
H  -12.11700 35.32800 45.08800
H  -12.33600 35.18400 43.39400
H  -8.37000 35.25200 40.56300
H  -4.80100 33.66500 41.33400
H  -5.40700 32.46000 40.36000
H  -5.64400 32.33200 42.22300

