158

Mg 25.19500 -7.38300 47.49800
C  27.08200 -4.74900 46.24500
C  22.76600 -6.73200 45.20500
C  23.44700 -10.08300 48.57300
C  27.85800 -8.30000 49.47800
N  25.10000 -5.98800 45.69200
C  25.91500 -4.95300 45.40800
C  25.47900 -4.18100 44.19600
C  23.94600 -4.65600 44.10100
C  23.90700 -5.87900 45.07200
C  22.93800 -3.56200 44.53500
C  26.31300 -4.34400 42.90100
C  26.81700 -3.16300 41.97900
H  26.07500 -3.06900 40.63000
N  23.34500 -8.38000 46.81500
C  22.48200 -7.86100 45.95100
C  21.29000 -8.64400 45.88500
C  21.49100 -9.73000 46.77700
C  22.81900 -9.36400 47.51200
C  20.14400 -8.28300 44.93900
C  20.59800 -10.91700 46.92500
O  19.68600 -11.01600 46.14100
C  20.84300 -12.00300 47.89300
N  25.65000 -9.11600 48.62200
C  24.74300 -9.96700 49.08200
C  25.30800 -10.96900 50.12500
C  26.73600 -10.48200 50.13800
C  26.78600 -9.21600 49.36600
C  24.62000 -10.90700 51.53700
C  27.87800 -11.59100 49.77900
C  29.11200 -11.65100 50.75400
N  27.12500 -6.76300 47.82400
C  28.11800 -7.17900 48.72600
C  29.30900 -6.31700 48.60100
C  28.89000 -5.38300 47.64900
C  27.58500 -5.63400 47.28200
C  30.65300 -6.58800 49.18300
C  29.35900 -4.13700 47.00900
O  30.49800 -3.61200 47.04600
C  28.23100 -3.71200 46.03800
C  27.92400 -2.29000 46.43400
O  28.08400 -1.35400 45.68900
O  27.52000 -2.09100 47.75200
C  26.95500 -0.74600 48.00700
H  21.94700 -6.41900 44.55500
H  22.81400 -10.79300 49.10900
H  28.70400 -8.52500 50.13000
H  25.54600 -3.13000 44.48000
H  23.69400 -5.00600 43.10000
H  22.10300 -4.05800 45.03000
H  22.41100 -3.20600 43.65000
H  23.32300 -2.72500 45.11700
H  25.77500 -5.10300 42.33300
H  27.17300 -4.97600 43.12500
H  27.89400 -3.21900 41.82200
H  26.68100 -2.21400 42.49800
H  20.15000 -9.08600 44.20200
H  20.22200 -7.27700 44.52600
H  19.22600 -8.39500 45.51500
H  21.88400 -12.31200 47.98000
H  20.26300 -12.89900 47.67400
H  20.52000 -11.66800 48.87900
H  25.20500 -11.99100 49.75900
H  27.02000 -10.23100 51.16000
H  23.96000 -10.04100 51.57000
H  25.36600 -10.76000 52.31900
H  24.02300 -11.78500 51.78500
H  28.19900 -11.44800 48.74700
H  27.38600 -12.55900 49.88600
H  30.03400 -11.55200 50.18100
H  29.03400 -12.63700 51.21100
H  29.00600 -10.89800 51.53600
H  30.61900 -7.04100 50.17300
H  31.16800 -5.63200 49.28200
H  31.16000 -7.25600 48.48600
H  28.59000 -3.67600 45.01000
H  27.79100 -0.09700 48.26800
H  26.28100 -0.82400 48.85900
H  26.50000 -0.32900 47.10800
Mg 47.46500 15.54100 28.40600
C  45.05900 15.26700 30.98000
C  49.40500 17.23400 30.55000
C  49.44800 16.14300 25.80700
C  45.01000 14.33100 26.17500
N  47.17400 16.23800 30.48900
C  46.22700 15.89400 31.37200
C  46.61800 16.15400 32.81500
C  47.85200 17.02700 32.64400
C  48.22400 16.84300 31.17800
C  47.67400 18.48400 33.10300
C  46.83100 14.79400 33.58200
C  46.11100 14.69700 35.00200
H  46.15300 15.87500 35.95200
N  49.22600 16.44500 28.21100
C  49.89100 17.02200 29.23300
C  51.20200 17.60000 28.70000
C  51.24500 17.27200 27.26300
C  49.92900 16.65600 27.01800
C  52.14400 18.30300 29.65900
C  52.37800 17.51100 26.25400
O  52.26000 17.18900 25.05000
C  53.67500 18.07100 26.67600
N  47.14700 15.49100 26.28200
C  48.20600 15.64900 25.46600
C  47.85300 15.19200 24.04000
C  46.51800 14.50900 24.20400
C  46.17700 14.80700 25.67200
C  47.81300 16.34300 22.93300
C  46.57600 12.99300 23.84500
C  45.48700 12.62500 22.82000
N  45.47100 14.86800 28.52900
C  44.63200 14.41600 27.51600
C  43.29900 14.04400 28.12600
C  43.44700 14.23500 29.50500
C  44.73300 14.84000 29.66100
C  42.15000 13.30700 27.50600
C  42.89200 14.12700 30.78800
O  41.86200 13.55100 31.08600
C  43.78200 14.85100 31.77100
C  43.11900 16.04800 32.38700
O  43.40900 17.23000 32.17700
O  42.32700 15.61500 33.33700
C  41.77300 16.57600 34.29300
H  50.01200 17.77700 31.27700
H  50.08200 16.36300 24.94500
H  44.42400 13.85500 25.38600
H  45.81000 16.67100 33.33300
H  48.71700 16.77900 33.26000
H  46.84100 18.61400 33.79400
H  47.43900 19.12900 32.25700
H  48.59600 18.76600 33.61400
H  47.89400 14.59500 33.71500
H  46.61300 13.95500 32.92100
H  46.55100 13.89900 35.60100
H  45.08800 14.37000 34.81700
H  52.68400 19.05600 29.08600
H  52.82800 17.65900 30.21200
H  51.57100 18.94000 30.33300
H  53.66000 19.05000 27.15400
H  54.28500 18.14000 25.77500
H  54.05500 17.34900 27.39900
H  48.72700 14.62000 23.72800
H  45.72500 15.01500 23.65300
H  46.89600 16.91500 22.78800
H  48.23200 15.91400 22.02300
H  48.62400 16.96600 23.30900
H  46.62800 12.41800 24.77000
H  47.47700 12.72900 23.29100
H  44.53300 13.13600 22.95200
H  45.28600 11.55900 22.92800
H  45.84700 12.67700 21.79300
H  42.55500 12.34900 27.18000
H  41.71000 13.89900 26.70400
H  41.41200 13.13000 28.28900
H  44.03600 14.19900 32.60600
H  42.48400 17.31500 34.66400
H  41.34500 16.03800 35.13900
H  40.96000 17.16100 33.86400

