158

Mg 17.26700 -1.29400 27.76900
C  16.12100 0.66500 30.46400
C  19.42200 -2.75000 29.82700
C  18.66600 -2.71100 24.98000
C  15.20600 0.70400 25.66600
N  17.75300 -1.01100 29.93500
C  17.04000 -0.27300 30.86400
C  17.38200 -0.73000 32.27200
C  18.55400 -1.71300 32.01600
C  18.59700 -1.83900 30.47800
C  19.91700 -1.34000 32.75900
C  16.15300 -1.34100 33.09200
C  16.14300 -0.73100 34.54600
H  17.45700 -0.28600 35.26400
N  18.88300 -2.65800 27.47400
C  19.57600 -3.21300 28.51300
C  20.32700 -4.33300 27.94800
C  20.17000 -4.31400 26.56300
C  19.20100 -3.17300 26.28500
C  21.16200 -5.24900 28.88700
C  20.78000 -5.22400 25.50300
O  20.52800 -5.12800 24.29600
C  21.76200 -6.29200 25.86000
N  16.96500 -1.07400 25.67800
C  17.66200 -1.77100 24.69700
C  17.24300 -1.29700 23.29600
C  16.14700 -0.30300 23.53300
C  15.99100 -0.26400 25.05900
C  18.54000 -0.94600 22.45100
C  14.75300 -0.45200 22.81300
C  14.68400 0.26600 21.46000
N  15.87700 0.31200 27.93100
C  15.14900 0.98900 27.03500
C  14.28700 1.92800 27.69600
C  14.66100 1.86200 29.00600
C  15.66100 0.88800 29.14300
C  13.29000 2.83200 27.01400
C  14.41700 2.38400 30.33500
O  13.61500 3.20300 30.71000
C  15.31300 1.57700 31.33900
C  16.18400 2.55000 32.17300
O  17.15300 3.14800 31.84900
O  15.61400 2.56900 33.41600
C  16.27300 3.38300 34.40300
H  20.11400 -3.35400 30.41700
H  19.18900 -3.09500 24.10200
H  14.59200 1.29500 24.98400
H  17.72500 0.11700 32.86600
H  18.27900 -2.73000 32.29500
H  20.12000 -2.19800 33.39900
H  19.93200 -0.45600 33.39600
H  20.69200 -1.14000 32.01900
H  16.30100 -2.42000 33.03900
H  15.25500 -0.96600 32.60100
H  15.61100 -1.49600 35.11100
H  15.41400 0.07700 34.48600
H  20.90100 -6.27700 28.63400
H  21.03200 -5.14500 29.96400
H  22.24400 -5.14900 28.79700
H  21.26900 -7.07600 26.43500
H  22.39200 -5.81900 26.61200
H  22.26000 -6.56500 24.92900
H  16.85000 -2.12700 22.70900
H  16.58700 0.67100 23.32000
H  19.47400 -1.14400 22.97600
H  18.40900 0.11700 22.24400
H  18.64300 -1.47500 21.50400
H  13.98100 -0.18100 23.53300
H  14.65000 -1.52500 22.65500
H  15.67300 0.70700 21.33900
H  13.99300 1.10900 21.45100
H  14.49500 -0.59600 20.82000
H  12.35700 2.28400 26.88300
H  13.65400 3.10100 26.02200
H  13.18600 3.84800 27.39400
H  14.63800 1.00700 31.97800
H  15.99600 4.39300 34.10100
H  17.32100 3.10300 34.29700
H  15.84900 3.00300 35.33300
Mg -10.33000 17.45200 41.58700
C  -6.75800 17.43100 41.63800
C  -9.94700 20.84500 40.83900
C  -13.50000 17.43000 40.61500
C  -10.25300 13.99600 41.80200
N  -8.55200 18.83700 41.18700
C  -7.23700 18.60900 41.17200
C  -6.37900 19.79900 40.80500
C  -7.47000 20.89800 41.04500
C  -8.77500 20.12200 41.08600
C  -7.25900 21.80700 42.29200
C  -5.92900 19.54000 39.33500
C  -4.48800 19.05600 39.04900
H  -4.33800 17.57000 38.60300
N  -11.56000 18.92600 40.81800
C  -11.21300 20.23400 40.68000
C  -12.44300 21.00300 40.39400
C  -13.45300 20.06000 40.14100
C  -12.87600 18.70500 40.49300
C  -12.50600 22.54900 40.16200
C  -14.82000 20.43400 39.65000
O  -15.10900 21.59400 39.36300
C  -15.88600 19.39000 39.63400
N  -11.73200 15.91200 41.21600
C  -12.97400 16.19800 40.83000
C  -13.70300 14.85700 40.53700
C  -12.72000 13.74700 41.03500
C  -11.49200 14.57600 41.37100
C  -15.16600 14.81400 41.02300
C  -12.48700 12.55100 40.06700
C  -13.26000 11.28300 40.34200
N  -8.88800 16.00100 41.93300
C  -9.03200 14.64900 42.04900
C  -7.78500 14.06000 42.29600
C  -6.85200 15.16800 42.27200
C  -7.58700 16.29200 41.95100
C  -7.43000 12.66200 42.49400
C  -5.48600 15.49100 42.40500
O  -4.49400 14.73000 42.55100
C  -5.37400 17.00100 42.09200
C  -4.92900 17.79000 43.29600
O  -5.63100 18.47200 44.07800
O  -3.54300 17.84000 43.30200
C  -2.94700 18.58700 44.43000
H  -9.86000 21.91800 40.65700
H  -14.53100 17.58900 40.29000
H  -10.14700 12.91200 41.87700
H  -5.56300 19.90700 41.51900
H  -7.47000 21.54900 40.17100
H  -8.13400 21.94000 42.92800
H  -6.94700 22.79700 41.96200
H  -6.45500 21.42600 42.92200
H  -6.15100 20.45000 38.77700
H  -6.62600 18.79200 38.95800
H  -3.94000 19.24900 39.97200
H  -4.07800 19.74900 38.31400
H  -13.50600 22.93100 40.36600
H  -12.40200 22.72900 39.09200
H  -11.81400 23.19200 40.70600
H  -16.75100 19.90500 39.21700
H  -16.00000 18.88800 40.59500
H  -15.57000 18.62300 38.92700
H  -13.71400 14.83900 39.44800
H  -13.08400 13.32600 41.97200
H  -15.71900 14.58300 40.11300
H  -15.55000 15.74100 41.44900
H  -15.23600 13.99200 41.73600
H  -11.42900 12.30200 40.14400
H  -12.65700 13.00000 39.08800
H  -12.81900 11.00900 41.30000
H  -13.02900 10.56800 39.55200
H  -14.33100 11.46900 40.42400
H  -7.01600 12.28300 41.56000
H  -8.28900 12.04800 42.76400
H  -6.74000 12.47200 43.31600
H  -4.66200 17.19700 41.29000
H  -1.86100 18.58000 44.33700
H  -3.25700 18.15100 45.37900
H  -3.21900 19.63100 44.27400

