158

Mg 0.83000 8.48100 26.07600
C  1.52200 10.27600 29.10300
C  1.49800 5.56200 27.89200
C  0.59400 6.75000 23.30000
C  1.23700 11.45500 24.36100
N  1.56400 8.04100 28.25200
C  1.44900 8.90200 29.29700
C  1.30000 8.21500 30.61100
C  1.59400 6.72800 30.24200
C  1.58800 6.75800 28.68500
C  2.96400 6.29600 30.80500
C  -0.06700 8.54500 31.28300
C  -0.02800 8.67600 32.81200
H  1.14600 8.02400 33.57600
N  0.94800 6.49100 25.66900
C  1.18800 5.43400 26.54500
C  1.18400 4.21000 25.79900
C  0.69400 4.55000 24.49500
C  0.74800 5.99400 24.42300
C  1.63000 2.89700 26.39500
C  0.23000 3.68700 23.31400
O  -0.00800 4.06000 22.20600
C  0.12600 2.29500 23.50400
N  0.71700 9.02800 24.18600
C  0.64400 8.13900 23.18800
C  0.69400 8.80400 21.75900
C  0.45600 10.31600 22.18400
C  0.91500 10.32100 23.64400
C  2.05900 8.46700 21.07300
C  -1.01300 10.70700 22.06600
C  -1.41000 11.68100 20.92700
N  1.29200 10.45900 26.57300
C  1.32400 11.59200 25.73100
C  1.63800 12.75300 26.55200
C  1.67400 12.28300 27.91700
C  1.45800 10.92000 27.80500
C  1.88500 14.13100 26.08900
C  1.85000 12.73400 29.25900
O  2.07000 13.80900 29.78300
C  1.66000 11.48800 30.12300
C  2.73700 11.26800 31.13300
O  3.85800 10.78800 30.92200
O  2.38300 11.80200 32.41600
C  3.35100 11.75100 33.51900
H  1.62400 4.69700 28.54700
H  0.59200 6.28800 22.31100
H  1.39800 12.32600 23.72200
H  2.10500 8.58900 31.24300
H  0.79000 6.16000 30.70900
H  2.67100 5.38900 31.33400
H  3.31500 6.95400 31.59900
H  3.67600 5.98100 30.04200
H  -0.68300 7.69500 30.99200
H  -0.55800 9.44100 30.90300
H  -0.93100 8.16400 33.14400
H  -0.12100 9.70700 33.15500
H  1.12000 2.02300 25.99000
H  1.48300 2.79300 27.47000
H  2.69600 2.83600 26.17700
H  -0.19600 1.82600 22.57400
H  -0.58700 2.02800 24.28300
H  1.14600 2.00400 23.75600
H  -0.05500 8.38900 21.08600
H  1.01500 10.89600 21.45000
H  2.36600 7.46100 21.36000
H  2.86000 9.15100 21.35400
H  1.87300 8.32700 20.00800
H  -1.33400 11.27100 22.94200
H  -1.69100 9.85600 22.13700
H  -0.53600 11.63100 20.27700
H  -1.63100 12.68300 21.29400
H  -2.29800 11.35700 20.38500
H  2.14300 14.76000 26.94100
H  0.91000 14.50800 25.78400
H  2.49300 14.06200 25.18700
H  0.78600 11.48200 30.77500
H  3.49600 12.70400 34.02700
H  4.33400 11.37100 33.24300
H  2.88500 11.07200 34.23300
Mg 10.44600 47.41300 26.53700
C  8.31600 47.66900 29.57400
C  12.99000 48.59100 28.50600
C  12.29200 47.75500 23.73500
C  7.53200 46.88600 24.60800
N  10.59000 47.91800 28.80400
C  9.66300 47.86500 29.81700
C  10.44400 48.16700 31.21900
C  11.78300 48.78700 30.77400
C  11.82500 48.37200 29.25800
C  11.93600 50.28500 30.87200
C  10.64900 46.95800 32.22300
C  10.35400 47.41800 33.60600
H  10.48900 46.35800 34.80200
N  12.36900 47.87900 26.16100
C  13.26900 48.34800 27.10200
C  14.60400 48.39200 26.56100
C  14.43900 48.04700 25.20800
C  13.00000 47.91100 24.96900
C  15.73500 48.82200 27.43500
C  15.51500 47.96100 24.10600
O  15.19100 47.78100 22.90800
C  17.01300 48.11300 24.32400
N  10.00400 47.37800 24.53500
C  10.92800 47.51900 23.58300
C  10.38500 47.26300 22.17700
C  8.91000 46.80400 22.43300
C  8.75200 47.01900 23.95200
C  10.48700 48.54700 21.30500
C  8.59800 45.34100 22.04800
C  9.57800 44.27100 22.60800
N  8.27700 47.30700 26.92500
C  7.25400 47.06500 26.02200
C  6.02700 47.09400 26.78500
C  6.34700 47.28400 28.18500
C  7.75700 47.43800 28.21300
C  4.66200 46.79400 26.18200
C  5.80100 47.34600 29.60400
O  4.67500 47.23300 30.03500
C  7.14100 47.57000 30.49100
C  7.24900 46.33100 31.31200
O  7.78300 45.27600 30.93500
O  6.64900 46.48600 32.52400
C  6.67300 45.28900 33.41700
H  13.76600 48.94300 29.18900
H  12.74100 47.67100 22.74300
H  6.68700 46.74900 23.92900
H  9.75000 48.85400 31.70400
H  12.67600 48.36500 31.23300
H  11.22000 50.78300 31.52600
H  11.81200 50.76600 29.90100
H  12.95700 50.47300 31.20200
H  11.71000 46.70700 32.21600
H  9.96400 46.17100 31.90700
H  9.31300 47.73700 33.55100
H  10.98400 48.25600 33.90600
H  15.90200 48.01400 28.14800
H  15.52000 49.74900 27.96600
H  16.67300 48.89400 26.88400
H  17.21300 48.90100 25.05000
H  17.52700 48.46400 23.42800
H  17.53300 47.21500 24.65600
H  10.86700 46.42000 21.68200
H  8.22300 47.53000 21.99900
H  10.67700 49.40800 21.94600
H  9.67600 48.64100 20.58300
H  11.44000 48.27300 20.85100
H  8.67900 45.25000 20.96500
H  7.56400 45.05300 22.24100
H  9.09100 43.56700 23.28300
H  10.34900 44.74500 23.21600
H  10.03700 43.61000 21.87300
H  4.82600 46.32800 25.21000
H  4.01500 47.63400 25.93200
H  4.22600 46.18400 26.97300
H  7.08400 48.46900 31.10400
H  5.68700 44.84900 33.26800
H  6.89900 45.42300 34.47400
H  7.38500 44.53400 33.08500

