158

Mg 48.71700 35.83900 28.70100
C  46.51100 34.08800 30.81400
C  48.48100 38.55700 30.83500
C  50.60500 37.69400 26.62900
C  48.28500 33.38600 26.22100
N  47.76500 36.20700 30.66300
C  47.00300 35.27200 31.37900
C  46.49300 35.87200 32.73600
C  46.94500 37.36700 32.59800
C  47.68300 37.42100 31.25200
C  45.72300 38.35900 32.53400
C  47.07100 35.19600 33.98900
C  48.59800 34.81200 34.16300
H  49.64900 35.81800 34.52000
N  49.57500 37.79800 28.78000
C  49.43400 38.66800 29.80000
C  50.24200 39.84600 29.61400
C  50.80500 39.69500 28.31200
C  50.38500 38.35700 27.82600
C  50.33800 40.88000 30.66000
C  51.63000 40.74100 27.52500
O  52.07500 40.50500 26.43000
C  51.97500 42.10900 28.13500
N  49.18500 35.62900 26.68000
C  50.08400 36.46600 26.08400
C  50.43400 36.03100 24.64600
C  49.99000 34.50000 24.69300
C  49.04100 34.50000 25.87300
C  49.70400 36.79400 23.49200
C  51.15000 33.40800 24.80900
C  51.05400 32.20700 23.98100
N  47.61100 34.12200 28.44300
C  47.48400 33.25500 27.36500
C  46.40200 32.25400 27.69500
C  46.09200 32.57600 29.03900
C  46.81200 33.67000 29.48300
C  45.86800 31.18200 26.89500
C  45.25700 32.07200 30.12400
O  44.50000 31.14700 30.08600
C  45.36200 33.16500 31.22400
C  45.65800 32.48200 32.51500
O  46.69000 31.84200 32.69800
O  44.61100 32.57400 33.31300
C  44.58000 31.96000 34.63500
H  48.46500 39.38900 31.54200
H  51.32400 38.26800 26.04100
H  48.11500 32.54100 25.55000
H  45.42400 35.66400 32.68700
H  47.63100 37.66100 33.39200
H  45.70400 38.97800 33.43100
H  44.83600 37.72900 32.46000
H  45.63800 38.87300 31.57700
H  46.41500 34.35200 34.19800
H  46.84300 35.83800 34.84000
H  48.92400 34.36000 33.22600
H  48.70600 34.03200 34.91600
H  50.21500 40.37000 31.61600
H  49.45000 41.50600 30.57500
H  51.32100 41.35200 30.66000
H  51.03900 42.65400 28.25600
H  52.57600 42.65900 27.41100
H  52.45600 42.00300 29.10700
H  51.51500 35.94000 24.53300
H  49.27000 34.28500 23.90200
H  49.51000 37.79000 23.88700
H  48.76500 36.34400 23.16800
H  50.41500 37.03300 22.70100
H  51.25800 32.89600 25.76500
H  52.13100 33.79900 24.53700
H  50.54500 32.44400 23.04700
H  50.53000 31.37000 24.44200
H  52.09400 31.98500 23.74000
H  45.21000 30.59700 27.53800
H  46.67000 30.49000 26.63800
H  45.24900 31.53600 26.07000
H  44.37100 33.61700 31.16900
H  44.65600 32.80300 35.32200
H  45.37200 31.22700 34.78600
H  43.62200 31.47500 34.82200
Mg -5.89500 24.90800 25.98000
C  -4.35000 26.32000 28.84400
C  -7.76200 22.93400 28.13300
C  -6.95500 23.36100 23.20000
C  -3.62700 26.66600 23.97900
N  -5.78500 24.49000 28.20900
C  -5.24000 25.28400 29.20100
C  -5.76000 24.85200 30.60900
C  -6.69600 23.60700 30.27600
C  -6.79800 23.72400 28.77400
C  -6.08000 22.14900 30.80400
C  -6.50800 26.05700 31.27900
C  -6.39100 26.17900 32.79400
H  -5.92500 24.95600 33.53600
N  -7.38600 23.56600 25.65700
C  -8.03100 22.85800 26.66700
C  -9.08200 22.07100 26.09200
C  -8.78400 22.03800 24.66500
C  -7.66200 22.97700 24.45600
C  -10.15700 21.50400 26.91100
C  -9.46300 21.30200 23.54100
O  -9.19800 21.49000 22.30100
C  -10.70800 20.41000 23.80600
N  -5.25700 24.82300 23.92300
C  -5.86600 24.21200 22.94300
C  -5.41000 24.59900 21.58600
C  -4.49600 25.81000 21.78000
C  -4.47900 25.76700 23.32900
C  -4.73300 23.41800 20.78400
C  -5.09100 27.09100 21.13200
C  -4.25700 27.57900 19.96600
N  -4.33900 26.27200 26.27500
C  -3.56800 26.89300 25.35100
C  -2.69600 27.84700 26.01500
C  -2.90600 27.57100 27.36800
C  -3.94500 26.61600 27.50300
C  -1.70900 28.87400 25.37000
C  -2.45400 27.86800 28.70000
O  -1.47900 28.49000 29.04700
C  -3.42500 27.12100 29.74200
C  -2.55200 26.37300 30.67100
O  -2.08800 25.27500 30.42500
O  -2.43700 26.97100 31.84700
C  -1.76500 26.21100 32.93400
H  -8.47900 22.43900 28.79100
H  -7.48100 22.97600 22.32400
H  -2.90300 27.10600 23.29000
H  -4.90100 24.50800 31.18500
H  -7.63700 23.64400 30.82500
H  -6.86600 21.75800 31.45000
H  -5.23900 22.21700 31.49400
H  -6.02800 21.46600 29.95600
H  -7.53000 25.99900 30.90400
H  -6.12700 26.96700 30.81500
H  -7.38400 26.42300 33.17300
H  -5.75600 27.05000 32.95400
H  -10.45500 22.19600 27.69900
H  -10.01200 20.57100 27.45400
H  -11.03200 21.25500 26.30900
H  -10.40500 19.62500 24.49900
H  -11.08400 20.05700 22.84600
H  -11.46000 20.97800 24.35300
H  -6.37600 24.83100 21.13700
H  -3.47400 25.61500 21.45400
H  -3.81900 23.64100 20.23400
H  -5.47900 23.06800 20.07000
H  -4.42400 22.60500 21.44200
H  -5.24200 27.81800 21.93000
H  -6.08900 26.95400 20.71600
H  -3.60600 26.76800 19.63800
H  -3.62600 28.40400 20.29600
H  -4.92900 27.88600 19.16500
H  -2.02700 29.87500 25.66000
H  -1.71300 28.68600 24.29600
H  -0.69600 28.64200 25.69800
H  -3.91900 27.89700 30.32700
H  -0.69200 26.30100 32.76600
H  -2.06400 25.18200 33.13300
H  -2.11400 26.67400 33.85700

