158

Mg 17.41600 -2.36300 27.57900
C  16.38100 -0.58800 30.28400
C  19.55700 -4.03900 29.79000
C  18.64700 -3.96800 24.93400
C  15.59100 -0.23500 25.48300
N  17.94800 -2.17200 29.79800
C  17.34700 -1.46700 30.67600
C  17.65500 -1.80600 32.16500
C  18.93100 -2.72600 31.92700
C  18.84600 -2.98500 30.39100
C  20.27300 -2.19800 32.56000
C  16.49700 -2.47900 32.98200
C  16.32000 -1.92800 34.46900
H  17.62700 -1.49900 35.19800
N  18.93500 -3.78400 27.36600
C  19.62700 -4.36600 28.43400
C  20.36000 -5.49000 27.88500
C  20.10600 -5.50900 26.45200
C  19.15300 -4.44300 26.19500
C  21.30200 -6.43100 28.73800
C  20.71700 -6.43200 25.42300
O  20.37400 -6.35000 24.24400
C  21.78400 -7.37000 25.73100
N  17.20200 -2.10300 25.49300
C  17.75100 -2.94000 24.61800
C  17.40900 -2.55000 23.18500
C  16.21700 -1.49100 23.38100
C  16.32500 -1.22800 24.88800
C  18.64700 -2.05700 22.47100
C  14.74100 -1.95500 23.07500
C  13.78300 -0.89800 22.45100
N  16.25100 -0.77500 27.76200
C  15.54100 -0.02700 26.86400
C  14.76500 0.92800 27.55600
C  15.10000 0.74700 28.87800
C  16.01700 -0.28300 28.98600
C  13.89900 2.00700 26.95700
C  14.73000 1.29400 30.23100
O  14.00800 2.19100 30.58700
C  15.58900 0.44200 31.17300
C  16.34800 1.40900 32.03100
O  17.39200 1.96200 31.76100
O  15.65700 1.65100 33.12700
C  16.01900 2.89400 33.88300
H  20.08700 -4.66400 30.51200
H  18.97000 -4.44500 24.00700
H  14.92000 0.41500 24.91800
H  17.90800 -0.88700 32.69400
H  18.68200 -3.72500 32.28700
H  20.18900 -1.19500 32.97800
H  21.03100 -2.07600 31.78600
H  20.62200 -2.92000 33.29800
H  16.50600 -3.56800 32.96500
H  15.61500 -2.09300 32.47100
H  15.69400 -2.72100 34.87900
H  15.70500 -1.03100 34.40200
H  21.63300 -6.09300 29.72000
H  22.25800 -6.61200 28.24700
H  20.84100 -7.41900 28.76500
H  21.91200 -8.01900 24.86400
H  21.46800 -7.99700 26.56400
H  22.73200 -6.92400 26.03100
H  17.06400 -3.34900 22.53000
H  16.51700 -0.55800 22.90400
H  18.59900 -2.37200 21.42900
H  19.62700 -2.25600 22.90400
H  18.61800 -0.97000 22.38400
H  14.22400 -2.21000 24.00000
H  14.57300 -2.79700 22.40300
H  14.27200 0.06800 22.32700
H  12.83500 -0.73000 22.96100
H  13.49500 -1.27600 21.47000
H  13.14300 1.50200 26.35600
H  14.58600 2.52500 26.28800
H  13.50800 2.63600 27.75700
H  14.91600 -0.13100 31.81100
H  16.85100 2.78600 34.57900
H  15.15300 3.30000 34.40600
H  16.24000 3.54200 33.03400
Mg 46.67800 24.39400 28.95100
C  47.24100 26.92100 31.40600
C  45.69800 22.36500 31.49100
C  46.65100 22.00500 26.67800
C  48.18300 26.56500 26.54100
N  46.51400 24.63100 31.23700
C  46.64600 25.77100 31.96600
C  46.12200 25.56400 33.42000
C  45.86000 24.01900 33.41600
C  45.97600 23.59900 31.95700
C  46.88000 23.15400 34.21800
C  44.97500 26.57800 33.85900
C  45.27700 27.20800 35.22400
H  44.31200 27.13300 36.36900
N  45.98300 22.49300 29.05900
C  45.60600 21.85100 30.17600
C  45.08900 20.60000 29.69900
C  45.41300 20.38000 28.37900
C  46.02700 21.64700 27.94600
C  44.44000 19.64400 30.55600
C  45.22800 19.25500 27.44400
O  45.55000 19.31600 26.20800
C  44.76400 17.97000 28.03400
N  47.48300 24.28600 26.96200
C  47.20100 23.21900 26.15800
C  47.59700 23.38100 24.67200
C  47.75900 24.93800 24.65600
C  47.78500 25.32000 26.12700
C  48.93400 22.63500 24.43400
C  46.60300 25.64900 23.97800
C  46.72100 26.17300 22.51200
N  47.57700 26.25600 28.91800
C  48.19900 27.00600 27.86700
C  48.63800 28.23500 28.44300
C  48.37100 28.21700 29.77700
C  47.67100 27.04300 30.05000
C  49.16100 29.35400 27.66100
C  48.50700 28.96200 31.03600
O  49.12400 29.94300 31.35000
C  47.85600 28.09700 32.16000
C  48.94300 27.62900 33.17100
O  49.88900 26.92500 32.88500
O  48.58900 28.16500 34.36600
C  49.35300 27.77400 35.54300
H  45.39700 21.67200 32.28000
H  46.58100 21.30700 25.84100
H  48.30500 27.27300 25.71900
H  47.04900 25.75000 33.96300
H  44.85600 23.86400 33.81100
H  47.55200 22.53000 33.62900
H  46.27700 22.51200 34.86000
H  47.37300 23.82500 34.92200
H  44.02000 26.05600 33.92300
H  45.05900 27.39300 33.13900
H  45.84700 28.13400 35.14500
H  46.00100 26.55600 35.71100
H  45.01000 18.71900 30.47000
H  43.40800 19.46300 30.25500
H  44.48300 19.88500 31.61800
H  45.46000 17.62100 28.79700
H  44.84100 17.23700 27.23000
H  43.75000 18.03900 28.42800
H  46.73900 23.02900 24.09900
H  48.70400 25.23300 24.20000
H  49.13300 21.80000 25.10500
H  49.83700 23.24200 24.49600
H  48.87900 22.34400 23.38500
H  46.28600 26.45300 24.64200
H  45.78000 24.93400 23.99800
H  47.71600 25.87300 22.18400
H  46.71000 27.25100 22.35100
H  45.93100 25.73000 21.90500
H  48.40500 30.02700 27.25600
H  49.67200 28.98500 26.77200
H  49.83300 29.83300 28.37300
H  47.08400 28.77500 32.52400
H  49.89700 28.61400 35.97500
H  50.01600 26.95300 35.27100
H  48.69700 27.60100 36.39700

