158

Mg 48.26200 16.60400 28.33200
C  46.10100 16.57300 31.19900
C  50.44300 18.62400 30.14300
C  50.11300 16.78100 25.52400
C  45.68700 15.09900 26.59000
N  48.24900 17.52900 30.42100
C  47.36400 17.21700 31.45400
C  47.89200 17.67300 32.81200
C  49.13200 18.58100 32.37600
C  49.31100 18.17400 30.88900
C  48.97700 20.15200 32.56400
C  48.46900 16.46700 33.62000
C  48.03000 16.36400 35.10800
H  47.57000 17.65200 35.80000
N  50.10800 17.58100 27.87500
C  50.86400 18.35700 28.78400
C  52.05700 18.73400 28.07700
C  51.99400 18.16500 26.75100
C  50.67900 17.53300 26.61400
C  53.09000 19.44100 28.76900
C  53.08100 18.14000 25.63700
O  52.87400 17.63400 24.53400
C  54.44700 18.61000 25.99600
N  47.91700 16.10700 26.34700
C  48.92000 16.10400 25.46400
C  48.52100 15.44400 24.14000
C  47.06000 15.03100 24.37300
C  46.85500 15.40800 25.87000
C  48.49700 16.55300 23.04400
C  46.68700 13.51700 23.92900
C  45.47000 13.43900 22.95500
N  46.36600 15.90000 28.77200
C  45.39300 15.29100 27.98900
C  44.20200 15.00700 28.68700
C  44.44300 15.44000 29.98800
C  45.73100 15.98900 29.99900
C  43.01400 14.30500 28.05200
C  43.95600 15.51300 31.32900
O  42.93300 15.05700 31.74900
C  45.04200 16.36100 32.23200
C  44.46400 17.61500 32.85700
O  44.43800 18.70000 32.28500
O  43.99400 17.27100 34.02800
C  42.71600 17.80700 34.50400
H  51.19000 19.13400 30.75400
H  50.77100 16.66400 24.66000
H  44.99600 14.48800 26.00600
H  47.11500 18.20600 33.36000
H  50.11600 18.41700 32.81500
H  49.68900 20.68200 33.19500
H  47.99400 20.37200 32.98000
H  48.99300 20.61700 31.57800
H  49.55600 16.51000 33.55700
H  48.01800 15.55100 33.23900
H  48.91100 16.10300 35.69400
H  47.28200 15.57100 35.08800
H  53.97400 18.82000 28.91300
H  52.85100 19.92500 29.71700
H  53.42600 20.14900 28.01200
H  54.45600 19.69900 26.04000
H  55.01200 18.45600 25.07700
H  54.92700 18.17800 26.87500
H  49.17000 14.58000 23.99200
H  46.32700 15.63600 23.83900
H  48.89300 17.54300 23.27000
H  47.53600 16.66200 22.54200
H  49.12400 16.08600 22.28500
H  46.43200 12.91200 24.79900
H  47.56700 13.05000 23.48700
H  45.80000 13.52500 21.92000
H  44.72100 14.19300 23.20000
H  45.02100 12.44700 22.99200
H  43.55100 13.40200 27.76200
H  42.74200 14.75000 27.09500
H  42.15400 14.17400 28.70800
H  45.38600 15.72200 33.04600
H  42.94200 18.49800 35.31500
H  42.03400 17.03400 34.85900
H  42.16100 18.29100 33.70100
Mg 27.18500 50.28500 25.67000
C  25.49000 51.79400 28.27700
C  29.50500 49.29500 27.87000
C  28.78800 48.86700 23.10900
C  24.82000 51.78000 23.41600
N  27.49500 50.61700 27.81900
C  26.63400 51.09500 28.68200
C  26.97800 50.77000 30.18000
C  28.49000 50.37900 30.01900
C  28.49500 50.05500 28.47000
C  29.44100 51.54000 30.41700
C  26.14900 49.64300 30.79700
C  25.50200 50.04800 32.08400
H  26.44000 50.49400 33.22000
N  28.88600 49.23700 25.54900
C  29.73100 48.91000 26.58200
C  30.86500 48.06700 26.09300
C  30.53600 47.84700 24.68600
C  29.37900 48.67900 24.37500
C  32.01800 47.55400 26.84100
C  31.22900 46.98500 23.66600
O  30.89200 46.79200 22.52200
C  32.32100 46.08400 24.11800
N  26.91600 50.46200 23.61300
C  27.71100 49.73200 22.73800
C  27.24200 49.80600 21.31500
C  25.82800 50.49500 21.43500
C  25.86000 50.99900 22.91200
C  28.21900 50.55300 20.40900
C  24.63000 49.61100 21.09800
C  23.68800 50.15900 20.08600
N  25.55400 51.56600 25.75600
C  24.67600 52.06600 24.80100
C  23.68200 52.83600 25.42800
C  23.86900 52.63000 26.77700
C  25.06800 51.97500 26.95100
C  22.60800 53.48800 24.73200
C  23.28200 52.92400 28.04700
O  22.27000 53.51300 28.34300
C  24.29500 52.42000 29.12300
C  24.72900 53.56200 30.01700
O  25.47200 54.47200 29.79500
O  24.14500 53.37600 31.28100
C  24.55200 54.26700 32.32400
H  30.27300 48.93400 28.55800
H  29.14300 48.40300 22.18600
H  24.00900 52.28000 22.88100
H  26.78100 51.73600 30.64300
H  28.84000 49.45200 30.47400
H  28.89400 52.40600 30.79000
H  29.98900 51.84400 29.52500
H  30.23300 51.19700 31.08200
H  26.83100 48.80300 30.93500
H  25.44600 49.27600 30.05000
H  24.78300 49.28000 32.37100
H  24.87300 50.90300 31.83600
H  32.04400 48.10200 27.78300
H  32.94500 47.82600 26.33600
H  31.79500 46.49400 26.96500
H  32.64200 45.44100 23.29900
H  31.75600 45.44100 24.79300
H  33.22300 46.46600 24.59800
H  27.01700 48.87700 20.79100
H  25.78200 51.38800 20.81100
H  27.72800 50.98700 19.53800
H  28.88200 49.77100 20.04000
H  28.88300 51.22300 20.95500
H  24.07100 49.39500 22.00800
H  24.96700 48.62300 20.78200
H  24.06600 49.82800 19.11900
H  23.66400 51.24800 20.09500
H  22.70500 49.77700 20.36200
H  21.65200 53.00900 24.94200
H  22.80300 53.76300 23.69600
H  22.40800 54.46600 25.17000
H  23.72500 51.67100 29.67200
H  23.80700 54.48900 33.08800
H  24.83300 55.25300 31.95400
H  25.38900 53.87500 32.90200

