158

Mg 48.73800 35.68000 27.30500
C  46.57200 34.24500 29.77500
C  48.90000 38.53300 29.31800
C  50.27400 37.15700 24.91800
C  47.93300 32.97000 25.23400
N  47.94400 36.19000 29.36800
C  47.11100 35.48300 30.18900
C  46.99100 36.31300 31.53000
C  47.53400 37.71900 31.24200
C  48.19300 37.47900 29.90700
C  46.51000 38.82500 31.21100
C  47.54800 35.54500 32.73600
C  46.59700 35.44100 33.90900
H  46.64000 36.61600 34.92900
N  49.60700 37.55600 27.16400
C  49.52800 38.60800 28.07300
C  50.17900 39.72100 27.53600
C  50.61600 39.34600 26.19100
C  50.15900 37.91600 26.02900
C  50.47100 40.99700 28.32800
C  51.33300 40.12400 25.10500
O  51.74200 39.69500 24.02600
C  51.61000 41.53100 25.30400
N  49.09500 35.11100 25.35100
C  49.86300 35.88600 24.56300
C  50.05500 35.23800 23.12500
C  49.53300 33.75700 23.43700
C  48.83000 33.90100 24.79200
C  49.21400 35.98500 22.10500
C  50.75000 32.75600 23.40300
C  51.27000 32.63000 21.98800
N  47.56700 33.97300 27.41000
C  47.29500 32.96100 26.45600
C  46.28200 32.05000 26.91600
C  45.94900 32.52700 28.21700
C  46.77600 33.66500 28.44800
C  45.77900 30.86300 26.14300
C  45.13200 32.29000 29.37200
O  44.30500 31.46100 29.67400
C  45.53100 33.34500 30.44300
C  46.09000 32.60100 31.51600
O  47.17400 32.08000 31.58400
O  45.18600 32.55400 32.50500
C  45.53900 32.01700 33.84300
H  48.95400 39.42700 29.94200
H  50.80800 37.60400 24.07700
H  47.70600 32.12800 24.57700
H  45.90600 36.29800 31.62500
H  48.32100 38.00600 31.93900
H  46.57000 39.40600 30.29100
H  46.88700 39.51700 31.96400
H  45.49700 38.55900 31.51100
H  48.37500 36.16600 33.07900
H  47.89200 34.55200 32.44800
H  46.80600 34.57600 34.53900
H  45.55900 35.34400 33.59300
H  50.22200 40.86100 29.38000
H  50.01400 41.85300 27.83300
H  51.53200 41.17200 28.14900
H  52.04900 42.03100 24.44000
H  52.37800 41.69700 26.05800
H  50.77500 42.18500 25.55600
H  51.08800 35.21800 22.77900
H  48.82700 33.36100 22.70700
H  49.62700 36.10600 21.10400
H  49.10700 36.96600 22.56800
H  48.28700 35.42100 21.99700
H  50.40600 31.77900 23.74300
H  51.58000 33.02200 24.05700
H  50.70400 33.16100 21.22200
H  51.15700 31.60800 21.62700
H  52.30900 32.95800 21.95100
H  44.82300 30.41400 26.41100
H  46.46600 30.01700 26.15700
H  45.68600 31.09400 25.08100
H  44.56900 33.78400 30.70800
H  45.72100 32.73000 34.64700
H  46.41000 31.36400 33.78200
H  44.62800 31.52700 34.18800
Mg 9.56400 47.64000 25.92400
C  7.80700 47.65800 28.89000
C  12.27100 49.01100 27.63500
C  11.28900 47.61000 22.99600
C  6.63500 46.68900 24.20400
N  9.92700 48.38400 27.96100
C  9.07200 48.22000 29.00400
C  9.87200 48.52100 30.30900
C  11.07600 49.37800 29.81400
C  11.13200 48.90700 28.38100
C  10.78400 50.93800 29.77000
C  10.33800 47.30600 31.12900
C  10.62400 47.56000 32.65700
H  10.39900 46.40300 33.52400
N  11.54300 48.19900 25.37900
C  12.50200 48.71900 26.26500
C  13.73300 48.67200 25.54300
C  13.50800 48.30800 24.19200
C  12.01600 48.07100 24.16000
C  15.04500 49.00800 26.22700
C  14.37100 48.17300 23.01000
O  13.99900 47.75100 21.89100
C  15.89200 48.44600 23.12500
N  8.94100 47.36300 23.89800
C  9.88900 47.33200 22.90400
C  9.20500 46.90000 21.55800
C  7.89300 46.27100 21.93700
C  7.77800 46.82500 23.36200
C  9.10100 48.10800 20.59200
C  7.94500 44.69000 21.71500
C  8.57100 43.83800 22.83200
N  7.57600 47.32900 26.40400
C  6.48300 46.96100 25.60600
C  5.33100 46.78400 26.40100
C  5.81500 46.99600 27.72200
C  7.18800 47.34300 27.63000
C  3.94100 46.60200 25.87700
C  5.42000 46.93000 29.13700
O  4.36300 46.66600 29.71600
C  6.76100 47.33500 29.96700
C  6.95400 46.13900 30.82000
O  7.30500 45.04600 30.35400
O  6.54000 46.42200 32.06700
C  6.86200 45.42000 33.05300
H  13.14300 49.41200 28.15400
H  11.69500 47.59200 21.98300
H  5.79800 46.14600 23.76000
H  9.23800 49.19100 30.89000
H  11.97900 49.07500 30.34500
H  11.17300 51.34500 30.70300
H  9.71300 51.10500 29.65500
H  11.34100 51.29700 28.90400
H  11.27300 47.09400 30.61000
H  9.70500 46.42200 31.05600
H  10.05000 48.43000 32.97700
H  11.62800 47.98400 32.64300
H  15.04300 48.78600 27.29400
H  15.21300 50.08500 26.23200
H  15.90600 48.52000 25.77000
H  16.24400 47.66400 23.79800
H  16.21800 49.33900 23.65800
H  16.42000 48.30300 22.18200
H  9.95100 46.19900 21.18100
H  7.09500 46.61600 21.28000
H  8.07100 48.23900 20.26000
H  9.67800 48.09400 19.66800
H  9.41900 48.97100 21.17900
H  8.45000 44.47600 20.77300
H  6.90100 44.41600 21.55900
H  9.03900 44.47700 23.58100
H  9.31200 43.19200 22.36000
H  7.80500 43.20200 23.27500
H  3.44300 47.53500 26.14200
H  3.43500 45.73600 26.30400
H  3.83500 46.51900 24.79600
H  6.53400 48.21900 30.56300
H  6.84400 45.87300 34.04500
H  7.81100 44.89900 32.92400
H  6.04700 44.69900 33.11100

