158

Mg 0.18700 42.87800 26.74300
C  2.39700 42.92700 29.45200
C  -2.32800 42.26800 29.01500
C  -1.87800 42.38900 24.12900
C  2.86300 43.15200 24.56600
N  0.02800 42.58100 29.00800
C  1.09300 42.74600 29.84400
C  0.63600 42.74700 31.27000
C  -0.88400 42.29700 31.20300
C  -1.09000 42.37100 29.66300
C  -1.07600 40.79600 31.61600
C  0.69900 44.20900 31.94500
C  1.08900 44.34200 33.38400
H  0.94300 43.19900 34.33500
N  -1.86600 42.28100 26.58100
C  -2.74800 42.28600 27.69200
C  -4.12400 42.11300 27.15300
C  -3.95700 42.14700 25.70900
C  -2.51300 42.27700 25.38400
C  -5.23200 41.87300 28.11600
C  -5.01500 42.04300 24.60400
O  -4.83600 42.05600 23.37700
C  -6.46700 41.95900 25.06200
N  0.43000 42.74900 24.66000
C  -0.54500 42.54500 23.78100
C  -0.04400 42.47000 22.23400
C  1.35700 43.27600 22.47600
C  1.59500 43.06200 24.00700
C  -0.01400 41.09200 21.59100
C  1.21800 44.78500 22.06300
C  1.27400 45.92500 23.12700
N  2.19200 43.03000 26.89900
C  3.18400 43.11700 25.93200
C  4.47500 43.14800 26.55800
C  4.22200 43.09500 27.93200
C  2.83500 42.98100 28.13000
C  5.86300 43.29700 25.84300
C  4.87800 43.03700 29.22100
O  6.04400 42.98200 29.62400
C  3.59800 43.00700 30.23600
C  3.85900 41.86100 31.12100
O  3.79900 40.70000 30.75700
O  4.12600 42.30500 32.41800
C  4.63200 41.34800 33.43100
H  -3.13800 42.33100 29.74500
H  -2.58200 42.32500 23.29700
H  3.67400 43.35400 23.86200
H  1.20300 42.04800 31.88500
H  -1.51300 42.96000 31.79600
H  -1.40700 40.24800 30.73500
H  -1.87800 40.74700 32.35200
H  -0.26300 40.25600 32.10200
H  -0.20100 44.74300 31.64000
H  1.46900 44.78200 31.42900
H  0.42800 45.10400 33.79800
H  2.13200 44.64600 33.48100
H  -4.97000 40.91800 28.57000
H  -6.20400 41.68000 27.66300
H  -5.36200 42.52700 28.97800
H  -6.39600 41.09900 25.72800
H  -7.25700 41.76300 24.33700
H  -6.70500 42.75900 25.76200
H  -0.74600 43.05600 21.64100
H  2.17600 42.90400 21.86000
H  -0.41300 40.30200 22.22700
H  1.01600 40.81200 21.37300
H  -0.50400 41.03700 20.61800
H  0.42200 44.94100 21.33400
H  2.09300 44.99700 21.44800
H  0.39700 46.54100 22.92800
H  2.15300 46.55200 22.98200
H  1.11100 45.48600 24.11100
H  5.73300 42.87000 24.84800
H  6.55800 42.73300 26.46500
H  6.22000 44.32100 25.72900
H  3.56000 43.91200 30.84200
H  5.21100 40.56900 32.93400
H  3.83000 40.86300 33.98700
H  5.31000 41.91800 34.06700
Mg -10.61300 16.87600 41.09300
C  -7.97600 14.55400 40.97700
C  -8.77700 18.95500 39.09600
C  -13.33000 18.62200 40.50000
C  -12.60400 14.23000 42.40600
N  -8.62000 16.76600 40.29200
C  -7.69400 15.78700 40.39500
C  -6.44900 16.16400 39.50100
C  -6.64000 17.63000 39.28600
C  -8.09200 17.85300 39.61900
C  -5.71700 18.52100 40.18400
C  -6.34900 15.42700 38.16600
C  -5.34600 14.22800 38.11800
H  -4.19500 14.09400 37.00300
N  -10.93500 18.62400 40.07100
C  -10.05200 19.35500 39.36800
C  -10.70500 20.54000 38.88800
C  -12.07900 20.47300 39.33500
C  -12.14800 19.20800 40.05000
C  -9.99100 21.67900 38.22000
C  -13.18600 21.63900 39.03600
O  -12.86100 22.62800 38.36700
C  -14.62600 21.46800 39.47900
N  -12.67300 16.52100 41.47300
C  -13.61000 17.43100 41.17600
C  -15.11600 16.93800 41.61900
C  -14.77100 15.56900 42.37500
C  -13.30200 15.39400 41.99400
C  -15.89700 17.93400 42.59900
C  -15.67700 14.40100 41.99200
C  -16.80100 13.92900 43.01500
N  -10.38900 14.87400 41.85300
C  -11.23100 13.91900 42.31400
C  -10.56600 12.76300 42.64600
C  -9.27400 12.98800 42.20100
C  -9.23600 14.30300 41.63300
C  -11.03900 11.52300 43.24000
C  -7.90500 12.41000 42.11000
O  -7.42900 11.30300 42.44800
C  -7.04300 13.35900 41.32600
C  -5.84000 13.74300 42.16500
O  -5.89300 13.91400 43.37800
O  -4.66000 13.94300 41.39700
C  -3.61400 14.71900 42.13000
H  -8.08700 19.63100 38.58600
H  -14.27600 19.08300 40.20800
H  -13.20300 13.48100 42.92800
H  -5.63900 15.84100 40.15600
H  -6.40500 17.87700 38.25100
H  -6.36300 19.02200 40.90400
H  -5.13600 19.18800 39.54600
H  -5.03200 17.93400 40.79600
H  -6.14000 16.05800 37.30200
H  -7.33200 15.02900 37.91900
H  -5.91200 13.29800 38.06400
H  -4.84700 14.17200 39.08500
H  -9.60400 21.36700 37.25100
H  -9.15600 21.97000 38.85700
H  -10.61100 22.57500 38.18300
H  -15.10200 22.44700 39.53000
H  -14.59500 21.13900 40.51700
H  -15.20800 20.85500 38.79100
H  -15.72100 16.85800 40.71600
H  -14.75900 15.65600 43.46100
H  -16.41700 17.32400 43.33800
H  -16.69300 18.35600 41.98500
H  -15.28200 18.76500 42.94400
H  -15.07900 13.53100 41.72000
H  -16.28500 14.64600 41.12200
H  -16.91400 14.59900 43.86700
H  -16.59900 12.89700 43.30000
H  -17.75800 13.89500 42.49300
H  -10.18000 10.97600 43.63000
H  -11.51000 10.91400 42.46800
H  -11.75700 11.88000 43.97800
H  -6.79800 12.70600 40.48900
H  -3.32000 14.21200 43.04900
H  -3.99000 15.74100 42.09200
H  -2.80600 14.66600 41.40000

