158

Mg 35.91900 1.01100 29.61400
C  33.57500 2.06000 31.93300
C  38.30400 0.95300 32.12000
C  38.13700 -0.05200 27.29800
C  33.52400 1.38400 27.21500
N  35.99400 1.44100 31.80400
C  34.87100 1.75400 32.51500
C  35.18400 1.78400 33.98200
C  36.80100 1.93500 33.96200
C  37.11700 1.43700 32.54100
C  37.31900 3.43900 34.16900
C  34.48100 0.52900 34.63100
C  34.15300 0.81100 36.18100
H  34.99700 1.83600 36.92200
N  37.93200 0.45600 29.71100
C  38.73200 0.45300 30.82900
C  39.93800 -0.24600 30.53300
C  39.97200 -0.42700 29.13500
C  38.64000 0.05200 28.62400
C  41.02100 -0.49200 31.58000
C  41.10100 -0.93200 28.26300
O  41.15200 -0.90200 27.00400
C  42.36800 -1.51100 28.95800
N  35.89300 0.90300 27.54300
C  36.88500 0.36300 26.80800
C  36.52200 0.11400 25.34100
C  34.99300 0.59500 25.28800
C  34.77600 0.99400 26.75800
C  37.43300 0.82700 24.27100
C  33.93000 -0.47600 24.78900
C  33.54700 -1.52500 25.84800
N  33.99100 1.75600 29.51400
C  33.09600 1.85700 28.46200
C  31.80000 2.30400 28.91400
C  31.98200 2.39500 30.26100
C  33.29800 1.99400 30.56900
C  30.61700 2.43100 28.14600
C  31.28200 2.73200 31.53600
O  30.09300 3.04500 31.80600
C  32.34600 2.50000 32.67700
C  32.42400 3.72800 33.49800
O  33.16500 4.67600 33.34100
O  31.72600 3.51600 34.66200
C  32.02400 4.50900 35.74300
H  39.04900 0.92200 32.91800
H  38.67200 -0.66500 26.57000
H  32.80700 1.52600 26.40400
H  34.69200 2.66300 34.39900
H  37.37900 1.33900 34.66700
H  37.90100 3.41300 35.09000
H  36.63000 4.28100 34.24000
H  37.98600 3.66500 33.33700
H  35.01200 -0.41300 34.49400
H  33.53100 0.47400 34.09900
H  34.22700 -0.21400 36.54300
H  33.11000 1.12700 36.21000
H  41.57600 -1.43000 31.55600
H  40.54400 -0.35400 32.55100
H  41.66500 0.38000 31.46800
H  43.07200 -0.73100 29.24700
H  42.96200 -1.92500 28.14300
H  42.14400 -2.27600 29.70000
H  36.59000 -0.96700 25.22000
H  34.81100 1.48400 24.68400
H  38.08100 1.53700 24.78500
H  36.78900 1.39100 23.59700
H  38.01400 0.08700 23.72100
H  34.21300 -0.84900 23.80500
H  32.99500 0.03300 24.55300
H  34.12000 -1.56600 26.77400
H  33.65300 -2.53000 25.44000
H  32.48600 -1.48200 26.09400
H  29.67100 2.31000 28.67400
H  30.62100 1.72200 27.31900
H  30.65400 3.46300 27.79600
H  31.96100 1.76000 33.37900
H  31.19500 4.34500 36.43200
H  32.09600 5.54700 35.41800
H  32.99700 4.33300 36.20200
Mg 26.13000 51.09500 26.70500
C  23.75500 51.74100 29.25200
C  28.43700 50.42900 29.16800
C  28.44000 50.57100 24.34000
C  23.79800 52.08700 24.31500
N  26.05800 51.23300 28.92000
C  24.99400 51.49500 29.73500
C  25.39100 51.20600 31.18600
C  26.88900 51.00500 31.13700
C  27.18600 50.91500 29.61500
C  27.81000 51.91000 32.01400
C  24.63800 49.97200 31.70800
C  24.13900 50.01700 33.15900
H  24.77800 50.99600 34.23700
N  28.12600 50.48400 26.72600
C  28.92000 50.26200 27.82100
C  30.14900 49.65100 27.43500
C  30.16500 49.66800 26.04900
C  28.86400 50.27900 25.64700
C  31.20000 49.25700 28.46400
C  31.40800 49.30100 25.10500
O  31.34000 49.45900 23.89000
C  32.74600 48.81100 25.67300
N  26.20700 51.61500 24.65100
C  27.25200 51.20100 23.87900
C  26.95700 51.49600 22.36400
C  25.43000 51.88800 22.35200
C  25.08700 51.83300 23.86600
C  27.94500 52.37300 21.61000
C  24.50400 50.92700 21.45900
C  24.15000 49.48400 22.04500
N  24.16800 51.74300 26.74700
C  23.38400 52.09700 25.67200
C  22.05600 52.51700 26.21800
C  22.16800 52.46700 27.58100
C  23.47800 51.91500 27.86300
C  20.88500 53.06100 25.44700
C  21.55100 52.76700 28.83300
O  20.42800 53.24000 29.05300
C  22.51000 52.31700 29.90200
C  22.97500 53.57200 30.68100
O  23.73800 54.46200 30.27400
O  22.23300 53.57000 31.86300
C  22.21200 54.82800 32.68800
H  29.08000 50.20900 30.02400
H  29.06900 50.35600 23.47300
H  23.04700 52.38200 23.58000
H  25.17500 52.09200 31.78200
H  27.12700 50.02300 31.54400
H  27.21700 52.30100 32.84000
H  28.28100 52.64600 31.36200
H  28.67800 51.33400 32.33400
H  25.25500 49.07600 31.63300
H  23.77800 49.75300 31.07600
H  24.22100 49.02200 33.59600
H  23.09300 50.27100 32.98700
H  32.16200 49.65300 28.13900
H  31.30700 48.17200 28.48100
H  30.97200 49.63400 29.46100
H  32.58100 48.10200 26.48500
H  33.13200 49.72400 26.12500
H  33.37200 48.25800 24.97300
H  26.94900 50.55200 21.81900
H  25.39100 52.97300 22.25100
H  28.69700 52.57200 22.37300
H  27.66400 53.30700 21.12400
H  28.45200 51.75200 20.87100
H  25.03800 50.89500 20.50900
H  23.53400 51.39400 21.28800
H  24.59700 48.76400 21.36000
H  23.07200 49.32500 22.08300
H  24.53800 49.35600 23.05500
H  20.99000 54.14000 25.33500
H  20.01600 52.94700 26.09500
H  20.82400 52.62400 24.45100
H  22.02700 51.61900 30.58500
H  23.16700 54.86000 33.21200
H  21.29400 54.92400 33.26700
H  22.27200 55.74600 32.10300

