158

Mg 41.18900 6.81900 29.50400
C  42.91300 8.44000 32.29000
C  38.92300 5.68400 31.76900
C  39.75100 5.53800 26.92200
C  43.86700 7.91200 27.50100
N  40.99900 7.06800 31.83300
C  41.78500 7.70600 32.72300
C  41.22100 7.48000 34.19200
C  40.05400 6.47500 33.94100
C  39.99100 6.35200 32.42400
C  40.21300 5.02600 34.50100
C  40.78400 8.83600 34.76900
C  40.56700 8.90700 36.23100
H  41.18600 10.07600 37.07200
N  39.48800 5.84700 29.34900
C  38.63200 5.50900 30.41300
C  37.48900 4.84500 29.84800
C  37.64600 4.90600 28.44200
C  39.02200 5.44100 28.17000
C  36.41100 4.29500 30.69700
C  36.55200 4.49100 27.36700
O  36.72900 4.53100 26.15400
C  35.14700 4.22100 27.74900
N  41.73400 6.73700 27.48300
C  40.92200 6.17000 26.57100
C  41.54200 6.20300 25.16900
C  42.73600 7.09100 25.38300
C  42.82400 7.25500 26.88600
C  41.88800 4.73900 24.55300
C  42.69300 8.51400 24.66400
C  41.73800 9.65500 25.18000
N  43.12300 7.82900 29.80500
C  44.02100 8.25800 28.85400
C  45.15900 8.97600 29.51400
C  44.71400 9.07800 30.83000
C  43.47300 8.37900 30.99400
C  46.50100 9.42500 28.88600
C  45.14200 9.55400 32.15100
O  46.15400 10.18600 32.48000
C  43.94700 9.19500 33.12100
C  44.48300 8.43500 34.29300
O  45.26100 7.51300 34.14900
O  43.89200 8.81600 35.52000
C  44.25900 7.99800 36.67100
H  38.16200 5.41000 32.50300
H  39.19100 5.15900 26.06400
H  44.53800 8.19100 26.68600
H  41.99400 7.12700 34.87400
H  39.18500 6.92400 34.42200
H  39.89500 4.18200 33.88900
H  39.59300 4.92700 35.39200
H  41.24000 4.84200 34.81600
H  39.82600 9.12800 34.34100
H  41.41800 9.62900 34.37300
H  40.92200 8.04500 36.79700
H  39.48000 8.93200 36.30900
H  35.54500 4.93500 30.53300
H  36.67400 4.42100 31.74700
H  36.17900 3.23500 30.58600
H  34.60900 5.12200 28.04500
H  35.41400 3.43900 28.46100
H  34.65900 3.82600 26.85900
H  40.76200 6.71800 24.60900
H  43.65300 6.58100 25.08600
H  41.57600 4.66600 23.51200
H  41.32800 3.93800 25.03500
H  42.94800 4.53300 24.70500
H  42.56400 8.46200 23.58300
H  43.73800 8.82100 24.60900
H  42.35700 10.39200 25.69200
H  41.00500 9.29100 25.90100
H  41.16300 10.10000 24.36800
H  46.86500 8.53500 28.37300
H  47.14100 9.58000 29.75500
H  46.46900 10.32700 28.27500
H  43.54900 10.11800 33.54100
H  43.79500 7.04300 36.42700
H  43.73000 8.40500 37.53200
H  45.34400 7.97600 36.77700
Mg 30.52100 59.17900 39.53000
C  27.67800 57.32400 38.67500
C  32.49900 56.48900 38.80300
C  33.13600 61.23800 39.08800
C  28.50700 61.96200 39.90500
N  30.08700 57.21900 38.59800
C  28.90500 56.61500 38.40200
C  29.07000 55.23300 37.82600
C  30.53900 54.92900 38.35100
C  31.11100 56.31900 38.64300
C  30.52800 54.08800 39.59700
C  28.94600 55.28000 36.27500
C  28.07100 54.10300 35.74000
H  27.07400 54.45300 34.59900
N  32.56700 58.87200 39.08000
C  33.19300 57.69400 38.90200
C  34.59700 57.88900 38.76400
C  34.78900 59.30300 38.76900
C  33.43500 59.86000 38.87400
C  35.55000 56.73200 38.80600
C  36.14000 59.98900 38.60500
O  37.21800 59.39600 38.67600
C  36.24100 61.45200 38.41000
N  30.78500 61.31600 39.39000
C  31.94500 61.86500 39.31500
C  31.87600 63.40400 39.48700
C  30.44100 63.60800 39.85900
C  29.84400 62.20400 39.78700
C  32.96900 63.91900 40.55100
C  29.51100 64.47700 39.03700
C  29.86700 65.96000 38.75100
N  28.49600 59.58800 39.62600
C  27.84900 60.75500 39.68200
C  26.48400 60.54400 39.47000
C  26.32000 59.15400 39.13900
C  27.63200 58.65200 39.15800
C  25.47200 61.60100 39.43400
C  25.33700 58.09200 38.82900
O  24.08400 58.09000 38.62300
C  26.26200 56.81800 38.49500
C  25.85800 55.87400 39.63100
O  26.21300 55.87700 40.77800
O  24.94200 55.00300 39.17500
C  24.73200 53.92000 40.15800
H  33.02900 55.53800 38.71900
H  33.88200 62.01100 38.89400
H  27.82500 62.79700 40.07900
H  28.29700 54.56700 38.20900
H  31.12700 54.36800 37.62500
H  31.23500 54.44200 40.34800
H  30.62000 53.06200 39.24200
H  29.51700 54.14600 40.00000
H  29.92900 55.01400 35.88600
H  28.66000 56.25600 35.88200
H  27.40400 53.66400 36.48200
H  28.77200 53.29900 35.51600
H  36.08200 56.78100 39.75600
H  36.23100 56.81900 37.95800
H  35.12500 55.73400 38.69700
H  37.25800 61.71200 38.11700
H  35.97300 61.97500 39.32900
H  35.56300 61.80800 37.63400
H  32.06800 63.83700 38.50500
H  30.26100 63.91700 40.88800
H  33.43000 64.83800 40.19100
H  33.64600 63.13900 40.90000
H  32.39800 64.16300 41.44700
H  28.48500 64.63400 39.37000
H  29.52400 63.91100 38.10600
H  30.85800 66.19500 39.13700
H  29.17000 66.73000 39.08200
H  29.89100 66.10200 37.67000
H  25.10400 61.87100 40.42400
H  24.66200 61.32800 38.75800
H  25.99300 62.53300 39.21900
H  26.01700 56.36300 37.53500
H  24.55700 53.08200 39.48300
H  23.79100 54.10500 40.67500
H  25.50600 53.63000 40.87000

