158

Mg 28.43500 56.17200 40.14300
C  26.18500 53.58800 40.04700
C  30.95700 53.94000 39.17900
C  30.50600 58.67100 39.85300
C  25.64100 58.52000 40.24100
N  28.53400 53.95300 39.79000
C  27.45500 53.12400 39.67800
C  27.79500 51.79300 38.93900
C  29.36700 51.77600 39.16900
C  29.70600 53.28100 39.36700
C  29.79100 50.79800 40.23500
C  27.32900 51.85400 37.45600
C  27.11300 53.29000 36.85100
H  26.51800 53.26800 35.46000
N  30.38700 56.31000 39.58700
C  31.29300 55.27900 39.30500
C  32.61800 55.84700 39.04200
C  32.50700 57.25300 39.16500
C  31.11000 57.44100 39.68700
C  33.90100 55.04100 38.61900
C  33.67300 58.29400 38.89900
O  34.79200 57.91500 38.68100
C  33.47700 59.79800 38.96600
N  28.05100 58.30200 40.16500
C  29.22000 59.11100 40.06000
C  28.87600 60.63500 40.13300
C  27.31300 60.53800 40.17300
C  26.94200 59.04500 40.13700
C  29.58000 61.43500 41.17900
C  26.60700 61.20800 38.95000
C  25.38200 62.11000 39.37000
N  26.32500 56.13100 40.09500
C  25.32300 57.09100 40.19500
C  24.03700 56.44300 40.30100
C  24.34600 55.05700 40.30400
C  25.71800 54.90500 40.07500
C  22.73700 57.05000 40.46400
C  23.78300 53.76000 40.41400
O  22.61100 53.43800 40.69000
C  24.90800 52.77700 40.07100
C  24.99900 51.62600 41.08200
O  24.12800 50.76500 41.27700
O  26.06100 51.70500 41.91600
C  26.23000 50.63500 42.89700
H  31.69700 53.19200 38.88800
H  31.18900 59.51700 39.95000
H  24.75500 59.15800 40.24500
H  27.28900 50.92800 39.37000
H  29.80000 51.44300 38.22600
H  30.30400 51.34400 41.02700
H  30.25600 50.02100 39.63000
H  28.90000 50.35400 40.68000
H  26.49700 51.15600 37.36900
H  28.12400 51.40000 36.86400
H  28.02100 53.87200 36.68900
H  26.35700 53.85300 37.39900
H  33.88200 53.99300 38.91800
H  34.67700 55.42500 39.28100
H  34.13200 55.22900 37.57000
H  33.34200 60.17800 39.97900
H  32.65400 60.09700 38.31800
H  34.33500 60.29600 38.51300
H  29.13100 61.03300 39.15100
H  26.93700 60.91600 41.12300
H  30.10900 60.73000 41.81900
H  28.92200 61.99100 41.84700
H  30.20200 62.16300 40.65800
H  26.22100 60.42300 38.30000
H  27.24000 61.88000 38.36900
H  24.46100 61.66500 38.99400
H  25.51300 63.13900 39.03600
H  25.11400 62.08000 40.42700
H  22.70300 58.13800 40.51700
H  22.27900 56.71000 41.39200
H  22.07900 56.70700 39.66500
H  24.47300 52.42000 39.13800
H  26.00700 50.92200 43.92500
H  27.29700 50.41800 42.84900
H  25.82700 49.66400 42.61000
Mg -5.24700 26.09200 25.78100
C  -4.11300 27.51300 28.74400
C  -7.33500 24.03000 27.69800
C  -6.51900 24.84900 22.97800
C  -3.03700 28.18500 24.01800
N  -5.49500 25.66500 27.93400
C  -4.98200 26.42700 28.98900
C  -5.37400 25.90600 30.38100
C  -6.09000 24.50300 29.98900
C  -6.35700 24.71600 28.46900
C  -5.32900 23.22000 30.23900
C  -6.43700 26.80800 31.05700
C  -6.55400 26.76600 32.61800
H  -5.78700 25.66000 33.38500
N  -6.60400 24.50500 25.39000
C  -7.40600 23.95700 26.27300
C  -8.36800 23.18200 25.52700
C  -8.19400 23.43200 24.19200
C  -7.05600 24.28600 24.12200
C  -9.50400 22.48200 26.27300
C  -9.07100 22.89000 23.02000
O  -8.75600 23.04900 21.80600
C  -10.22400 22.02300 23.21800
N  -4.83500 26.50700 23.77400
C  -5.46200 25.76200 22.81100
C  -4.78000 26.01500 21.44100
C  -3.89200 27.24500 21.76200
C  -3.89700 27.31600 23.27100
C  -4.10400 24.80300 20.85300
C  -4.40900 28.53000 21.09200
C  -3.38600 29.36100 20.30800
N  -3.81600 27.53100 26.26700
C  -3.05000 28.32400 25.41800
C  -2.28200 29.30400 26.25700
C  -2.68700 28.97500 27.58000
C  -3.63200 27.92600 27.53500
C  -1.27200 30.31200 25.85300
C  -2.46900 29.29500 28.96900
O  -1.68000 29.97000 29.59800
C  -3.50700 28.50600 29.71100
C  -2.91800 27.84400 30.96900
O  -2.13000 26.91100 31.01900
O  -3.08000 28.67100 32.07300
C  -2.25900 28.41700 33.27400
H  -8.02400 23.43800 28.30400
H  -7.01100 24.51400 22.06300
H  -2.30500 28.84400 23.54600
H  -4.47400 25.59300 30.91100
H  -7.02100 24.36800 30.54000
H  -6.00400 22.48000 30.67000
H  -4.46900 23.47100 30.85900
H  -4.94100 22.91800 29.26600
H  -7.40400 26.56700 30.61600
H  -6.23500 27.85700 30.84400
H  -7.60900 26.71500 32.88700
H  -6.19000 27.70100 33.04600
H  -9.38500 22.49800 27.35600
H  -9.64400 21.48200 25.86200
H  -10.42500 23.05000 26.14500
H  -10.94600 21.95800 22.40400
H  -10.84100 22.21800 24.09500
H  -9.74400 21.05500 23.36600
H  -5.65000 26.31000 20.85400
H  -2.88900 27.05100 21.38200
H  -4.29900 23.88300 21.40400
H  -3.01800 24.86900 20.91700
H  -4.30900 24.76900 19.78300
H  -4.93800 29.10300 21.85200
H  -5.23600 28.31700 20.41500
H  -3.43200 29.22400 19.22700
H  -2.38500 29.09100 20.64500
H  -3.59600 30.42200 20.43900
H  -1.70400 31.18900 25.37000
H  -0.46800 29.91000 25.23700
H  -0.76400 30.81000 26.67800
H  -4.31100 29.17300 30.02200
H  -1.22700 28.06600 33.25600
H  -2.84500 27.67600 33.81800
H  -2.43900 29.26800 33.93000

