158

Mg 36.31400 49.49300 24.61900
C  36.26100 47.61200 27.65900
C  35.41200 52.28000 26.40300
C  36.20400 51.16500 21.65400
C  36.92000 46.53200 22.97000
N  35.78700 49.88200 26.82300
C  35.96800 48.99700 27.86900
C  35.67300 49.67900 29.21100
C  35.26900 51.12600 28.71800
C  35.47600 51.12000 27.17100
C  33.85500 51.68300 29.14300
C  36.96300 49.67300 30.10000
C  36.61500 49.38400 31.63600
H  35.19800 49.57100 32.22000
N  35.97000 51.45900 24.13300
C  35.68700 52.44600 25.01400
C  35.46400 53.64900 24.27800
C  35.76800 53.40300 22.89300
C  35.96300 51.91200 22.86600
C  35.08900 55.00700 24.86100
C  35.85300 54.39300 21.71000
O  36.13200 53.99900 20.58100
C  35.57500 55.88500 21.83800
N  36.44700 48.91200 22.67300
C  36.39800 49.79200 21.60700
C  36.64100 49.01900 20.20100
C  37.19100 47.69900 20.75000
C  36.79600 47.69300 22.20600
C  35.46800 48.99900 19.25800
C  38.73000 47.45200 20.46100
C  39.70600 48.34300 21.30400
N  36.49300 47.47200 25.18900
C  36.72500 46.35500 24.41100
C  36.75800 45.14400 25.21400
C  36.64700 45.62800 26.50900
C  36.45000 47.01300 26.48500
C  36.84600 43.69800 24.56700
C  36.51400 45.19300 27.91000
O  36.50900 44.07800 28.36500
C  36.36000 46.47900 28.73600
C  35.09800 46.36400 29.65900
O  33.92900 46.51400 29.40000
O  35.57800 45.78700 30.78100
C  34.45300 45.24800 31.64700
H  34.95100 53.18800 26.79800
H  36.13800 51.71800 20.71400
H  37.06200 45.66300 22.32500
H  34.83400 49.22800 29.74200
H  36.04900 51.84800 28.96300
H  33.38400 51.32200 30.05800
H  33.11300 51.73100 28.34600
H  33.99100 52.74000 29.37300
H  37.41600 50.65700 29.98400
H  37.68200 48.94700 29.71900
H  37.33300 50.05900 32.10300
H  36.89500 48.34200 31.78900
H  35.82300 55.70400 24.45700
H  35.28700 54.97900 25.93300
H  34.07600 55.32600 24.61400
H  36.12700 56.43400 22.60100
H  34.49400 56.01200 21.78500
H  36.01000 56.32900 20.94300
H  37.51600 49.47800 19.74100
H  36.61900 46.86300 20.34700
H  36.03400 48.93100 18.32900
H  34.91700 49.93400 19.36100
H  34.79600 48.16800 19.47300
H  38.88400 47.74700 19.42300
H  39.01100 46.40200 20.54100
H  40.45600 48.81300 20.66600
H  40.26000 47.93600 22.14900
H  39.17100 49.11700 21.85300
H  37.43100 43.64900 23.64800
H  35.83600 43.38700 24.30100
H  37.29400 43.03300 25.30600
H  37.21100 46.72400 29.37200
H  34.87500 44.56100 32.38000
H  33.74700 44.69200 31.03000
H  34.00200 46.14400 32.07500
Mg -2.02800 34.64100 26.89200
C  -3.48400 32.80000 29.57900
C  -0.83400 36.86000 29.26400
C  -1.16700 36.55800 24.35400
C  -3.90400 32.57600 24.67700
N  -2.26600 34.79700 29.21700
C  -2.78600 33.90000 30.10700
C  -2.33100 34.27300 31.55000
C  -1.62600 35.62300 31.40500
C  -1.58700 35.82600 29.90100
C  -2.32700 36.79900 32.18400
C  -1.49000 33.07700 32.23100
C  -2.30500 32.37600 33.37400
H  -1.71700 32.13300 34.78500
N  -1.08700 36.34400 26.80100
C  -0.64800 37.10000 27.91500
C  0.23200 38.14100 27.43400
C  0.16900 38.13300 26.01400
C  -0.68800 36.98800 25.63900
C  1.07400 39.07600 28.27800
C  0.76500 39.06900 24.99800
O  0.67200 38.90000 23.76800
C  1.53400 40.31000 25.50500
N  -2.60500 34.65200 24.77600
C  -1.91800 35.45700 24.01100
C  -2.29300 35.14800 22.53100
C  -2.89900 33.71100 22.59500
C  -3.11200 33.60300 24.13100
C  -3.21800 36.16200 21.93100
C  -2.14000 32.62300 21.97200
C  -0.85900 32.18100 22.66600
N  -3.35700 32.95600 26.93900
C  -4.01500 32.24100 26.02800
C  -4.65300 31.13100 26.68700
C  -4.50100 31.35500 28.07400
C  -3.68200 32.51400 28.17600
C  -5.36400 30.02600 25.96600
C  -4.85700 30.82400 29.36400
O  -5.53700 29.83700 29.58700
C  -4.27600 31.75300 30.38600
C  -5.39400 32.35800 31.22700
O  -6.14000 33.28600 30.97300
O  -5.41900 31.57300 32.37900
C  -6.53200 31.72100 33.36800
H  -0.31300 37.42400 30.04100
H  -0.95400 37.14400 23.45700
H  -4.04800 31.74500 23.98200
H  -3.34200 34.38600 31.94400
H  -0.68700 35.61500 31.95900
H  -3.04900 36.24300 32.78200
H  -2.74400 37.46600 31.43000
H  -1.57200 37.35700 32.73800
H  -0.56100 33.42800 32.68100
H  -1.25600 32.30900 31.49400
H  -2.51300 31.34900 33.07400
H  -3.25800 32.89100 33.49500
H  2.13300 39.07900 28.01700
H  1.07900 38.74100 29.31500
H  0.73900 40.11100 28.33200
H  0.77200 40.90200 26.01300
H  1.81200 40.69400 24.52400
H  2.34600 40.05200 26.18500
H  -1.35700 35.14500 21.97400
H  -3.89600 33.62900 22.16200
H  -4.20100 35.73900 21.72400
H  -2.66900 36.57900 21.08600
H  -3.41800 37.00000 22.59900
H  -1.87200 32.90800 20.95500
H  -2.82300 31.77800 22.06000
H  -0.71000 32.73400 23.59300
H  0.09200 32.39200 22.17600
H  -0.92700 31.10200 22.80100
H  -6.44000 30.17400 25.87500
H  -5.45600 29.24500 26.72100
H  -4.88400 29.79400 25.01500
H  -3.50700 31.19900 30.92400
H  -7.21100 32.57300 33.34900
H  -6.08000 31.78300 34.35800
H  -7.18300 30.85500 33.24600

