158

Mg 1.36600 42.44800 25.35100
C  2.68600 42.57300 28.78600
C  -1.48800 41.18300 26.60300
C  0.61000 41.71100 22.26900
C  4.38700 43.82300 24.40400
N  0.70000 41.84900 27.52500
C  1.33800 42.13800 28.73900
C  0.38300 41.79700 29.86200
C  -0.89400 41.24900 29.09700
C  -0.58900 41.43500 27.66000
C  -1.21000 39.74600 29.27600
C  0.04600 42.96600 30.80800
C  0.13800 42.74900 32.30700
H  -0.34400 41.30400 32.71900
N  -0.31000 41.65500 24.55500
C  -1.42700 41.18700 25.20900
C  -2.40800 40.77400 24.24500
C  -1.81900 40.89800 22.95800
C  -0.44800 41.49500 23.20100
C  -3.87500 40.44400 24.68100
C  -2.38400 40.57100 21.62000
O  -1.82100 40.84100 20.55000
C  -3.74200 39.96100 21.62100
N  2.34200 42.76400 23.59200
C  1.80300 42.22900 22.42800
C  2.92000 42.25000 21.40200
C  3.99200 43.18200 21.99400
C  3.56100 43.34500 23.44200
C  3.39100 40.84600 20.93700
C  4.40200 44.57000 21.28900
C  3.35600 45.75500 21.41000
N  3.15800 43.12000 26.28800
C  4.28000 43.64200 25.81100
C  5.20200 44.04100 26.84500
C  4.60700 43.61700 28.01400
C  3.35200 43.10500 27.65500
C  6.64800 44.61500 26.68000
C  4.81500 43.41800 29.46900
O  5.79600 43.59800 30.15400
C  3.51000 42.77600 30.02300
C  3.85000 41.48600 30.69200
O  4.31000 40.48800 30.21100
O  3.32100 41.47700 31.90300
C  3.40500 40.25000 32.67900
H  -2.44100 40.78200 26.95300
H  0.24500 41.40400 21.28700
H  5.36500 44.14500 24.04100
H  0.89700 40.95800 30.33100
H  -1.84200 41.74700 29.29900
H  -0.51900 39.28600 29.98200
H  -1.16500 39.23500 28.31500
H  -2.20500 39.69500 29.71900
H  -0.84800 43.53800 30.55700
H  0.78800 43.73800 30.60900
H  -0.33500 43.54800 32.87700
H  1.21700 42.69900 32.45100
H  -4.02100 39.36600 24.76200
H  -4.64300 40.96100 24.10600
H  -4.08400 40.85700 25.66800
H  -4.38200 40.77800 21.95500
H  -3.65700 39.04000 22.19700
H  -3.95300 39.76000 20.57000
H  2.55400 42.76900 20.51600
H  4.88800 42.56600 22.07000
H  2.72600 40.11300 21.39300
H  4.43800 40.77100 21.23100
H  3.14600 40.85800 19.87500
H  4.71000 44.37200 20.26200
H  5.28300 44.82000 21.88000
H  2.45400 45.21400 21.69500
H  3.20100 46.34800 20.50900
H  3.67700 46.46500 22.17200
H  6.99200 44.97800 27.64900
H  6.79900 45.39200 25.93000
H  7.30600 43.76200 26.51300
H  3.06300 43.44200 30.76000
H  2.70700 39.52800 32.25600
H  3.08200 40.34800 33.71500
H  4.41800 39.85600 32.76700
Mg -11.58100 17.21000 40.47000
C  -8.52900 15.40900 40.33700
C  -9.84000 20.11700 39.73200
C  -14.48700 18.77400 39.80800
C  -13.19500 14.06300 40.19700
N  -9.43600 17.64900 39.80300
C  -8.44600 16.78200 39.91700
C  -7.10300 17.48900 39.49700
C  -7.55200 19.00100 39.35700
C  -9.03100 18.96600 39.67700
C  -6.63700 19.92300 40.21400
C  -6.46900 16.91800 38.19500
C  -5.02600 16.34900 38.30000
H  -4.68900 15.13000 37.38600
N  -12.06500 19.19200 39.99400
C  -11.19800 20.24000 39.81300
C  -11.94500 21.46400 39.56500
C  -13.35200 21.09200 39.64100
C  -13.35000 19.62400 39.86400
C  -11.39200 22.85200 39.25600
C  -14.49000 22.09100 39.47600
O  -14.31500 23.29900 39.34600
C  -15.96400 21.65700 39.38800
N  -13.52700 16.51300 40.06100
C  -14.55700 17.34900 39.88800
C  -15.86900 16.61100 39.70800
C  -15.43400 15.15800 39.87900
C  -13.95400 15.22000 40.00400
C  -17.16300 17.03700 40.60000
C  -16.02100 14.22000 38.82900
C  -16.43800 12.84300 39.39700
N  -11.04300 15.16000 40.55600
C  -11.81000 13.97500 40.42200
C  -10.96000 12.80700 40.61000
C  -9.65800 13.37200 40.73000
C  -9.79000 14.78200 40.55400
C  -11.34100 11.39800 40.63100
C  -8.21300 13.05200 40.91400
O  -7.63900 12.01700 41.09300
C  -7.44200 14.38700 40.73100
C  -6.75300 14.79600 41.97600
O  -7.03000 15.62800 42.79600
O  -5.61900 13.98900 42.10600
C  -4.79200 14.24600 43.27600
H  -9.23300 21.01200 39.58500
H  -15.47300 19.22100 39.66000
H  -13.64200 13.07000 40.12000
H  -6.44900 17.23000 40.33000
H  -7.47000 19.34700 38.32700
H  -6.64800 19.47800 41.20900
H  -6.91400 20.96600 40.37000
H  -5.65500 19.94200 39.74100
H  -6.41900 17.74600 37.48800
H  -7.07500 16.10100 37.80200
H  -4.94600 15.97000 39.31800
H  -4.35800 17.18500 38.09200
H  -11.87200 23.63700 39.84100
H  -11.52800 22.94300 38.17800
H  -10.32200 22.85600 39.46000
H  -16.02900 21.08500 38.46200
H  -16.61700 22.52800 39.33700
H  -16.30600 21.06200 40.23500
H  -16.26200 16.84700 38.71900
H  -15.78700 14.78600 40.84100
H  -17.32300 18.11400 40.54200
H  -17.03600 16.68900 41.62600
H  -18.06100 16.60900 40.15500
H  -15.34800 14.14200 37.97500
H  -16.97900 14.52700 38.40900
H  -17.50600 12.77600 39.60300
H  -15.76500 12.64200 40.23000
H  -16.13200 12.12800 38.63200
H  -12.17500 11.20100 39.95600
H  -11.63100 11.21000 41.66500
H  -10.48000 10.80200 40.32900
H  -6.68000 14.40300 39.95200
H  -4.16300 15.13600 43.27900
H  -4.25100 13.31800 43.46600
H  -5.41200 14.31800 44.16900

