158

Mg 1.66400 -1.22200 44.30500
C  5.12600 -0.61500 44.22200
C  1.23700 1.75300 42.58800
C  -1.51700 -2.10800 43.87900
C  2.37000 -4.51700 45.55400
N  3.05700 0.34300 43.53600
C  4.42100 0.39600 43.53800
C  5.04500 1.51400 42.64900
C  3.76200 2.44600 42.49300
C  2.62600 1.45700 42.81000
C  3.67500 3.76800 43.24500
C  5.56700 1.04500 41.28500
C  7.05700 1.37900 41.01400
H  7.39000 1.92400 39.65400
N  0.08100 -0.23700 43.48500
C  0.11700 0.96300 42.83800
C  -1.23400 1.32000 42.40300
C  -2.11100 0.27200 42.78400
C  -1.20900 -0.78300 43.47400
C  -1.56000 2.64700 41.72400
C  -3.59300 0.25800 42.56400
O  -4.10600 1.22100 41.95300
C  -4.41400 -0.81200 43.17300
N  0.61300 -3.02600 44.70800
C  -0.73500 -3.14200 44.45500
C  -1.29300 -4.53800 44.90600
C  0.00500 -5.32800 45.31500
C  1.06200 -4.26500 45.16800
C  -2.42000 -4.60200 46.01600
C  0.27900 -6.55900 44.45700
C  0.86400 -7.74700 45.23800
N  3.38500 -2.31200 44.86000
C  3.51100 -3.60800 45.33600
C  4.87100 -3.85600 45.67500
C  5.56500 -2.67300 45.35800
C  4.60400 -1.75500 44.83800
C  5.36100 -5.17000 46.26400
C  6.85500 -2.04300 45.31300
O  7.92400 -2.48900 45.68500
C  6.61900 -0.70100 44.56300
C  6.88900 0.39500 45.55000
O  6.34300 0.52200 46.68800
O  7.72800 1.41600 44.94400
C  7.78100 2.73100 45.56600
H  1.09100 2.67200 42.01600
H  -2.52800 -2.47800 43.69400
H  2.64800 -5.44300 46.06200
H  5.73400 2.06700 43.28800
H  3.60400 2.67700 41.44000
H  3.53000 4.53300 42.48200
H  4.63100 3.98300 43.72100
H  2.88500 3.86600 43.99000
H  5.05000 1.41500 40.39900
H  5.43200 -0.03400 41.35500
H  7.60900 0.45000 41.15800
H  7.52200 2.11900 41.66500
H  -2.24400 2.46500 40.89500
H  -0.76200 3.24900 41.29100
H  -2.18300 3.25600 42.37900
H  -4.26000 -1.71900 42.58900
H  -5.44000 -0.45200 43.24400
H  -3.98900 -0.92700 44.17000
H  -1.73700 -4.99600 44.02200
H  -0.02700 -5.60600 46.36900
H  -3.37200 -4.81600 45.53000
H  -2.56800 -3.71700 46.63400
H  -2.15700 -5.36700 46.74700
H  0.84600 -6.36500 43.54600
H  -0.64000 -7.00200 44.07400
H  1.42000 -8.34900 44.51900
H  -0.03100 -8.21000 45.65300
H  1.42800 -7.57100 46.15400
H  6.44300 -5.28400 46.20600
H  4.81100 -5.99700 45.81400
H  5.17600 -5.10300 47.33600
H  7.12500 -0.55200 43.60900
H  8.64800 3.34100 45.31100
H  7.64000 2.71800 46.64700
H  6.88800 3.25900 45.23300
Mg 30.71700 58.00800 39.94500
C  27.79300 56.14800 39.03300
C  32.55500 55.24400 39.09600
C  33.39400 59.89100 40.18100
C  28.53000 60.80500 40.39200
N  30.17200 55.99200 38.99400
C  28.95900 55.37300 38.88800
C  29.13100 53.97000 38.22200
C  30.54100 53.67900 38.87300
C  31.14000 55.10000 38.99900
C  30.37500 52.89400 40.19900
C  29.06200 54.02400 36.63700
C  27.91800 53.24200 35.87100
H  27.03000 54.10300 34.93100
N  32.66400 57.61700 39.74000
C  33.25500 56.45500 39.36700
C  34.71400 56.58700 39.39300
C  35.01100 57.98300 39.60700
C  33.65100 58.54900 39.89900
C  35.64200 55.49800 38.90600
C  36.38300 58.71100 39.56100
O  37.33400 58.09600 39.13300
C  36.61600 60.14500 39.94100
N  30.93200 60.13800 40.07200
C  32.19000 60.62900 40.38200
C  32.08200 62.09900 40.77800
C  30.49600 62.31200 40.77300
C  29.90700 61.00800 40.41600
C  32.77500 62.29600 42.16300
C  30.05500 63.48900 39.82000
C  29.51500 64.71100 40.55500
N  28.58100 58.49000 39.85800
C  27.86500 59.62500 40.03200
C  26.46900 59.39300 39.78900
C  26.35500 57.97600 39.45100
C  27.65500 57.51900 39.43300
C  25.39000 60.34700 39.89800
C  25.43700 56.85200 39.23800
O  24.24000 56.71300 39.34900
C  26.36400 55.60800 38.88400
C  26.05100 54.52000 39.72400
O  26.32400 54.44600 40.89900
O  25.31400 53.56000 38.98700
C  24.79500 52.37200 39.77600
H  33.16700 54.34900 38.96600
H  34.21700 60.55600 40.45400
H  27.82800 61.61500 40.60100
H  28.35000 53.39200 38.71600
H  31.16200 53.02700 38.26000
H  29.48700 52.27000 40.29200
H  30.56200 53.48900 41.09300
H  31.27700 52.28200 40.19300
H  30.05200 53.71000 36.30500
H  28.95300 55.08400 36.40900
H  27.18200 52.93600 36.61500
H  28.42100 52.45300 35.31200
H  35.06500 54.83600 38.26000
H  36.19100 54.90100 39.63300
H  36.41900 56.03000 38.35700
H  36.27400 60.80100 39.14100
H  37.69800 60.27900 39.94500
H  36.22900 60.33700 40.94200
H  32.63200 62.58400 39.97100
H  30.14700 62.33400 41.80600
H  32.10800 62.63000 42.95800
H  33.50500 63.03700 41.83900
H  33.26500 61.36400 42.44700
H  29.22600 63.18900 39.17900
H  30.95400 63.83600 39.31100
H  28.44900 64.65300 40.77400
H  29.71800 65.55300 39.89300
H  29.98600 64.82500 41.53100
H  24.58100 59.71200 40.25700
H  25.16500 60.76600 38.91700
H  25.77700 61.01000 40.67200
H  26.21700 55.32500 37.84200
H  23.73900 52.64100 39.80400
H  25.24400 52.32400 40.76800
H  24.94000 51.45800 39.20000

