158

Mg -0.06800 7.76000 27.37500
C  0.83800 9.88600 29.89900
C  0.20100 5.14700 29.46600
C  -0.44900 5.73000 24.66400
C  0.01000 10.63200 25.25400
N  0.43800 7.52600 29.41100
C  0.71900 8.50000 30.25300
C  0.77400 7.92900 31.71100
C  0.81100 6.42000 31.51900
C  0.50200 6.36100 30.06100
C  2.13000 5.71600 31.92000
C  -0.44700 8.37600 32.57500
C  -0.73100 7.67700 33.90000
H  0.32900 6.90500 34.68000
N  -0.18800 5.68600 27.10100
C  -0.09700 4.83500 28.13100
C  -0.47200 3.49400 27.61300
C  -0.49000 3.61000 26.18700
C  -0.33600 5.06900 25.87400
C  -0.85000 2.38500 28.56200
C  -0.64300 2.47500 25.14800
O  -0.54100 2.65900 23.94000
C  -1.03300 0.99900 25.61000
N  -0.21300 8.18800 25.30900
C  -0.38500 7.14000 24.43800
C  -0.39600 7.70900 23.01900
C  -0.73600 9.26700 23.17000
C  -0.36800 9.42000 24.70100
C  1.02800 7.48400 22.31000
C  -2.26000 9.77100 22.87600
C  -2.37000 10.62000 21.61300
N  0.28900 9.88200 27.59700
C  0.37500 10.85700 26.64800
C  0.88600 12.17800 27.24800
C  1.05100 11.80000 28.57700
C  0.62500 10.45500 28.70900
C  1.20600 13.45900 26.43200
C  1.56400 12.18300 29.83900
O  2.00600 13.26300 30.24300
C  1.20400 11.05100 30.83300
C  2.22700 10.84200 31.85600
O  3.38000 10.65200 31.61800
O  1.73800 11.21300 33.05200
C  2.61700 11.54500 34.21300
H  0.12700 4.27200 30.11600
H  -0.66400 5.17700 23.74700
H  0.10800 11.42700 24.51200
H  1.60600 8.32500 32.29300
H  -0.01400 5.95100 32.05600
H  1.96600 5.24200 32.88800
H  2.85200 6.53200 31.95300
H  2.48400 4.92900 31.25500
H  -1.38400 8.13600 32.07300
H  -0.38000 9.45200 32.73200
H  -1.63300 7.10600 33.68300
H  -1.03200 8.54600 34.48500
H  -1.86600 2.18300 28.22600
H  -0.87000 2.40700 29.65200
H  -0.19800 1.52400 28.41100
H  -0.18000 0.66900 26.20300
H  -1.14800 0.35800 24.73500
H  -1.98300 1.06800 26.13800
H  -1.26300 7.35600 22.46000
H  0.03600 9.76000 22.57900
H  1.74100 8.29300 22.46600
H  0.87100 7.21900 21.26500
H  1.53700 6.65200 22.79800
H  -2.62600 10.38100 23.70200
H  -2.99600 8.97600 22.75900
H  -1.54800 10.27500 20.98600
H  -2.45200 11.65400 21.94800
H  -3.28600 10.38000 21.07400
H  1.68100 13.03500 25.54700
H  1.80300 14.01000 27.15800
H  0.27800 13.95500 26.14900
H  0.25300 11.34900 31.27600
H  2.13300 11.32900 35.16600
H  2.95200 12.57400 34.08300
H  3.50400 10.92400 34.08600
Mg 8.05100 3.42000 27.81200
C  9.53000 2.06900 30.60500
C  5.93000 5.33900 29.97800
C  6.26200 4.57800 25.05600
C  9.57000 1.12100 25.82100
N  7.78400 3.67600 30.07600
C  8.64000 3.07900 30.97100
C  8.44200 3.73100 32.34100
C  7.26300 4.73100 32.07100
C  6.93800 4.57300 30.62100
C  5.94000 4.47700 32.92300
C  9.73100 4.35200 32.89400
C  9.49800 5.18300 34.14700
H  10.36500 4.92600 35.35100
N  6.34500 4.73600 27.56000
C  5.69300 5.46200 28.58500
C  4.64400 6.20900 27.96600
C  4.68300 5.93400 26.56300
C  5.78100 5.04600 26.32600
C  3.71400 7.02900 28.74300
C  3.86500 6.52800 25.42400
O  3.87100 6.16400 24.25500
C  2.89400 7.66400 25.74200
N  7.96300 2.90900 25.72700
C  7.20300 3.58100 24.77200
C  7.58400 3.20000 23.34400
C  8.57600 2.04800 23.61800
C  8.77300 2.05500 25.12000
C  6.27000 2.82700 22.47600
C  9.80500 1.85800 22.80700
C  9.91300 0.57000 21.93900
N  9.21900 1.95800 28.03400
C  9.81400 1.10000 27.20400
C  10.65900 0.17700 27.86000
C  10.63500 0.58000 29.18000
C  9.70300 1.61600 29.26300
C  11.30600 -0.99800 27.15400
C  11.21200 0.33000 30.55300
O  12.00000 -0.52000 30.94400
C  10.59300 1.43300 31.51700
C  9.88400 0.83300 32.71100
O  8.86100 0.19500 32.75300
O  10.48400 1.24000 33.83900
C  9.84400 0.89800 35.09800
H  5.38900 5.94400 30.70900
H  5.78200 5.03200 24.18600
H  10.16200 0.48600 25.15900
H  8.12900 2.93900 33.02200
H  7.64000 5.75100 32.00700
H  5.58900 5.39600 33.39200
H  6.23100 3.80100 33.72700
H  5.17500 3.95000 32.35300
H  10.19100 5.03800 32.18200
H  10.53100 3.64500 33.11200
H  8.46400 5.04800 34.46300
H  9.57300 6.24300 33.90500
H  3.95700 8.07300 28.54600
H  3.83300 7.03400 29.82600
H  2.66100 6.85800 28.52200
H  2.06100 7.20200 26.27200
H  2.66700 8.19900 24.82000
H  3.43300 8.32800 26.41700
H  8.19000 3.95900 22.85000
H  7.95200 1.18600 23.38500
H  6.32600 1.90400 21.90000
H  6.12300 3.62800 21.75200
H  5.44800 2.90800 23.18800
H  10.68100 1.93300 23.45100
H  10.02200 2.68400 22.13000
H  10.77100 0.03600 22.34700
H  10.09600 0.89300 20.91400
H  9.01300 -0.04200 21.89800
H  12.06900 -0.53400 26.52900
H  10.54600 -1.56100 26.61200
H  11.80600 -1.58500 27.92500
H  11.43400 2.09600 31.72000
H  10.44200 1.42800 35.83900
H  9.96300 -0.18500 35.06000
H  8.80100 1.21000 35.04800

