158

Mg -1.92700 16.58300 26.36600
C  -2.18300 14.52500 29.19900
C  -2.31900 19.35000 28.30400
C  -1.81800 18.28400 23.50400
C  -1.82600 13.59700 24.45200
N  -2.17400 16.88400 28.55700
C  -2.27800 15.89400 29.51700
C  -2.69700 16.55600 30.84900
C  -2.46700 18.09400 30.63400
C  -2.30500 18.12000 29.07700
C  -3.67600 19.06300 31.11100
C  -2.17800 15.89400 32.08500
C  -1.93200 16.82700 33.25700
H  -1.45900 16.08700 34.42800
N  -1.91600 18.53000 26.00900
C  -2.16800 19.52500 26.90400
C  -2.20400 20.85700 26.22900
C  -2.02500 20.55300 24.79200
C  -1.93400 19.06200 24.70000
C  -2.48200 22.18700 26.96600
C  -2.03300 21.50500 23.60800
O  -1.84500 21.10100 22.47400
C  -2.32200 22.94900 23.75300
N  -1.99300 16.01400 24.24300
C  -1.89700 16.94600 23.22600
C  -2.02600 16.31200 21.84500
C  -1.84000 14.80600 22.10700
C  -1.88200 14.78900 23.69100
C  -3.24500 16.68200 20.92000
C  -0.50600 14.26400 21.52700
C  0.74100 14.82600 22.24000
N  -2.13000 14.51100 26.67000
C  -1.97700 13.41000 25.77200
C  -2.03600 12.16600 26.51500
C  -2.10800 12.54100 27.83100
C  -2.10200 13.97000 27.91100
C  -1.98300 10.81000 25.97100
C  -2.25500 11.99900 29.15600
O  -2.36300 10.82800 29.54600
C  -2.34000 13.27400 30.06700
C  -1.22600 13.11100 31.11900
O  -0.10800 13.58300 30.87100
O  -1.58100 12.51700 32.26900
C  -0.56900 12.44000 33.36200
H  -2.33800 20.28600 28.86500
H  -1.86900 18.76200 22.52400
H  -1.62300 12.74200 23.80400
H  -3.75900 16.31200 30.83600
H  -1.58200 18.51100 31.11400
H  -4.30800 19.42200 30.30000
H  -3.37600 19.90700 31.73200
H  -4.28600 18.37400 31.69500
H  -1.16500 15.70200 31.73000
H  -2.67000 14.99500 32.45500
H  -2.87600 17.33300 33.46100
H  -1.15000 17.55500 33.04100
H  -3.35000 22.76100 26.64100
H  -1.70200 22.94300 26.86800
H  -2.63700 22.03200 28.03400
H  -2.36300 23.54100 22.83900
H  -1.65700 23.31800 24.53400
H  -3.35000 22.99200 24.11400
H  -1.20300 16.71200 21.25300
H  -2.68900 14.24000 21.72100
H  -4.12400 16.87200 21.53600
H  -3.39600 15.94700 20.12900
H  -3.19000 17.61600 20.36200
H  -0.42600 14.57900 20.48700
H  -0.50400 13.17400 21.52700
H  1.30700 15.37700 21.48900
H  1.29000 14.00000 22.69200
H  0.57200 15.57500 23.01400
H  -1.24500 10.27500 26.56900
H  -1.74200 10.76800 24.90900
H  -2.96200 10.36300 26.14500
H  -3.31100 13.29100 30.56300
H  -1.02900 12.70900 34.31300
H  0.30400 13.02000 33.06500
H  -0.27100 11.39400 33.43000
Mg 40.75100 9.53600 29.11000
C  42.58500 10.72000 31.80600
C  38.59700 7.92300 31.11700
C  39.43500 8.18000 26.44400
C  43.56400 10.54000 27.04900
N  40.70900 9.29900 31.20200
C  41.48500 9.99800 32.18200
C  40.88100 9.78500 33.57000
C  39.66600 8.80300 33.28400
C  39.68800 8.59500 31.80800
C  39.59500 7.58600 34.29700
C  40.43200 11.14500 34.22900
C  39.50300 11.01400 35.41800
H  39.87600 11.59500 36.79700
N  39.17200 8.26800 28.83200
C  38.34000 7.74900 29.76500
C  37.27100 7.05100 29.12300
C  37.52300 7.02100 27.73000
C  38.72500 7.85800 27.62500
C  36.04700 6.47900 29.85300
C  36.73100 6.50100 26.62100
O  37.07200 6.81800 25.47700
C  35.58400 5.52300 26.80200
N  41.43000 9.40100 27.04900
C  40.58700 8.87700 26.13400
C  41.09900 8.93600 24.67500
C  42.49400 9.65900 24.89200
C  42.53600 9.90500 26.43300
C  41.16800 7.49900 24.02200
C  42.74200 10.85100 23.96600
C  42.15600 12.23100 24.37200
N  42.65900 10.54800 29.28900
C  43.63400 10.86400 28.42000
C  44.69600 11.60100 29.04900
C  44.30100 11.45800 30.37500
C  43.06600 10.81400 30.46500
C  45.88200 12.13200 28.42400
C  44.78600 11.72800 31.68900
O  45.85500 12.14500 32.09300
C  43.64100 11.35500 32.69800
C  44.08500 10.29400 33.72700
O  44.49600 9.17300 33.49400
O  44.02100 10.86000 34.97400
C  44.62200 10.13600 36.03700
H  37.83600 7.44700 31.73800
H  39.04700 7.80200 25.49600
H  44.41100 10.75200 26.39300
H  41.66300 9.19300 34.04500
H  38.68800 9.27800 33.35700
H  38.70900 7.55800 34.93200
H  40.43900 7.61100 34.98700
H  39.68400 6.66200 33.72500
H  40.05000 11.94900 33.60000
H  41.36000 11.59700 34.57800
H  39.23900 9.96100 35.51600
H  38.68200 11.67400 35.13700
H  35.10600 6.59800 29.31700
H  36.05300 6.97300 30.82500
H  36.17200 5.39600 29.86100
H  35.59900 4.80800 25.97900
H  34.59500 5.97900 26.83300
H  35.84500 4.91400 27.66700
H  40.42300 9.57500 24.10800
H  43.31000 8.94800 24.76100
H  40.39600 7.27300 23.28600
H  41.20600 6.67800 24.73800
H  42.14800 7.40200 23.55400
H  42.25200 10.54500 23.04200
H  43.81400 10.96800 23.80600
H  41.59000 12.62500 23.52800
H  43.03400 12.85100 24.55000
H  41.47500 12.20100 25.22300
H  45.69900 12.96700 27.74800
H  46.53000 11.39600 27.94800
H  46.44000 12.56400 29.25500
H  43.28600 12.22100 33.25800
H  43.84200 9.79000 36.71500
H  45.17500 10.91300 36.56500
H  45.26500 9.30400 35.75200

