158

Mg 50.22300 44.88100 42.38500
C  47.01900 45.44900 40.66400
C  50.05300 41.54300 41.31200
C  53.57000 44.36900 42.93300
C  50.61400 48.18000 42.73800
N  48.74600 43.69600 41.06500
C  47.48600 44.12800 40.57200
C  46.68800 42.88400 40.17000
C  47.56100 41.59900 40.48000
C  48.85900 42.29700 41.06200
C  46.78500 40.49200 41.32000
C  46.11000 42.92600 38.69300
C  46.83700 43.65200 37.51000
H  47.20500 42.82700 36.26100
N  51.63800 43.18600 42.27100
C  51.34100 41.96800 41.71000
C  52.57500 41.16600 41.60600
C  53.59800 41.93300 42.18900
C  52.95300 43.25900 42.44500
C  52.61400 39.80300 41.13000
C  55.06500 41.51500 42.40200
O  55.35400 40.36100 42.19100
C  56.13000 42.46000 42.78900
N  51.80000 46.08000 42.94200
C  53.03900 45.62900 43.28200
C  53.98700 46.83700 43.52900
C  52.99400 47.99100 43.79700
C  51.72800 47.42400 43.12200
C  55.02900 46.67800 44.64300
C  53.49900 49.36500 43.27100
C  53.46400 50.38700 44.34700
N  48.95700 46.50800 42.01000
C  49.29600 47.80500 42.17700
C  48.17000 48.59900 41.90200
C  47.23900 47.78900 41.27400
C  47.77900 46.47800 41.30200
C  48.14000 50.15000 42.03800
C  45.91300 47.69000 40.70900
O  45.00700 48.50100 40.58400
C  45.77800 46.10000 40.18100
C  44.47000 45.53100 40.68400
O  43.53200 45.24400 39.98100
O  44.32000 45.63900 42.06100
C  43.14700 45.03700 42.65700
H  50.01800 40.46900 41.11900
H  54.64000 44.29900 43.14300
H  50.77400 49.25900 42.77700
H  45.82800 42.88500 40.84100
H  47.93700 41.15100 39.56100
H  45.90900 40.80400 41.88900
H  47.46700 40.16700 42.10600
H  46.43300 39.68000 40.68400
H  45.03300 43.08800 38.63100
H  46.10900 41.88300 38.37500
H  47.69500 44.24200 37.83200
H  46.19100 44.42800 37.10000
H  53.47400 39.61700 40.48700
H  51.67400 39.54600 40.64400
H  52.66900 39.07500 41.93900
H  56.11300 43.35200 42.16400
H  57.12300 42.01000 42.78600
H  55.89000 42.66500 43.83200
H  54.43200 46.95900 42.54200
H  52.88300 47.94800 44.88100
H  54.80400 45.73900 45.15000
H  54.98400 47.44200 45.42000
H  56.01200 46.61300 44.17600
H  52.98900 49.58700 42.33400
H  54.52300 49.15200 42.96300
H  52.77500 49.93500 45.06100
H  53.00800 51.33500 44.06400
H  54.47700 50.61300 44.68000
H  47.43000 50.54300 41.31000
H  49.11900 50.61300 41.91300
H  47.73200 50.35500 43.02800
H  45.82600 46.03800 39.09400
H  43.11100 45.27800 43.72000
H  43.10800 43.97000 42.44200
H  42.22000 45.46400 42.27600
Mg 10.62600 47.53800 25.90300
C  8.53900 47.34600 28.84100
C  13.19900 48.49900 27.96200
C  12.65500 47.46900 23.28300
C  7.98000 46.70300 23.95400
N  10.72400 47.97600 28.17300
C  9.82800 47.74100 29.18300
C  10.42200 48.10000 30.55200
C  11.76500 48.80400 30.13700
C  11.95800 48.27200 28.68200
C  11.70600 50.34300 30.05300
C  10.64400 46.81800 31.39200
C  10.14500 46.89200 32.82100
H  10.37600 45.67600 33.71000
N  12.66200 48.00600 25.65200
C  13.56400 48.34000 26.64300
C  14.87600 48.22400 26.09100
C  14.78800 47.91500 24.74500
C  13.32600 47.88300 24.52100
C  16.12800 48.44700 27.02400
C  15.94800 47.79300 23.76700
O  15.73200 47.81000 22.52000
C  17.35400 47.73400 24.31200
N  10.34000 47.34700 23.85300
C  11.33200 47.35600 22.94100
C  10.85500 47.11900 21.57900
C  9.36500 46.92700 21.78200
C  9.21200 46.99700 23.30600
C  11.14700 48.21600 20.58400
C  8.86200 45.66100 21.06000
C  9.24000 44.29500 21.63400
N  8.61500 47.24700 26.22800
C  7.65100 46.81200 25.32400
C  6.40400 46.61500 25.97700
C  6.72200 46.84800 27.34400
C  8.07900 47.19400 27.44700
C  5.06900 46.03900 25.43100
C  6.12700 46.75400 28.73700
O  5.01700 46.44300 29.17900
C  7.35600 47.04000 29.77300
C  7.53500 45.74800 30.46500
O  8.29800 44.82200 30.20200
O  6.71300 45.77300 31.53500
C  6.84800 44.57400 32.45700
H  13.94400 48.88600 28.66100
H  13.33300 47.16500 22.48300
H  7.19800 46.38900 23.26000
H  9.71600 48.76000 31.05400
H  12.65900 48.53400 30.70000
H  10.95500 50.77800 30.71200
H  11.31900 50.54900 29.05400
H  12.71700 50.74100 30.13400
H  11.72600 46.75900 31.50400
H  10.40000 45.91500 30.83200
H  9.10200 47.20800 32.80200
H  10.69900 47.69900 33.30100
H  15.80900 48.51400 28.06400
H  16.57800 49.43500 26.92500
H  16.77200 47.57100 26.94400
H  17.45100 46.98600 25.09900
H  17.54800 48.73800 24.68900
H  18.03300 47.46800 23.50200
H  11.28300 46.20100 21.17600
H  8.77800 47.74500 21.36400
H  11.52900 47.80700 19.64900
H  11.76400 48.94200 21.11400
H  10.22900 48.72800 20.29600
H  9.23000 45.66900 20.03400
H  7.78100 45.69600 20.92500
H  9.30000 44.30300 22.72200
H  10.21600 43.91100 21.33600
H  8.49200 43.54200 21.38700
H  4.56800 46.82100 24.86200
H  4.40500 45.56800 26.15600
H  5.38500 45.23300 24.76800
H  7.24500 47.89200 30.44400
H  7.60700 44.56000 33.24000
H  6.84100 43.67400 31.84400
H  5.91600 44.52700 33.02000

