158

Mg 36.48900 50.03400 24.67100
C  36.61600 48.21100 27.75900
C  34.55600 52.44900 26.45500
C  35.62300 51.45900 21.77900
C  37.87400 47.27500 23.05600
N  35.64500 50.21400 26.91700
C  35.89100 49.43800 27.97200
C  35.44300 49.92100 29.30500
C  34.56900 51.23200 28.87800
C  34.89900 51.31200 27.30800
C  33.07700 51.46000 29.16100
C  36.59500 50.28600 30.33400
C  36.65100 49.65600 31.70900
H  35.25500 49.45100 32.26900
N  35.37400 51.77500 24.21400
C  34.67200 52.63300 25.07300
C  34.23900 53.75900 24.26400
C  34.52900 53.52900 22.86800
C  35.14500 52.16500 22.87400
C  33.65600 54.90800 24.94800
C  34.25800 54.38300 21.62300
O  34.59400 54.06900 20.46600
C  33.60500 55.81800 21.74800
N  36.76200 49.46000 22.68300
C  36.44100 50.31100 21.67200
C  36.98400 49.66900 20.34200
C  37.93200 48.49200 20.79500
C  37.56800 48.36800 22.26500
C  35.73800 49.32200 19.44300
C  39.47200 48.58600 20.28200
C  40.50800 49.03300 21.38000
N  37.18100 48.12400 25.24100
C  37.70400 47.14200 24.46600
C  38.10000 46.03600 25.23000
C  37.72000 46.38800 26.54900
C  37.13000 47.69200 26.50200
C  38.67700 44.71600 24.78700
C  37.72000 45.85700 27.91200
O  38.09700 44.76200 28.40000
C  37.05300 47.08200 28.78900
C  36.02100 46.65800 29.73900
O  34.83000 46.72300 29.56000
O  36.63400 45.92500 30.74500
C  35.75300 45.31900 31.80000
H  34.13200 53.25900 27.05300
H  35.42200 51.91300 20.80600
H  38.40700 46.43100 22.61400
H  34.70700 49.22800 29.71200
H  35.03200 52.04700 29.43500
H  32.79300 50.54300 29.67600
H  32.50200 51.54200 28.23900
H  32.91300 52.29600 29.84100
H  36.60000 51.35900 30.52600
H  37.56000 50.09800 29.86400
H  37.28800 50.14200 32.44800
H  37.12500 48.67400 31.68200
H  34.09300 55.86500 24.66300
H  33.98800 54.92800 25.98600
H  32.57200 54.84800 24.85700
H  34.26400 56.42700 22.36700
H  32.61600 55.74600 22.19900
H  33.49900 56.28200 20.76700
H  37.62900 50.37100 19.81400
H  37.43100 47.57600 20.48200
H  34.78000 49.38000 19.96100
H  35.80800 48.26700 19.18000
H  35.66600 49.87700 18.50800
H  39.57400 49.38700 19.54900
H  39.80100 47.65600 19.81900
H  41.40000 48.47000 21.10300
H  40.20100 48.86600 22.41200
H  40.73500 50.09100 21.24800
H  38.41200 43.88400 25.44000
H  39.74300 44.86500 24.61600
H  38.31900 44.32700 23.83400
H  37.88700 47.37300 29.42700
H  35.46700 44.33000 31.44200
H  34.87700 45.92400 32.03600
H  36.41300 45.33200 32.66800
Mg -11.42800 38.51500 41.48000
C  -9.58600 35.61600 40.87000
C  -9.18000 40.27500 39.62900
C  -13.54100 41.10900 41.71700
C  -13.99400 36.44500 42.73500
N  -9.51700 38.04000 40.49400
C  -8.98900 36.80000 40.31300
C  -7.67900 36.85300 39.52100
C  -7.54500 38.36700 39.23400
C  -8.78200 38.96400 39.83300
C  -6.18100 39.06100 39.68600
C  -7.64800 36.01600 38.21100
C  -6.30900 35.37400 37.68700
H  -5.66200 35.69700 36.34200
N  -11.30600 40.41700 40.85400
C  -10.28200 40.98700 40.12600
C  -10.57800 42.45900 39.96800
C  -11.67300 42.72100 40.82400
C  -12.20300 41.38000 41.23600
C  -9.79900 43.40000 39.08900
C  -12.26900 44.13300 41.14000
O  -11.68300 45.07500 40.68600
C  -13.49200 44.37500 41.94900
N  -13.61400 38.73200 41.95000
C  -14.20800 39.90200 42.00500
C  -15.63700 39.90600 42.54700
C  -15.82700 38.34500 42.83300
C  -14.40200 37.84000 42.54100
C  -15.92900 40.79700 43.77600
C  -16.92500 37.63200 41.98100
C  -18.00800 36.76900 42.63700
N  -11.71700 36.50200 41.82300
C  -12.78500 35.84700 42.42100
C  -12.48700 34.43200 42.58400
C  -11.24400 34.34900 41.97600
C  -10.85900 35.63800 41.48200
C  -13.30900 33.41500 43.16000
C  -10.15800 33.41600 41.63400
O  -10.17000 32.20600 41.85800
C  -9.06300 34.19200 40.86400
C  -7.76200 33.95700 41.48500
O  -7.05100 32.97500 41.30500
O  -7.43500 34.94100 42.38700
C  -6.15100 34.71400 43.03000
H  -8.44700 40.89100 39.10300
H  -14.24700 41.93600 41.81300
H  -14.76900 35.83100 43.19800
H  -6.91300 36.45300 40.18500
H  -7.69700 38.65100 38.19300
H  -6.50600 40.03200 40.05900
H  -5.50200 39.24800 38.85400
H  -5.67500 38.47300 40.45200
H  -7.92700 36.52100 37.28600
H  -8.50600 35.34500 38.21700
H  -6.37000 34.28600 37.64400
H  -5.51600 35.53800 38.41700
H  -10.47100 43.76300 38.31200
H  -9.00400 42.95800 38.49000
H  -9.48700 44.26100 39.68000
H  -13.39100 45.39900 42.31000
H  -13.69300 43.74200 42.81300
H  -14.26100 44.37400 41.17600
H  -16.23800 40.25100 41.70700
H  -16.04400 38.19400 43.89000
H  -15.19800 41.58000 43.97600
H  -16.17600 40.12100 44.59500
H  -16.93700 41.10800 43.50300
H  -16.38700 36.90600 41.37200
H  -17.39300 38.36600 41.32400
H  -17.95800 36.80800 43.72600
H  -17.99300 35.70000 42.42800
H  -18.98500 37.04100 42.23800
H  -13.52000 33.63000 44.20700
H  -12.79600 32.46600 42.99900
H  -14.32200 33.31800 42.76800
H  -9.19100 33.67300 39.91400
H  -5.28700 34.84300 42.37800
H  -6.08000 33.77700 43.58300
H  -6.19300 35.46600 43.81700

