158

Mg 17.64100 -1.20800 26.89100
C  16.63300 0.77100 29.59200
C  19.23700 -3.37900 29.07300
C  18.90300 -2.82900 24.24500
C  16.16100 1.06300 24.63300
N  17.90900 -1.23900 29.10600
C  17.31800 -0.37800 29.99900
C  17.65700 -0.70900 31.41400
C  18.51100 -2.07500 31.28600
C  18.52300 -2.30900 29.75400
C  19.93300 -2.07300 31.90500
C  16.43900 -0.98800 32.43000
C  16.66300 -0.50400 33.85100
H  18.00200 0.04100 34.32100
N  18.89300 -2.89700 26.65900
C  19.36900 -3.66600 27.69700
C  20.24600 -4.65700 27.05300
C  20.07100 -4.61700 25.63800
C  19.23700 -3.44200 25.45000
C  20.99600 -5.77200 27.90800
C  20.66400 -5.54000 24.60300
O  20.51200 -5.35600 23.38400
C  21.66600 -6.60700 25.02100
N  17.67200 -0.81600 24.77700
C  18.28200 -1.63700 23.96900
C  18.27000 -1.22700 22.52600
C  17.20200 -0.00900 22.59200
C  17.05200 0.11600 24.06700
C  19.63400 -0.84800 21.89400
C  15.87000 -0.14800 21.76300
C  14.86600 -1.11200 22.46700
N  16.66400 0.58700 27.09900
C  15.98400 1.30400 26.06100
C  15.05000 2.19700 26.71400
C  15.42900 2.10600 28.12100
C  16.37500 1.11400 28.27300
C  14.04400 3.06700 26.01500
C  15.11900 2.60600 29.34700
O  14.35600 3.54900 29.59400
C  15.91100 1.83800 30.41000
C  16.76300 2.80200 31.13700
O  17.79300 3.31700 30.73700
O  16.11200 3.15500 32.28300
C  16.73100 4.13300 33.23400
H  19.64300 -4.10200 29.78300
H  19.19800 -3.35900 23.33700
H  15.56600 1.56000 23.86300
H  18.23900 0.12200 31.81200
H  18.02900 -2.95700 31.70800
H  20.64800 -2.14100 31.08500
H  19.98400 -2.94400 32.55900
H  20.16300 -1.16300 32.45900
H  16.31800 -2.06700 32.52400
H  15.56700 -0.54400 31.94900
H  16.46100 -1.35100 34.50700
H  15.93700 0.28400 34.04900
H  20.21200 -6.51100 28.07000
H  21.10700 -5.25700 28.86200
H  22.01000 -5.97600 27.56300
H  21.10800 -7.27600 25.67600
H  22.53700 -6.07900 25.41100
H  21.88200 -7.18500 24.12200
H  17.87300 -2.00200 21.86900
H  17.74500 0.85900 22.21600
H  20.04600 -1.70800 21.36700
H  20.42800 -0.43800 22.51800
H  19.46300 -0.05000 21.17200
H  16.03600 -0.66000 20.81500
H  15.59900 0.90100 21.64000
H  15.35500 -1.63100 23.29100
H  14.49600 -1.90800 21.82000
H  13.92600 -0.61200 22.70100
H  13.25600 2.44700 25.58500
H  14.50000 3.75200 25.30100
H  13.55900 3.71300 26.74700
H  15.11300 1.32200 30.94500
H  16.11100 5.02900 33.24900
H  17.74700 4.43700 32.98500
H  16.75900 3.61100 34.19100
Mg 8.97100 48.19900 26.45400
C  6.46600 48.88400 28.85200
C  11.34500 49.10100 28.72100
C  11.29700 47.58100 24.11700
C  6.47600 47.56000 24.09600
N  8.86500 49.03600 28.51800
C  7.71600 49.13000 29.29200
C  8.12600 49.34300 30.77500
C  9.64900 49.60900 30.64600
C  9.96800 49.20000 29.21100
C  9.97100 51.07300 30.97600
C  7.84700 48.15600 31.71500
C  8.67900 47.99600 32.98700
H  8.13800 47.10900 34.18800
N  11.04800 48.23600 26.41900
C  11.79600 48.72400 27.43600
C  13.19800 48.70700 26.98900
C  13.24100 48.21100 25.69100
C  11.83100 48.00400 25.33900
C  14.36500 49.08500 27.94800
C  14.40200 47.92000 24.69900
O  14.24700 47.51000 23.54800
C  15.79300 48.10500 25.16500
N  8.89500 47.73900 24.39300
C  10.01200 47.40000 23.69700
C  9.66600 46.93400 22.28400
C  8.17200 46.97200 22.23100
C  7.76600 47.39300 23.68500
C  10.31800 47.63300 21.09600
C  7.56200 45.54800 21.79800
C  7.27500 45.56000 20.22500
N  6.82100 48.39500 26.37200
C  5.92300 48.02100 25.34800
C  4.56200 48.26300 25.89500
C  4.74900 48.48200 27.23700
C  6.09700 48.62900 27.44100
C  3.30400 47.97500 25.26800
C  4.10200 48.71500 28.45100
O  2.89900 48.74400 28.69500
C  5.12800 48.89300 29.63600
C  5.09200 47.74400 30.50000
O  5.50100 46.60600 30.21900
O  4.62800 48.13900 31.68300
C  4.10400 47.16800 32.57900
H  12.10700 49.30300 29.47600
H  12.01800 47.19300 23.39500
H  5.79100 47.34500 23.27400
H  7.55400 50.21900 31.08000
H  10.32700 49.03600 31.27700
H  9.12300 51.70300 31.24300
H  10.22700 51.47500 29.99600
H  10.79900 51.12900 31.68300
H  7.65900 47.22800 31.17500
H  6.89800 48.45100 32.16300
H  9.03700 48.93900 33.40000
H  9.63200 47.54400 32.71200
H  15.05500 49.73100 27.40500
H  15.03600 48.26600 28.20800
H  13.96700 49.62100 28.81000
H  16.52300 47.75800 24.43400
H  15.97900 47.58700 26.10600
H  15.90300 49.18900 25.19800
H  10.03500 45.91200 22.20000
H  7.65400 47.64200 21.54400
H  9.54000 48.01400 20.43400
H  10.96600 47.02500 20.46400
H  10.93300 48.48600 21.38300
H  6.69800 45.38800 22.44300
H  8.19400 44.66200 21.85300
H  7.76800 46.36200 19.67500
H  6.20600 45.73400 20.09600
H  7.49200 44.57700 19.80800
H  3.53400 47.40700 24.36700
H  2.71800 48.85700 25.01000
H  2.69000 47.33000 25.89700
H  5.05500 49.83700 30.17500
H  3.89400 47.61400 33.55100
H  4.79400 46.32700 32.52400
H  3.14000 46.98700 32.10200

