158

Mg 28.23800 57.53400 42.61700
C  25.92100 55.64400 40.82700
C  30.68100 56.26300 40.71600
C  30.04500 60.14400 43.67200
C  25.34300 59.07200 44.26000
N  28.20100 56.33600 40.77600
C  27.19400 55.53700 40.30000
C  27.66800 54.61900 39.14500
C  29.24600 54.78700 39.31400
C  29.44000 55.78000 40.45400
C  30.10900 53.51500 39.48200
C  27.08700 55.03200 37.78200
C  26.52900 53.83600 37.00200
H  27.10500 53.45100 35.64600
N  30.13800 58.04500 42.39800
C  31.07300 57.33000 41.60900
C  32.34400 57.95300 41.77400
C  32.19900 59.07800 42.59900
C  30.74600 59.19300 42.90900
C  33.63800 57.42000 41.06900
C  33.29800 60.04700 42.93900
O  34.41400 59.95100 42.44900
C  33.15500 61.24300 43.94100
N  27.70900 59.46000 43.74300
C  28.70200 60.26600 44.11400
C  28.15400 61.48700 44.85300
C  26.74700 60.99900 45.21800
C  26.54100 59.82800 44.34900
C  29.00400 61.89500 46.03600
C  25.64200 62.06400 45.25600
C  24.85700 62.22400 46.59500
N  26.09800 57.31900 42.69900
C  25.11500 57.99400 43.39900
C  23.76600 57.45000 43.12100
C  24.09200 56.60800 42.06800
C  25.51300 56.45700 41.90300
C  22.33400 57.88600 43.54300
C  23.42600 55.71600 41.09400
O  22.23500 55.46800 40.97100
C  24.57700 54.99100 40.32500
C  24.36600 53.57900 40.52200
O  24.52100 52.95100 41.56500
O  24.23000 53.06200 39.24500
C  24.28100 51.58000 39.11200
H  31.51500 55.81200 40.17500
H  30.62100 61.02600 43.96300
H  24.49200 59.52700 44.77100
H  27.38700 53.59100 39.37600
H  29.62000 55.30600 38.43200
H  30.52600 53.52400 40.48900
H  30.82500 53.49300 38.66100
H  29.46500 52.64300 39.36900
H  27.78600 55.46300 37.06500
H  26.36200 55.83300 37.92400
H  25.50800 54.13700 36.76800
H  26.58800 52.93500 37.61300
H  33.59100 56.33200 41.10600
H  34.52100 57.78300 41.59500
H  33.76700 57.69600 40.02200
H  32.57700 62.03900 43.47300
H  34.11700 61.63800 44.26800
H  32.72500 60.84300 44.86000
H  28.07500 62.25200 44.08100
H  26.77500 60.41400 46.13800
H  28.36700 62.08400 46.90000
H  29.49400 62.81900 45.72900
H  29.73700 61.14300 46.33100
H  24.88900 61.76400 44.52800
H  25.84300 63.08000 44.91500
H  24.87700 63.28700 46.83800
H  25.24000 61.70600 47.47500
H  23.85400 61.85900 46.37400
H  22.06900 58.93800 43.44700
H  22.23600 57.48900 44.55300
H  21.75300 57.37400 42.77600
H  24.52500 55.33400 39.29200
H  24.49800 51.50100 38.04700
H  23.28500 51.27500 39.43400
H  25.01200 51.22500 39.83900
Mg 16.42000 52.09000 26.08400
C  18.26400 50.41100 28.57800
C  14.10900 53.00100 28.60200
C  14.82100 53.96700 23.83300
C  18.70000 51.07200 23.71300
N  16.23800 51.79300 28.36200
C  17.14500 51.14700 29.14200
C  16.74000 51.14100 30.62800
C  15.23200 51.66200 30.50200
C  15.22300 52.27600 29.08200
C  14.21200 50.53900 30.75100
C  17.67600 52.12000 31.42900
C  18.05900 51.64600 32.82400
H  17.15300 52.10500 33.98600
N  14.72200 53.31300 26.18500
C  13.92700 53.51800 27.32300
C  12.74200 54.20800 26.82900
C  12.95300 54.67000 25.50800
C  14.22200 53.91800 25.10600
C  11.55200 54.61300 27.78200
C  12.11800 55.59500 24.56100
O  12.42300 55.75600 23.42000
C  10.86000 56.16700 25.07500
N  16.77200 52.48700 24.11000
C  16.02800 53.43900 23.41500
C  16.41200 53.54600 21.96700
C  17.88200 52.87600 21.98000
C  17.72700 52.07100 23.33600
C  15.38500 53.09800 20.90400
C  19.13900 53.85600 21.97700
C  19.64400 54.27700 20.50000
N  18.01000 50.71400 26.01200
C  18.88200 50.39900 24.96800
C  19.97700 49.63700 25.45400
C  19.77100 49.57700 26.81600
C  18.53800 50.26900 27.15600
C  21.12900 49.06000 24.62200
C  20.38200 49.20800 28.10000
O  21.44900 48.64700 28.35400
C  19.43100 49.70300 29.28500
C  18.89800 48.47900 30.03100
O  18.23300 47.58100 29.60600
O  19.49600 48.51500 31.22300
C  19.07300 47.50400 32.15200
H  13.34600 53.20100 29.35600
H  14.37900 54.64400 23.09800
H  19.55100 51.07400 23.02800
H  16.73700 50.16700 31.11600
H  15.05300 52.43500 31.24900
H  13.59100 50.75700 31.62000
H  14.72000 49.57500 30.77700
H  13.46400 50.56100 29.95900
H  17.19200 53.09400 31.48700
H  18.58200 52.34100 30.86600
H  19.04200 52.04300 33.07600
H  18.10800 50.55800 32.85600
H  11.30300 55.67100 27.70000
H  11.80900 54.39500 28.81900
H  10.63700 54.07200 27.54000
H  10.21700 55.44100 25.57300
H  10.25100 56.61600 24.29100
H  11.20100 56.88900 25.81700
H  16.58900 54.61000 21.81000
H  17.96100 52.15500 21.16500
H  15.85700 52.38700 20.22600
H  15.13500 53.99200 20.33200
H  14.55700 52.60000 21.40900
H  19.89300 53.23200 22.45600
H  19.09600 54.70100 22.66500
H  19.42700 55.33800 20.62000
H  18.99000 53.95000 19.69100
H  20.67700 54.03800 20.25000
H  22.09800 49.48600 24.88200
H  20.92800 49.12200 23.55300
H  21.36100 48.02800 24.88700
H  19.93500 50.46500 29.88000
H  19.39500 47.97900 33.07900
H  19.53900 46.54000 31.95000
H  18.00100 47.38600 32.30800

