158

Mg 45.79000 6.39400 48.13000
C  43.50800 8.92300 47.34600
C  43.52200 4.12900 47.00600
C  48.28500 4.12100 48.03400
C  48.25100 8.95300 48.68700
N  43.78800 6.48400 47.19500
C  43.05700 7.62000 47.16700
C  41.65700 7.33100 46.63100
C  41.57500 5.81000 46.94800
C  43.06100 5.43700 46.98300
C  40.75400 5.34800 48.18600
C  41.61000 7.70900 45.08600
C  40.22400 8.18500 44.59900
H  39.66000 7.48600 43.36500
N  45.89900 4.43900 47.75900
C  44.85700 3.66400 47.34000
C  45.34700 2.30400 47.17700
C  46.74600 2.29100 47.36100
C  47.01600 3.70500 47.76800
C  44.39200 1.24200 46.64800
C  47.61000 1.09600 47.26000
O  47.08900 -0.04200 47.14400
C  48.99300 1.01300 47.32000
N  47.96600 6.55400 48.30400
C  48.74900 5.42400 48.28500
C  50.16400 5.70300 48.74800
C  50.09400 7.16800 49.31400
C  48.75000 7.60800 48.68400
C  50.91800 4.62400 49.71700
C  51.23400 8.07600 48.92500
C  51.48100 9.28900 49.94600
N  45.90700 8.53200 48.18500
C  46.92700 9.42500 48.39200
C  46.38700 10.80000 48.26100
C  45.07800 10.64800 47.87800
C  44.81800 9.23800 47.78400
C  47.09800 12.07300 48.57200
C  43.81500 11.32800 47.56100
O  43.62700 12.56000 47.57500
C  42.78500 10.19700 47.20800
C  41.77500 10.28000 48.35000
O  41.95200 9.94400 49.48700
O  40.53300 10.64100 47.83300
C  39.32300 10.54000 48.65100
H  42.69300 3.42000 46.95400
H  49.13100 3.43200 48.08200
H  48.89900 9.73900 49.07800
H  40.90100 7.90100 47.17100
H  41.08000 5.31800 46.11000
H  39.72300 5.09200 47.94300
H  40.83000 6.17800 48.88800
H  41.20600 4.42700 48.55500
H  42.02800 6.91400 44.46900
H  42.39600 8.43600 44.88000
H  40.29800 9.25900 44.42600
H  39.46300 7.99500 45.35500
H  44.92200 0.53300 46.01200
H  43.57300 1.76100 46.15000
H  43.88800 0.84300 47.52800
H  49.26700 -0.03900 47.24900
H  49.31300 1.25300 48.33400
H  49.46900 1.57700 46.51800
H  50.69600 5.80900 47.80300
H  49.88400 7.14500 50.38300
H  50.29200 3.82800 50.12000
H  51.45600 5.14700 50.50700
H  51.74700 4.16800 49.17600
H  51.07000 8.66200 48.02100
H  52.20700 7.62400 48.73400
H  52.38700 9.05500 50.50600
H  50.58900 9.47300 50.54500
H  51.68700 10.23700 49.45000
H  46.86600 12.33900 49.60300
H  46.77000 12.92000 47.96900
H  48.17100 11.88100 48.54400
H  42.35700 10.38900 46.22400
H  39.24900 11.47100 49.21200
H  39.35100 9.68400 49.32600
H  38.38500 10.43400 48.10600
Mg 17.16000 52.75000 26.65300
C  19.07400 51.33700 29.16200
C  14.80400 53.63000 29.07200
C  15.41000 54.11500 24.08500
C  19.53900 51.53900 24.26700
N  16.93300 52.30400 28.84200
C  17.93500 51.94600 29.63300
C  17.65300 52.09800 31.10300
C  16.11500 52.56800 31.08900
C  15.90900 52.87900 29.56800
C  15.00500 51.51400 31.66700
C  18.60600 53.02500 31.81800
C  19.07800 52.63700 33.22100
H  18.01400 51.89600 34.02900
N  15.27600 53.65500 26.57300
C  14.53500 53.97300 27.70100
C  13.41000 54.82900 27.19600
C  13.46200 54.79800 25.72200
C  14.76100 54.18600 25.40100
C  12.32900 55.51100 28.09900
C  12.49000 55.24800 24.68700
O  12.73300 55.03800 23.48100
C  11.26800 55.89900 25.08000
N  17.38300 52.71500 24.53800
C  16.56100 53.45100 23.66400
C  17.03300 53.45700 22.17400
C  18.49900 52.87000 22.40200
C  18.41500 52.23700 23.79800
C  16.08200 52.49700 21.39000
C  19.59600 53.97800 22.23500
C  19.98900 54.72700 23.53200
N  18.88900 51.65700 26.65400
C  19.81100 51.28600 25.59600
C  20.93500 50.61300 26.22800
C  20.61400 50.49800 27.55400
C  19.35200 51.18500 27.79900
C  22.10900 50.02200 25.47800
C  21.15200 50.03700 28.85700
O  22.18100 49.45300 29.11800
C  20.22400 50.57800 29.91000
C  19.58100 49.44400 30.63900
O  18.92900 48.61000 30.14800
O  19.98800 49.41300 31.90300
C  19.51300 48.29400 32.82000
H  14.17000 54.02400 29.86900
H  14.95900 54.68100 23.26700
H  20.32100 51.10800 23.63800
H  17.62300 51.14000 31.62200
H  15.98200 53.52800 31.58700
H  14.40800 51.14400 30.83300
H  14.29700 52.03500 32.31100
H  15.48200 50.83100 32.37000
H  18.21800 54.04000 31.74000
H  19.54100 53.10800 31.26400
H  19.19200 53.54300 33.81500
H  19.97000 52.02700 33.07200
H  12.30800 55.06800 29.09400
H  11.33500 55.37800 27.67200
H  12.36000 56.60100 28.09600
H  10.66500 55.15600 25.60200
H  10.83300 56.24900 24.14300
H  11.49000 56.76700 25.70000
H  17.12000 54.50200 21.87700
H  18.76700 52.07100 21.71100
H  15.26200 52.18600 22.03800
H  16.67800 51.65800 21.03000
H  15.76500 53.10400 20.54300
H  19.29200 54.75700 21.53600
H  20.57700 53.61800 21.92400
H  19.51800 55.70800 23.47400
H  21.07000 54.86500 23.55100
H  19.81500 54.24100 24.49200
H  22.48400 50.73600 24.74400
H  21.93200 49.06400 24.99000
H  22.82900 49.87500 26.28300
H  20.70700 51.34000 30.52200
H  19.98600 47.35000 32.54900
H  18.45200 48.23500 32.57900
H  19.69700 48.62600 33.84200

