158

Mg 36.25300 49.24200 24.25700
C  36.77600 47.65400 27.33700
C  35.02300 51.95400 25.74700
C  35.60700 50.61100 21.31100
C  37.48900 46.23600 22.62300
N  36.01700 49.70300 26.30700
C  36.28100 48.94900 27.42500
C  36.00500 49.69200 28.74500
C  35.42400 51.11800 28.20600
C  35.45900 50.89800 26.65500
C  33.97700 51.48300 28.73000
C  37.27000 49.83500 29.72100
C  37.04500 49.67700 31.20800
H  35.55300 49.64200 31.70000
N  35.40800 51.04600 23.61700
C  35.02000 52.07000 24.41300
C  34.64900 53.23100 23.60200
C  34.77200 52.81700 22.27100
C  35.28500 51.49400 22.34300
C  34.10100 54.61700 24.18700
C  34.45400 53.52100 20.96300
O  34.85900 53.11500 19.93900
C  33.73100 54.84300 21.02100
N  36.35300 48.44500 22.24000
C  36.05600 49.25100 21.21300
C  36.47400 48.65300 19.87300
C  37.16600 47.27100 20.28500
C  36.95400 47.28100 21.81600
C  35.31800 48.45200 18.89500
C  38.63500 47.05300 19.83300
C  39.69400 47.91800 20.52200
N  36.96400 47.34600 24.79000
C  37.43800 46.25200 24.01900
C  37.97800 45.25600 24.92000
C  37.72200 45.83100 26.20600
C  37.15600 47.06400 26.07200
C  38.60900 43.98200 24.71500
C  37.95800 45.56700 27.67600
O  38.63400 44.71800 28.24900
C  37.30100 46.71700 28.44000
C  36.28000 46.08000 29.29700
O  35.11500 45.76200 29.00000
O  36.80300 45.86900 30.57700
C  35.80100 45.27000 31.51800
H  34.55300 52.78100 26.28300
H  35.53300 51.12900 20.35200
H  38.04000 45.44200 22.11400
H  35.16600 49.20900 29.24600
H  36.00900 52.02200 28.37600
H  34.16000 52.43900 29.22200
H  33.60800 50.76500 29.46200
H  33.23000 51.66700 27.95700
H  37.71100 50.79800 29.46400
H  38.06200 49.12300 29.49100
H  37.65700 50.46400 31.64800
H  37.52900 48.75700 31.53600
H  34.41500 54.59800 25.23100
H  33.02100 54.76000 24.16000
H  34.52800 55.48600 23.68600
H  34.44200 55.61900 21.30500
H  32.97400 54.66200 21.78400
H  33.20100 55.04100 20.08900
H  37.16500 49.34500 19.39100
H  36.59800 46.46200 19.82500
H  34.35900 48.60700 19.38900
H  35.38500 47.46400 18.43900
H  35.36800 49.23200 18.13500
H  38.70500 47.18400 18.75300
H  38.83700 45.98200 19.86000
H  39.43200 48.37100 21.47900
H  40.14700 48.56400 19.77000
H  40.54700 47.27000 20.72600
H  38.20900 43.64600 23.75800
H  38.34200 43.16500 25.38600
H  39.68900 43.98700 24.86200
H  38.00900 47.18800 29.12200
H  35.86400 44.18700 31.41000
H  34.81000 45.70800 31.63900
H  36.31300 45.60100 32.42200
Mg -6.14300 25.26000 25.67800
C  -4.61900 26.59700 28.45600
C  -7.86700 23.28300 27.58000
C  -6.97900 23.54900 22.86000
C  -4.06100 27.25200 23.63100
N  -6.15200 24.89100 27.79800
C  -5.58500 25.63700 28.78700
C  -6.03900 25.28500 30.21100
C  -6.91900 23.96700 29.82300
C  -6.97600 24.04400 28.25700
C  -6.33900 22.68700 30.22600
C  -6.91900 26.30700 30.92400
C  -6.78900 26.47700 32.43500
H  -6.52600 25.30600 33.46100
N  -7.34800 23.73300 25.27400
C  -8.03200 23.05800 26.20500
C  -8.86400 22.06000 25.58900
C  -8.52500 22.04000 24.15700
C  -7.57500 23.15000 24.07400
C  -10.05400 21.32300 26.37100
C  -9.11200 21.13700 23.07700
O  -8.75000 21.31500 21.93500
C  -10.05300 20.01400 23.34900
N  -5.61900 25.37700 23.54000
C  -6.18900 24.62400 22.57800
C  -5.64000 24.85600 21.14100
C  -4.92000 26.22000 21.36000
C  -4.79600 26.28800 22.94200
C  -4.76900 23.66000 20.70100
C  -5.69800 27.49500 20.89700
C  -5.01700 28.16900 19.71400
N  -4.65700 26.67800 25.91300
C  -3.82100 27.34100 25.01800
C  -2.92600 28.27800 25.79600
C  -3.18800 27.88300 27.14000
C  -4.24100 26.91400 27.17700
C  -1.93100 29.26700 25.29000
C  -2.76400 28.16900 28.50500
O  -2.04300 28.97200 29.03900
C  -3.76400 27.32700 29.42100
C  -2.99400 26.47900 30.33100
O  -2.40800 25.44400 30.10700
O  -2.93300 27.13900 31.52800
C  -2.37300 26.37500 32.64500
H  -8.48800 22.66400 28.23200
H  -7.25200 23.04300 21.93200
H  -3.46400 27.97800 23.07500
H  -5.23300 25.07200 30.91400
H  -7.91900 23.94500 30.25700
H  -6.18100 22.01200 29.38400
H  -6.98900 22.18800 30.94500
H  -5.44200 22.78900 30.83700
H  -7.93400 26.14000 30.56100
H  -6.59800 27.30400 30.62100
H  -7.67200 26.98900 32.81700
H  -6.03900 27.23800 32.65200
H  -11.04300 21.30600 25.91300
H  -10.25500 21.77800 27.34100
H  -9.86000 20.25300 26.44600
H  -10.13300 19.44800 22.42100
H  -11.05500 20.33500 23.63300
H  -9.70600 19.32000 24.11400
H  -6.44200 24.93000 20.40700
H  -3.94300 26.09800 20.89300
H  -4.14300 23.89800 19.84100
H  -5.38400 22.87400 20.26300
H  -4.16400 23.27200 21.52100
H  -5.73200 28.27900 21.65400
H  -6.72900 27.29200 20.60700
H  -5.34400 27.77700 18.75100
H  -3.93500 28.04300 19.75200
H  -5.06000 29.24800 19.86500
H  -1.96500 29.46800 24.21900
H  -0.92700 29.05900 25.65900
H  -2.25900 30.21800 25.71000
H  -4.37400 28.05000 29.96300
H  -2.88300 26.66800 33.56300
H  -1.31900 26.58600 32.82700
H  -2.43200 25.29800 32.49500

