158

Mg 47.27700 33.70000 26.47700
C  45.90300 32.56000 29.42000
C  48.25800 36.54700 28.28900
C  48.57900 35.08100 23.68800
C  46.48600 30.83400 24.78100
N  47.08800 34.43200 28.62400
C  46.50300 33.79000 29.66200
C  46.71800 34.45200 31.00500
C  47.10100 35.86100 30.51500
C  47.62000 35.58600 29.09000
C  45.94500 36.93500 30.58800
C  47.83200 33.85000 31.86600
C  47.81900 33.88300 33.41400
H  46.80900 34.79400 34.13300
N  48.46600 35.49800 26.08000
C  48.69900 36.54500 26.87700
C  49.48100 37.54300 26.13300
C  49.55700 37.14800 24.75200
C  48.87800 35.83400 24.79400
C  50.12200 38.82400 26.73200
C  50.10300 37.90500 23.50800
O  50.20500 37.45800 22.38200
C  50.38700 39.35500 23.73500
N  47.40200 33.07000 24.43900
C  47.92000 33.85300 23.45400
C  47.92000 33.08700 22.10700
C  47.52900 31.62700 22.55100
C  47.12600 31.83000 24.01000
C  46.99900 33.70600 20.95600
C  48.70100 30.48900 22.38400
C  50.10700 30.79600 22.99100
N  46.32500 32.05100 26.89500
C  46.04700 30.86700 26.12500
C  45.33900 29.86000 26.99300
C  45.19100 30.53400 28.21700
C  45.88900 31.80900 28.17900
C  44.93800 28.42200 26.63100
C  44.61300 30.39000 29.47600
O  43.92600 29.52800 30.00900
C  44.98100 31.76400 30.28600
C  45.23600 31.55500 31.73700
O  46.15400 30.93000 32.25000
O  44.10300 31.95900 32.42300
C  43.97000 31.41300 33.76500
H  48.49200 37.42800 28.89100
H  48.81900 35.57400 22.74300
H  46.42300 29.87800 24.25700
H  45.75100 34.40000 31.50500
H  47.95400 36.22900 31.08500
H  45.12100 36.44600 31.10800
H  45.65400 37.27200 29.59300
H  46.27100 37.84100 31.09900
H  48.73700 34.43900 31.71900
H  48.10500 32.82500 31.61700
H  48.84200 33.90000 33.78800
H  47.55900 32.85500 33.66400
H  49.99900 38.69300 27.80700
H  49.54100 39.68700 26.40600
H  51.09500 39.09000 26.32000
H  49.46100 39.76200 24.14100
H  50.53500 39.79100 22.74700
H  51.30000 39.49400 24.31300
H  48.93600 33.07600 21.71100
H  46.60900 31.36200 22.03000
H  47.48500 33.41200 20.02500
H  46.76900 34.77200 20.94200
H  46.09700 33.09600 20.92900
H  48.79200 30.17000 21.34500
H  48.37700 29.66300 23.01800
H  50.27000 30.13600 23.84300
H  50.31600 31.81700 23.31000
H  50.78400 30.53300 22.17900
H  45.81200 27.77200 26.60300
H  44.38000 28.32400 25.70000
H  44.24300 28.15300 27.42700
H  44.03200 32.29600 30.22100
H  43.89900 30.32600 33.79000
H  43.01000 31.55200 34.26300
H  44.67900 31.87600 34.45100
Mg 6.08500 54.20800 42.48800
C  5.41300 50.91000 41.93300
C  9.24000 53.79300 40.99400
C  6.41300 57.69800 42.06600
C  2.91300 54.65900 43.73400
N  7.16000 52.56000 41.59500
C  6.63000 51.32400 41.49000
C  7.65300 50.41100 40.87600
C  9.00100 51.19700 41.08400
C  8.49200 52.61700 41.24200
C  9.83000 50.74400 42.28300
C  7.45600 50.10600 39.33700
C  7.05900 51.29600 38.48300
H  5.95200 50.96700 37.45800
N  7.63400 55.53900 41.71200
C  8.84400 55.12700 41.18000
C  9.64800 56.26700 40.94800
C  8.86200 57.44200 41.18800
C  7.52500 56.89700 41.62600
C  11.03600 56.23700 40.60300
C  9.42500 58.85400 41.02900
O  10.54900 59.03300 40.62700
C  8.63300 60.04600 41.41300
N  4.81700 55.91100 42.73700
C  5.20000 57.24400 42.54600
C  4.09000 58.16300 42.97000
C  2.95700 57.16000 43.41500
C  3.60300 55.81100 43.33700
C  4.47000 59.34400 43.93900
C  1.61000 57.38800 42.67400
C  0.75300 58.51700 43.26000
N  4.44600 52.97900 42.85900
C  3.27400 53.34900 43.57400
C  2.60500 52.09200 43.89000
C  3.41500 51.05600 43.33600
C  4.43900 51.71100 42.53500
C  1.41300 51.88300 44.72100
C  3.54600 49.57000 43.14800
O  2.88000 48.66200 43.58800
C  4.79300 49.46100 42.16400
C  4.17600 48.85300 40.86100
O  3.21900 49.27600 40.28300
O  4.80800 47.70500 40.52800
C  4.33500 46.91800 39.41600
H  10.20000 53.50100 40.56400
H  6.57000 58.77800 42.04400
H  1.97500 54.70700 44.29100
H  7.57700 49.46700 41.41500
H  9.60700 51.17900 40.17700
H  10.72500 50.21900 41.94900
H  9.32800 50.03900 42.94400
H  10.06300 51.62400 42.88300
H  6.81000 49.23200 39.24800
H  8.37900 49.75500 38.87500
H  7.99600 51.60800 38.02100
H  6.68600 52.17900 39.00300
H  11.13800 56.44900 39.53900
H  11.43100 55.22900 40.73000
H  11.68500 56.84500 41.23300
H  7.72600 60.02500 40.80900
H  9.06500 60.99300 41.08900
H  8.27200 60.16200 42.43500
H  3.79400 58.67600 42.05500
H  2.72700 57.42100 44.44800
H  5.52200 59.25800 44.21400
H  3.79700 59.37500 44.79600
H  4.37300 60.33400 43.49300
H  0.92800 56.54400 42.77500
H  1.88600 57.59500 41.64000
H  0.60900 59.34800 42.56900
H  1.02600 58.79900 44.27700
H  -0.25900 58.11700 43.33000
H  1.42700 50.84800 45.06400
H  0.58900 52.14300 44.05600
H  1.33500 52.66600 45.47500
H  5.50200 48.74500 42.57900
H  3.25500 47.04800 39.34000
H  4.46900 45.84700 39.56700
H  4.81000 47.26800 38.49900

