158

Mg 47.83500 16.22800 27.72900
C  46.09100 16.35200 30.74900
C  50.37100 17.96300 29.21900
C  49.31900 16.60700 24.80200
C  45.01300 14.95200 26.19400
N  48.12000 17.04600 29.68500
C  47.28900 16.93600 30.78400
C  47.92300 17.63100 32.01700
C  49.20200 18.26600 31.46900
C  49.24200 17.69300 30.03500
C  49.14500 19.80300 31.57100
C  48.18600 16.56900 33.13900
C  47.61500 16.88900 34.51600
H  47.46000 18.37900 34.82700
N  49.65600 17.08600 27.12600
C  50.55200 17.70900 27.88900
C  51.74900 17.94100 27.13000
C  51.52900 17.59300 25.81000
C  50.10300 17.06600 25.85000
C  52.94600 18.74500 27.78900
C  52.36600 17.67900 24.55800
O  51.96200 17.24500 23.49600
C  53.79800 18.18600 24.64600
N  47.14200 15.99600 25.69200
C  48.02400 16.07300 24.70200
C  47.33100 15.75400 23.35400
C  46.02800 15.08200 23.89800
C  45.99400 15.39500 25.34900
C  47.14200 17.03200 22.46200
C  45.83000 13.57600 23.65800
C  44.73700 13.25100 22.72600
N  45.89700 15.75000 28.28100
C  44.92700 15.13500 27.61200
C  43.77700 14.84900 28.49400
C  44.16600 15.33700 29.72900
C  45.47200 15.78400 29.60100
C  42.51000 14.16300 28.08900
C  43.75700 15.49300 31.11100
O  42.76700 15.21300 31.75200
C  45.02600 16.16100 31.81200
C  44.54000 17.43500 32.45600
O  44.48200 18.54700 31.94300
O  44.07700 17.16900 33.72900
C  43.44800 18.20500 34.51800
H  51.24900 18.27300 29.78900
H  49.78000 16.71300 23.81700
H  44.17100 14.36600 25.81900
H  47.17600 18.35300 32.34900
H  50.08500 17.93500 32.01600
H  50.11700 20.25600 31.77100
H  48.52800 19.88000 32.46600
H  48.58600 20.14300 30.69900
H  49.24300 16.39300 33.33600
H  47.67600 15.67800 32.77300
H  48.29000 16.34500 35.17700
H  46.67600 16.33800 34.58400
H  53.83200 18.48800 27.20700
H  53.16800 18.28500 28.75100
H  52.77500 19.82000 27.85500
H  54.34800 17.40300 25.16600
H  53.82500 19.15100 25.15300
H  54.16400 18.23700 23.62000
H  47.94400 15.02400 22.82500
H  45.23600 15.63900 23.39600
H  46.19800 16.79900 21.96900
H  47.81700 17.26500 21.63900
H  46.92400 17.88600 23.10300
H  45.59000 13.09000 24.60300
H  46.75600 13.17900 23.24100
H  44.17100 12.33900 22.91400
H  45.22700 12.92700 21.80700
H  44.13500 14.09400 22.38800
H  42.58100 13.11900 27.78600
H  41.88800 14.71400 27.38300
H  41.91600 14.13100 29.00200
H  45.37900 15.42200 32.53100
H  43.49800 17.91100 35.56700
H  42.40500 18.05700 34.23800
H  43.70800 19.21300 34.19500
Mg 48.78800 35.08500 26.47200
C  46.84500 33.51100 28.96900
C  48.91100 37.85200 28.60200
C  50.12100 36.72800 23.95500
C  48.24200 32.30800 24.33700
N  48.06800 35.52200 28.62200
C  47.33000 34.72100 29.38300
C  47.34600 35.24200 30.79800
C  47.68900 36.68700 30.63800
C  48.31000 36.75000 29.22200
C  46.45900 37.69700 30.88800
C  48.44700 34.41800 31.62300
C  48.13600 33.94900 33.07100
H  47.72900 34.97000 34.11700
N  49.36400 37.02800 26.30500
C  49.31700 38.05700 27.24900
C  49.91200 39.29300 26.66100
C  50.27700 38.95700 25.31200
C  49.93300 37.54500 25.12700
C  50.07400 40.58400 27.45400
C  50.91900 39.79300 24.26600
O  51.29600 39.38400 23.16700
C  51.35900 41.16900 24.68000
N  48.99500 34.63100 24.32800
C  49.78800 35.42000 23.63700
C  50.16300 34.82700 22.26600
C  49.68700 33.29400 22.45200
C  48.94400 33.41600 23.78700
C  49.48400 35.47600 21.11300
C  50.71500 32.15700 22.61000
C  50.40200 30.75700 22.05500
N  47.78800 33.27700 26.55700
C  47.65100 32.22800 25.65700
C  46.82700 31.14300 26.20400
C  46.45100 31.63300 27.48900
C  47.08000 32.93300 27.69900
C  46.34700 29.87000 25.56600
C  45.70000 31.33800 28.65300
O  44.94600 30.42500 28.94600
C  45.72700 32.61700 29.47600
C  45.79600 32.34100 30.95200
O  46.52500 31.54500 31.45500
O  44.82700 32.98500 31.54500
C  44.64500 32.81900 32.99200
H  48.97800 38.79000 29.15600
H  50.61800 37.12700 23.06800
H  48.09400 31.41900 23.72000
H  46.41400 35.10200 31.34500
H  48.58300 36.92900 31.21200
H  46.34300 38.42300 30.08300
H  46.66700 38.39000 31.70300
H  45.50800 37.19700 31.07200
H  49.44000 34.86700 31.62000
H  48.63300 33.46700 31.12500
H  49.01500 33.64800 33.64100
H  47.44000 33.11500 33.16800
H  49.28900 40.46900 28.20100
H  49.84900 41.39400 26.75900
H  51.13400 40.72800 27.66600
H  50.62300 41.97200 24.73200
H  52.06300 41.58800 23.96000
H  51.84600 41.07800 25.65100
H  51.22000 34.87800 22.00700
H  48.90900 32.97600 21.75800
H  48.64600 36.07800 21.46600
H  49.15100 34.74500 20.37600
H  50.24300 36.10900 20.65200
H  50.91100 31.98000 23.66700
H  51.71000 32.47500 22.29800
H  50.42100 30.09500 22.92000
H  51.12500 30.42200 21.31100
H  49.37900 30.66900 21.68900
H  45.27000 29.92000 25.40400
H  46.60100 29.00800 26.18400
H  46.84800 29.89500 24.59900
H  44.82600 33.18000 29.23200
H  43.75500 32.25000 33.26200
H  44.58200 33.82100 33.41500
H  45.48500 32.24200 33.37900

