158

Mg 34.87400 1.95100 29.30000
C  33.00500 3.21400 31.94700
C  37.66500 2.03300 31.50700
C  36.90500 1.41800 26.75300
C  32.30900 2.80700 27.09100
N  35.19800 2.40300 31.52500
C  34.29000 2.89200 32.42100
C  34.90800 3.09100 33.85200
C  36.40600 2.73900 33.61200
C  36.46000 2.36000 32.11300
C  37.40800 3.84500 34.07500
C  34.18800 2.19800 34.92300
C  33.71500 2.78900 36.18600
H  34.59300 3.81900 36.91000
N  36.95300 1.46600 29.20600
C  37.88700 1.58900 30.18400
C  39.06500 1.10400 29.68100
C  38.94400 0.84100 28.31400
C  37.53600 1.26000 28.00900
C  40.27500 1.10900 30.54300
C  39.91300 0.35200 27.32700
O  39.68700 0.20200 26.13900
C  41.37700 0.11400 27.75900
N  34.66500 2.05800 27.20800
C  35.64100 1.77000 26.35100
C  35.19700 2.13300 24.92700
C  33.65900 2.19600 25.03800
C  33.48200 2.33800 26.52100
C  36.01500 3.27300 24.21400
C  32.84900 1.02800 24.36000
C  32.75900 -0.26000 25.24900
N  33.06600 2.93600 29.39300
C  32.12400 3.19400 28.45600
C  30.98600 3.84800 29.04200
C  31.27100 3.85100 30.41300
C  32.60500 3.33800 30.58400
C  29.75500 4.22800 28.36100
C  30.74600 4.13400 31.67900
O  29.67500 4.65400 32.05500
C  31.94300 3.87200 32.70300
C  32.32900 5.14200 33.41900
O  33.10000 5.94900 32.92100
O  31.72200 5.30900 34.63700
C  31.89300 6.69400 35.12200
H  38.48100 2.11800 32.22800
H  37.47300 1.37300 25.82100
H  31.48600 2.96200 26.39100
H  34.88200 4.14500 34.12900
H  36.78500 1.88500 34.17300
H  37.99100 4.18400 33.21800
H  38.01700 3.33300 34.82000
H  36.83000 4.71100 34.39700
H  34.68300 1.26400 35.19100
H  33.22500 1.98100 34.46200
H  33.53600 2.02800 36.94600
H  32.75100 3.26800 36.01400
H  40.42500 2.04300 31.08400
H  41.25400 0.86000 30.13200
H  40.22700 0.30300 31.27500
H  41.29900 -0.76100 28.40400
H  41.70600 1.07700 28.15000
H  41.97900 -0.13300 26.88500
H  35.42400 1.21000 24.39400
H  33.16900 3.07900 24.62700
H  36.53800 2.90000 23.33300
H  36.78200 3.65100 24.89000
H  35.27100 3.98200 23.85200
H  33.32100 0.61300 23.47000
H  31.83300 1.32300 24.09700
H  33.05200 -1.15000 24.69200
H  31.75200 -0.45900 25.61600
H  33.45600 -0.15300 26.08100
H  29.17000 3.32700 28.17800
H  29.94500 4.78400 27.44400
H  29.20900 4.88200 29.04100
H  31.60400 3.13100 33.42700
H  32.05900 7.46100 34.36600
H  32.68300 6.60800 35.86800
H  31.06600 6.92400 35.79400
Mg 41.25000 8.67300 30.18900
C  42.73100 9.59400 33.30900
C  38.92600 6.95300 31.99000
C  40.00300 7.49300 27.29700
C  44.06100 9.95000 28.49700
N  41.07100 8.27900 32.36500
C  41.62400 8.80600 33.47400
C  40.97200 8.36200 34.74200
C  39.90500 7.29600 34.28700
C  39.92300 7.51700 32.76000
C  40.32100 5.80200 34.63100
C  40.38500 9.48000 35.55500
C  40.85200 9.61500 36.99300
H  41.03600 11.02200 37.54500
N  39.67400 7.43900 29.72900
C  38.71000 6.91800 30.58400
C  37.60100 6.24900 29.84000
C  37.89100 6.51200 28.44300
C  39.25500 7.12100 28.45100
C  36.37000 5.73400 30.46700
C  37.11000 6.06200 27.17600
O  37.50300 6.17300 26.00900
C  35.71400 5.67400 27.34800
N  41.97700 8.53800 28.19800
C  41.26900 8.06000 27.12800
C  41.91400 8.41000 25.77700
C  43.23000 9.11400 26.23700
C  43.08700 9.20600 27.72100
C  42.22500 7.22900 24.87500
C  43.34700 10.52100 25.50900
C  42.53700 11.66800 26.02000
N  43.09300 9.54500 30.75700
C  44.05600 10.05200 29.92900
C  44.91900 10.84300 30.79300
C  44.50600 10.70400 32.10300
C  43.40800 9.86500 32.02300
C  46.03800 11.71600 30.30300
C  44.75500 10.98100 33.48600
O  45.61400 11.72200 33.96100
C  43.61500 10.27100 34.33200
C  44.31400 9.32400 35.16600
O  44.98300 8.37000 34.79500
O  44.25500 9.82300 36.49000
C  45.00500 9.04100 37.54300
H  38.21500 6.45000 32.64800
H  39.53500 7.36500 26.31900
H  44.78900 10.53700 27.93300
H  41.68200 7.86700 35.40400
H  38.85100 7.47000 34.50500
H  41.34700 5.72800 34.99200
H  40.18500 5.07300 33.83200
H  39.71200 5.48900 35.47900
H  39.31400 9.31800 35.68200
H  40.52100 10.45900 35.09600
H  41.77800 9.10700 37.26000
H  40.06500 9.17300 37.60500
H  36.38800 5.66300 31.55500
H  36.25500 4.75200 30.00800
H  35.41500 6.24800 30.35500
H  35.21200 5.73400 26.38200
H  35.12200 6.27200 28.04100
H  35.61300 4.64100 27.68000
H  41.33600 9.18500 25.27300
H  44.19100 8.63800 26.04300
H  41.75800 6.32000 25.25300
H  43.30600 7.10500 24.80800
H  41.78600 7.42800 23.89700
H  42.91800 10.40100 24.51400
H  44.37800 10.87500 25.49300
H  43.22600 12.48600 26.23100
H  41.95900 11.57300 26.93900
H  41.75200 11.99000 25.33600
H  46.85500 11.70300 31.02400
H  45.70300 12.74500 30.43900
H  46.46600 11.35800 29.36700
H  43.15100 11.10900 34.85200
H  45.17200 8.00800 37.23700
H  44.62900 8.94600 38.56200
H  45.98200 9.52300 37.58500

