158

Mg 8.64400 3.16400 27.48300
C  10.02500 1.85800 30.33700
C  6.77300 5.38300 29.52900
C  7.25400 4.40600 24.69700
C  9.83900 0.39300 25.61300
N  8.41500 3.58400 29.72000
C  9.15600 2.95100 30.66000
C  8.86600 3.59800 32.02500
C  7.68700 4.59600 31.73800
C  7.62300 4.57500 30.24900
C  6.27700 4.25100 32.17700
C  10.10600 4.30200 32.63000
C  10.47200 3.96700 34.11700
H  10.74700 5.08800 35.14900
N  7.33500 4.79500 27.07500
C  6.65000 5.50700 28.10000
C  5.77800 6.39100 27.41100
C  5.91300 6.16700 25.99100
C  6.92800 5.09100 25.87700
C  4.93100 7.41200 28.05200
C  5.10900 6.76900 24.81100
O  5.45000 6.59000 23.63400
C  3.81600 7.54900 25.11100
N  8.76200 2.53800 25.31200
C  8.01200 3.22800 24.35600
C  8.07300 2.50900 22.94200
C  8.88600 1.22200 23.31500
C  9.16700 1.33700 24.80800
C  6.77900 2.12800 22.29900
C  10.17100 0.84600 22.50200
C  10.03600 -0.47000 21.79600
N  9.58900 1.46300 27.79600
C  10.08100 0.48300 27.01700
C  10.80600 -0.47700 27.88800
C  10.95300 0.05700 29.13700
C  10.15200 1.25000 29.07600
C  11.54100 -1.70300 27.35800
C  11.52900 -0.09200 30.46500
O  12.26200 -0.96900 30.96400
C  10.93600 1.10900 31.29100
C  10.20200 0.50100 32.42300
O  9.15500 -0.07200 32.29900
O  11.00500 0.64100 33.55400
C  10.34900 0.13900 34.79000
H  6.32700 6.16800 30.14300
H  6.74700 4.70500 23.77700
H  10.23400 -0.51000 25.14300
H  8.31200 2.85600 32.59900
H  7.88000 5.59700 32.12400
H  5.77500 5.16900 32.48000
H  6.22800 3.53100 32.99400
H  5.62100 3.79300 31.43700
H  10.00500 5.37700 32.48000
H  10.93900 3.90600 32.04800
H  11.37500 3.36700 34.00100
H  9.70600 3.29600 34.50800
H  5.32700 7.77300 29.00200
H  3.93200 7.00600 28.21000
H  5.12300 8.30800 27.46100
H  3.21900 7.63200 24.20300
H  4.19400 8.48400 25.52400
H  3.38200 6.94800 25.90900
H  8.67600 3.05700 22.21800
H  8.21300 0.36400 23.31900
H  6.10800 2.33400 23.13200
H  6.63200 1.07700 22.04900
H  6.55800 2.84400 21.50800
H  11.05900 0.81000 23.13300
H  10.41400 1.73300 21.91700
H  10.21200 -0.40600 20.72200
H  9.09200 -0.97800 21.98700
H  10.78200 -1.20900 22.08800
H  12.58800 -1.42400 27.23900
H  11.06200 -2.00800 26.42800
H  11.45100 -2.48700 28.11000
H  11.71500 1.81700 31.57300
H  9.66800 -0.70200 34.65900
H  9.64900 0.93700 35.03900
H  11.02800 -0.07800 35.61500
Mg 49.37200 45.04200 42.77500
C  45.97900 45.43000 41.39000
C  49.17900 41.73900 41.75700
C  52.65300 44.94700 43.02600
C  49.36900 48.54500 43.04700
N  47.77700 43.80800 41.69900
C  46.44400 44.12500 41.31300
C  45.86100 42.85200 40.68500
C  46.71500 41.67900 41.26300
C  47.96900 42.43300 41.62500
C  46.07200 40.94100 42.42600
C  45.84900 42.92500 39.05900
C  44.44100 42.85300 38.41800
H  44.08700 43.88400 37.33900
N  50.70200 43.47000 42.58100
C  50.39400 42.17000 42.15800
C  51.65000 41.43300 42.34200
C  52.69600 42.30900 42.75400
C  52.03900 43.68000 42.85700
C  51.77400 39.92600 41.97800
C  54.08100 41.87400 43.26200
O  54.47800 40.77300 43.10500
C  54.97500 42.74800 44.15400
N  50.86800 46.55500 42.99300
C  52.16300 46.26400 43.08600
C  53.10000 47.54000 43.10500
C  52.02200 48.69600 43.22200
C  50.63100 47.92200 43.05700
C  54.10100 47.40800 44.36300
C  52.12700 49.83500 42.23500
C  52.65200 51.22500 42.82900
N  47.99400 46.69400 42.41000
C  48.06800 47.99900 42.68600
C  46.73000 48.64700 42.66800
C  45.96300 47.74000 42.09200
C  46.70100 46.50800 41.94700
C  46.36300 50.00700 42.99600
C  44.66600 47.52700 41.53100
O  43.73500 48.27500 41.34600
C  44.56000 45.99200 41.13500
C  43.51900 45.35200 42.03500
O  42.77400 44.39100 41.74900
O  43.26900 46.02800 43.17700
C  41.88800 45.86600 43.72100
H  49.13900 40.68700 41.46600
H  53.74200 44.94000 42.94500
H  49.34800 49.63400 43.12300
H  44.80900 42.83700 40.97000
H  46.88200 40.89600 40.52300
H  45.99900 39.86400 42.27200
H  45.07100 41.33400 42.60200
H  46.69400 41.09700 43.30700
H  46.30800 42.01300 38.67800
H  46.40500 43.80400 38.73400
H  43.69100 43.06000 39.18100
H  44.17900 41.93200 37.89800
H  52.58600 39.81400 41.26000
H  50.89100 39.43000 41.57600
H  52.13500 39.26500 42.76700
H  55.38000 43.59700 43.60100
H  55.82100 42.10900 44.40700
H  54.37300 43.06400 45.00600
H  53.76700 47.61500 42.24600
H  52.05200 49.12400 44.22400
H  53.83400 46.52900 44.95100
H  54.02200 48.26600 45.03100
H  55.10100 47.31200 43.94100
H  51.18800 50.01300 41.71000
H  52.81400 49.60300 41.42100
H  52.25200 52.06700 42.26500
H  53.73600 51.18700 42.72000
H  52.37500 51.37200 43.87200
H  45.29200 50.19700 42.92200
H  46.92600 50.69600 42.36700
H  46.60500 50.12400 44.05200
H  44.31000 46.04300 40.07600
H  41.18600 46.03400 42.90400
H  41.63200 46.62300 44.46300
H  41.78000 44.97900 44.34500

