158

Mg 34.57500 2.97400 29.70400
C  32.52100 4.09100 32.27800
C  37.28200 3.37200 31.79800
C  36.49200 2.62500 26.95500
C  31.70700 3.31000 27.49900
N  34.90400 3.76600 31.78300
C  33.89900 4.05400 32.69000
C  34.40600 4.04100 34.13000
C  35.95400 4.00400 33.86800
C  36.07500 3.60300 32.40200
C  36.70600 5.31100 34.26000
C  33.88400 2.77800 34.91800
C  33.53200 3.04500 36.46600
H  34.16800 4.30600 37.14300
N  36.58900 2.76300 29.47700
C  37.51000 3.01800 30.45100
C  38.86400 2.90500 29.90800
C  38.67100 2.72800 28.48400
C  37.17100 2.66300 28.23500
C  40.15700 3.15800 30.76200
C  39.63200 2.62600 27.30100
O  39.35700 2.41300 26.10800
C  41.13300 2.73400 27.63200
N  34.08900 2.87400 27.49900
C  35.12500 2.88100 26.58400
C  34.59800 2.94800 25.17700
C  33.03800 2.83900 25.36100
C  32.89100 2.99900 26.83100
C  35.12700 4.24100 24.45500
C  32.39700 1.52000 24.89500
C  32.36200 0.26500 25.78200
N  32.57300 3.44000 29.76600
C  31.47700 3.47000 28.87500
C  30.31500 3.99000 29.52600
C  30.62500 4.07700 30.90900
C  32.00600 3.85100 30.94500
C  28.95200 4.12700 28.98000
C  30.08200 4.38600 32.19500
O  28.96400 4.73900 32.47600
C  31.35500 4.40300 33.15400
C  31.46100 5.77300 33.76000
O  32.09000 6.70000 33.31700
O  30.76000 5.83000 34.86700
C  30.86900 7.10100 35.66300
H  38.15200 3.47000 32.45100
H  37.06300 2.64000 26.02500
H  30.81000 3.57400 26.93500
H  34.17700 5.03200 34.52200
H  36.40600 3.24800 34.51000
H  37.51600 4.89800 34.86200
H  36.15500 5.95900 34.94200
H  37.00200 5.85600 33.36300
H  34.61600 1.97900 34.79700
H  33.00400 2.47100 34.35200
H  33.88500 2.16700 37.00600
H  32.45800 3.03400 36.65100
H  40.17200 4.24100 30.88300
H  41.07100 2.69300 30.39400
H  39.87800 2.64900 31.68500
H  41.22800 3.68400 28.15700
H  41.60000 2.68500 26.64800
H  41.57400 1.99000 28.29500
H  34.85500 2.11300 24.52500
H  32.58500 3.76400 25.00500
H  34.65900 5.15900 24.81000
H  35.10700 4.17100 23.36700
H  36.17900 4.33600 24.72200
H  32.76300 1.18800 23.92300
H  31.33700 1.70800 24.72600
H  33.21300 0.22600 26.46200
H  32.33700 -0.64400 25.18100
H  31.47600 0.27200 26.41700
H  28.20700 3.93400 29.75300
H  28.84600 3.38600 28.18800
H  28.70700 5.09900 28.55300
H  31.11600 3.59500 33.84500
H  31.86100 7.26800 36.08200
H  30.26700 7.02400 36.56900
H  30.46800 7.94200 35.09600
Mg 30.51800 58.45100 40.10800
C  27.59500 56.65200 39.18800
C  32.46200 55.85300 38.92100
C  33.12500 60.59600 40.08200
C  28.35200 61.04300 41.07800
N  29.99900 56.47500 39.25400
C  28.82300 56.00400 38.92900
C  28.95200 54.55300 38.40800
C  30.36700 54.21500 38.97200
C  31.03500 55.61800 39.02600
C  30.43600 53.61500 40.40100
C  28.93400 54.61200 36.83100
C  27.64800 54.13100 36.22400
H  26.88000 55.04200 35.30900
N  32.53200 58.27900 39.68900
C  33.08800 57.11400 39.11000
C  34.53500 57.36900 39.03500
C  34.72600 58.75100 39.30800
C  33.47800 59.32300 39.76700
C  35.48800 56.37600 38.52700
C  36.08900 59.41000 39.17700
O  37.00700 58.77300 38.66600
C  36.41700 60.77600 39.65800
N  30.65700 60.49400 40.40600
C  31.90300 61.16900 40.35100
C  31.74600 62.60600 41.00500
C  30.28900 62.62500 41.54800
C  29.71900 61.35800 40.98000
C  32.77000 63.08300 42.03700
C  29.49900 63.97600 41.30200
C  28.43300 64.30700 42.43500
N  28.35900 58.77400 40.16700
C  27.65400 59.90300 40.53500
C  26.23600 59.65000 40.44800
C  26.11100 58.32700 39.88100
C  27.47600 57.88900 39.70400
C  25.22200 60.56500 41.05800
C  25.23600 57.28900 39.35600
O  24.03900 57.08900 39.17700
C  26.17300 56.12400 38.92600
C  25.70800 54.93900 39.74300
O  26.15600 54.62100 40.86600
O  24.88200 54.15200 38.89900
C  24.38600 52.96800 39.55500
H  32.89800 54.88000 38.68200
H  33.96500 61.29400 40.05600
H  27.79100 61.92800 41.38400
H  28.24800 53.84700 38.84800
H  30.95100 53.51700 38.37200
H  30.89400 52.62700 40.35400
H  29.47200 53.31800 40.81400
H  30.91700 54.32000 41.07900
H  29.70800 53.91000 36.52300
H  29.25400 55.55800 36.39500
H  27.02300 53.76800 37.04100
H  27.94300 53.33600 35.53900
H  35.56600 56.29000 37.44300
H  35.13100 55.37900 38.78500
H  36.49300 56.40500 38.94700
H  35.99200 60.89000 40.65600
H  35.97900 61.50300 38.97400
H  37.48700 60.97700 39.61000
H  31.77600 63.24800 40.12500
H  30.37900 62.43700 42.61700
H  32.28900 63.27100 42.99700
H  33.37600 63.93300 41.72600
H  33.39700 62.21500 42.23900
H  28.99500 63.90300 40.33900
H  30.27000 64.72700 41.13100
H  27.57700 64.85100 42.03500
H  28.91900 64.92600 43.18800
H  28.10500 63.43500 43.00000
H  24.51500 59.92400 41.58400
H  24.62700 61.08000 40.30300
H  25.74200 61.28500 41.69000
H  25.96000 56.00800 37.86300
H  25.13200 52.17600 39.48700
H  23.59800 52.65700 38.87000
H  23.92200 53.08400 40.53500

