158

Mg 1.67400 -0.73100 44.42900
C  4.96600 0.21900 44.07300
C  0.59600 2.24500 43.20000
C  -1.60900 -1.84300 44.33700
C  2.72000 -3.96400 45.49400
N  2.67000 0.94700 43.62000
C  4.08200 1.23900 43.65600
C  4.37400 2.73400 43.22200
C  2.93700 3.30900 42.98400
C  2.01500 2.10100 43.34000
C  2.54700 4.60200 43.78600
C  5.38100 2.79500 42.08200
C  5.75600 4.19600 41.65700
H  5.64000 4.63900 40.17100
N  -0.32300 0.11000 43.92100
C  -0.45500 1.32200 43.29300
C  -1.87000 1.47200 42.99100
C  -2.57600 0.29800 43.33000
C  -1.52700 -0.55800 43.86800
C  -2.52200 2.73000 42.36700
C  -4.01700 -0.01800 43.15200
O  -4.75600 0.80200 42.64400
C  -4.71200 -1.17800 43.79600
N  0.67100 -2.57200 44.73900
C  -0.67300 -2.75400 44.73300
C  -1.06500 -4.19800 44.88900
C  0.27300 -4.82900 45.46500
C  1.32800 -3.73900 45.25700
C  -2.26300 -4.51700 45.81000
C  0.65000 -6.24600 44.79000
C  0.78100 -7.38600 45.85800
N  3.41600 -1.76200 44.69400
C  3.73800 -3.04100 45.12000
C  5.22200 -3.17600 45.26000
C  5.70600 -1.94700 44.79800
C  4.61300 -1.13600 44.48900
C  5.95700 -4.41600 45.62100
C  6.99300 -1.17400 44.60400
O  8.15500 -1.56400 44.73700
C  6.58900 0.26400 44.15100
C  6.96400 1.35800 45.13200
O  6.46600 1.52100 46.21900
O  8.01200 2.04700 44.53300
C  8.40100 3.21000 45.38900
H  0.29100 3.24300 42.87700
H  -2.58000 -2.33600 44.26200
H  3.04800 -4.93700 45.86600
H  4.82500 3.17800 44.10900
H  2.92300 3.46600 41.90600
H  3.39300 4.93500 44.38700
H  1.75300 4.39700 44.50400
H  2.32200 5.43200 43.11500
H  5.04400 2.24700 41.20200
H  6.33600 2.41600 42.44700
H  6.72400 4.44400 42.09500
H  5.02000 4.87900 42.08300
H  -1.70200 3.43500 42.23100
H  -3.28700 3.12600 43.03500
H  -2.84300 2.38000 41.38600
H  -5.79300 -1.05200 43.85300
H  -4.26300 -1.26700 44.78500
H  -4.42300 -2.10000 43.29200
H  -1.19000 -4.58500 43.87800
H  0.02100 -4.81500 46.52500
H  -2.03600 -5.30400 46.53000
H  -3.14400 -4.88900 45.28800
H  -2.61900 -3.60200 46.28300
H  1.66900 -6.12800 44.42100
H  0.06100 -6.61400 43.94900
H  1.80200 -7.68100 46.10000
H  0.25800 -8.28800 45.54300
H  0.35300 -6.93700 46.75500
H  5.44700 -4.77400 46.51500
H  7.02300 -4.26100 45.78800
H  5.73300 -5.15000 44.84800
H  7.01400 0.47600 43.17000
H  9.32300 3.67800 45.04500
H  8.60100 2.92500 46.42200
H  7.56600 3.90900 45.34200
Mg 35.14300 3.15100 30.30100
C  32.91400 3.91700 32.73100
C  37.67500 2.87200 32.80100
C  37.56800 2.65700 27.93700
C  32.77100 3.61900 27.81600
N  35.20400 3.38800 32.48800
C  34.12500 3.72900 33.26400
C  34.53000 3.84100 34.76700
C  36.13100 3.92400 34.64200
C  36.37100 3.35500 33.22100
C  36.64200 5.37500 34.90600
C  34.02600 2.62800 35.50800
C  33.65400 2.85700 36.93500
H  34.29300 4.03800 37.80200
N  37.29500 2.71300 30.39000
C  38.08700 2.56000 31.53400
C  39.35600 2.12700 31.08700
C  39.43800 2.15300 29.71700
C  38.05900 2.51100 29.25800
C  40.31900 1.60700 32.18800
C  40.62700 1.73800 28.76300
O  40.52400 1.89500 27.58200
C  41.89900 1.23500 29.50900
N  35.26800 3.28100 28.20200
C  36.26100 2.88000 27.44900
C  35.93300 2.93500 25.92700
C  34.36400 2.86700 25.92300
C  34.09100 3.25900 27.38800
C  36.63400 4.03800 25.16500
C  33.92900 1.35700 25.82500
C  33.60000 0.94500 24.38100
N  33.24900 3.55400 30.18500
C  32.35200 3.75700 29.10400
C  31.01600 4.15000 29.61100
C  31.14500 4.09000 31.00400
C  32.55100 3.82000 31.34300
C  29.89700 4.42100 28.69900
C  30.42900 4.39300 32.21800
O  29.24300 4.53400 32.42600
C  31.54200 4.30500 33.36900
C  31.50800 5.64300 33.86700
O  31.63700 6.70000 33.25700
O  31.09700 5.71100 35.18200
C  30.85600 7.00600 35.90300
H  38.40100 2.73900 33.60600
H  38.26700 2.48400 27.11500
H  31.99300 3.44000 27.07100
H  34.09600 4.73700 35.21100
H  36.67000 3.27900 35.33600
H  35.77600 6.01400 34.73800
H  37.44200 5.68600 34.23400
H  36.98100 5.54100 35.92900
H  34.67200 1.79600 35.22600
H  33.01200 2.44800 35.15100
H  34.08000 2.04000 37.51700
H  32.56900 2.90700 37.02800
H  41.12700 0.99600 31.78500
H  39.80100 0.98200 32.91600
H  40.85300 2.39900 32.71300
H  42.29100 1.92500 30.25600
H  42.65500 1.19600 28.72500
H  41.66600 0.22400 29.84300
H  36.43400 2.03300 25.57500
H  33.81800 3.46000 25.19000
H  35.92000 4.52200 24.50000
H  37.43000 3.55700 24.59600
H  37.18700 4.78600 25.73400
H  32.96200 1.24900 26.31600
H  34.60600 0.59100 26.20400
H  33.91500 1.76500 23.73500
H  32.56700 0.67500 24.16300
H  34.23200 0.07900 24.18300
H  29.02800 4.61800 29.32700
H  29.73000 3.52000 28.11000
H  30.07900 5.35900 28.17500
H  31.39100 3.59500 34.18200
H  29.86100 7.09800 36.33800
H  31.09100 7.90900 35.34000
H  31.54500 7.07000 36.74600

