158

Mg 49.24100 16.19800 28.38500
C  47.07100 15.79300 31.00400
C  51.26700 18.15800 30.31500
C  51.21700 16.51000 25.78300
C  46.81700 14.68200 26.34500
N  49.07000 16.96500 30.35800
C  48.24800 16.49000 31.33900
C  48.53100 17.11300 32.68400
C  49.73400 18.11900 32.38500
C  50.06900 17.73200 30.93500
C  49.42000 19.62700 32.61800
C  48.71100 16.08800 33.77200
C  48.10900 16.41000 35.17200
H  48.05900 17.85400 35.68800
N  51.06000 17.15100 28.13900
C  51.80800 17.86100 29.01100
C  53.08900 18.21700 28.46000
C  53.08900 17.75500 27.15200
C  51.73500 17.08000 26.94300
C  54.03500 19.06000 29.18000
C  54.12700 17.76200 26.09200
O  54.02900 17.19900 25.02800
C  55.40500 18.50800 26.27200
N  49.15400 15.51500 26.38600
C  50.06900 15.83100 25.51500
C  49.64100 15.33800 24.07000
C  48.29800 14.55300 24.36000
C  48.08400 14.92000 25.80300
C  49.52000 16.57500 23.14600
C  48.50700 13.03500 24.18100
C  47.47400 12.29700 23.30900
N  47.28800 15.40100 28.52600
C  46.47400 14.77200 27.67000
C  45.24600 14.31400 28.35900
C  45.47500 14.63400 29.68400
C  46.69600 15.34000 29.72000
C  44.06900 13.55900 27.68400
C  44.91900 14.56400 31.07100
O  43.88800 14.09600 31.48200
C  45.89800 15.44500 31.93300
C  45.01300 16.51100 32.42500
O  44.57800 17.53000 31.84200
O  44.86000 16.19100 33.76600
C  43.97700 16.99500 34.61400
H  51.93300 18.82800 30.86300
H  51.75500 16.49000 24.83300
H  46.16000 14.07400 25.71900
H  47.61300 17.67000 32.87200
H  50.62300 17.79300 32.92400
H  48.46400 19.89600 33.06800
H  49.26800 20.11600 31.65600
H  50.19100 19.94900 33.31800
H  49.76400 15.94700 34.01800
H  48.36300 15.09500 33.48800
H  48.77200 15.87600 35.85300
H  47.07100 16.08000 35.21600
H  55.09400 18.81100 29.11500
H  53.82600 19.10500 30.24900
H  54.08300 20.04500 28.71400
H  56.08300 18.18700 27.06300
H  55.14700 19.56500 26.33700
H  55.95200 18.54000 25.33000
H  50.44800 14.74300 23.64400
H  47.47600 14.97700 23.78400
H  50.36200 16.54800 22.45300
H  49.38200 17.59500 23.50400
H  48.64900 16.30300 22.54900
H  48.50600 12.60500 25.18200
H  49.47300 12.72600 23.78100
H  46.75900 12.01100 24.08000
H  47.83900 11.42400 22.76800
H  47.08000 13.07600 22.65700
H  44.10300 12.47100 27.74700
H  44.01600 13.89500 26.64800
H  43.12200 13.95500 28.04900
H  46.26400 14.84200 32.76400
H  42.98400 16.54800 34.65300
H  43.80500 18.06900 34.53800
H  44.45200 16.81400 35.57800
Mg 42.42500 40.91100 26.36500
C  41.68000 43.06100 29.03200
C  43.62700 38.60000 28.58100
C  43.15000 38.90900 23.76800
C  41.61300 43.44000 24.13300
N  42.77000 40.97800 28.53100
C  42.31600 41.88400 29.42200
C  42.47500 41.42400 30.96400
C  43.17300 40.07600 30.73900
C  43.15300 39.84700 29.12800
C  44.57100 39.88700 31.43300
C  41.14200 41.33200 31.73800
C  41.16700 41.94100 33.13900
H  40.54200 41.12100 34.21100
N  43.21300 38.95100 26.21900
C  43.68000 38.17800 27.20100
C  44.06800 36.91100 26.73100
C  43.81200 36.87800 25.32300
C  43.44200 38.25700 25.03500
C  44.56700 35.84300 27.66800
C  44.08600 35.84300 24.29300
O  43.88100 35.95600 23.09300
C  44.58900 34.61500 24.85700
N  42.41100 41.08000 24.26900
C  42.74500 40.18900 23.40400
C  42.62800 40.64400 21.94700
C  42.00700 42.06700 21.97800
C  41.98600 42.21500 23.56100
C  43.95400 40.70300 21.20300
C  40.64300 42.18800 21.30700
C  40.48600 43.43500 20.45200
N  41.86400 42.91000 26.47900
C  41.49700 43.82700 25.50500
C  41.05900 45.02300 26.07500
C  40.94000 44.66700 27.46100
C  41.59200 43.44600 27.66000
C  40.73500 46.30300 25.37000
C  40.47300 45.17700 28.75600
O  39.91200 46.23600 29.00100
C  41.15700 44.20400 29.81300
C  42.23400 44.97200 30.50100
O  43.35900 45.07000 30.15000
O  41.74800 45.12400 31.75900
C  42.77100 45.62300 32.72800
H  43.74100 37.83400 29.35200
H  43.30100 38.25800 22.90400
H  41.33700 44.21500 23.41400
H  43.05600 42.22900 31.41400
H  42.54200 39.27100 31.11700
H  45.37300 40.27700 30.80700
H  44.67400 38.84900 31.74800
H  44.44500 40.43500 32.36700
H  40.90600 40.27200 31.83000
H  40.40600 41.83400 31.10900
H  40.76300 42.95100 33.06200
H  42.20000 42.09900 33.44900
H  44.01700 34.91700 27.50000
H  44.58200 36.10600 28.72600
H  45.60600 35.63000 27.41800
H  43.82400 34.32800 25.57900
H  45.58300 34.85500 25.23500
H  44.78800 33.94100 24.02400
H  41.95500 39.98900 21.39400
H  42.71500 42.73400 21.48700
H  44.77500 40.59700 21.91100
H  44.08100 41.63800 20.65700
H  43.90400 39.86500 20.50700
H  39.88800 42.30500 22.08500
H  40.56100 41.26600 20.73100
H  39.41400 43.61900 20.38800
H  40.82200 43.29800 19.42400
H  41.01100 44.28900 20.88000
H  41.26200 46.26000 24.41700
H  40.97700 47.19000 25.95500
H  39.68200 46.10700 25.16500
H  40.35300 43.86100 30.46400
H  42.74400 46.70000 32.56200
H  43.75600 45.23800 32.46300
H  42.53900 45.50400 33.78600

