158

Mg 52.70900 23.81000 43.95500
C  49.63400 25.67500 43.33500
C  50.92200 20.89100 43.35300
C  55.71200 21.99700 43.56700
C  54.41100 26.78900 44.33700
N  50.60100 23.33400 43.20000
C  49.53200 24.24100 43.25300
C  48.21800 23.48300 43.18100
C  48.60100 21.96500 43.32400
C  50.14100 21.99700 43.32400
C  47.88000 21.21800 44.45900
C  47.27700 23.62300 41.92600
C  47.99000 23.91300 40.56200
H  47.26200 23.35900 39.26500
N  53.27600 21.73100 43.45500
C  52.35800 20.70200 43.32100
C  53.09400 19.48600 43.00900
C  54.47400 19.82600 42.87000
C  54.56200 21.19900 43.35500
C  52.46200 18.15400 42.82800
C  55.59000 18.94000 42.38400
O  55.37500 17.76800 42.11600
C  57.02300 19.46000 42.15700
N  54.70200 24.31800 43.95700
C  55.76600 23.42900 43.89000
C  57.10400 24.16800 43.93100
C  56.64700 25.62300 44.35800
C  55.16500 25.61000 44.23200
C  58.21900 23.57800 44.85700
C  57.17600 26.70100 43.42600
C  56.61100 27.02600 42.04100
N  52.16100 25.82600 44.00000
C  53.01100 26.90300 44.17600
C  52.17600 28.08100 44.27400
C  50.88300 27.61500 44.03900
C  50.91200 26.23800 43.72200
C  52.67300 29.44500 44.57300
C  49.53900 28.07900 44.07000
O  49.05400 29.15500 44.34400
C  48.71200 26.81900 43.42300
C  48.27400 27.29200 42.10700
O  49.01600 27.56400 41.18400
O  46.94400 27.36300 42.05800
C  46.43200 27.58600 40.68100
H  50.32000 19.98500 43.26300
H  56.70100 21.55200 43.70100
H  54.97700 27.68500 44.59900
H  47.59200 23.75100 44.03300
H  48.37500 21.45500 42.38800
H  48.35700 21.19000 45.43900
H  47.68200 20.18400 44.17800
H  46.91600 21.71700 44.55400
H  46.92300 24.62300 42.17600
H  46.54700 22.81900 41.83000
H  48.91300 23.34000 40.65600
H  48.25200 24.96000 40.41100
H  53.07500 17.47400 43.42000
H  52.31200 17.95300 41.76800
H  51.56800 18.02300 43.43900
H  56.97900 20.32400 41.49300
H  57.61500 18.59300 41.86500
H  57.35500 19.78900 43.14200
H  57.59100 24.12500 42.95700
H  56.93300 25.77700 45.39900
H  58.14500 24.10600 45.80700
H  59.22800 23.74100 44.47900
H  58.06000 22.51300 45.02900
H  58.23900 26.45900 43.42100
H  57.21800 27.57100 44.08100
H  56.64500 28.11200 41.96600
H  55.61700 26.69400 41.73900
H  57.28700 26.61600 41.29100
H  53.75300 29.45700 44.72200
H  52.17400 29.91800 45.41800
H  52.48300 30.12300 43.74100
H  47.82400 26.68100 44.04000
H  46.15200 26.70200 40.10800
H  46.99000 28.15800 39.94000
H  45.46900 28.09500 40.71300
Mg -9.52000 18.41900 42.39600
C  -6.06400 18.17600 42.65600
C  -9.20200 21.81000 41.77300
C  -12.80700 18.61400 41.75100
C  -9.68700 14.95400 42.77400
N  -7.87000 19.72400 42.08700
C  -6.50400 19.45000 42.25500
C  -5.67800 20.68900 41.96700
C  -6.68400 21.90500 41.98900
C  -8.00500 21.12400 42.01800
C  -6.47800 22.89600 43.22400
C  -4.85500 20.54500 40.64300
C  -5.57900 19.82700 39.46800
H  -5.34300 20.30800 38.00900
N  -10.82500 20.03100 41.83500
C  -10.54100 21.34500 41.67600
C  -11.76700 22.14000 41.40800
C  -12.82400 21.17700 41.46800
C  -12.17500 19.84700 41.70900
C  -11.84000 23.54800 41.04800
C  -14.27700 21.42800 41.44600
O  -14.62600 22.60200 41.23900
C  -15.36200 20.47600 41.63000
N  -10.97900 17.06500 42.07400
C  -12.25500 17.38500 41.98900
C  -13.16500 16.24600 42.31700
C  -12.20600 14.98100 42.30100
C  -10.83600 15.67400 42.41200
C  -14.03200 16.33700 43.59600
C  -12.26500 14.04300 41.02000
C  -13.17600 12.79400 41.05100
N  -8.16000 16.83600 42.73500
C  -8.38400 15.47400 42.96700
C  -7.13800 14.84300 43.34700
C  -6.16700 15.89000 43.20300
C  -6.88200 17.07300 42.88300
C  -6.99000 13.40300 43.66700
C  -4.74400 16.16600 43.26800
O  -3.73300 15.48100 43.49600
C  -4.62200 17.65300 42.94400
C  -3.92000 18.33300 44.05100
O  -2.94500 19.06600 43.89300
O  -4.38300 17.98400 45.26600
C  -3.45800 18.22000 46.39400
H  -9.10800 22.89400 41.67800
H  -13.89900 18.60100 41.76000
H  -9.95000 13.90100 42.89400
H  -4.93800 20.73500 42.76600
H  -6.70400 22.54700 41.10900
H  -7.21800 22.66000 43.98900
H  -6.60700 23.95700 43.00900
H  -5.50600 22.90200 43.71800
H  -3.93200 20.02100 40.89200
H  -4.57300 21.51900 40.24400
H  -6.65900 19.75600 39.59600
H  -5.11600 18.84100 39.43000
H  -10.87900 24.04700 41.18000
H  -12.43900 24.13300 41.74600
H  -12.13200 23.85900 40.04500
H  -15.27800 19.85600 42.52300
H  -15.38600 19.93400 40.68500
H  -16.31800 20.97700 41.78000
H  -13.86300 16.02800 41.50900
H  -12.39100 14.34700 43.16800
H  -14.92300 16.87000 43.26400
H  -13.55900 17.00500 44.31500
H  -14.40000 15.37700 43.96100
H  -11.27400 13.66900 40.76200
H  -12.52100 14.62800 40.13600
H  -13.44100 12.54000 42.07800
H  -12.52200 11.96500 40.77800
H  -14.06600 12.91600 40.43500
H  -6.00700 13.14300 43.27400
H  -7.72700 12.78100 43.15900
H  -7.01500 13.14600 44.72600
H  -4.01700 17.70000 42.03900
H  -3.35500 17.18300 46.71600
H  -3.92200 18.82800 47.17100
H  -2.47900 18.62700 46.14200

