158

Mg 24.46000 -4.86500 45.37800
C  27.04800 -2.66300 43.93500
C  22.19300 -3.33600 43.25200
C  22.52900 -7.48300 45.88900
C  27.08300 -6.23500 47.41300
N  24.65800 -3.16100 43.78400
C  25.76600 -2.37900 43.39500
C  25.36000 -1.30500 42.45500
C  23.80000 -1.52300 42.39100
C  23.48500 -2.77000 43.21500
C  22.91300 -0.31700 42.91000
C  25.95900 -1.33600 40.96900
C  26.00600 0.00900 40.13800
H  25.20300 -0.06100 38.80300
N  22.54300 -5.35100 44.62700
C  21.75900 -4.55800 43.81100
C  20.62200 -5.34400 43.57800
C  20.69200 -6.55900 44.26800
C  21.97000 -6.56000 44.95400
C  19.49400 -4.92800 42.63700
C  19.58600 -7.68400 44.21700
O  18.61300 -7.57800 43.46100
C  19.72600 -8.94100 45.06000
N  24.69900 -6.47000 46.63400
C  23.72700 -7.44700 46.63500
C  24.14500 -8.57700 47.61200
C  25.40600 -7.99200 48.30700
C  25.79300 -6.85800 47.39500
C  23.08300 -9.11700 48.57500
C  26.52000 -8.96900 48.58400
C  26.97600 -9.21600 50.04900
N  26.56700 -4.54700 45.68100
C  27.53500 -5.19000 46.55100
C  28.81800 -4.53300 46.44700
C  28.58700 -3.51900 45.48500
C  27.27500 -3.62400 44.95000
C  30.10500 -4.86700 47.25900
C  29.30800 -2.45700 44.81000
O  30.42400 -2.08800 45.03600
C  28.30700 -1.87300 43.77400
C  28.15600 -0.44400 44.02300
O  28.06600 0.03000 45.14800
O  28.13500 0.22400 42.85700
C  28.10600 1.69200 42.98900
H  21.44700 -2.81900 42.64500
H  22.00100 -8.43800 45.90000
H  27.83500 -6.62100 48.10400
H  25.50400 -0.36600 42.98900
H  23.53100 -1.59500 41.33700
H  23.55000 0.53700 43.13800
H  22.48200 -0.67200 43.84700
H  22.15100 -0.06400 42.17200
H  25.40500 -2.09800 40.42100
H  26.99500 -1.67300 40.96700
H  27.03400 0.31000 39.93800
H  25.69900 0.86900 40.73200
H  19.49100 -5.47500 41.69400
H  19.55800 -3.84800 42.50300
H  18.55400 -5.16000 43.13700
H  19.73900 -8.79600 46.14100
H  20.58400 -9.48400 44.66300
H  18.84600 -9.55200 44.86400
H  24.53200 -9.39900 47.00900
H  25.13800 -7.44500 49.21100
H  22.19200 -8.50600 48.42800
H  23.33500 -9.07200 49.63400
H  22.81800 -10.16100 48.41000
H  27.46300 -8.73000 48.09300
H  26.33900 -10.00400 48.29300
H  26.40500 -10.01700 50.51900
H  26.90900 -8.25600 50.56100
H  28.02800 -9.49800 50.06000
H  30.73600 -3.97800 47.25700
H  30.59900 -5.72000 46.79400
H  29.67700 -5.08000 48.23900
H  28.70700 -2.03300 42.77300
H  29.09400 2.15200 43.02300
H  27.60900 2.06800 43.88300
H  27.64900 2.04600 42.06500
Mg 17.59300 0.02300 27.31100
C  16.06400 1.92800 29.80600
C  19.06900 -1.90500 29.68700
C  19.15000 -1.72900 24.79600
C  16.00800 1.97700 25.02600
N  17.67300 0.18500 29.48200
C  16.94600 0.99200 30.33200
C  17.19400 0.54800 31.80900
C  18.31600 -0.52400 31.71700
C  18.37400 -0.80700 30.16600
C  19.62100 -0.03900 32.33900
C  15.86400 0.07100 32.56800
C  15.56700 0.70500 33.96900
H  16.65500 1.21000 34.87400
N  18.83800 -1.67200 27.30200
C  19.35000 -2.31000 28.35400
C  20.20500 -3.40600 27.96600
C  20.20900 -3.41000 26.54100
C  19.34200 -2.24100 26.12900
C  20.83100 -4.34600 28.87100
C  20.82400 -4.39600 25.60300
O  20.89800 -4.22700 24.36700
C  21.52600 -5.69100 26.13500
N  17.62900 0.15800 25.29600
C  18.38100 -0.61700 24.46500
C  18.35400 -0.19700 22.97900
C  17.35800 0.98600 23.00900
C  16.94200 1.00000 24.51500
C  19.74200 0.22400 22.43200
C  16.09100 0.74500 22.06500
C  15.65000 1.81900 21.09900
N  16.31600 1.70900 27.32500
C  15.70400 2.36500 26.33800
C  14.69800 3.37700 26.82100
C  14.85500 3.22700 28.22800
C  15.79500 2.18800 28.48000
C  13.85300 4.27000 26.08900
C  14.43800 3.70500 29.53200
O  13.72700 4.65700 29.75900
C  15.30000 2.94900 30.62700
C  16.04000 3.89400 31.40500
O  17.23200 4.17100 31.35000
O  15.28600 4.14200 32.58800
C  15.99900 5.04700 33.49700
H  19.54800 -2.41800 30.52400
H  19.64900 -2.17900 23.93500
H  15.38900 2.57500 24.35400
H  17.48700 1.38700 32.44100
H  17.99300 -1.44800 32.19700
H  20.41000 0.08500 31.59700
H  19.98600 -0.74400 33.08500
H  19.53300 0.94800 32.79500
H  15.71600 -0.99200 32.75400
H  15.06000 0.33200 31.88000
H  15.06100 -0.05500 34.56400
H  14.75800 1.41300 33.79000
H  20.22100 -5.24600 28.79500
H  20.88900 -3.95300 29.88600
H  21.89200 -4.47100 28.65000
H  22.45400 -5.45000 26.65400
H  21.64800 -6.36900 25.29100
H  20.82600 -6.29700 26.71000
H  18.00000 -1.06000 22.41400
H  17.82900 1.95900 22.87100
H  20.46500 0.09000 23.23700
H  19.78600 1.19800 21.94400
H  20.04200 -0.51300 21.68600
H  15.30800 0.37300 22.72600
H  16.36000 -0.11000 21.44400
H  15.91300 1.63400 20.05700
H  16.17500 2.73300 21.37500
H  14.56800 1.88000 21.21800
H  13.50700 3.93700 25.11000
H  14.42300 5.18400 25.92000
H  12.93200 4.56000 26.59500
H  14.60500 2.44200 31.29600
H  15.27400 5.30100 34.27000
H  16.34700 5.88200 32.88900
H  16.81200 4.42000 33.86500

