158

Mg 47.34200 44.37700 43.13000
C  43.92700 43.58000 43.09300
C  47.95700 41.12400 42.68000
C  50.48100 45.32400 42.65700
C  46.34000 47.86100 42.95200
N  46.12300 42.57800 42.70100
C  44.79500 42.46400 42.80000
C  44.24400 41.06300 42.65100
C  45.55200 40.29100 43.05600
C  46.63900 41.37100 42.72200
C  45.45400 39.64300 44.50000
C  43.62100 40.70200 41.32400
C  43.81400 41.55700 40.06200
H  43.65300 40.89800 38.69500
N  49.09400 43.30200 42.70500
C  49.09700 41.98200 42.56700
C  50.52100 41.63900 42.25900
C  51.27100 42.86700 42.18100
C  50.33600 43.93000 42.43400
C  50.98700 40.17800 41.96900
C  52.75000 42.99800 41.93600
O  53.45600 42.00700 41.96700
C  53.35900 44.35500 41.98100
N  48.25100 46.31700 42.69000
C  49.57700 46.43800 42.79900
C  49.99500 47.93500 42.84500
C  48.70600 48.67100 42.85900
C  47.68400 47.52400 42.89600
C  50.88700 48.40200 44.00500
C  48.49500 49.77500 41.74900
C  48.30200 51.14900 42.41000
N  45.54300 45.55500 43.11700
C  45.31700 46.92100 43.03300
C  43.89900 47.11700 42.81800
C  43.35400 45.83500 43.05500
C  44.37400 44.90800 43.05300
C  43.12200 48.42700 42.48600
C  42.09400 45.16400 43.13600
O  40.99300 45.72800 43.26700
C  42.39100 43.62400 43.04800
C  41.81400 43.10900 44.25200
O  42.19300 43.38300 45.35300
O  40.69200 42.36200 43.99200
C  39.78300 42.04200 45.11400
H  48.18100 40.07800 42.90200
H  51.48300 45.75800 42.63900
H  46.04500 48.90800 42.85500
H  43.43900 40.87800 43.36100
H  45.85000 39.49600 42.37200
H  44.45400 39.49200 44.90600
H  46.08100 40.09500 45.26900
H  45.78500 38.62100 44.31300
H  42.55800 40.52600 41.48500
H  44.08800 39.75700 41.04400
H  44.69900 42.19200 40.11700
H  43.00100 42.28200 40.10100
H  51.19400 40.24400 40.90100
H  50.10700 39.56500 42.16200
H  51.88100 39.88500 42.51800
H  52.82800 44.98000 41.26300
H  54.43500 44.34300 41.80200
H  53.36000 44.74400 43.00000
H  50.44700 48.07500 41.86300
H  48.46100 49.03200 43.85900
H  50.63500 49.27200 44.61100
H  51.92100 48.53700 43.68900
H  50.84400 47.55500 44.69000
H  47.65700 49.54600 41.09100
H  49.31600 49.81900 41.03400
H  48.59800 51.08200 43.45700
H  47.29100 51.52200 42.24700
H  48.93100 51.89400 41.92100
H  42.76900 48.42000 41.45500
H  43.77800 49.29500 42.54700
H  42.28200 48.48600 43.17700
H  41.93700 43.30200 42.11100
H  40.13400 41.09900 45.53400
H  38.74100 42.03100 44.79600
H  39.85000 42.79800 45.89700
Mg -0.02200 43.49200 26.43200
C  2.61700 43.10100 28.91100
C  -2.07000 42.08400 28.92200
C  -2.49700 43.62400 24.29100
C  2.41300 44.16600 24.24000
N  0.27200 42.76900 28.69800
C  1.37500 42.77800 29.47800
C  1.09700 42.59400 30.93900
C  -0.32300 41.96800 30.86500
C  -0.75500 42.27900 29.44400
C  -0.53500 40.44400 31.17800
C  1.14100 44.00000 31.66700
C  1.73800 44.01700 33.16500
H  1.57400 42.75600 34.02000
N  -1.96500 42.91700 26.55400
C  -2.59800 42.43500 27.66200
C  -4.01100 42.16600 27.21500
C  -4.16700 42.51600 25.84900
C  -2.86100 43.03000 25.50500
C  -5.00500 41.54600 28.20600
C  -5.26700 42.38700 24.95800
O  -5.22700 42.78500 23.80200
C  -6.62800 41.93500 25.45500
N  -0.02800 43.62000 24.41000
C  -1.20000 43.84700 23.76000
C  -0.89900 44.26200 22.30600
C  0.57300 44.71500 22.41400
C  1.05600 44.13300 23.75200
C  -1.20000 43.14900 21.26900
C  0.74000 46.27300 22.24000
C  1.14400 46.67100 20.83000
N  2.04200 43.48600 26.48400
C  2.89500 43.80300 25.47000
C  4.23500 43.73700 25.96300
C  4.16100 43.59900 27.28500
C  2.81000 43.30900 27.54600
C  5.38800 44.09000 25.08700
C  4.93400 43.57700 28.49700
O  6.10000 43.65700 28.77800
C  3.90600 43.36000 29.54200
C  4.34900 42.09100 30.20900
O  4.38000 40.96300 29.74700
O  4.79300 42.39200 31.53000
C  5.09000 41.14600 32.24000
H  -2.76800 41.64200 29.63600
H  -3.27400 43.74300 23.53300
H  3.22100 44.37200 23.53400
H  1.78700 41.87300 31.37900
H  -0.99000 42.40100 31.61200
H  -1.05000 39.99300 30.33000
H  -1.15100 40.30700 32.06700
H  0.42000 39.93100 31.29500
H  0.15700 44.46800 31.64800
H  1.81000 44.66300 31.11900
H  1.26300 44.84800 33.68500
H  2.76800 44.37400 33.17000
H  -5.51000 42.37600 28.70000
H  -4.63200 40.87200 28.97700
H  -5.73600 40.90800 27.70900
H  -6.81900 42.44900 26.39700
H  -6.62100 40.84500 25.48700
H  -7.27300 42.38200 24.69900
H  -1.60800 45.06900 22.12000
H  1.16600 44.06400 21.77200
H  -2.26300 43.26200 21.05700
H  -0.97600 42.14300 21.62400
H  -0.63400 43.37800 20.36600
H  1.47200 46.66000 22.94800
H  -0.21800 46.75100 22.44400
H  2.15000 47.08600 20.88800
H  0.41500 47.43100 20.55000
H  1.16600 45.82500 20.14300
H  5.95600 44.89700 25.55000
H  4.99600 44.40300 24.11900
H  5.96000 43.16900 25.20100
H  3.94000 44.08600 30.35400
H  5.35300 41.43900 33.25600
H  5.96700 40.68200 31.78700
H  4.17600 40.55400 32.27200

