158

Mg 1.34300 -0.74900 43.87100
C  4.76300 -0.18800 43.23400
C  0.65100 2.13900 42.25100
C  -1.70700 -1.74100 43.57700
C  2.37200 -4.04900 44.88800
N  2.65400 0.71400 42.91000
C  4.02800 0.81500 42.78700
C  4.39600 2.12500 42.02600
C  3.07400 2.85100 41.81900
C  1.99900 1.84500 42.38900
C  2.95100 4.14000 42.68700
C  5.35300 2.00800 40.77700
C  5.09000 0.88500 39.74900
H  5.41700 1.26400 38.31200
N  -0.33000 0.12500 43.19100
C  -0.42700 1.28500 42.56600
C  -1.79900 1.63800 42.39800
C  -2.55200 0.52500 42.87500
C  -1.48500 -0.42900 43.21000
C  -2.34400 2.91300 41.78800
C  -4.04100 0.46500 43.09100
O  -4.72700 1.46800 43.04400
C  -4.94000 -0.72900 43.61800
N  0.55200 -2.65200 43.88100
C  -0.79200 -2.68100 43.92500
C  -1.24600 -4.08800 44.34800
C  -0.03900 -4.70300 45.07500
C  1.00600 -3.78300 44.52100
C  -2.59600 -4.19900 45.23100
C  0.14500 -6.24700 44.92100
C  0.37200 -7.05600 46.21200
N  3.19100 -1.86900 44.24300
C  3.42000 -3.10200 44.72500
C  4.81700 -3.28400 44.99800
C  5.36000 -2.13500 44.40000
C  4.34500 -1.32400 43.89100
C  5.55700 -4.45600 45.61300
C  6.63300 -1.53900 44.07500
O  7.79500 -1.90100 44.29300
C  6.28100 -0.28000 43.25800
C  7.03400 0.89300 43.88500
O  6.57100 1.50300 44.82600
O  8.27800 1.05100 43.41800
C  9.19100 1.85900 44.26000
H  0.35300 3.09300 41.80900
H  -2.77600 -1.95300 43.64500
H  2.64300 -4.93900 45.46100
H  5.03500 2.57000 42.78900
H  3.05800 2.98700 40.73800
H  2.16500 4.03000 43.43400
H  2.63900 4.98100 42.06900
H  3.90900 4.39900 43.13800
H  6.36700 1.84200 41.14000
H  5.31200 3.02500 40.38900
H  4.09000 0.45800 39.83200
H  5.63500 -0.01200 40.04300
H  -3.36900 2.73300 41.46400
H  -1.70800 3.24000 40.96500
H  -2.63800 3.70600 42.47500
H  -4.80700 -1.57100 42.93800
H  -5.98800 -0.44600 43.51600
H  -4.55400 -0.87800 44.62600
H  -1.47500 -4.66100 43.45000
H  -0.14000 -4.31700 46.08900
H  -2.53500 -3.32700 45.88300
H  -2.38200 -5.07300 45.84500
H  -3.59700 -4.22700 44.80100
H  1.06800 -6.49100 44.39400
H  -0.65800 -6.73300 44.36600
H  0.41000 -6.39600 47.07900
H  1.20300 -7.76000 46.25500
H  -0.52600 -7.66000 46.34100
H  5.32400 -5.31800 44.98800
H  5.04800 -4.59600 46.56700
H  6.63500 -4.30200 45.63800
H  6.68400 -0.35500 42.24800
H  9.86800 2.49600 43.69000
H  9.71800 1.09900 44.83600
H  8.74200 2.60400 44.91700
Mg 31.05000 59.56100 38.45000
C  28.01200 58.07800 37.42900
C  32.73900 57.09100 36.97800
C  33.80700 61.48700 38.70400
C  29.05800 62.66000 38.78900
N  30.42100 57.77500 37.36900
C  29.20100 57.37900 37.02800
C  29.18800 56.04600 36.32500
C  30.69200 55.62600 36.41300
C  31.37900 56.82500 37.04900
C  30.95300 54.26800 37.21700
C  28.62800 56.18700 34.87000
C  27.41300 55.28100 34.49100
H  26.28300 55.98200 33.72700
N  33.06400 59.14800 38.09000
C  33.55400 58.10500 37.46900
C  35.02600 58.24800 37.26900
C  35.41400 59.57200 37.75200
C  34.07100 60.17000 38.22100
C  35.87500 57.17300 36.60300
C  36.78300 60.07100 37.76500
O  37.68000 59.45600 37.22800
C  37.10900 61.37400 38.39900
N  31.37700 61.68700 38.61600
C  32.65200 62.20200 38.75900
C  32.62800 63.74300 38.93800
C  31.17700 64.12800 38.62300
C  30.47300 62.75000 38.77200
C  33.32700 64.32700 40.15600
C  30.80800 64.80100 37.29100
C  30.01200 66.05200 37.46200
N  28.95400 60.19800 38.40600
C  28.39300 61.44700 38.61100
C  26.92500 61.26800 38.46800
C  26.78600 59.91900 38.12000
C  28.02800 59.29400 38.01600
C  25.93800 62.36000 38.68500
C  25.70900 59.02400 37.69700
O  24.50800 59.28200 37.54600
C  26.48800 57.71800 37.27800
C  26.10300 56.58800 38.18300
O  26.69800 56.42200 39.24800
O  25.07000 55.70800 37.77400
C  24.81600 54.56600 38.65700
H  33.26100 56.20200 36.61800
H  34.68100 62.14100 38.68900
H  28.51500 63.60800 38.78700
H  28.54300 55.39400 36.91300
H  31.11500 55.44700 35.42500
H  30.14200 53.56500 37.02900
H  30.98100 54.45600 38.29000
H  31.82200 53.71300 36.86300
H  29.38400 55.92000 34.13000
H  28.46200 57.26400 34.82600
H  26.96900 54.83800 35.38300
H  27.80900 54.46200 33.89000
H  35.25800 56.29500 36.40800
H  36.55800 56.94100 37.42100
H  36.37300 57.39400 35.65900
H  38.18200 61.43100 38.58200
H  36.65700 61.43700 39.38900
H  36.84800 62.19500 37.73200
H  33.16700 63.93200 38.01000
H  30.79600 64.68600 39.47900
H  33.75300 65.28800 39.86800
H  34.11900 63.69700 40.56000
H  32.65200 64.52600 40.98800
H  30.26300 64.10300 36.65500
H  31.67300 65.13300 36.71700
H  28.97300 65.92800 37.15600
H  30.29700 66.82400 36.74800
H  29.95400 66.45800 38.47200
H  26.33600 63.33300 38.97400
H  25.20600 61.99900 39.40800
H  25.43300 62.59200 37.74700
H  26.12700 57.53600 36.26600
H  24.04900 54.73300 39.41300
H  25.67400 54.21300 39.23000
H  24.42100 53.75000 38.05200

