158

Mg 46.90700 16.42300 28.39900
C  44.59000 16.03300 30.95700
C  48.89600 18.23200 30.37700
C  48.96000 16.80800 25.81000
C  44.56700 14.80100 26.17600
N  46.76900 17.13000 30.39600
C  45.82800 16.72600 31.32600
C  46.23200 17.08200 32.74500
C  47.39600 18.05300 32.45900
C  47.69200 17.80800 30.98300
C  47.13000 19.53400 32.93900
C  46.60400 15.80900 33.57600
C  47.18700 16.09400 34.99800
H  47.09400 17.48100 35.64500
N  48.69300 17.35300 28.14100
C  49.41800 18.02600 29.11000
C  50.63900 18.62800 28.53400
C  50.69900 18.11400 27.17800
C  49.38800 17.31800 27.01500
C  51.59500 19.53700 29.38600
C  51.84000 18.26300 26.17800
O  51.90100 17.80200 25.04400
C  53.05400 19.05300 26.47200
N  46.63400 16.04500 26.24000
C  47.71800 16.27200 25.42900
C  47.32400 15.94500 23.97800
C  46.24400 14.82400 24.21700
C  45.77100 15.23300 25.61200
C  46.77100 17.25700 23.35700
C  46.78000 13.36400 24.18300
C  46.03600 12.47300 23.17800
N  45.00400 15.56900 28.47700
C  44.20000 14.96900 27.52500
C  43.00700 14.43500 28.22500
C  43.09500 14.81200 29.55500
C  44.34000 15.60400 29.58200
C  41.96500 13.57500 27.52000
C  42.43400 14.79000 30.84000
O  41.28900 14.39900 31.11500
C  43.37300 15.51800 31.72600
C  42.70000 16.53800 32.54300
O  41.78500 17.22600 32.09900
O  43.14900 16.49700 33.84800
C  42.69500 17.56900 34.74100
H  49.50200 18.82500 31.06600
H  49.67500 17.02500 25.01400
H  43.90400 14.15700 25.59500
H  45.50200 17.64400 33.32600
H  48.29800 17.72500 32.97500
H  47.05100 20.23500 32.10800
H  48.02100 19.93400 33.42300
H  46.34600 19.59300 33.69300
H  47.24200 15.24700 32.89400
H  45.74100 15.15900 33.72300
H  48.24000 15.87500 34.82200
H  46.86100 15.41900 35.78900
H  51.18400 19.72000 30.37900
H  51.68700 20.47300 28.83600
H  52.59900 19.11400 29.41300
H  52.85200 20.08300 26.76700
H  53.74400 18.86300 25.65000
H  53.71300 18.78600 27.29800
H  48.25600 15.58700 23.54100
H  45.33600 15.03600 23.65300
H  45.82200 17.47300 23.84800
H  46.72700 17.16800 22.27200
H  47.41600 18.08000 23.66500
H  46.70400 12.90200 25.16700
H  47.84100 13.44600 23.95100
H  45.45500 11.70300 23.68500
H  46.74700 11.87800 22.60300
H  45.31800 13.06800 22.61400
H  41.00200 13.93600 27.88100
H  42.14800 12.56300 27.88200
H  42.03100 13.77000 26.45000
H  43.74800 14.79300 32.44900
H  42.65600 17.17700 35.75700
H  41.67700 17.85800 34.47800
H  43.42800 18.37200 34.66400
Mg -4.46600 25.42300 25.47700
C  -3.26500 26.73700 28.58500
C  -6.53700 23.28500 27.37800
C  -5.79700 24.46000 22.71800
C  -2.29100 27.59200 23.83300
N  -4.79200 25.01900 27.66200
C  -4.23800 25.77800 28.73300
C  -4.85400 25.34500 30.04700
C  -5.70000 24.09100 29.64500
C  -5.61200 24.05100 28.12700
C  -5.40200 22.80900 30.46800
C  -5.72700 26.45400 30.67600
C  -5.52200 26.61400 32.28100
H  -5.21100 25.31200 33.12500
N  -5.88600 23.98800 25.08900
C  -6.68500 23.26500 26.00500
C  -7.63000 22.47500 25.18200
C  -7.40000 22.82100 23.87200
C  -6.36900 23.84700 23.88000
C  -8.56500 21.41900 25.72900
C  -7.94300 22.19400 22.50700
O  -7.61800 22.59000 21.38300
C  -8.83700 21.04400 22.47000
N  -4.02300 25.94200 23.54300
C  -4.69500 25.36100 22.54400
C  -4.24700 25.88400 21.12200
C  -3.13800 26.92700 21.52300
C  -3.14000 26.82700 23.05200
C  -3.61000 24.68100 20.30200
C  -3.23600 28.42800 21.05500
C  -3.31400 28.66300 19.48600
N  -3.05000 26.90400 26.05500
C  -2.18000 27.61900 25.23500
C  -1.41000 28.58300 26.06200
C  -1.80700 28.28300 27.38100
C  -2.74600 27.23300 27.35600
C  -0.41400 29.57900 25.62200
C  -1.65400 28.62600 28.78600
O  -1.01100 29.50200 29.32200
C  -2.57300 27.58500 29.62600
C  -1.69400 26.92500 30.72000
O  -1.13900 25.81800 30.67500
O  -1.62000 27.65200 31.83900
C  -0.78600 27.11100 32.93400
H  -7.22600 22.74900 28.03400
H  -6.21000 24.26600 21.72600
H  -1.71200 28.31800 23.25700
H  -4.06900 25.05500 30.74500
H  -6.75300 24.35800 29.73800
H  -6.18000 22.72300 31.22700
H  -4.42100 22.88900 30.93500
H  -5.36200 21.97500 29.76700
H  -6.76300 26.24900 30.40900
H  -5.36500 27.36200 30.19400
H  -6.41000 27.06100 32.72600
H  -4.67900 27.28500 32.44600
H  -7.97200 20.61900 26.17400
H  -9.41700 21.14200 25.10900
H  -9.02500 22.13100 26.41400
H  -8.84400 20.70500 21.43400
H  -9.84600 21.32800 22.77100
H  -8.46200 20.25900 23.12800
H  -5.06000 26.41600 20.62700
H  -2.12500 26.60300 21.28400
H  -3.70900 23.84200 20.99100
H  -2.56900 24.68700 19.98000
H  -4.29100 24.47100 19.47700
H  -2.42300 29.02500 21.46800
H  -4.09300 28.86200 21.57000
H  -2.60600 29.46400 19.27300
H  -4.31700 29.01400 19.24700
H  -3.05800 27.94300 18.70900
H  0.01100 29.42400 24.63000
H  0.36800 29.62800 26.38000
H  -0.87300 30.56800 25.64400
H  -3.26800 28.24200 30.14900
H  -0.98600 26.09300 33.26900
H  -1.08300 27.84500 33.68300
H  0.25600 27.23700 32.64100

