158

Mg -1.22500 17.60000 25.65600
C  -1.91300 15.49100 28.53200
C  -2.14500 20.25600 27.62900
C  -1.25500 19.45600 22.92600
C  -1.13100 14.61900 23.72900
N  -1.71900 17.85000 27.91200
C  -2.02800 16.91100 28.83600
C  -2.52800 17.50300 30.16700
C  -2.53200 18.99600 29.87800
C  -2.07100 19.06800 28.38800
C  -3.89600 19.65000 30.16000
C  -1.75100 17.00700 31.44600
C  -2.03200 17.78400 32.75800
H  -1.85700 16.91200 33.99700
N  -1.63800 19.54600 25.36300
C  -1.89400 20.51000 26.27600
C  -1.80200 21.84600 25.62000
C  -1.74400 21.59800 24.20500
C  -1.53100 20.15800 24.10200
C  -1.80800 23.02800 26.52900
C  -1.60500 22.57200 23.09900
O  -1.48400 22.31400 21.91200
C  -1.64600 24.05700 23.47000
N  -1.21800 17.14000 23.64500
C  -1.14500 18.09900 22.69900
C  -0.81700 17.54800 21.29100
C  -0.63700 16.06700 21.61400
C  -1.00500 15.93700 23.05400
C  -2.03700 17.73100 20.35300
C  0.80600 15.51200 21.30700
C  1.95500 15.49800 22.38100
N  -1.44400 15.50600 26.06000
C  -1.38600 14.45800 25.14200
C  -1.49100 13.18000 25.88000
C  -1.71900 13.54300 27.20800
C  -1.67300 14.97500 27.23200
C  -1.47100 11.74900 25.32200
C  -1.94800 13.06600 28.55000
O  -2.14300 11.94500 29.06100
C  -2.05000 14.32800 29.41900
C  -0.85400 14.23100 30.24900
O  0.26000 14.70000 30.03800
O  -1.18000 13.47800 31.37800
C  -0.13200 13.13400 32.33500
H  -2.54100 21.09600 28.20200
H  -1.20100 20.07800 22.03000
H  -0.97500 13.89700 22.92500
H  -3.52100 17.10700 30.37500
H  -1.78100 19.45800 30.51900
H  -4.52200 19.18200 30.91900
H  -4.52700 19.55800 29.27600
H  -3.77100 20.64100 30.59600
H  -0.70800 17.02100 31.12800
H  -1.96200 15.97000 31.70900
H  -3.06600 18.03200 32.51800
H  -1.47000 18.71800 32.71900
H  -0.99100 23.00600 27.24900
H  -2.70800 22.89600 27.13000
H  -1.97200 24.05100 26.19100
H  -1.74700 24.57200 22.51500
H  -0.67000 24.11700 23.95100
H  -2.44400 24.45200 24.09800
H  0.10600 17.96800 20.89300
H  -1.29200 15.34000 21.13400
H  -1.75300 18.40600 19.54500
H  -2.81700 18.11800 21.00800
H  -2.33800 16.74000 20.01500
H  1.15200 16.08800 20.44900
H  0.71800 14.47000 20.99700
H  2.42900 14.52000 22.46700
H  1.56900 15.80300 23.35400
H  2.68200 16.23000 22.03000
H  -0.65200 11.72700 24.60200
H  -2.36500 11.50700 24.74800
H  -1.41000 11.02800 26.13700
H  -2.85500 14.29500 30.15400
H  0.83200 13.60600 32.14800
H  0.04700 12.06000 32.38400
H  -0.43300 13.33400 33.36300
Mg 9.03400 2.55900 27.10300
C  10.33600 1.17100 30.04500
C  7.03500 4.62200 28.96000
C  7.81500 3.74600 24.24900
C  10.88900 0.05000 25.28200
N  8.66500 2.77500 29.29900
C  9.34100 2.13900 30.30500
C  9.16500 2.87700 31.66400
C  7.86700 3.79800 31.28400
C  7.83500 3.75500 29.74600
C  6.53200 3.30500 31.99700
C  10.43400 3.57200 32.23000
C  10.15600 4.40100 33.45000
H  10.85400 4.05100 34.75200
N  7.61000 4.05800 26.70200
C  6.89800 4.74800 27.56900
C  5.99400 5.65800 26.84700
C  6.29000 5.46700 25.44800
C  7.29400 4.38200 25.39600
C  5.08000 6.67800 27.40900
C  5.77100 6.18100 24.10500
O  6.21200 5.93700 22.95500
C  4.73900 7.34400 24.22700
N  9.37700 2.00600 25.06400
C  8.67100 2.67800 24.11300
C  9.17400 2.19300 22.71800
C  9.94800 0.94500 22.99800
C  10.20500 0.99400 24.51400
C  8.02500 1.96700 21.67700
C  11.16200 0.70900 21.98600
C  11.09900 -0.50300 21.04200
N  10.24600 0.93100 27.50700
C  10.98700 0.07700 26.69600
C  11.80200 -0.80500 27.53700
C  11.58800 -0.35500 28.85300
C  10.62400 0.69100 28.80400
C  12.56100 -2.01300 27.19700
C  12.03800 -0.61500 30.17700
O  12.84000 -1.39100 30.71400
C  11.24600 0.49900 30.98600
C  10.51000 -0.05500 32.09400
O  9.46100 -0.71200 31.96500
O  11.07200 0.17400 33.26900
C  10.28800 -0.01300 34.39500
H  6.43900 5.40600 29.43100
H  7.47100 4.03000 23.25200
H  11.36400 -0.68600 24.62900
H  8.82200 2.14500 32.39500
H  8.05400 4.82300 31.60400
H  5.77500 3.35900 31.21400
H  6.27700 4.09700 32.70200
H  6.35600 2.32700 32.44500
H  10.72200 4.21400 31.39900
H  11.34700 3.02100 32.45400
H  9.07700 4.38100 33.60600
H  10.54300 5.38600 33.18900
H  5.57400 7.61300 27.14400
H  5.03100 6.50700 28.48500
H  4.17300 6.66500 26.80600
H  5.01300 8.08500 24.97800
H  3.73500 6.93700 24.34200
H  4.76000 7.86000 23.26700
H  9.85500 2.90800 22.25600
H  9.25600 0.10700 22.91700
H  7.08200 2.33000 22.08600
H  7.88700 0.91600 21.42300
H  8.33400 2.52600 20.79300
H  12.04300 0.67400 22.62500
H  11.25300 1.58900 21.35000
H  11.59200 -1.24900 21.66500
H  11.62600 -0.29900 20.11000
H  10.06300 -0.82300 20.93400
H  13.40400 -2.27100 27.83700
H  12.80900 -1.79300 26.15900
H  11.83200 -2.82200 27.15600
H  11.99900 1.20200 31.34400
H  9.36800 -0.58300 34.27000
H  10.06100 0.97600 34.79200
H  10.67400 -0.54100 35.26700

