158

Mg 47.48700 15.78000 28.91200
C  45.73900 15.23300 31.81600
C  50.02500 17.16900 30.58400
C  48.82300 16.78800 25.83000
C  44.88600 14.20300 27.06400
N  47.72400 16.34000 30.97600
C  46.89000 16.02400 31.99100
C  47.47400 16.47800 33.36800
C  48.92800 16.92900 32.94000
C  48.90400 16.82700 31.40000
C  49.32000 18.34700 33.42800
C  47.23300 15.58800 34.63500
C  48.29500 15.53400 35.73700
H  48.15000 16.66800 36.74900
N  49.24300 16.77000 28.27900
C  50.14200 17.24100 29.16500
C  51.30200 17.58500 28.40600
C  51.00600 17.49100 27.04100
C  49.64800 17.00800 26.94300
C  52.63800 17.99200 29.12600
C  51.82200 17.78900 25.85300
O  51.31400 17.65400 24.73100
C  53.29000 18.02800 26.05800
N  46.96800 15.53600 26.78300
C  47.63300 16.11200 25.73800
C  46.97200 15.79100 24.36700
C  45.90900 14.74000 24.71000
C  45.90200 14.77500 26.26700
C  46.61900 17.07400 23.57700
C  46.16700 13.28400 24.08900
C  46.61300 12.10300 25.08600
N  45.82500 14.71600 29.24400
C  44.80800 14.17900 28.43800
C  43.71600 13.69100 29.28400
C  44.09100 14.01100 30.58600
C  45.37700 14.60600 30.54600
C  42.37600 13.14100 28.78600
C  43.57500 13.93400 31.96500
O  42.56400 13.39300 32.44200
C  44.68700 14.71600 32.78300
C  44.08300 15.78600 33.57000
O  43.97700 16.96200 33.26100
O  43.74700 15.29100 34.79900
C  42.91800 16.22800 35.60400
H  50.95400 17.56300 31.00100
H  49.07900 17.23800 24.86900
H  44.11000 13.65000 26.53100
H  46.97300 17.41700 33.60500
H  49.76400 16.25600 33.13100
H  49.37500 19.01100 32.56500
H  50.25800 18.23200 33.97100
H  48.56200 18.78600 34.07600
H  47.08700 14.55000 34.33500
H  46.36000 15.97100 35.16500
H  49.27300 15.70500 35.28700
H  48.22400 14.61000 36.31200
H  53.53000 17.64000 28.60900
H  52.76900 17.46100 30.06900
H  52.66800 19.07000 29.28100
H  53.70800 18.33200 25.09900
H  53.70800 17.09300 26.43000
H  53.33200 18.88100 26.73600
H  47.63800 15.29000 23.66400
H  44.98700 15.14400 24.29200
H  47.09200 17.92100 24.07200
H  45.57000 17.35500 23.67300
H  46.78400 16.98300 22.50300
H  46.99700 13.34700 23.38500
H  45.30200 12.99800 23.49200
H  46.91400 12.50700 26.05300
H  47.49800 11.66800 24.62100
H  45.79900 11.39100 25.22000
H  41.55100 13.59600 29.33500
H  42.35600 12.05200 28.78200
H  42.20800 13.44200 27.75200
H  45.17000 13.98800 33.43300
H  43.18300 17.26800 35.41400
H  43.30400 16.03900 36.60600
H  41.84200 16.05600 35.58200
Mg 41.68400 40.34500 26.12200
C  40.70100 42.60500 28.73300
C  42.51600 38.10200 28.49900
C  42.61900 38.24300 23.59200
C  40.97000 42.88700 23.82200
N  41.60900 40.41000 28.37700
C  41.07200 41.33400 29.21900
C  41.04700 40.85300 30.71300
C  41.83300 39.48500 30.55100
C  42.02000 39.33200 29.02400
C  43.14800 39.40500 31.38600
C  39.61300 40.72500 31.28800
C  39.41000 40.20600 32.73400
H  38.98000 41.03500 33.99500
N  42.51900 38.44100 26.09000
C  42.72300 37.61200 27.18500
C  43.22700 36.33400 26.76400
C  43.33800 36.34500 25.35800
C  42.81500 37.71800 24.90300
C  43.66800 35.22900 27.83100
C  43.82500 35.36000 24.30500
O  43.69800 35.40300 23.09000
C  44.49600 34.08100 24.82800
N  41.76800 40.58600 24.03000
C  42.09900 39.53800 23.25200
C  42.05400 39.89400 21.78500
C  41.30200 41.24900 21.79000
C  41.26400 41.61000 23.25500
C  43.44200 39.93700 20.95800
C  39.90200 41.15100 21.17500
C  38.92900 40.10400 21.84600
N  41.05500 42.33000 26.16600
C  40.81500 43.21600 25.14300
C  40.37000 44.49900 25.65900
C  40.34500 44.29300 27.02800
C  40.76200 42.96700 27.31200
C  40.06500 45.71800 24.88000
C  40.10500 44.88500 28.21400
O  39.89600 46.08500 28.43600
C  40.12700 43.80700 29.37100
C  41.02200 44.24000 30.53000
O  42.23100 44.46600 30.45900
O  40.30500 44.43000 31.61900
C  41.02500 44.98700 32.73900
H  42.72800 37.38600 29.29500
H  42.93900 37.56200 22.80100
H  40.77400 43.65400 23.07000
H  41.50400 41.54600 31.41900
H  41.19600 38.66700 30.88800
H  43.24600 40.30600 31.99100
H  43.94000 39.50200 30.64300
H  43.31800 38.47400 31.92700
H  39.11200 40.08200 30.56300
H  39.18800 41.72800 31.27300
H  40.31600 39.73700 33.11800
H  38.67300 39.41800 32.58200
H  43.70500 35.62400 28.84700
H  44.69300 34.93900 27.59800
H  43.02900 34.35800 27.68700
H  45.05600 33.59900 24.02700
H  43.62400 33.47400 25.07100
H  45.03900 34.21900 25.76300
H  41.50100 39.12500 21.24500
H  41.95100 42.00600 21.34900
H  43.73800 40.92600 20.60600
H  43.36300 39.35500 20.03900
H  44.11700 39.44600 21.65900
H  40.00300 40.84500 20.13300
H  39.48600 42.15500 21.09200
H  38.49900 39.54800 21.01300
H  38.03400 40.57600 22.25200
H  39.41300 39.42000 22.54300
H  40.80400 46.51700 24.82100
H  39.20900 46.13200 25.41100
H  39.80700 45.37700 23.87700
H  39.08600 43.68800 29.66900
H  41.48100 44.15100 33.27000
H  40.29900 45.50700 33.36400
H  41.83000 45.70300 32.58000

