158

Mg 0.21400 7.97200 26.27800
C  0.98100 9.73300 29.22100
C  0.20500 5.05300 28.19300
C  -0.20000 6.31500 23.48300
C  0.58900 10.94000 24.49700
N  0.46800 7.49100 28.33800
C  0.69400 8.37900 29.41800
C  0.57800 7.73700 30.77700
C  0.51000 6.20700 30.40400
C  0.47500 6.24000 28.87400
C  1.65900 5.36000 31.01400
C  -0.69600 8.28500 31.53000
C  -0.51900 8.42700 33.06600
H  0.71000 7.87200 33.87100
N  0.05800 6.00800 25.86000
C  0.01800 4.94600 26.81500
C  -0.33000 3.69800 26.11300
C  -0.31300 4.03800 24.72100
C  -0.15700 5.53600 24.64000
C  -0.51500 2.34000 26.85800
C  -0.60500 3.13200 23.51500
O  -0.56500 3.50500 22.36200
C  -1.06400 1.83800 23.78900
N  0.38400 8.53100 24.29100
C  -0.01400 7.66500 23.30500
C  -0.20300 8.27900 21.92500
C  -0.03700 9.81000 22.28100
C  0.30500 9.78200 23.77000
C  0.86600 7.75100 20.83500
C  -1.22900 10.69700 21.85000
C  -2.52200 10.61600 22.64000
N  0.80000 9.91700 26.70700
C  0.94600 10.98300 25.83800
C  1.36300 12.13800 26.57900
C  1.36500 11.70900 27.93700
C  1.04500 10.33600 27.95900
C  1.68400 13.50400 25.99100
C  1.55000 12.14000 29.27500
O  1.94700 13.18900 29.70000
C  1.26000 10.92600 30.14000
C  2.32400 10.76300 31.07300
O  3.24200 9.93600 30.99700
O  2.21200 11.70100 32.05900
C  3.19100 11.59600 33.15000
H  0.09900 4.14800 28.79400
H  -0.51600 5.77200 22.59000
H  0.82800 11.84900 23.94100
H  1.42200 8.06200 31.38500
H  -0.44600 5.75400 30.66900
H  1.28700 4.55500 31.64700
H  2.20600 5.89400 31.79100
H  2.39900 4.95400 30.32300
H  -1.34900 7.42900 31.35900
H  -1.08500 9.19700 31.07900
H  -1.38800 7.95000 33.51800
H  -0.56000 9.49400 33.28800
H  -1.26700 1.69900 26.39800
H  -0.84600 2.51600 27.88100
H  0.43800 1.82100 26.74900
H  -1.44000 1.32700 22.90200
H  -1.95400 2.10200 24.35900
H  -0.40400 1.19400 24.37100
H  -1.17900 7.99100 21.53500
H  0.83500 10.23900 21.78800
H  1.58500 7.03000 21.22600
H  1.52300 8.48000 20.36100
H  0.27400 7.13600 20.15700
H  -1.36400 10.54800 20.77900
H  -0.92100 11.73400 21.98200
H  -2.44700 9.80200 23.36000
H  -3.38100 10.44600 21.99100
H  -2.76300 11.52800 23.18700
H  0.67000 13.81800 25.74200
H  2.31200 13.36200 25.11100
H  2.04200 14.20500 26.74500
H  0.36200 11.06800 30.74200
H  4.05000 12.26500 33.09500
H  3.50200 10.57500 33.37300
H  2.59500 11.91600 34.00400
Mg 6.19900 53.55200 39.35000
C  5.91600 50.06800 38.98800
C  9.55700 53.28100 38.57300
C  6.38100 56.98100 39.32100
C  2.76900 53.64900 39.85000
N  7.58000 51.81900 38.66100
C  7.21600 50.52500 38.58100
C  8.46000 49.73200 38.23900
C  9.62800 50.73700 38.41900
C  8.89400 52.03100 38.57600
C  10.47000 50.50500 39.71200
C  8.47500 49.07900 36.79800
C  8.39000 50.09100 35.65100
H  7.01800 50.16400 34.95700
N  7.71400 54.92500 38.98000
C  9.02500 54.56600 38.71700
C  9.84400 55.77400 38.54000
C  8.96400 56.86000 38.79400
C  7.62100 56.30200 39.07600
C  11.32800 55.78500 38.04900
C  9.32500 58.27000 38.81100
O  10.52000 58.60100 38.68300
C  8.46500 59.46600 39.05600
N  4.74200 55.14300 39.47400
C  5.07300 56.45400 39.54300
C  3.79500 57.33200 39.62300
C  2.65300 56.26000 39.57700
C  3.42600 54.91800 39.73200
C  3.83900 58.28200 40.83600
C  1.78000 56.20000 38.25700
C  0.22300 55.84600 38.46400
N  4.62300 52.16200 39.50200
C  3.31800 52.38900 39.82700
C  2.66300 51.12400 40.03400
C  3.63600 50.16200 39.74700
C  4.75800 50.86600 39.44200
C  1.15900 50.90500 40.37800
C  3.91800 48.75800 39.57400
O  3.13900 47.81400 39.78300
C  5.43200 48.60000 39.13500
C  5.41400 47.87100 37.82700
O  5.11400 48.42700 36.74200
O  5.78300 46.51800 37.86400
C  5.47500 45.73400 36.66100
H  10.61200 53.13900 38.32900
H  6.34800 58.07000 39.25600
H  1.69100 53.65900 40.02200
H  8.52800 48.88000 38.91600
H  10.36000 50.86900 37.62300
H  11.47600 50.17800 39.44700
H  9.92000 49.77200 40.30100
H  10.53600 51.46800 40.21800
H  7.70900 48.30400 36.78600
H  9.45100 48.59600 36.76600
H  9.07700 49.74300 34.88000
H  8.64400 51.11000 35.94400
H  11.35200 56.45100 37.18600
H  11.65700 54.78300 37.77400
H  12.06400 56.08100 38.79600
H  9.11700 60.33600 38.98000
H  8.19700 59.54900 40.10900
H  7.55700 59.46800 38.45200
H  3.75600 57.91600 38.70400
H  1.92400 56.33900 40.38400
H  3.01300 58.26400 41.54700
H  3.76000 59.29300 40.43600
H  4.78300 58.26900 41.38100
H  2.24800 55.49200 37.57300
H  1.71100 57.16600 37.75500
H  0.13100 54.96600 37.82600
H  -0.50700 56.47700 37.95700
H  -0.15900 55.65300 39.46700
H  0.64200 50.85000 39.42000
H  0.76700 51.64400 41.07700
H  0.98700 49.90100 40.76800
H  5.97200 47.92900 39.80300
H  6.08100 46.07300 35.82100
H  4.43500 45.94300 36.40900
H  5.60600 44.68900 36.93900

