158

Mg 16.56700 -1.40900 28.18900
C  15.46300 0.46300 30.93800
C  18.64500 -3.08500 30.27600
C  17.56400 -3.06600 25.62000
C  14.65000 0.72800 26.21600
N  17.05600 -1.24400 30.38800
C  16.38900 -0.48400 31.33300
C  16.83500 -0.82200 32.79500
C  18.17700 -1.66400 32.52900
C  18.05600 -2.00100 30.96900
C  19.54600 -0.84800 32.89900
C  15.72700 -1.67200 33.42700
C  15.39900 -1.34300 34.87900
H  16.43900 -0.63200 35.72800
N  17.81500 -3.00400 27.99500
C  18.53000 -3.63800 28.98700
C  19.18400 -4.87300 28.41100
C  18.88700 -4.78300 27.03700
C  18.02500 -3.61100 26.83800
C  20.13900 -5.73800 29.24700
C  19.50700 -5.56700 25.91800
O  19.12100 -5.45500 24.76000
C  20.48300 -6.55500 26.19000
N  16.12100 -1.17700 26.14800
C  16.75900 -1.99900 25.24600
C  16.36000 -1.59600 23.81600
C  15.39400 -0.35500 24.13000
C  15.31700 -0.29000 25.57700
C  17.63800 -1.32900 22.92500
C  13.99500 -0.47300 23.49000
C  12.85300 -1.24100 24.10700
N  15.33100 0.26200 28.46100
C  14.56700 1.04200 27.59000
C  13.83700 2.08400 28.25400
C  14.10400 1.84500 29.57200
C  15.07200 0.81700 29.60700
C  12.83100 3.00900 27.70900
C  13.61700 2.16200 30.94500
O  12.75100 2.95800 31.30000
C  14.67300 1.39000 31.93200
C  15.32300 2.56200 32.63000
O  16.03700 3.33800 32.03400
O  15.11800 2.63600 33.98700
C  15.65200 3.69400 34.86000
H  19.20100 -3.73700 30.95200
H  17.76600 -3.73900 24.78400
H  14.08700 1.44500 25.61500
H  16.99600 0.07400 33.39400
H  18.22700 -2.56600 33.13800
H  19.33300 0.16700 33.23400
H  20.10200 -0.91500 31.96400
H  20.03400 -1.49400 33.63000
H  15.93400 -2.74100 33.45100
H  14.82500 -1.50600 32.83800
H  15.18800 -2.29300 35.37000
H  14.51200 -0.71500 34.96100
H  19.94500 -5.55600 30.30400
H  21.20900 -5.53600 29.22300
H  19.93600 -6.76000 28.92500
H  20.21100 -7.55700 26.52100
H  21.24700 -6.03300 26.76600
H  20.96500 -6.76400 25.23500
H  15.67700 -2.39300 23.52200
H  15.89700 0.55100 23.79400
H  18.28500 -0.58400 23.38800
H  17.15100 -0.80900 22.10000
H  18.16500 -2.20500 22.54500
H  14.12800 -0.85300 22.47800
H  13.70000 0.56900 23.36700
H  12.50200 -1.89800 23.31100
H  12.05700 -0.52900 24.32600
H  13.14700 -1.93100 24.89800
H  13.27500 4.00500 27.72700
H  11.96000 3.15900 28.34700
H  12.51300 2.74400 26.70000
H  14.20500 0.83800 32.74700
H  16.09500 3.03700 35.60900
H  14.90200 4.16300 35.49700
H  16.24600 4.50600 34.44200
Mg -10.83500 38.03800 42.55800
C  -8.70200 35.42700 41.83300
C  -8.67400 40.16500 40.98800
C  -13.27400 40.43300 42.65700
C  -13.24100 35.55700 43.53000
N  -9.09100 37.66800 41.31000
C  -8.33900 36.53600 41.05300
C  -7.24300 36.83100 40.02800
C  -7.05900 38.34500 39.99000
C  -8.36900 38.79500 40.84400
C  -5.60400 38.90800 40.37000
C  -7.74800 36.20700 38.63600
C  -6.84700 35.10100 38.15100
H  -5.77500 35.58200 37.19000
N  -10.89200 40.08100 41.97800
C  -9.86000 40.77900 41.44100
C  -10.25400 42.19000 41.42600
C  -11.65400 42.28000 41.91500
C  -12.02000 40.92400 42.26500
C  -9.23800 43.17100 40.86400
C  -12.52300 43.58600 42.03500
O  -12.04200 44.73000 41.87700
C  -13.93500 43.55400 42.48400
N  -12.90600 38.00600 42.90700
C  -13.66200 39.13500 42.87700
C  -15.21000 38.80400 43.12000
C  -15.14500 37.23400 43.28000
C  -13.60900 36.93300 43.32000
C  -15.69100 39.53500 44.38800
C  -15.88600 36.44800 42.11100
C  -16.76700 35.27500 42.45000
N  -11.01200 35.98500 42.72100
C  -11.97900 35.16200 43.32400
C  -11.48100 33.86300 43.54000
C  -10.21200 33.85600 42.95200
C  -9.98300 35.20800 42.51300
C  -12.18100 32.76800 44.28700
C  -8.99200 33.14200 42.72600
O  -8.62300 32.00000 42.95800
C  -8.09100 34.07800 41.77900
C  -6.64200 34.12600 42.18000
O  -5.86900 33.21100 41.98300
O  -6.31800 35.20500 42.97700
C  -4.87200 35.33500 43.28300
H  -8.00700 40.96300 40.65600
H  -14.14600 41.06500 42.83600
H  -14.03800 34.89400 43.87400
H  -6.30100 36.37200 40.32800
H  -7.32900 38.58200 38.96100
H  -5.13400 39.16600 39.42000
H  -4.99000 38.15800 40.86800
H  -5.67000 39.74700 41.06200
H  -7.69900 36.95300 37.84200
H  -8.75100 35.80900 38.78700
H  -7.56500 34.44800 37.65500
H  -6.22500 34.68900 38.94600
H  -8.31900 43.01300 41.43000
H  -9.53100 44.21400 40.98400
H  -8.92900 42.96800 39.83900
H  -13.85200 43.04700 43.44500
H  -14.69600 43.13700 41.82500
H  -14.30600 44.54800 42.73700
H  -15.66800 39.18900 42.20900
H  -15.47500 36.95800 44.28100
H  -15.93900 40.51800 43.98700
H  -14.76900 39.61900 44.96300
H  -16.46300 39.00400 44.94400
H  -15.08800 36.12100 41.44500
H  -16.61000 37.09700 41.61700
H  -17.77800 35.60600 42.69000
H  -16.45600 34.81200 43.38600
H  -16.76000 34.52800 41.65600
H  -12.78300 33.22900 45.07000
H  -11.41900 32.17000 44.78800
H  -12.65500 32.11200 43.55800
H  -8.15300 33.64100 40.78200
H  -4.37200 35.75200 42.40900
H  -4.54500 34.37400 43.68000
H  -4.81100 36.04500 44.10800

