158

Mg 1.12600 7.91400 24.99500
C  1.76000 10.02600 27.95200
C  1.41400 5.28100 26.84600
C  0.87200 6.26000 22.21800
C  1.52200 10.97300 23.16900
N  1.52700 7.68000 27.22600
C  1.55600 8.63200 28.27800
C  1.58800 7.94200 29.63000
C  1.62000 6.41000 29.25900
C  1.56300 6.42400 27.65300
C  2.77700 5.56000 29.92600
C  0.36900 8.57200 30.41000
C  0.19500 8.06500 31.79700
H  1.46500 7.79700 32.60000
N  0.98900 6.02400 24.53900
C  1.06800 5.01100 25.46900
C  1.03500 3.72900 24.79200
C  0.92400 3.98200 23.44900
C  0.92600 5.45400 23.37400
C  1.06400 2.49200 25.64300
C  0.91600 2.96400 22.27400
O  0.97400 3.30800 21.09000
C  0.81200 1.46700 22.56400
N  1.21300 8.49100 23.01900
C  1.12200 7.63400 21.99200
C  1.10900 8.29200 20.58000
C  0.72500 9.76800 20.98300
C  1.18400 9.80300 22.42800
C  2.35600 8.03600 19.64500
C  -0.76000 10.08000 20.78700
C  -1.06400 11.19000 19.84500
N  1.50800 10.09700 25.39000
C  1.63600 11.14800 24.57600
C  1.97300 12.35800 25.34300
C  1.97500 11.88900 26.60100
C  1.75900 10.53100 26.60900
C  2.19700 13.71700 24.73800
C  2.25100 12.38900 27.95200
O  2.57300 13.49500 28.41900
C  2.13400 11.13100 28.81800
C  3.31300 10.84200 29.58500
O  4.41800 10.53400 29.09400
O  3.13100 11.36700 30.84400
C  4.27700 11.10800 31.74100
H  1.53000 4.44400 27.53800
H  0.85400 5.71200 21.27400
H  1.64900 11.90700 22.61800
H  2.55300 8.20700 30.06300
H  0.64100 6.13100 29.64800
H  3.31300 4.92100 29.22500
H  2.39200 4.87900 30.68500
H  3.48600 6.12800 30.52700
H  -0.57000 8.53700 29.85800
H  0.42300 9.66100 30.39300
H  -0.34700 7.12200 31.73200
H  -0.38900 8.85000 32.27800
H  2.05500 2.04300 25.57500
H  0.19900 1.92500 25.30000
H  0.99900 2.64200 26.72000
H  -0.00900 1.30800 23.26300
H  1.74100 1.21000 23.07400
H  0.65700 0.89700 21.64900
H  0.22200 7.80400 20.17600
H  1.29600 10.48300 20.39000
H  2.95200 8.93300 19.47400
H  1.94900 7.76400 18.67100
H  2.89500 7.18800 20.06700
H  -1.12100 10.19300 21.81000
H  -1.31700 9.20700 20.44800
H  -1.75900 11.90000 20.29200
H  -1.55700 10.76800 18.96900
H  -0.20800 11.81500 19.58900
H  1.38300 13.99000 24.06700
H  3.16300 13.63800 24.23800
H  2.57400 14.46500 25.43500
H  1.30900 11.34300 29.49900
H  3.94900 11.40600 32.73700
H  5.11000 11.74800 31.44800
H  4.47600 10.03700 31.77700
Mg -1.45600 34.36900 26.81900
C  -3.15900 32.56700 29.18700
C  0.21800 36.10300 29.39100
C  -0.65800 36.90800 24.63000
C  -3.49500 33.01200 24.41200
N  -1.44100 34.28900 29.01700
C  -2.23400 33.46300 29.76200
C  -1.93200 33.57500 31.20600
C  -0.99400 34.78600 31.25200
C  -0.64000 35.07400 29.78900
C  -1.52100 36.10100 32.08100
C  -1.42700 32.24600 31.84900
C  -2.05800 31.91500 33.21700
H  -1.02500 31.93300 34.41900
N  -0.10800 36.04800 26.90500
C  0.41300 36.59400 28.05100
C  1.24300 37.75100 27.67600
C  1.02200 37.99600 26.28400
C  0.06800 37.00500 25.87100
C  1.88500 38.62000 28.68400
C  1.65000 38.99100 25.39600
O  1.29400 39.16300 24.23400
C  2.84500 39.80800 25.90000
N  -2.10700 34.97500 24.88100
C  -1.61700 36.03600 24.20200
C  -2.20400 36.16100 22.85100
C  -2.91500 34.79800 22.70000
C  -2.79100 34.18100 24.06800
C  -3.17300 37.31700 22.59100
C  -2.28600 33.84300 21.57700
C  -3.22800 33.04000 20.60700
N  -2.97900 32.89200 26.80100
C  -3.59100 32.35700 25.68700
C  -4.46400 31.31200 26.10000
C  -4.37300 31.33400 27.49100
C  -3.42000 32.33000 27.87500
C  -5.22800 30.34400 25.19800
C  -4.87600 30.78700 28.75200
O  -5.67800 29.89500 28.97800
C  -4.06100 31.55400 29.86500
C  -5.12700 32.15100 30.72000
O  -5.92200 33.04300 30.42300
O  -5.12800 31.49600 31.97900
C  -6.22500 31.88000 32.92300
H  0.75500 36.57000 30.22000
H  -0.30400 37.58900 23.85300
H  -4.09200 32.53700 23.63100
H  -2.81300 33.95600 31.72200
H  -0.10400 34.50200 31.81300
H  -1.26300 37.00200 31.52300
H  -0.82800 36.14100 32.92100
H  -2.52500 35.99100 32.49000
H  -0.35700 32.41400 31.97600
H  -1.46400 31.46300 31.09200
H  -2.45300 30.90000 33.24100
H  -2.88100 32.61700 33.34900
H  1.15500 38.53300 29.48900
H  1.92500 39.66000 28.35800
H  2.85700 38.26200 29.02000
H  3.40000 40.33700 25.12500
H  3.58200 39.16900 26.38600
H  2.43800 40.58000 26.55200
H  -1.40900 36.28800 22.11600
H  -3.97600 34.92300 22.48300
H  -3.17700 37.84600 23.54400
H  -4.16800 37.02500 22.25500
H  -2.85800 37.84400 21.69000
H  -1.67600 33.18000 22.19200
H  -1.58000 34.48800 21.05300
H  -2.98100 33.28400 19.57400
H  -4.27100 33.33200 20.73600
H  -3.21900 31.95300 20.69200
H  -4.62600 30.02200 24.34800
H  -6.10300 30.94900 24.96100
H  -5.54400 29.49700 25.80800
H  -3.53800 30.85100 30.51400
H  -7.01100 32.51500 32.51300
H  -5.77300 32.42100 33.75400
H  -6.73300 31.00500 33.32700

