158

Mg 25.19100 1.18700 29.87600
C  27.31000 1.05100 32.64400
C  22.41100 1.04300 31.89600
C  23.08200 0.99200 27.17300
C  27.82800 0.45600 27.83400
N  24.96400 1.21800 32.05900
C  25.93700 1.15600 33.00200
C  25.26000 1.25600 34.36200
C  23.71000 1.00200 34.09000
C  23.68100 1.07400 32.57200
C  23.15600 -0.25900 34.68200
C  25.67400 2.51000 35.15800
C  26.11400 2.22700 36.60500
H  25.49500 3.17000 37.68600
N  23.03700 1.18900 29.55100
C  22.09400 1.12100 30.53600
C  20.75200 1.09300 29.97000
C  20.93300 1.09100 28.56200
C  22.40400 1.05500 28.35900
C  19.46800 1.09400 30.83300
C  19.86600 1.03000 27.54900
O  20.07800 0.87100 26.35300
C  18.38900 0.74600 27.94400
N  25.38400 0.68700 27.86500
C  24.41100 0.85900 26.92600
C  24.95600 1.01000 25.49300
C  26.54300 0.94800 25.79300
C  26.60200 0.71000 27.24800
C  24.40200 -0.04500 24.58600
C  27.27400 2.24400 25.39400
C  26.93400 3.50100 26.15200
N  27.10400 0.72100 30.14500
C  28.03000 0.42400 29.20800
C  29.30800 0.24100 29.81100
C  29.09600 0.50900 31.23800
C  27.74700 0.84100 31.36400
C  30.60500 -0.24800 28.98600
C  29.71600 0.61400 32.53100
O  30.90900 0.38900 32.80800
C  28.62800 1.05500 33.49500
C  28.65000 0.03300 34.49100
O  28.30400 -1.12700 34.37600
O  29.09900 0.51700 35.72000
C  29.04300 -0.41800 36.86100
H  21.65700 0.89200 32.67200
H  22.43600 1.05700 26.29500
H  28.72500 0.55900 27.22000
H  25.74800 0.38300 34.79400
H  23.04500 1.80000 34.42400
H  22.99800 -1.00000 33.89800
H  22.29700 0.01100 35.29700
H  23.81000 -0.81100 35.35700
H  24.90700 3.28300 35.10400
H  26.47700 3.03100 34.63500
H  27.20000 2.31000 36.62900
H  26.03900 1.15100 36.75700
H  19.77900 0.81000 31.83800
H  18.67900 0.41800 30.50200
H  18.99200 2.07200 30.75600
H  18.53000 -0.08700 28.63200
H  17.87400 0.38900 27.05200
H  17.93700 1.64200 28.37100
H  24.68000 2.03200 25.23400
H  26.91500 0.03400 25.32900
H  23.31900 -0.12200 24.67600
H  24.74600 -1.04400 24.85400
H  24.64800 0.09800 23.53300
H  26.91800 2.43700 24.38200
H  28.36000 2.18200 25.32800
H  25.93300 3.43600 26.57900
H  26.88500 4.36500 25.49000
H  27.65400 3.53100 26.97000
H  31.25900 0.61300 28.84300
H  30.34300 -0.65200 28.00800
H  31.15600 -0.99200 29.56200
H  28.82100 1.98300 34.03400
H  29.91500 -0.17800 37.47000
H  28.94300 -1.48500 36.66300
H  28.17200 -0.19200 37.47600
Mg 17.47600 51.92100 25.94700
C  19.30800 50.71900 28.50800
C  15.05700 52.84000 28.13600
C  15.62300 52.92800 23.28900
C  20.00100 50.86100 23.74600
N  17.17700 51.63600 28.03100
C  18.08700 51.20600 28.92600
C  17.67300 51.41000 30.35900
C  16.20900 51.83500 30.17400
C  16.11300 52.17100 28.70700
C  15.28200 50.67400 30.41200
C  18.54300 52.48500 31.05000
C  18.95400 52.24000 32.57500
H  18.00100 51.48000 33.46800
N  15.55000 52.64600 25.71900
C  14.75300 53.10700 26.74200
C  13.63400 53.88100 26.21700
C  13.62300 53.62300 24.75800
C  14.96400 53.04000 24.52900
C  12.65000 54.57400 27.21300
C  12.68200 54.08300 23.69300
O  12.83700 53.80300 22.50400
C  11.47200 55.01500 24.08200
N  17.76300 51.78400 23.74800
C  16.90400 52.47500 22.92700
C  17.43300 52.39800 21.47900
C  18.83000 51.84300 21.60900
C  18.90700 51.43300 23.10400
C  16.61900 51.54800 20.40100
C  19.94100 52.90400 21.42800
C  21.37600 52.33400 21.06400
N  19.30400 50.92100 26.06400
C  20.19000 50.45300 25.10400
C  21.35300 49.80900 25.72500
C  21.03200 49.85900 27.10600
C  19.81300 50.55200 27.21700
C  22.45200 49.23600 24.93900
C  21.40800 49.45700 28.46200
O  22.38200 48.92300 28.82100
C  20.34200 50.06900 29.43800
C  19.83400 48.87800 30.32700
O  19.03200 48.09600 29.87600
O  20.35400 48.92600 31.48900
C  19.68700 48.00400 32.47200
H  14.47800 53.29100 28.94500
H  15.11300 53.41000 22.45200
H  20.77100 50.71600 22.98600
H  17.69100 50.47900 30.92500
H  15.89000 52.60500 30.87600
H  14.74900 50.83200 31.35000
H  15.78300 49.70700 30.45300
H  14.61900 50.57400 29.55300
H  18.09000 53.45600 30.85000
H  19.45100 52.61200 30.46000
H  18.89700 53.22500 33.03700
H  19.93700 51.80000 32.74600
H  12.10800 53.76000 27.69300
H  11.87700 55.26900 26.88500
H  13.26400 54.98900 28.01100
H  10.59900 54.48900 24.46900
H  11.08700 55.69700 23.32400
H  11.85500 55.66800 24.86700
H  17.35300 53.44200 21.17600
H  18.99600 50.89200 21.10300
H  17.16700 50.78500 19.84800
H  16.43500 52.22600 19.56800
H  15.75300 51.11600 20.90200
H  19.97300 53.45600 22.36800
H  19.58700 53.71400 20.79100
H  21.60700 52.87800 20.14900
H  21.54300 51.26300 20.94900
H  22.13000 52.59600 21.80700
H  22.81700 49.93800 24.19000
H  22.10300 48.39500 24.34000
H  23.12700 48.87700 25.71600
H  20.87900 50.80400 30.03900
H  20.47100 47.24800 32.51200
H  18.80800 47.38600 32.29200
H  19.61200 48.48300 33.44800

