158

Mg 16.54500 -1.39500 27.97000
C  15.18200 0.91400 30.48300
C  18.51200 -2.65800 30.54900
C  18.18300 -2.98600 25.66800
C  15.02400 0.72400 25.66900
N  16.83300 -0.87200 30.29100
C  16.15900 0.07200 31.03600
C  16.44600 -0.18500 32.49900
C  17.60200 -1.19100 32.46000
C  17.67400 -1.68100 30.99800
C  18.96200 -0.64900 32.97100
C  15.19200 -0.79200 33.22000
C  15.03500 -0.36300 34.71100
H  16.15600 0.43000 35.54200
N  18.05700 -2.79800 28.09300
C  18.68400 -3.19900 29.17500
C  19.63000 -4.17500 28.80100
C  19.52700 -4.43900 27.42000
C  18.62500 -3.39000 26.96800
C  20.51100 -4.84900 29.83100
C  20.27100 -5.40400 26.50100
O  20.24100 -5.47600 25.24100
C  21.05400 -6.47500 27.08400
N  16.55400 -1.21500 25.89400
C  17.35600 -2.01000 25.19400
C  17.20800 -1.67200 23.64700
C  16.21700 -0.43700 23.74000
C  15.89600 -0.29100 25.21500
C  18.52900 -1.26500 22.97200
C  15.06100 -0.81200 22.84900
C  14.75200 -0.13900 21.53500
N  15.18700 0.26000 27.99200
C  14.67100 0.91300 26.99400
C  13.72500 1.94500 27.47600
C  13.92900 1.94800 28.84700
C  14.84000 0.95700 29.09100
C  12.75900 2.81800 26.66400
C  13.42200 2.54800 30.10100
O  12.50500 3.32200 30.26100
C  14.20700 1.79800 31.30300
C  14.93400 2.82700 32.07700
O  15.95500 3.45800 31.75600
O  14.34500 2.92200 33.25900
C  14.91000 3.82000 34.25300
H  19.17500 -3.16500 31.25300
H  18.71000 -3.57600 24.91600
H  14.58200 1.39600 24.93100
H  16.71300 0.72600 33.03500
H  17.31600 -1.95800 33.18000
H  19.33100 -1.41500 33.65400
H  18.87100 0.21800 33.62600
H  19.61600 -0.34700 32.15300
H  15.16300 -1.87300 33.08400
H  14.33100 -0.55100 32.59800
H  15.02700 -1.29600 35.27400
H  14.08500 0.14100 34.89000
H  21.39800 -5.30100 29.38600
H  20.05800 -5.64000 30.42900
H  20.92000 -3.98700 30.35800
H  20.58900 -6.78100 28.02100
H  22.04300 -6.01700 27.10000
H  20.98700 -7.40900 26.52600
H  16.74200 -2.49300 23.10300
H  16.70400 0.45000 23.33400
H  19.28900 -0.84000 23.62700
H  18.39200 -0.49700 22.21000
H  18.92500 -2.17400 22.51900
H  14.11200 -0.73800 23.37900
H  14.87700 -1.86900 22.65600
H  14.78700 -0.86300 20.72100
H  15.52600 0.59500 21.31100
H  13.79900 0.38800 21.48700
H  11.81000 2.28800 26.75100
H  13.06100 2.95200 25.62500
H  12.63500 3.83800 27.02700
H  13.52100 1.32100 32.00200
H  14.56600 4.84900 34.15200
H  15.99800 3.78100 34.31600
H  14.48100 3.47600 35.19400
Mg 6.54800 53.68600 41.68900
C  5.68200 50.37400 41.12300
C  9.56100 53.21500 40.19400
C  7.00500 56.96100 41.86000
C  3.13900 54.21000 42.69900
N  7.41200 52.00900 40.59400
C  6.96200 50.75000 40.62500
C  7.86600 49.84100 39.72700
C  9.18400 50.63700 39.98400
C  8.70500 52.11100 40.30500
C  10.16300 50.20500 41.03500
C  7.47800 49.59400 38.24300
C  6.48700 50.53200 37.66400
H  6.23600 50.52100 36.14100
N  8.09100 54.94600 41.19500
C  9.26900 54.55900 40.58400
C  10.16500 55.66700 40.60800
C  9.45000 56.77600 41.13600
C  8.08000 56.27600 41.45000
C  11.61300 55.50700 40.23300
C  10.00500 58.16700 41.34900
O  11.00600 58.62200 40.77800
C  9.24800 59.05600 42.36200
N  5.23700 55.41800 41.97900
C  5.75100 56.71600 42.15200
C  4.65700 57.67700 42.84000
C  3.44300 56.66600 43.07000
C  3.98100 55.34100 42.52300
C  5.10500 58.37700 44.16400
C  2.00200 56.97900 42.51600
C  1.65700 58.47600 42.31700
N  4.74700 52.53800 41.84800
C  3.51500 52.86500 42.39900
C  2.66100 51.61500 42.51200
C  3.54900 50.62600 42.00300
C  4.73600 51.21600 41.62500
C  1.32500 51.53800 43.16300
C  3.61100 49.16700 41.69200
O  2.80700 48.28700 41.85400
C  5.10800 48.97600 41.28600
C  4.97000 48.12000 40.04300
O  4.33500 48.34900 39.08500
O  5.48900 46.89400 40.30000
C  5.24400 45.79000 39.34900
H  10.57800 52.96400 39.88300
H  7.10500 58.04700 41.91500
H  2.19200 54.36300 43.22100
H  8.00700 48.89300 40.24500
H  9.77400 50.69100 39.06900
H  9.62400 49.48700 41.65300
H  10.43200 51.10500 41.58800
H  10.98300 49.67500 40.55000
H  7.09600 48.57500 38.29400
H  8.31500 49.72300 37.55600
H  6.85700 51.50700 37.98000
H  5.53500 50.51200 38.19400
H  11.71500 55.40600 39.15300
H  12.13900 54.74400 40.80600
H  12.13600 56.43400 40.46800
H  9.87600 59.88700 42.68500
H  8.88000 58.42400 43.17000
H  8.39200 59.51400 41.86700
H  4.47900 58.56000 42.22600
H  3.39800 56.46400 44.14000
H  5.03300 59.45800 44.04800
H  6.15700 58.11900 44.28400
H  4.57100 58.12200 45.08000
H  1.25800 56.51900 43.16700
H  1.80900 56.41300 41.60400
H  0.62300 58.68700 42.58700
H  1.91600 58.83500 41.32000
H  2.37800 59.07500 42.87400
H  0.62100 52.18900 42.64600
H  1.25500 51.68400 44.24100
H  0.90800 50.54200 43.01500
H  5.65900 48.43000 42.05200
H  5.55700 44.79200 39.65700
H  5.89300 46.08300 38.52400
H  4.24700 45.73800 38.91300

