158

Mg 53.66400 23.83400 44.41900
C  50.87600 25.86000 43.86400
C  51.54000 21.11300 44.52200
C  56.28500 21.78300 44.00400
C  55.72000 26.59000 43.71600
N  51.52100 23.55900 44.07900
C  50.53800 24.45900 43.94400
C  49.16500 23.85600 43.92200
C  49.36900 22.43600 44.29900
C  50.90600 22.37100 44.35200
C  48.71000 22.01400 45.68700
C  48.47800 23.98500 42.57500
C  49.32200 23.71200 41.35100
H  49.13400 24.61200 40.12900
N  53.85000 21.71500 44.24800
C  52.87800 20.80100 44.43100
C  53.43400 19.46400 44.44600
C  54.81400 19.67900 44.35800
C  55.04700 21.12500 44.18800
C  52.71300 18.19000 44.81700
C  55.86000 18.52400 44.54700
O  55.44800 17.37100 44.65100
C  57.34300 18.77900 44.59100
N  55.71100 24.22900 43.72100
C  56.61200 23.17100 43.82600
C  57.98900 23.71400 43.55400
C  57.83800 25.25300 43.43700
C  56.32800 25.35500 43.58800
C  59.12500 23.29200 44.55800
C  58.45500 25.96100 42.14100
C  59.40700 27.18600 42.24000
N  53.40900 25.88400 44.05200
C  54.31900 26.85800 43.79300
C  53.62700 28.15500 43.89100
C  52.30100 27.79000 43.95700
C  52.20500 26.39000 43.95000
C  54.28700 29.54100 43.84800
C  50.98700 28.31100 43.92900
O  50.57200 29.49500 44.00600
C  49.99500 27.13600 43.87100
C  49.25000 27.41800 42.67400
O  49.79500 27.51900 41.58600
O  47.90500 27.64500 42.91900
C  47.13200 28.24700 41.83400
H  50.85200 20.30200 44.77000
H  57.24000 21.26800 43.87300
H  56.37000 27.44700 43.52500
H  48.53200 24.39000 44.63000
H  49.02800 21.72700 43.54400
H  48.52700 22.88300 46.31800
H  49.39600 21.43500 46.30500
H  47.70700 21.61500 45.53800
H  48.14100 25.02100 42.53500
H  47.57900 23.36900 42.54600
H  49.07800 22.69100 41.06000
H  50.38700 23.65700 41.57600
H  53.05400 17.51100 44.03600
H  51.65200 18.42200 44.73200
H  52.95200 17.83100 45.81800
H  57.78600 17.91300 45.08200
H  57.56700 19.66700 45.18300
H  57.76700 18.81500 43.58700
H  58.15200 23.26600 42.57400
H  58.38400 25.63500 44.30000
H  59.42900 24.04300 45.28700
H  60.03600 22.89200 44.11200
H  58.67800 22.45800 45.09800
H  57.65500 26.39900 41.54500
H  58.96400 25.37100 41.37800
H  60.38600 26.82600 41.92400
H  59.59500 27.44100 43.28300
H  59.09400 28.05000 41.65300
H  53.94200 30.12800 42.99700
H  55.37200 29.57400 43.74300
H  53.96300 30.01000 44.77700
H  49.31700 27.10300 44.72400
H  46.98800 27.49800 41.05600
H  47.76600 28.97700 41.33000
H  46.15100 28.63900 42.10000
Mg 7.01100 57.20500 41.73300
C  5.93600 53.75900 41.84600
C  9.89400 56.12200 40.21100
C  7.72100 60.49700 41.16600
C  3.75400 58.03200 42.65500
N  7.77700 55.12200 41.12500
C  7.24600 53.86900 41.21400
C  8.15400 52.78300 40.62500
C  9.55600 53.56900 40.56700
C  9.03600 55.03900 40.62100
C  10.54500 53.30300 41.70000
C  7.54800 52.34200 39.28000
C  7.48900 50.91800 38.88900
H  6.48400 50.44800 37.83700
N  8.69700 58.20400 40.88600
C  9.77300 57.54100 40.33500
C  10.61900 58.55200 39.83000
C  10.02700 59.84300 40.08400
C  8.71700 59.55300 40.72700
C  12.08900 58.21900 39.35400
C  10.71900 61.20800 39.92600
O  11.69500 61.34500 39.19200
C  10.05200 62.43000 40.31500
N  5.91700 58.97600 41.75800
C  6.44700 60.21300 41.70200
C  5.52400 61.34900 42.08000
C  4.23000 60.50100 42.38600
C  4.65600 59.05400 42.23700
C  6.12400 62.31000 43.13600
C  3.04500 60.87300 41.49700
C  2.18800 62.06700 42.10300
N  5.19600 56.13600 42.26900
C  3.99500 56.66500 42.62800
C  3.14200 55.60400 43.09900
C  3.91600 54.44700 42.81000
C  5.14800 54.78000 42.24100
C  1.67400 55.72000 43.73700
C  3.98700 52.99700 43.04800
O  3.24700 52.26500 43.65300
C  5.33300 52.45800 42.25500
C  4.83900 51.51500 41.14900
O  4.21200 51.76000 40.16500
O  5.05200 50.19300 41.57500
C  4.29300 49.11700 40.98000
H  10.86600 55.83000 39.80800
H  7.88600 61.56400 41.00100
H  2.86500 58.28600 43.23500
H  8.26300 51.92800 41.29400
H  10.15600 53.53100 39.65800
H  11.54500 53.04200 41.35600
H  10.08000 52.40300 42.10100
H  10.45800 54.09500 42.44300
H  8.16000 52.78600 38.49500
H  6.61600 52.89700 39.16900
H  7.15700 50.34000 39.75200
H  8.49100 50.66500 38.54300
H  12.01400 58.50400 38.30500
H  12.41000 57.21100 39.61600
H  12.75500 58.80500 39.98800
H  9.19300 62.62000 39.67200
H  10.77900 63.23800 40.24400
H  9.68200 62.25900 41.32600
H  5.41100 61.97400 41.19300
H  4.01000 60.67900 43.43900
H  7.20500 62.17600 43.16900
H  5.81600 62.07900 44.15600
H  5.90500 63.37200 43.02800
H  2.40000 60.00000 41.59100
H  3.32700 61.17700 40.48900
H  1.31300 61.52900 42.46800
H  1.92000 62.95300 41.52700
H  2.65300 62.41800 43.02400
H  1.68700 55.50200 44.80500
H  1.00200 55.02400 43.23500
H  1.36700 56.74600 43.53400
H  5.91300 51.91900 43.00500
H  3.99400 48.51400 41.83800
H  5.04100 48.55800 40.41800
H  3.42900 49.41900 40.38900

