158

Mg 43.10900 41.74300 27.94700
C  42.31000 44.11100 30.42300
C  43.95000 39.56700 30.54700
C  44.35600 39.73800 25.67100
C  42.51700 44.21700 25.49200
N  42.92700 41.76700 30.15800
C  42.66500 42.84600 30.96300
C  42.57300 42.44500 32.41200
C  43.49000 41.25400 32.43200
C  43.41100 40.79000 30.96100
C  44.98700 41.44000 33.04300
C  41.15500 42.31800 33.08200
C  40.80100 43.35300 34.17300
H  40.39400 42.83500 35.58600
N  43.89000 39.82000 28.04400
C  44.12800 39.05500 29.23400
C  44.64700 37.77100 28.90700
C  44.84600 37.82100 27.49800
C  44.31100 39.11600 26.97300
C  44.93000 36.62300 29.94800
C  45.40300 36.73700 26.56200
O  45.42800 36.88900 25.32800
C  45.80700 35.36100 27.04500
N  43.53800 42.08700 25.85900
C  44.07400 41.00100 25.17500
C  44.19300 41.39600 23.67000
C  43.35000 42.66600 23.63800
C  43.12200 43.03300 25.06300
C  45.67300 41.43700 23.12300
C  41.98700 42.44800 22.85300
C  41.04300 41.35800 23.51100
N  42.53500 43.75500 27.88700
C  42.27500 44.61000 26.81000
C  41.73400 45.85000 27.27500
C  41.73000 45.71200 28.69500
C  42.23200 44.43700 28.97600
C  41.21200 46.92500 26.36000
C  41.37900 46.34000 29.95000
O  40.92000 47.41700 30.23100
C  41.61800 45.30900 31.10200
C  42.49100 46.05100 32.05800
O  43.62200 46.49700 31.82200
O  41.80200 46.38000 33.20900
C  42.49900 47.11200 34.18600
H  44.34900 38.86500 31.28300
H  44.82200 39.11900 24.90100
H  42.10600 44.86500 24.71500
H  43.11200 43.24500 32.92000
H  42.99600 40.40400 32.90100
H  45.67500 41.27300 32.21500
H  45.16100 40.73200 33.85300
H  45.17300 42.41700 33.48900
H  41.01500 41.24800 33.23500
H  40.51100 42.67500 32.27800
H  39.98400 44.00400 33.86100
H  41.64200 44.03300 34.30900
H  46.00100 36.49100 30.10100
H  44.62800 35.62300 29.63700
H  44.36300 36.80200 30.86200
H  46.41000 35.43600 27.95000
H  46.50400 35.01400 26.28300
H  44.91200 34.73900 27.04400
H  43.66500 40.64100 23.08800
H  43.87400 43.51900 23.20700
H  46.09900 42.43400 23.23600
H  45.69000 41.10000 22.08600
H  46.26500 40.76100 23.74000
H  42.21200 42.26500 21.80200
H  41.50600 43.42500 22.81800
H  40.70700 40.58400 22.82000
H  40.10900 41.72600 23.93400
H  41.65400 40.80500 24.22400
H  42.02900 47.34300 25.77100
H  40.72500 47.64600 27.01700
H  40.50300 46.56300 25.61500
H  40.67800 45.02500 31.57500
H  42.47200 46.51800 35.10000
H  42.04600 48.10100 34.25100
H  43.54600 47.33700 33.98300
Mg 29.43600 58.03400 41.09400
C  26.51300 56.50200 39.71400
C  31.29100 55.36800 39.84600
C  32.18100 59.90900 41.46100
C  27.37000 60.79400 41.88600
N  28.97300 56.27100 39.95500
C  27.74100 55.91000 39.42200
C  27.98600 54.67400 38.61800
C  29.19400 54.03900 39.19300
C  29.87500 55.25800 39.72800
C  28.85100 53.05700 40.38600
C  28.00700 55.03600 37.09400
C  27.03000 54.34200 36.12600
H  26.40300 55.17600 35.06600
N  31.50100 57.70200 40.79100
C  32.04400 56.54500 40.24400
C  33.45900 56.64900 40.22200
C  33.81500 57.94800 40.70400
C  32.50900 58.58800 41.02600
C  34.33700 55.54500 39.62400
C  35.10000 58.51600 40.75600
O  35.99800 57.89800 40.27400
C  35.39700 59.89200 41.17400
N  29.66900 60.12400 41.37600
C  30.95100 60.59900 41.61200
C  30.94700 62.04400 42.14900
C  29.43300 62.34700 42.24100
C  28.74100 61.02800 41.85400
C  31.75800 62.18000 43.46800
C  28.92600 63.45800 41.33100
C  28.00100 64.50500 41.96300
N  27.37200 58.52700 41.02900
C  26.68000 59.64000 41.48600
C  25.24700 59.47100 41.24600
C  25.19900 58.22100 40.55300
C  26.43400 57.66600 40.48200
C  24.27600 60.55900 41.53500
C  24.27500 57.24800 39.91600
O  23.09000 57.28400 39.97200
C  25.14600 56.06300 39.29900
C  24.69600 54.74200 39.73700
O  24.70600 54.29500 40.86900
O  24.32800 53.99000 38.56800
C  23.87200 52.59800 38.83300
H  31.72800 54.48600 39.37400
H  33.07300 60.48100 41.72600
H  26.82400 61.66500 42.25300
H  27.09800 54.05700 38.75300
H  29.85700 53.63800 38.42700
H  29.55500 53.25600 41.19400
H  28.83300 52.02700 40.03000
H  27.94900 53.24400 40.96900
H  28.97900 54.67500 36.75700
H  28.06600 56.11100 36.92700
H  26.23100 53.92300 36.73700
H  27.56500 53.52300 35.64600
H  33.76800 54.61900 39.53600
H  35.12700 55.41600 40.36400
H  34.74100 55.96800 38.70400
H  34.90800 60.67000 40.58800
H  36.47600 60.03000 41.23700
H  35.02600 60.06800 42.18400
H  31.42700 62.72500 41.44600
H  29.18800 62.56700 43.28000
H  32.44900 63.01800 43.38200
H  32.43900 61.34300 43.62900
H  31.08200 62.30400 44.31400
H  28.36800 63.06300 40.48200
H  29.73700 64.05600 40.91600
H  28.50200 65.43200 41.68500
H  27.86800 64.42500 43.04100
H  27.03900 64.54400 41.45100
H  23.99200 61.03100 40.59500
H  24.63700 61.36700 42.17300
H  23.38600 60.20300 42.05400
H  25.13900 56.15300 38.21300
H  24.63700 52.02500 39.35600
H  23.47100 52.08300 37.96000
H  23.03900 52.68000 39.53100

