158

Mg 2.00400 -0.52900 44.32600
C  5.36800 -0.29300 43.32200
C  1.30700 2.09000 42.23900
C  -1.26600 -1.11300 44.69300
C  2.79700 -3.46000 46.03700
N  3.22000 0.78300 43.09400
C  4.54000 0.65700 42.77200
C  5.01800 1.68100 41.72400
C  3.69900 2.61700 41.55600
C  2.65400 1.81000 42.37800
C  3.86600 4.12400 41.85400
C  5.57800 1.12000 40.36100
C  6.84200 1.88500 39.79000
H  6.70800 2.56400 38.37700
N  0.21700 0.41200 43.62200
C  0.19600 1.51900 42.78900
C  -1.18100 1.79500 42.52100
C  -1.96900 0.88400 43.25500
C  -1.01300 -0.01800 43.91500
C  -1.65200 2.89200 41.69300
C  -3.50700 0.80500 43.20700
O  -4.18100 1.59800 42.60600
C  -4.19600 -0.43800 43.72300
N  0.99100 -2.13700 45.11400
C  -0.35200 -2.06200 45.24100
C  -0.98500 -3.18700 46.18800
C  0.33200 -4.08200 46.43100
C  1.44900 -3.15700 45.88200
C  -1.68000 -2.76000 47.50500
C  0.25400 -5.56500 45.89200
C  0.52600 -6.71700 46.91100
N  3.77300 -1.65300 44.82400
C  3.94700 -2.75300 45.55300
C  5.41200 -3.07500 45.53100
C  6.00600 -2.21500 44.65500
C  4.96100 -1.30200 44.26500
C  6.06200 -4.14600 46.27000
C  7.27500 -1.78900 44.13700
O  8.36400 -2.29300 44.17400
C  6.83400 -0.48800 43.16000
C  7.58800 0.64500 43.74200
O  7.34100 1.23200 44.75200
O  8.70800 0.95600 43.01900
C  9.19400 2.34800 43.14600
H  1.21000 2.90800 41.52200
H  -2.25500 -1.35500 45.08800
H  2.91500 -4.28800 46.74000
H  5.72900 2.29000 42.28100
H  3.26800 2.63000 40.55500
H  4.82600 4.60000 41.65500
H  3.51200 4.32400 42.86600
H  3.17000 4.59300 41.15900
H  4.77100 1.14500 39.62800
H  5.76900 0.04700 40.40000
H  7.75500 1.29100 39.83200
H  7.02400 2.70300 40.48700
H  -0.94800 3.13100 40.89700
H  -1.72100 3.84000 42.22800
H  -2.55900 2.69500 41.12200
H  -5.17200 -0.57600 43.25700
H  -4.32800 -0.26100 44.79000
H  -3.69900 -1.40000 43.60300
H  -1.67800 -3.76300 45.57500
H  0.55400 -4.10600 47.49800
H  -1.99700 -1.74100 47.28300
H  -1.04900 -2.72900 48.39400
H  -2.45600 -3.48900 47.74000
H  0.91000 -5.61500 45.02300
H  -0.75400 -5.77200 45.53100
H  1.28500 -7.37900 46.49400
H  -0.31600 -7.32700 47.23600
H  0.82100 -6.17600 47.81100
H  6.25500 -5.03100 45.66400
H  5.71700 -4.48700 47.24600
H  7.00400 -3.68300 46.56500
H  7.19700 -0.71000 42.15600
H  8.43500 3.00900 43.56400
H  9.57700 2.65800 42.17400
H  10.00200 2.28200 43.87400
Mg -0.04300 44.00600 25.79800
C  2.09900 43.79800 28.64400
C  -2.53900 42.90900 27.85500
C  -2.04800 43.71100 23.07800
C  2.65500 44.88500 23.84600
N  -0.22000 43.57900 28.08500
C  0.74600 43.52500 29.01400
C  0.19300 43.29400 30.35700
C  -1.27600 42.79900 30.07400
C  -1.38900 43.20900 28.59200
C  -1.61500 41.37200 30.51200
C  0.30500 44.61300 31.21900
C  0.78200 44.38200 32.70200
H  0.42500 43.07400 33.33500
N  -1.94000 43.29400 25.50200
C  -2.85100 42.87400 26.51100
C  -4.11500 42.44400 25.94900
C  -4.00200 42.65100 24.54800
C  -2.55500 43.13300 24.28700
C  -5.33000 42.17300 26.78500
C  -5.09000 42.44400 23.45500
O  -4.98000 42.77200 22.32800
C  -6.34800 41.86800 23.81200
N  0.35100 44.14800 23.79000
C  -0.76200 44.22000 22.87500
C  -0.39900 45.13800 21.65000
C  1.14000 45.50900 21.95800
C  1.43300 44.85900 23.26400
C  -0.62400 44.57800 20.23000
C  1.36000 47.02400 22.02700
C  1.59400 47.69300 20.65000
N  2.00900 44.26300 26.09300
C  3.02000 44.51000 25.18300
C  4.29200 44.52300 25.75800
C  3.99200 44.30200 27.16800
C  2.59600 44.09900 27.31400
C  5.54800 44.98200 25.00900
C  4.56600 44.13300 28.48000
O  5.76200 44.13300 28.78600
C  3.38500 43.79000 29.44600
C  3.67200 42.49800 30.07800
O  3.32000 41.42100 29.63000
O  4.33200 42.69400 31.23000
C  4.63200 41.49300 32.01200
H  -3.40000 42.65600 28.47700
H  -2.69700 43.79600 22.20400
H  3.47600 45.36700 23.31200
H  0.72900 42.50800 30.88800
H  -2.05300 43.36000 30.59400
H  -1.76500 40.69700 29.67000
H  -2.40800 41.31600 31.25900
H  -0.73100 40.98600 31.01900
H  -0.62100 45.18700 31.25100
H  1.08500 45.26100 30.81800
H  0.40800 45.22000 33.29000
H  1.85300 44.58100 32.67400
H  -6.10700 42.91100 26.58800
H  -5.21200 41.90100 27.83400
H  -5.67100 41.22400 26.37000
H  -6.94500 42.55600 24.41000
H  -6.14200 40.89700 24.26200
H  -7.04400 41.79900 22.97700
H  -1.01100 46.03800 21.70000
H  1.83800 45.03800 21.26600
H  -1.63500 44.77000 19.86800
H  -0.50500 43.50200 20.35300
H  0.12200 44.95400 19.53000
H  2.25400 47.29300 22.59000
H  0.50000 47.45400 22.54000
H  0.95200 48.57000 20.57200
H  1.36700 46.94300 19.89200
H  2.65000 47.96200 20.65800
H  5.49400 45.98700 24.59000
H  5.88100 44.15600 24.38100
H  6.29400 45.13600 25.78800
H  3.38600 44.51700 30.25800
H  3.67000 40.98200 32.06400
H  4.88800 41.68900 33.05300
H  5.37900 40.85900 31.53500

