158

Mg 23.58400 -5.67400 46.02700
C  25.69900 -3.04500 44.85400
C  21.39600 -4.65500 43.70000
C  22.08000 -8.52000 46.56400
C  26.50500 -6.85800 47.79000
N  23.65000 -4.08600 44.35100
C  24.52100 -3.01200 44.20600
C  24.07900 -2.11900 43.14000
C  22.49400 -2.46700 43.00000
C  22.42700 -3.80800 43.75000
C  21.54500 -1.39700 43.31600
C  24.82100 -2.30300 41.80700
C  25.39000 -1.03900 41.06600
H  24.99900 -0.91300 39.52700
N  21.88600 -6.40800 45.35500
C  21.16400 -5.88800 44.38100
C  20.03300 -6.71800 44.19600
C  20.19100 -7.84300 44.96900
C  21.47600 -7.66800 45.64600
C  18.83000 -6.34900 43.24100
C  19.17100 -8.90200 45.25400
O  18.05100 -8.82900 44.81700
C  19.34700 -10.15400 46.13400
N  24.27700 -7.52600 46.85700
C  23.35500 -8.44000 47.16700
C  23.90600 -9.59400 48.02900
C  25.33600 -9.03500 48.40200
C  25.40800 -7.70400 47.57900
C  23.08300 -10.08400 49.27400
C  26.48800 -10.13300 48.23000
C  27.21100 -10.22400 46.81600
N  25.67500 -4.94800 46.50100
C  26.77600 -5.60500 47.11000
C  27.91000 -4.79300 46.94200
C  27.54400 -3.74600 46.10100
C  26.18100 -3.92400 45.80500
C  29.26000 -5.15500 47.46300
C  27.96700 -2.60300 45.32300
O  29.13400 -2.15300 45.19000
C  26.76300 -1.97300 44.55700
C  26.31000 -0.72800 45.18200
O  25.25300 -0.59800 45.82200
O  27.20300 0.29000 44.86900
C  26.97100 1.56000 45.55100
H  20.74400 -4.45700 42.84600
H  21.55700 -9.44000 46.83800
H  27.31800 -7.27300 48.39000
H  24.13500 -1.05100 43.35200
H  22.24800 -2.69500 41.96300
H  21.27200 -1.56300 44.35800
H  20.71200 -1.57400 42.63600
H  21.92300 -0.37500 43.31800
H  24.19000 -2.82500 41.08800
H  25.66900 -2.98700 41.81800
H  26.48000 -1.04300 41.05900
H  25.12700 -0.14900 41.63600
H  19.03300 -6.34700 42.17000
H  18.45200 -5.38100 43.56800
H  17.97200 -7.02000 43.26800
H  18.56400 -10.91300 46.11600
H  19.54700 -9.92400 47.18000
H  20.23800 -10.58600 45.68000
H  23.96500 -10.48500 47.40400
H  25.28500 -8.62600 49.41100
H  23.73200 -10.66100 49.93300
H  22.31300 -10.79100 48.96500
H  22.58600 -9.28000 49.81800
H  25.94700 -11.06600 48.39200
H  27.24900 -10.00500 48.99900
H  27.01300 -9.28400 46.30200
H  26.76400 -11.05500 46.27100
H  28.29600 -10.32600 46.79300
H  29.70600 -5.75800 46.67200
H  29.11700 -5.74900 48.36500
H  29.83900 -4.25500 47.67200
H  27.01900 -1.75800 43.51900
H  26.14800 1.58200 46.26500
H  26.82600 2.38500 44.85300
H  27.80500 1.89500 46.16800
Mg 49.35200 44.90700 42.67600
C  45.91200 45.08200 42.35300
C  49.08600 41.48700 42.17300
C  52.70500 44.72000 42.14000
C  49.43500 48.28500 42.93400
N  47.60000 43.42200 42.06000
C  46.30200 43.77300 42.19500
C  45.47100 42.47000 42.13700
C  46.57300 41.33500 42.42100
C  47.82800 42.10900 42.25300
C  46.41900 40.53900 43.77000
C  44.62700 42.30800 40.78600
C  44.61800 43.32700 39.64800
H  44.65100 42.66900 38.26700
N  50.77200 43.30800 42.28700
C  50.45600 42.04400 42.19400
C  51.68500 41.21200 42.28600
C  52.76700 42.07300 42.25600
C  52.13800 43.41700 42.23900
C  51.80200 39.69100 42.25000
C  54.27800 41.75300 42.14900
O  54.62500 40.59300 42.08500
C  55.37500 42.79300 42.26700
N  50.78300 46.31200 42.33300
C  52.10300 45.99000 42.16200
C  52.88500 47.29100 41.89500
C  51.93400 48.45000 42.33000
C  50.63300 47.64300 42.53800
C  54.23600 47.32700 42.60400
C  51.84000 49.63900 41.34200
C  52.17300 51.12600 41.83100
N  48.01600 46.44600 42.70400
C  48.16800 47.75500 42.90600
C  46.87800 48.39900 42.94500
C  45.97400 47.37500 42.69300
C  46.71100 46.21400 42.56800
C  46.49000 49.85700 43.12300
C  44.55200 47.09800 42.46300
O  43.57900 47.80300 42.38100
C  44.55600 45.65500 42.11800
C  43.43900 44.98600 42.77000
O  42.58700 44.36100 42.15000
O  43.33800 45.30900 44.13900
C  42.07800 45.00200 44.87100
H  49.05800 40.40300 42.29900
H  53.78700 44.66100 42.01200
H  49.47800 49.33900 43.21600
H  44.79800 42.40400 42.99200
H  46.66400 40.60600 41.61500
H  47.32100 40.32200 44.34300
H  45.79400 39.67000 43.56300
H  45.82900 41.09200 44.50100
H  43.60600 42.22800 41.16000
H  44.73200 41.31800 40.34200
H  45.31300 44.16600 39.68700
H  43.61900 43.76200 39.61100
H  52.29100 39.41400 41.31600
H  50.75800 39.39900 42.36500
H  52.45400 39.34700 43.05300
H  56.25100 42.22000 42.57100
H  55.03800 43.50800 43.01700
H  55.56700 43.17400 41.26400
H  53.02800 47.43400 40.82400
H  52.23900 48.89200 43.27800
H  54.15500 46.68500 43.48000
H  54.41600 48.36300 42.89300
H  55.02300 47.05000 41.90200
H  50.86600 49.59400 40.85300
H  52.43900 49.44800 40.45200
H  52.27000 51.21500 42.91300
H  51.24000 51.63200 41.58200
H  53.00100 51.56300 41.27300
H  45.97800 50.05500 42.18200
H  47.30900 50.57300 43.19500
H  45.92100 49.84800 44.05300
H  44.38400 45.59800 41.04300
H  41.30700 44.52700 44.26400
H  41.58200 45.80600 45.41600
H  42.43600 44.29900 45.62300

