158

Mg 24.46600 -5.25900 45.99600
C  26.60600 -2.69300 44.33300
C  22.05700 -4.30400 43.83700
C  22.84000 -7.97500 46.98800
C  27.42100 -6.21700 47.66500
N  24.42300 -3.68700 44.25200
C  25.31400 -2.77500 43.78500
C  24.71200 -1.92600 42.67600
C  23.13500 -2.21100 42.76900
C  23.18600 -3.52600 43.63700
C  22.15700 -1.01800 43.25600
C  25.28600 -2.28400 41.28600
C  26.23900 -1.25500 40.55900
H  26.17000 -1.21200 39.02300
N  22.65300 -5.96400 45.53700
C  21.77600 -5.39700 44.69100
C  20.50900 -6.24100 44.71100
C  20.77500 -7.39100 45.56100
C  22.14200 -7.10400 46.12200
C  19.26200 -5.96500 43.84600
C  19.82800 -8.66000 45.83500
O  18.78600 -8.67700 45.22100
C  20.12200 -9.78300 46.69600
N  25.05900 -6.89700 47.13400
C  24.20400 -7.85100 47.43700
C  24.98300 -8.96100 48.38100
C  26.33500 -8.26800 48.65300
C  26.24700 -7.09600 47.72000
C  24.32300 -9.32000 49.72100
C  27.47900 -9.17400 48.21000
C  28.59200 -9.29800 49.16500
N  26.59100 -4.60400 46.08600
C  27.57500 -5.09500 46.86400
C  28.78800 -4.32700 46.57900
C  28.38700 -3.38300 45.66600
C  27.07300 -3.59300 45.34300
C  30.18900 -4.49300 47.11500
C  28.94500 -2.27800 44.85000
O  30.06500 -1.73000 44.81800
C  27.72100 -1.75600 44.08500
C  27.59700 -0.32800 44.49300
O  26.68000 0.07800 45.21000
O  28.37700 0.49300 43.76300
C  27.90400 1.86500 43.73900
H  21.23500 -3.96000 43.20500
H  22.37000 -8.90400 47.32000
H  28.34000 -6.49000 48.18800
H  24.84400 -0.86200 42.87400
H  22.77800 -2.48700 41.77700
H  21.44500 -1.38700 43.99400
H  21.67900 -0.65800 42.34500
H  22.76200 -0.21800 43.68100
H  24.44000 -2.44000 40.61600
H  25.89100 -3.18700 41.35700
H  27.28700 -1.25900 40.85800
H  25.93500 -0.29700 40.98200
H  19.34900 -5.09900 43.19000
H  18.43600 -5.86700 44.55000
H  19.05400 -6.77200 43.14400
H  19.21800 -10.38500 46.79900
H  20.21300 -9.35900 47.69600
H  20.93700 -10.44200 46.39700
H  24.93900 -9.85900 47.76300
H  26.59600 -7.84800 49.62500
H  23.76700 -10.23500 49.52000
H  23.62100 -8.58000 50.10400
H  25.03400 -9.47400 50.53200
H  27.80600 -8.81800 47.23300
H  27.13900 -10.19800 48.05700
H  28.87400 -8.29500 49.48400
H  29.43600 -9.73300 48.62800
H  28.16200 -9.86500 49.99000
H  30.26100 -4.64100 48.19200
H  30.79700 -3.59100 47.04900
H  30.64200 -5.27800 46.50900
H  27.75700 -1.65800 43.00000
H  27.99600 2.20500 44.77000
H  26.90600 1.97300 43.31300
H  28.53400 2.43300 43.05500
Mg 44.60900 3.61900 47.07800
C  42.58500 6.23500 46.51700
C  41.69500 1.47700 47.11900
C  46.53800 0.87200 47.05100
C  47.34400 5.70100 46.62900
N  42.36100 3.77600 46.76700
C  41.81600 5.05900 46.55100
C  40.30900 4.95400 46.56100
C  40.02100 3.42300 46.95000
C  41.40000 2.86600 47.05500
C  39.06500 3.15900 48.17100
C  39.60000 5.39700 45.21700
C  40.32000 5.56400 43.88400
H  39.93400 6.65200 42.93100
N  44.18300 1.47300 47.10200
C  42.94500 0.82600 47.17900
C  43.16200 -0.62200 47.07100
C  44.57300 -0.84700 47.02300
C  45.18000 0.53900 47.05600
C  42.07200 -1.62200 46.94300
C  45.19600 -2.24500 46.88200
O  44.53500 -3.26800 46.71400
C  46.71400 -2.40700 46.89000
N  46.58900 3.25500 46.68500
C  47.19300 2.09200 46.84100
C  48.74300 2.08900 46.93000
C  48.95600 3.60700 46.75000
C  47.55300 4.24800 46.68100
C  49.38100 1.54500 48.18400
C  49.74800 4.00500 45.55300
C  51.03700 4.79700 45.65200
N  44.90900 5.64700 46.75000
C  46.10200 6.33800 46.65900
C  45.78200 7.70400 46.47800
C  44.39600 7.77900 46.52800
C  43.93100 6.47200 46.52300
C  46.77800 8.83300 46.40200
C  43.22200 8.63000 46.42500
O  43.10700 9.84200 46.38100
C  41.98900 7.68900 46.51900
C  41.03800 7.98100 47.60000
O  41.29900 7.97600 48.79500
O  39.86500 8.24400 46.98500
C  38.92500 8.90300 47.92600
H  40.84000 0.82300 46.93000
H  47.34700 0.13900 47.08400
H  48.20200 6.35400 46.80200
H  39.93600 5.57300 47.37700
H  39.58400 2.84600 46.13500
H  38.55500 2.24500 47.86600
H  38.25300 3.88600 48.19200
H  39.54900 3.07900 49.14400
H  38.89400 6.21700 45.34600
H  38.90100 4.60500 44.94800
H  40.14000 4.66700 43.29100
H  41.39000 5.35400 43.90000
H  41.11600 -1.15200 47.17200
H  42.18100 -2.50200 47.57700
H  41.96900 -1.90600 45.89600
H  46.93000 -3.46100 47.06800
H  47.14000 -1.90500 47.75900
H  47.05800 -2.03400 45.92500
H  49.09900 1.50200 46.08300
H  49.47500 3.97900 47.63300
H  50.06300 2.23600 48.67800
H  49.90800 0.63500 47.89700
H  48.68700 1.33700 48.99900
H  49.02100 4.67300 45.09100
H  49.85900 3.17800 44.85100
H  51.85100 4.32300 45.10400
H  51.38900 4.97700 46.66800
H  50.81900 5.78600 45.24700
H  47.52900 8.70200 45.62300
H  47.35400 8.77500 47.32500
H  46.32100 9.79600 46.17400
H  41.44400 7.84900 45.58900
H  37.98000 9.12500 47.43000
H  39.30400 9.88400 48.21200
H  38.84600 8.35700 48.86700

