158

Mg 0.38100 7.07700 25.92700
C  1.10100 9.12500 28.69800
C  1.27800 4.37600 27.95200
C  0.66000 5.03600 23.15600
C  0.58200 9.87100 23.85100
N  0.99400 6.80600 28.05100
C  1.08100 7.74100 29.03500
C  1.14500 7.14600 30.43900
C  1.23900 5.62200 30.16800
C  1.12600 5.58300 28.64800
C  2.50600 5.00400 30.70000
C  -0.06500 7.56900 31.39000
C  0.10000 7.63800 32.90500
H  1.30100 6.96200 33.56700
N  0.76300 4.91200 25.62200
C  1.04400 4.04100 26.58100
C  1.12000 2.69200 25.99400
C  0.90800 2.84400 24.61500
C  0.78100 4.29900 24.35300
C  1.33500 1.51800 26.76800
C  0.79000 1.75800 23.47900
O  0.77200 2.04000 22.28900
C  0.74600 0.27600 23.85900
N  0.61900 7.38600 23.82300
C  0.55900 6.40200 22.93500
C  0.31300 6.96700 21.48100
C  0.23000 8.51000 21.68200
C  0.42900 8.61900 23.24700
C  1.33100 6.48000 20.46300
C  -1.20500 9.09900 21.32000
C  -2.26700 9.26800 22.36400
N  0.65800 9.09200 26.19600
C  0.72400 10.12700 25.27600
C  0.84900 11.39300 25.97500
C  1.02400 11.05700 27.33300
C  0.87700 9.68300 27.38000
C  0.72300 12.66100 25.36300
C  1.25300 11.52000 28.64100
O  1.48000 12.60600 29.05700
C  1.12600 10.33800 29.57900
C  2.41500 10.43500 30.46000
O  3.60000 10.37700 30.00700
O  2.05500 10.82700 31.73800
C  3.13600 10.89500 32.71900
H  1.31600 3.51300 28.62100
H  0.59300 4.50400 22.20500
H  0.60700 10.75400 23.20900
H  2.06600 7.54800 30.86000
H  0.31700 5.08900 30.40100
H  2.28000 4.53100 31.65600
H  3.25300 5.78500 30.84800
H  2.97400 4.22200 30.10300
H  -0.84400 6.82000 31.24500
H  -0.61900 8.43600 31.03000
H  -0.81600 7.23000 33.33200
H  0.10400 8.68500 33.20800
H  0.81700 0.65100 26.35900
H  1.04000 1.62300 27.81200
H  2.41300 1.36600 26.72000
H  1.56700 0.04600 24.53800
H  0.80800 -0.39800 23.00500
H  -0.22000 -0.03800 24.25200
H  -0.65400 6.51500 21.25600
H  1.02900 9.00800 21.13300
H  1.73600 7.38200 20.00200
H  1.04200 5.74200 19.71500
H  2.13600 5.99800 21.01700
H  -1.76100 8.48500 20.61200
H  -1.04700 10.02200 20.76100
H  -2.02600 8.91500 23.36600
H  -3.17600 8.70900 22.14400
H  -2.54400 10.32200 22.36700
H  0.32500 13.38900 26.07100
H  0.18900 12.66700 24.41300
H  1.68500 13.08600 25.07600
H  0.11100 10.39300 29.97300
H  3.74700 10.00600 32.56200
H  2.86300 10.89200 33.77400
H  3.67300 11.82700 32.54400
Mg 24.69900 -7.59200 48.17400
C  27.03100 -5.29300 47.06300
C  22.38200 -6.53400 45.80800
C  22.74400 -10.12000 49.06400
C  27.36400 -9.28100 49.97300
N  24.71800 -6.19500 46.57900
C  25.78500 -5.32600 46.36500
C  25.38800 -4.36300 45.22400
C  23.85300 -4.48300 45.16400
C  23.65300 -5.86900 45.80400
C  22.97800 -3.43800 45.87200
C  26.06800 -4.81900 43.94800
C  26.66800 -3.65800 43.28100
H  25.72900 -2.59300 42.72400
N  22.76200 -8.18200 47.51200
C  22.00700 -7.66000 46.51600
C  20.81900 -8.38900 46.37100
C  20.79100 -9.41800 47.36700
C  22.13400 -9.30200 48.04900
C  19.71700 -8.13100 45.35000
C  19.71500 -10.45900 47.57100
O  18.65300 -10.48000 46.95500
C  19.84200 -11.49700 48.71300
N  25.14800 -9.57700 49.16100
C  24.00400 -10.22100 49.56100
C  24.25300 -11.22000 50.68500
C  25.81900 -11.15100 50.77500
C  26.12200 -9.94100 49.94600
C  23.58500 -11.00300 52.06600
C  26.57500 -12.45900 50.37900
C  27.46400 -12.50100 49.05000
N  26.73200 -7.33000 48.51000
C  27.64600 -8.08600 49.30400
C  28.90900 -7.27600 49.21500
C  28.68900 -6.17100 48.41000
C  27.37500 -6.20900 47.98100
C  30.20900 -7.73500 49.75600
C  29.27800 -4.95200 47.90600
O  30.39900 -4.47400 48.13400
C  28.25200 -4.47100 46.82800
C  28.02600 -3.03700 47.01200
O  27.48700 -2.46800 47.96800
O  28.55100 -2.41500 45.97000
C  28.25200 -0.97900 45.82600
H  21.49200 -6.11000 45.33900
H  22.17000 -10.88000 49.59800
H  28.08600 -9.80800 50.60000
H  25.75900 -3.36500 45.45700
H  23.58000 -4.52600 44.10900
H  22.51200 -3.87300 46.75700
H  22.24000 -2.98900 45.20700
H  23.62900 -2.66600 46.28100
H  25.40100 -5.42300 43.33300
H  26.89600 -5.47700 44.21500
H  27.30700 -4.14000 42.54000
H  27.44100 -3.21400 43.90900
H  20.02300 -8.88800 44.62700
H  19.87300 -7.18100 44.84100
H  18.66000 -8.34500 45.51000
H  20.40900 -12.26500 48.18700
H  18.82400 -11.86800 48.82800
H  20.14100 -11.04600 49.66000
H  23.97200 -12.23400 50.40000
H  26.13600 -10.99000 51.80500
H  23.21900 -9.99000 52.23200
H  24.09600 -11.23700 53.00100
H  22.66800 -11.59100 52.05100
H  25.75500 -13.17000 50.28000
H  27.17500 -12.75700 51.23800
H  27.43200 -13.56800 48.83100
H  28.48500 -12.17200 49.24300
H  27.14600 -12.11800 48.08000
H  31.12000 -7.74500 49.15700
H  30.01200 -8.67900 50.26400
H  30.63900 -7.08200 50.51500
H  28.53400 -4.66200 45.79300
H  29.29600 -0.66600 45.81300
H  27.78100 -0.51500 46.69200
H  27.61700 -0.83000 44.95200

