158

Mg 16.99500 -1.81900 27.35900
C  16.27500 0.08800 30.10800
C  19.09500 -3.71700 29.39000
C  18.28300 -3.41200 24.60600
C  15.51500 0.62400 25.33100
N  17.80900 -1.60200 29.42700
C  17.06800 -1.02300 30.39200
C  17.57700 -1.36700 31.78500
C  18.70000 -2.36500 31.48800
C  18.54700 -2.59000 30.00000
C  20.15400 -2.07300 31.78800
C  16.42200 -1.77100 32.81300
C  16.50700 -1.23500 34.26900
H  17.80200 -0.53900 34.74500
N  18.34400 -3.40400 27.07000
C  19.01000 -4.10800 28.03200
C  19.60000 -5.29500 27.47200
C  19.36200 -5.23200 26.11200
C  18.62500 -4.01800 25.86000
C  20.33500 -6.22000 28.31200
C  19.82700 -6.21500 25.03700
O  19.50600 -6.20900 23.87000
C  20.68200 -7.39400 25.48600
N  17.07700 -1.30300 25.31300
C  17.61400 -2.14100 24.35500
C  17.54600 -1.50700 22.99500
C  16.35600 -0.50900 23.18200
C  16.29800 -0.37400 24.72400
C  18.83300 -0.82000 22.50900
C  14.96300 -1.13600 22.65400
C  14.33800 -0.55900 21.32600
N  15.90100 -0.04800 27.55700
C  15.38500 0.82400 26.70700
C  14.61000 1.87100 27.36100
C  14.95400 1.59500 28.73700
C  15.80600 0.47600 28.79800
C  13.86100 2.93500 26.75100
C  14.72300 2.04100 30.05300
O  14.08900 2.98500 30.50600
C  15.54600 1.14000 31.03000
C  16.51000 2.02000 31.69100
O  17.59700 2.34500 31.25900
O  16.02300 2.44300 32.93100
C  16.93800 3.39300 33.65300
H  19.61500 -4.39800 30.06800
H  18.61800 -4.00900 23.75500
H  15.13400 1.43500 24.70800
H  18.06600 -0.44600 32.10100
H  18.45500 -3.27500 32.03600
H  20.78500 -2.23800 30.91500
H  20.63900 -2.74300 32.49900
H  20.22600 -1.02200 32.06600
H  16.24900 -2.84700 32.84000
H  15.58100 -1.23400 32.37400
H  16.52800 -2.06900 34.97000
H  15.61700 -0.67900 34.56400
H  20.22700 -7.26300 28.01200
H  20.06600 -6.37800 29.35700
H  21.36900 -5.90100 28.18300
H  19.97500 -8.06300 25.97800
H  21.57300 -7.04400 26.00700
H  21.06000 -7.80800 24.55200
H  17.22600 -2.32400 22.34800
H  16.50300 0.41700 22.62500
H  19.38100 -0.65500 23.43700
H  18.71100 0.09200 21.92500
H  19.49600 -1.48700 21.95900
H  14.23500 -1.20200 23.46300
H  15.15800 -2.18100 22.41300
H  14.96500 0.28000 21.02400
H  13.30500 -0.24800 21.48400
H  14.38600 -1.39500 20.62800
H  14.32200 3.91000 26.90900
H  12.94700 2.91900 27.34400
H  13.60000 2.89700 25.69300
H  14.96400 0.57300 31.75600
H  16.73200 4.41300 33.33000
H  17.98700 3.17200 33.45800
H  16.99700 3.43000 34.74100
Mg 26.12700 50.54000 26.41100
C  23.90700 51.38200 29.01600
C  28.48600 49.75100 28.95200
C  28.47800 50.33600 24.14700
C  23.87400 51.74200 24.11800
N  26.08700 50.47600 28.73500
C  25.08100 50.93500 29.56000
C  25.39500 50.75300 31.11000
C  26.97800 50.40400 31.03200
C  27.23200 50.13300 29.45600
C  27.92400 51.53200 31.69700
C  24.49800 49.77800 31.81200
C  23.84300 50.16200 33.15700
H  24.67200 50.66400 34.32300
N  28.17600 50.03200 26.49800
C  28.90700 49.62500 27.59800
C  30.19700 49.25100 27.27500
C  30.34100 49.53500 25.89100
C  28.97200 49.99800 25.40600
C  31.20200 48.64700 28.19000
C  31.49400 49.47000 24.90600
O  31.49700 49.92100 23.76000
C  32.76800 48.90900 25.45600
N  26.15900 50.93000 24.40600
C  27.26600 50.68400 23.59600
C  26.97700 50.96400 22.07000
C  25.45100 51.33300 22.14000
C  25.12700 51.35300 23.59500
C  27.94000 51.88600 21.30800
C  24.54700 50.46900 21.26300
C  24.33900 49.03800 21.85600
N  24.25200 51.28800 26.48300
C  23.46600 51.72600 25.47600
C  22.17300 52.17300 25.95000
C  22.32900 52.10300 27.34000
C  23.57200 51.51400 27.62000
C  21.02600 52.64800 25.12200
C  21.71400 52.46100 28.54000
O  20.61700 53.09500 28.67000
C  22.68200 51.98100 29.71600
C  23.05000 53.10400 30.59100
O  24.09500 53.78700 30.52500
O  22.11700 53.26300 31.50400
C  22.23200 54.39600 32.44200
H  29.18700 49.50300 29.75200
H  29.23100 50.19100 23.36900
H  23.19900 52.01400 23.30400
H  25.27300 51.75500 31.52000
H  27.18900 49.46600 31.54500
H  28.25200 52.24700 30.94200
H  28.73300 50.90400 32.07000
H  27.40100 52.07600 32.48300
H  25.02900 48.86900 32.09300
H  23.72200 49.52500 31.08900
H  23.33500 49.25700 33.48700
H  23.06700 50.92700 33.12200
H  31.52000 47.66400 27.84100
H  30.88100 48.48400 29.21900
H  32.00400 49.37200 28.05300
H  32.62300 47.99000 26.02300
H  33.05700 49.60400 26.24500
H  33.59900 48.79000 24.76000
H  27.01200 49.99900 21.56400
H  25.35700 52.40100 21.94200
H  28.57300 52.48100 21.96500
H  27.33600 52.59000 20.73500
H  28.47900 51.25600 20.60000
H  24.61400 50.42900 20.17500
H  23.65100 51.08800 21.20900
H  25.07000 48.71700 22.59800
H  24.13800 48.29300 21.08600
H  23.35500 49.10200 22.32000
H  20.07600 52.53600 25.64500
H  20.90600 52.05500 24.21400
H  21.03700 53.71400 24.89500
H  22.15200 51.17600 30.22400
H  22.29700 54.08800 33.48500
H  21.27300 54.89500 32.30300
H  22.94100 55.19700 32.23100

