158

Mg 26.01900 0.15100 29.48900
C  27.65500 -0.15500 32.54200
C  23.07100 0.48400 31.43200
C  24.08100 -0.04600 26.67300
C  28.85500 -0.58100 27.81100
N  25.47200 0.31400 31.71000
C  26.32400 0.12600 32.77800
C  25.64200 0.50700 34.14600
C  24.11600 0.59000 33.79000
C  24.18300 0.55000 32.22200
C  23.12500 -0.42000 34.39500
C  26.25200 1.78800 34.73200
C  27.03400 1.63500 36.14100
H  26.54600 2.60700 37.24800
N  23.83500 0.33400 29.09200
C  22.85400 0.51000 30.03300
C  21.54900 0.55000 29.29700
C  21.81600 0.47000 27.85200
C  23.25300 0.24300 27.79700
C  20.24100 0.68000 30.02200
C  20.89600 0.58900 26.64700
O  21.33000 0.38100 25.53700
C  19.50400 1.02300 26.84800
N  26.37300 -0.22000 27.56800
C  25.50600 -0.20100 26.53100
C  26.22900 -0.11100 25.20100
C  27.75900 -0.26800 25.66400
C  27.71100 -0.25200 27.13800
C  25.74600 -1.14300 24.11500
C  28.68600 0.77500 25.01200
C  29.50800 0.24400 23.96800
N  27.93600 -0.26000 30.01600
C  29.02600 -0.63100 29.22500
C  30.18100 -0.75400 30.09600
C  29.64900 -0.55100 31.39600
C  28.30200 -0.27200 31.28800
C  31.64500 -1.18300 29.67800
C  29.99600 -0.52400 32.84300
O  31.04800 -0.62300 33.46500
C  28.71900 -0.23500 33.64200
C  28.62400 -1.45200 34.62400
O  28.34100 -2.57600 34.29900
O  28.94400 -1.03900 35.88100
C  29.47400 -2.02700 36.86300
H  22.17700 0.70000 32.02000
H  23.62700 -0.13800 25.68500
H  29.80100 -0.77400 27.30100
H  25.83500 -0.24400 34.91100
H  23.71900 1.56800 34.06000
H  22.35000 0.01200 35.02800
H  23.75600 -1.13000 34.92900
H  22.67800 -1.12200 33.69100
H  25.43800 2.50100 34.86300
H  26.92700 2.27900 34.03100
H  28.11300 1.76400 36.06000
H  26.96200 0.58900 36.43800
H  20.32100 0.29000 31.03700
H  19.46000 0.12600 29.50100
H  19.98100 1.73300 30.13500
H  19.10500 1.45700 25.93200
H  19.46700 1.76100 27.64900
H  18.95600 0.11600 27.10200
H  26.14400 0.95100 24.96800
H  27.95500 -1.30500 25.39000
H  26.44600 -1.96600 23.97100
H  25.52900 -0.75800 23.11800
H  24.75700 -1.44400 24.46000
H  29.27500 1.28300 25.77500
H  28.03500 1.49600 24.51900
H  29.49300 0.72600 22.99100
H  29.29700 -0.77700 23.65100
H  30.54200 0.24300 24.31400
H  32.33200 -0.50600 30.18600
H  31.79800 -0.91300 28.63300
H  31.82500 -2.23800 29.88100
H  28.80200 0.74100 34.11800
H  29.05000 -1.83300 37.84800
H  30.54700 -1.93100 37.02900
H  29.21000 -3.03100 36.53300
Mg 6.08300 53.70500 41.61200
C  5.81500 50.26600 41.26700
C  9.23200 53.64800 40.10100
C  6.23600 57.11600 41.80400
C  2.72700 53.91600 42.61400
N  7.29400 52.10400 40.75200
C  7.03700 50.73700 40.72200
C  8.16000 49.95600 39.92500
C  9.29300 51.04300 39.97800
C  8.58100 52.36800 40.26900
C  10.39800 50.78900 41.04200
C  7.88900 49.29300 38.55800
C  6.81800 50.06000 37.69100
H  7.35200 50.39400 36.26300
N  7.58000 55.18200 41.07600
C  8.71100 54.94000 40.43400
C  9.44700 56.24500 40.26400
C  8.69000 57.26400 40.91800
C  7.42200 56.55300 41.25200
C  10.81300 56.36800 39.51500
C  9.06700 58.79300 41.14200
O  10.10100 59.17300 40.68300
C  8.16800 59.81500 41.84500
N  4.66600 55.27900 41.94600
C  4.95100 56.58500 42.01400
C  3.72900 57.48300 42.30300
C  2.65400 56.43700 42.55700
C  3.35300 55.10800 42.26000
C  3.98000 58.47700 43.51700
C  1.39800 56.63000 41.61800
C  0.65800 57.95100 41.57100
N  4.61600 52.35500 41.93800
C  3.30200 52.57500 42.47900
C  2.70800 51.33100 42.76000
C  3.68900 50.41600 42.35600
C  4.82800 51.08100 41.85100
C  1.27300 51.14100 43.31000
C  3.95900 49.00000 42.25000
O  3.19700 48.08500 42.54900
C  5.36400 48.86300 41.58100
C  5.08800 48.15300 40.36300
O  4.44300 48.55700 39.42900
O  5.73300 47.02400 40.49700
C  5.40600 46.01300 39.41700
H  10.22100 53.64200 39.63900
H  6.30200 58.20500 41.76000
H  1.68300 53.94900 42.93000
H  8.32100 49.18700 40.68100
H  9.69300 50.93900 38.97000
H  10.11500 49.93800 41.66200
H  10.49600 51.69100 41.64600
H  11.38500 50.59300 40.62200
H  7.87200 48.21800 38.73600
H  8.82000 49.39200 38.00000
H  6.33100 50.92400 38.14300
H  6.01600 49.33100 37.57800
H  11.29700 57.33600 39.65200
H  10.68000 56.18300 38.44900
H  11.37200 55.51500 39.90000
H  7.27500 60.16600 41.32700
H  8.86000 60.64500 41.98200
H  7.88200 59.47100 42.83900
H  3.54200 57.90200 41.31500
H  2.18000 56.49400 43.53700
H  5.02600 58.45500 43.82100
H  3.29400 58.20700 44.32000
H  3.80300 59.53300 43.31100
H  0.66000 55.86600 41.86200
H  1.81300 56.52000 40.61700
H  0.70800 58.19900 40.51100
H  1.11700 58.73700 42.17100
H  -0.40100 57.86500 41.81200
H  1.10900 51.89600 44.07900
H  1.11800 50.11800 43.65300
H  0.69200 51.29700 42.40200
H  6.04700 48.27200 42.19100
H  6.05400 46.14500 38.55000
H  4.36800 45.94500 39.09200
H  5.64400 45.04500 39.85600

