158

Mg 1.95500 -1.28200 44.36400
C  5.34400 -0.66400 43.96700
C  1.35000 1.71400 42.73700
C  -1.31500 -2.27800 44.00500
C  2.57400 -4.53700 45.50600
N  3.22100 0.24200 43.23800
C  4.57400 0.33400 43.39500
C  5.13900 1.66500 42.82900
C  3.79900 2.47000 42.51200
C  2.74000 1.49300 42.91100
C  3.62700 3.91100 43.23900
C  5.99000 1.46000 41.50900
C  7.43500 1.80600 41.50400
H  8.27000 2.04900 40.24600
N  0.31400 -0.44200 43.56000
C  0.21000 0.84400 42.92300
C  -1.19400 1.11500 42.58800
C  -1.90300 -0.01300 43.10000
C  -0.94600 -1.00000 43.58800
C  -1.72400 2.36500 41.88000
C  -3.44700 -0.01700 42.91400
O  -4.09200 0.77300 42.24800
C  -4.24000 -1.14000 43.54600
N  0.78000 -3.22400 44.75400
C  -0.53700 -3.30300 44.55600
C  -1.00900 -4.74000 44.69800
C  0.23800 -5.50200 45.32600
C  1.25100 -4.36500 45.21000
C  -2.34300 -5.04200 45.56500
C  0.62500 -6.77100 44.50500
C  1.09400 -7.94600 45.16000
N  3.53000 -2.38600 44.81900
C  3.66500 -3.63400 45.31000
C  5.04000 -3.83700 45.69200
C  5.72900 -2.68800 45.17900
C  4.77800 -1.84200 44.60100
C  5.66300 -5.14700 46.17600
C  7.05900 -2.07000 45.00400
O  8.13500 -2.52700 45.38400
C  6.82900 -0.74300 44.29700
C  7.22700 0.35200 45.21000
O  6.66200 0.58800 46.29800
O  8.23500 1.18100 44.73300
C  8.77600 2.29300 45.46300
H  1.13300 2.73300 42.41100
H  -2.35500 -2.54600 43.80600
H  2.84800 -5.50700 45.92800
H  5.69400 2.18500 43.61000
H  3.61200 2.81300 41.49400
H  2.88700 3.85600 44.03700
H  3.25300 4.74200 42.64100
H  4.56600 4.21700 43.70100
H  5.57900 1.95100 40.62700
H  5.96300 0.39300 41.28600
H  7.91100 1.00200 42.06600
H  7.50800 2.64100 42.20100
H  -0.99100 3.16500 41.77300
H  -2.42900 2.87300 42.53800
H  -2.19800 2.17900 40.91600
H  -5.28300 -0.84700 43.65900
H  -3.98400 -1.16600 44.60500
H  -4.24400 -2.03500 42.92400
H  -1.17500 -5.16400 43.70800
H  0.03700 -5.91400 46.31500
H  -2.33100 -6.05900 45.95600
H  -3.16300 -5.01700 44.84700
H  -2.55900 -4.31500 46.34800
H  1.48200 -6.59400 43.85400
H  -0.22900 -7.12800 43.93000
H  1.49000 -7.58900 46.11000
H  1.95500 -8.44100 44.71000
H  0.47600 -8.82800 45.32500
H  5.26800 -5.44200 47.14800
H  6.74600 -5.04000 46.23700
H  5.40800 -5.98500 45.52600
H  7.52100 -0.59100 43.46900
H  8.58900 3.25000 44.97500
H  9.86200 2.19600 45.43000
H  8.58200 2.34700 46.53400
Mg 41.20700 8.45800 29.82300
C  43.20600 9.57900 32.49900
C  39.17500 6.84500 32.27200
C  39.30200 7.32700 27.34300
C  43.63800 9.54800 27.60100
N  41.14500 8.33400 32.09600
C  42.00400 8.97300 32.95200
C  41.68000 8.60900 34.38000
C  40.66900 7.51400 34.23700
C  40.32400 7.57100 32.76500
C  41.01500 6.05600 34.70100
C  41.20000 9.87600 35.16000
C  41.83900 10.05100 36.56100
H  41.87700 11.48800 37.11700
N  39.41500 7.35200 29.76900
C  38.71000 6.86100 30.90400
C  37.48800 6.30400 30.36800
C  37.43300 6.51800 28.92000
C  38.72400 7.13800 28.59200
C  36.44500 5.65500 31.21600
C  36.44700 6.25000 27.89300
O  36.49500 6.58500 26.71800
C  35.17400 5.50400 28.30500
N  41.63400 8.13800 27.76900
C  40.59900 7.85100 26.96800
C  40.90300 8.11100 25.54900
C  42.40200 8.55200 25.56200
C  42.55700 8.89700 27.03700
C  40.56100 6.98700 24.49200
C  42.62700 9.76600 24.57700
C  41.96400 11.11000 24.89900
N  43.00500 9.46400 29.95300
C  43.90700 9.83600 28.98900
C  45.17000 10.33200 29.57800
C  44.86800 10.32900 30.95800
C  43.52000 9.77600 31.12900
C  46.41500 10.71100 28.82600
C  45.38800 10.72500 32.29200
O  46.43800 11.28700 32.52400
C  44.33300 10.30000 33.32400
C  45.02400 9.26700 34.13600
O  45.56000 8.24600 33.72800
O  45.14300 9.73000 35.45800
C  46.23000 9.18700 36.27700
H  38.42900 6.58200 33.02500
H  38.77600 6.90600 26.48400
H  44.50800 9.89400 27.04100
H  42.58300 8.26400 34.88300
H  39.78400 7.79500 34.80800
H  40.41000 5.93000 35.59900
H  42.02000 6.08500 35.12400
H  40.80700 5.23600 34.01400
H  40.14200 9.92400 35.41700
H  41.47000 10.78500 34.62300
H  42.84000 9.62300 36.51700
H  41.24500 9.42700 37.22800
H  36.79800 5.56400 32.24400
H  36.04000 4.71400 30.84500
H  35.53900 6.26200 31.23000
H  35.28200 4.43200 28.47200
H  34.61700 5.41600 27.37200
H  34.66400 6.00600 29.12700
H  40.16200 8.85300 25.25100
H  42.99300 7.64700 25.41800
H  39.52900 7.03300 24.14200
H  40.74500 6.05000 25.01800
H  41.31200 7.02200 23.70300
H  42.22100 9.39000 23.63800
H  43.71400 9.81600 24.50200
H  42.74800 11.86700 24.86100
H  41.49800 11.15800 25.88300
H  41.16800 11.23400 24.16500
H  46.71600 9.95300 28.10200
H  47.31800 10.97500 29.37700
H  46.22500 11.58700 28.20600
H  43.89800 11.04300 33.99200
H  46.90000 10.00100 36.55500
H  46.82100 8.44300 35.74400
H  46.00800 8.71700 37.23500

