158

Mg 46.91800 35.46300 29.05800
C  45.44300 33.08200 31.13400
C  46.75000 37.79200 31.51200
C  47.78400 37.88200 26.82800
C  46.32800 33.26500 26.26300
N  46.33400 35.37800 31.13600
C  45.77800 34.28300 31.75900
C  45.78600 34.53200 33.26800
C  45.56200 36.13000 33.23600
C  46.33800 36.51000 31.91700
C  44.06200 36.57600 33.09900
C  47.19600 34.02800 33.68800
C  47.24800 33.75500 35.19400
H  46.21500 34.36700 36.18800
N  47.42500 37.44000 29.24400
C  47.35100 38.24500 30.27900
C  47.98400 39.49200 30.06900
C  48.42300 39.50900 28.71100
C  47.88100 38.25500 28.17800
C  48.07100 40.58200 31.14300
C  49.28900 40.48800 27.96200
O  49.52000 40.32400 26.75600
C  50.03100 41.65800 28.70700
N  46.97700 35.57500 26.85900
C  47.34600 36.69700 26.24100
C  47.20500 36.50900 24.68100
C  46.70600 35.01700 24.52300
C  46.68800 34.58400 25.94200
C  46.09300 37.37900 24.02400
C  47.59300 34.15300 23.64100
C  46.91000 33.32800 22.56000
N  46.21900 33.49300 28.69100
C  46.05200 32.73300 27.51100
C  45.46100 31.37800 27.88000
C  45.16100 31.55300 29.25600
C  45.62700 32.81000 29.69000
C  45.26700 30.17400 27.03000
C  44.52500 30.90500 30.42300
O  44.12400 29.76800 30.60200
C  44.41600 31.96000 31.52100
C  44.60500 31.51400 32.90900
O  45.63400 31.01700 33.36400
O  43.46800 31.70600 33.65400
C  43.28600 31.13900 34.92400
H  46.44700 38.59400 32.18700
H  48.05200 38.69200 26.14700
H  46.02600 32.70200 25.37700
H  44.91200 34.16400 33.80500
H  46.07100 36.59700 34.07900
H  43.84900 37.20200 32.23300
H  43.72800 37.10500 33.99100
H  43.47200 35.66900 32.96500
H  47.87600 34.86500 33.53400
H  47.50400 33.17800 33.08000
H  48.21300 34.05400 35.60300
H  47.12300 32.67500 35.11500
H  47.10900 40.61400 31.65300
H  48.11100 41.52900 30.60400
H  48.97900 40.45600 31.73300
H  50.71500 41.97100 27.91900
H  50.52500 41.33400 29.62300
H  49.33400 42.45500 28.96700
H  48.16900 36.83600 24.29300
H  45.70000 35.01600 24.10300
H  45.64800 38.11000 24.69900
H  45.30600 36.91000 23.43200
H  46.66900 37.91500 23.27000
H  48.03500 33.41100 24.30600
H  48.35000 34.79700 23.19200
H  47.16000 33.66400 21.55300
H  45.82800 33.45900 22.55200
H  47.08100 32.25700 22.66700
H  45.53500 30.46400 26.01400
H  44.22400 29.93300 27.23600
H  45.82700 29.29700 27.35300
H  43.41400 32.37700 31.41700
H  42.24500 31.33400 35.18200
H  43.96800 31.66400 35.59300
H  43.58500 30.09100 34.90300
Mg 16.32100 50.34100 25.58100
C  18.26400 49.68400 28.58100
C  13.68100 50.82900 27.72300
C  14.63100 50.94200 22.91600
C  19.07000 49.16900 23.78900
N  16.09900 50.56200 27.86100
C  16.95200 50.25400 28.89400
C  16.39800 50.57200 30.27800
C  14.88800 50.59500 29.98600
C  14.83700 50.67300 28.37900
C  14.24300 49.28200 30.53700
C  17.01400 51.85100 30.79900
C  16.89900 52.08500 32.36200
H  15.90800 51.15300 33.12400
N  14.40900 50.85400 25.32600
C  13.42500 50.90500 26.31900
C  12.17700 50.96900 25.65800
C  12.36400 51.28600 24.26300
C  13.88900 51.03100 24.10000
C  10.92400 51.00100 26.49000
C  11.41600 51.64300 23.15600
O  11.76700 51.78200 21.97200
C  10.02200 52.00200 23.49100
N  16.84900 50.33600 23.68700
C  15.94600 50.67300 22.72000
C  16.58700 50.53400 21.26200
C  18.05100 50.00500 21.59500
C  18.06100 49.84500 23.09200
C  15.76800 49.65700 20.20600
C  19.21700 50.84700 20.97400
C  20.23800 50.19100 20.05200
N  18.35100 49.59300 26.06000
C  19.26600 49.10900 25.13600
C  20.38900 48.54300 25.92800
C  20.03100 48.71000 27.31900
C  18.79300 49.43500 27.26200
C  21.57200 47.89400 25.32500
C  20.42800 48.49600 28.64900
O  21.42800 48.01800 29.11700
C  19.32400 49.14400 29.49500
C  18.78100 48.14200 30.47200
O  18.10800 47.15300 30.16600
O  19.04200 48.52100 31.77100
C  18.36100 47.66600 32.78000
H  12.77400 50.90000 28.32600
H  14.08000 51.06400 21.98100
H  19.84200 48.90000 23.06500
H  16.72100 49.81500 30.99300
H  14.35700 51.37300 30.53500
H  14.92400 48.54800 30.96900
H  13.85900 48.67500 29.71700
H  13.42000 49.43500 31.23400
H  16.48200 52.61700 30.23400
H  18.06700 51.76000 30.53300
H  16.64000 53.13000 32.53500
H  17.87000 51.95100 32.84000
H  10.77000 52.04200 26.77500
H  10.97200 50.49700 27.45500
H  10.14200 50.59600 25.84800
H  9.61300 52.62000 22.69200
H  10.06600 52.71400 24.31400
H  9.35600 51.19300 23.79000
H  16.59200 51.56900 20.91900
H  18.06500 48.99800 21.17900
H  14.96000 49.16900 20.75300
H  16.42500 48.90600 19.76700
H  15.52700 50.33000 19.38300
H  19.73700 51.32900 21.80100
H  18.76200 51.64900 20.39300
H  19.69000 49.27400 19.83700
H  21.11600 49.84300 20.59500
H  20.42100 50.76400 19.14300
H  22.44800 48.51600 25.51000
H  21.37600 47.95800 24.25500
H  21.63400 46.90800 25.78700
H  19.72900 49.94000 30.12000
H  17.35700 47.32100 32.53000
H  18.32700 48.31000 33.65900
H  18.99400 46.79300 32.94100

