158

Mg 0.62600 7.21300 25.66800
C  1.64000 9.13800 28.51300
C  0.65600 4.51600 27.65500
C  0.30300 5.45600 22.85100
C  1.27700 10.21300 23.71500
N  1.19000 6.92000 27.80900
C  1.40400 7.80700 28.82100
C  1.41300 7.16200 30.19000
C  1.15500 5.63000 29.91400
C  1.03600 5.71200 28.34600
C  2.10100 4.61500 30.50700
C  0.35200 7.71000 31.23600
C  0.87600 7.91600 32.70200
H  2.03700 7.16500 33.13500
N  0.41800 5.32000 25.28400
C  0.32100 4.32300 26.30100
C  0.01700 3.08200 25.62600
C  0.03800 3.34200 24.21800
C  0.24500 4.75100 24.07400
C  -0.11800 1.78900 26.34000
C  0.04000 2.41100 23.05200
O  0.00300 2.72300 21.88400
C  0.02500 0.94500 23.30300
N  0.77500 7.75800 23.56400
C  0.53700 6.80800 22.59800
C  0.58300 7.45900 21.25500
C  0.74000 8.98800 21.53500
C  0.99200 9.00000 23.01400
C  1.71100 6.84100 20.40200
C  -0.46600 9.88400 21.18300
C  -0.13200 11.00000 20.23000
N  1.23200 9.28300 26.00200
C  1.39000 10.32200 25.17000
C  1.73800 11.51600 25.90900
C  1.96600 11.13400 27.19400
C  1.53600 9.80600 27.22300
C  2.00900 12.90300 25.29100
C  2.29200 11.54400 28.51400
O  2.71200 12.58000 28.92900
C  2.02300 10.34600 29.45100
C  3.18400 10.18000 30.48200
O  4.23000 9.55000 30.32300
O  2.75300 10.83800 31.63900
C  3.81600 11.17400 32.59500
H  0.63300 3.64500 28.31300
H  0.12900 5.01000 21.86900
H  1.49600 11.14800 23.19600
H  2.42600 7.35500 30.54300
H  0.14100 5.36500 30.21300
H  2.83600 5.13900 31.11700
H  2.52900 3.96300 29.74600
H  1.56800 3.95800 31.19500
H  -0.47300 7.01300 31.38300
H  0.00500 8.66900 30.85200
H  0.03700 7.60600 33.32600
H  1.03100 8.98500 32.84900
H  -0.86600 1.27300 25.73900
H  -0.45800 1.86700 27.37200
H  0.82000 1.23500 26.33800
H  -0.87100 0.65700 23.85200
H  0.84200 0.72300 23.99000
H  0.23900 0.32700 22.43000
H  -0.39300 7.10300 20.92600
H  1.70700 9.27600 21.12300
H  2.20500 7.64200 19.85200
H  1.24900 6.27000 19.59600
H  2.36900 6.21300 21.00200
H  -0.90500 10.41700 22.02600
H  -1.35500 9.35700 20.83800
H  -1.11700 11.37700 19.95200
H  0.50900 10.90000 19.35400
H  0.27300 11.77900 20.87600
H  2.81800 13.40700 25.81900
H  1.15300 13.57100 25.38400
H  2.16100 12.81100 24.21600
H  1.11500 10.57800 30.00700
H  3.24400 11.58900 33.42400
H  4.57000 11.88900 32.26500
H  4.43200 10.39100 33.03700
Mg 9.26300 2.63000 27.72100
C  10.74100 1.00500 30.56600
C  7.23500 4.32000 29.93200
C  7.38500 3.66600 25.19700
C  11.01300 0.42800 25.72800
N  9.01300 2.61400 29.91100
C  9.77700 1.96500 30.90000
C  9.42100 2.45900 32.36300
C  8.15900 3.34100 32.10900
C  8.12400 3.40800 30.57700
C  6.84500 2.78000 32.68600
C  10.63400 3.24700 33.04400
C  10.41800 4.17000 34.31000
H  11.05400 3.61400 35.57800
N  7.61100 3.95100 27.60500
C  6.91300 4.56600 28.61900
C  5.83300 5.35300 28.08300
C  5.88500 5.24700 26.59300
C  6.96300 4.21400 26.40600
C  4.81500 6.12800 28.83800
C  5.06300 5.85700 25.44200
O  5.23200 5.54400 24.22900
C  4.05200 6.97100 25.74700
N  9.29700 2.16700 25.69300
C  8.44900 2.76000 24.84400
C  8.70300 2.26000 23.39100
C  9.89900 1.33400 23.56000
C  10.13900 1.32400 25.08900
C  7.43200 1.56400 22.75500
C  11.14300 1.75000 22.76400
C  11.79200 0.58600 22.09800
N  10.55400 0.95900 27.99400
C  11.22100 0.22300 27.08300
C  12.11700 -0.70200 27.73300
C  11.96300 -0.46800 29.08900
C  11.04500 0.65100 29.21800
C  13.02800 -1.71900 27.10800
C  12.41600 -0.80400 30.41400
O  13.29000 -1.56500 30.76900
C  11.60200 0.14400 31.47100
C  10.78900 -0.67200 32.37500
O  10.24200 -1.70600 32.03800
O  10.73200 -0.20200 33.66000
C  10.22300 -1.17100 34.62900
H  6.58900 4.83300 30.64700
H  6.81300 3.87800 24.29200
H  11.54600 -0.25700 25.06500
H  9.12700 1.60100 32.96700
H  8.38300 4.34400 32.47200
H  6.27600 3.55500 33.19900
H  7.05100 1.83600 33.19100
H  6.15600 2.57500 31.86600
H  11.15300 3.89500 32.33800
H  11.32200 2.44000 33.29400
H  9.36600 4.42000 34.44800
H  10.84600 5.16100 34.16200
H  4.99000 7.20300 28.79900
H  4.82800 5.81200 29.88200
H  3.92200 5.82100 28.29300
H  3.62400 7.30300 24.80100
H  4.46400 7.79200 26.33400
H  3.25200 6.44800 26.27200
H  8.86500 3.05800 22.66700
H  9.59800 0.34600 23.21200
H  6.74600 2.37300 22.50300
H  6.93100 0.98300 23.52900
H  7.59800 0.80000 21.99500
H  11.88600 2.12800 23.46600
H  10.96200 2.67700 22.21800
H  11.56700 0.75900 21.04600
H  11.50200 -0.39400 22.47600
H  12.84800 0.57900 22.37000
H  13.65500 -1.39200 26.27800
H  12.54900 -2.63100 26.75300
H  13.77000 -2.02600 27.84500
H  12.25600 0.76500 32.08300
H  10.53000 -2.20400 34.46000
H  9.14900 -1.08800 34.79000
H  10.68100 -0.94300 35.59100

