158

Mg 40.91400 9.25000 29.50700
C  42.60400 10.53000 32.32900
C  38.83500 7.73200 31.71800
C  39.39500 7.83800 26.97100
C  43.44100 10.34600 27.50400
N  40.71200 9.21300 31.83200
C  41.46300 9.81600 32.70800
C  40.97500 9.75800 34.15800
C  39.83600 8.70400 33.92300
C  39.78300 8.48100 32.42400
C  40.09100 7.38500 34.66300
C  40.64000 11.07400 34.78700
C  40.12600 10.76300 36.19000
H  40.47700 11.71700 37.28200
N  39.29200 7.94400 29.33900
C  38.58300 7.46600 30.37500
C  37.44000 6.75000 29.83300
C  37.50600 6.88400 28.44600
C  38.80000 7.55300 28.16500
C  36.34200 6.04200 30.64100
C  36.43500 6.44900 27.42300
O  36.67600 6.66500 26.27600
C  35.08500 6.11900 27.79900
N  41.43500 9.01600 27.59800
C  40.60000 8.46400 26.67400
C  41.05500 8.68100 25.25000
C  42.44800 9.37000 25.34800
C  42.44800 9.62400 26.89700
C  41.09900 7.33600 24.36600
C  42.56600 10.61000 24.35500
C  41.87700 11.94100 24.75400
N  42.73500 10.21100 29.79800
C  43.64300 10.66000 28.84700
C  44.69700 11.28800 29.53300
C  44.35000 11.35500 30.93400
C  43.14200 10.60800 31.02900
C  45.71400 11.91200 28.87400
C  44.78800 11.80400 32.24400
O  45.70500 12.45100 32.69000
C  43.66400 11.28800 33.12300
C  44.28000 10.64400 34.32700
O  44.80400 9.54200 34.42300
O  44.13500 11.48700 35.46900
C  44.54700 10.91700 36.76200
H  38.15500 7.13300 32.32700
H  38.72600 7.60100 26.14100
H  44.29200 10.60400 26.87000
H  41.77400 9.26200 34.70900
H  38.89500 9.16500 34.22300
H  39.87500 6.55600 33.99000
H  39.43000 7.27900 35.52300
H  41.10200 7.25700 35.05000
H  39.84600 11.59700 34.25400
H  41.44700 11.77100 35.01200
H  40.53400 9.76700 36.35900
H  39.03600 10.74300 36.16800
H  36.24900 5.09200 30.11400
H  35.46500 6.68400 30.73100
H  36.73700 5.70000 31.59700
H  34.43400 6.29900 26.94400
H  34.67600 6.66400 28.65000
H  35.20500 5.06300 28.04200
H  40.23500 9.28100 24.85600
H  43.19700 8.60500 25.14500
H  41.10800 6.44200 24.98800
H  41.88800 7.27800 23.61700
H  40.13100 7.18400 23.88900
H  42.11800 10.39700 23.38400
H  43.64400 10.75500 24.28900
H  41.01100 12.06700 24.10500
H  42.47400 12.83100 24.56000
H  41.44200 12.01100 25.75100
H  45.44000 12.21700 27.86400
H  46.58300 11.27300 28.71700
H  46.11600 12.78800 29.38300
H  43.17700 12.14800 33.58300
H  45.49900 10.39100 36.68900
H  43.80300 10.47800 37.42600
H  44.77300 11.80500 37.35200
Mg 5.04300 54.56000 39.90800
C  5.46700 51.02800 39.26000
C  8.21900 54.98300 38.63400
C  4.45300 57.86800 39.84500
C  1.75000 53.99100 40.74700
N  6.64000 53.08200 38.86400
C  6.61700 51.74200 38.83600
C  7.98200 51.17400 38.42400
C  8.93000 52.48700 38.54400
C  7.83300 53.63700 38.57800
C  10.01600 52.40600 39.70100
C  7.99100 50.31000 37.07200
C  8.69300 50.86700 35.79800
H  7.85100 50.75700 34.50600
N  6.16700 56.13900 39.35300
C  7.49800 56.13000 38.93800
C  8.03900 57.47600 38.80400
C  6.91900 58.34400 38.97100
C  5.75300 57.45400 39.39300
C  9.49700 57.75400 38.41100
C  6.96200 59.75400 38.72000
O  7.97200 60.30600 38.29000
C  5.69400 60.74100 38.66900
N  3.36500 55.68800 40.23800
C  3.36900 57.05000 40.21600
C  2.04400 57.58300 40.61500
C  1.06800 56.45300 40.62700
C  2.09900 55.27100 40.57200
C  2.07500 58.36300 41.92200
C  0.06700 56.35700 39.50400
C  -0.75600 57.60100 39.38400
N  3.81500 52.94900 40.06500
C  2.58600 52.85700 40.51700
C  2.28700 51.45200 40.72900
C  3.41200 50.70100 40.24600
C  4.31800 51.65900 39.84700
C  0.96300 50.97300 41.21500
C  3.97800 49.38400 40.05800
O  3.44500 48.30500 40.29100
C  5.35200 49.52900 39.41600
C  5.22700 48.84300 38.07800
O  4.47300 49.24000 37.20500
O  5.90000 47.61600 37.96800
C  5.52800 46.76400 36.89100
H  9.26300 55.15900 38.36200
H  4.32400 58.95200 39.86100
H  0.70500 53.85400 41.03400
H  8.31900 50.47000 39.18500
H  9.48500 52.62200 37.61600
H  10.01000 51.44600 40.21800
H  9.89100 53.09700 40.53500
H  11.05200 52.55300 39.39800
H  6.95300 50.10100 36.81300
H  8.36000 49.29300 37.19700
H  9.58300 50.24600 35.69800
H  8.90500 51.93500 35.73700
H  10.21600 56.98900 38.70200
H  9.75800 58.61700 39.02300
H  9.71300 57.93700 37.35800
H  6.14400 61.66700 38.31000
H  5.35500 60.74200 39.70500
H  5.02000 60.30800 37.93000
H  1.74700 58.25500 39.81000
H  0.62000 56.24100 41.59800
H  1.62800 59.31900 41.65000
H  3.13000 58.57000 42.10200
H  1.64200 57.82600 42.76600
H  -0.52700 55.50300 39.83200
H  0.68900 56.20400 38.62200
H  -0.38000 58.51700 39.83900
H  -1.79400 57.42500 39.66600
H  -0.78200 57.74100 38.30300
H  0.14700 51.64800 40.95800
H  1.04000 50.66100 42.25600
H  0.88600 50.07200 40.60700
H  6.15500 49.03200 39.96100
H  4.78000 46.14100 37.38100
H  6.45100 46.23200 36.66300
H  5.29900 47.28200 35.96000

