158

Mg -2.15300 16.66000 26.04300
C  -2.70700 14.44300 28.83500
C  -2.98400 19.29000 28.25400
C  -2.13800 18.68500 23.50300
C  -1.90800 13.91000 23.92500
N  -2.90800 16.77700 28.31200
C  -2.91900 15.76100 29.23800
C  -3.44300 16.29200 30.49900
C  -3.62300 17.84600 30.24500
C  -3.08600 17.99300 28.85400
C  -5.07200 18.38200 30.41700
C  -2.63700 16.07800 31.82600
C  -3.50200 15.79500 33.08500
H  -2.87400 14.99800 34.20900
N  -2.38000 18.78400 25.89700
C  -2.65000 19.73500 26.87000
C  -2.60200 21.04000 26.26400
C  -2.40900 20.82500 24.91400
C  -2.35200 19.38100 24.69900
C  -2.72800 22.23400 27.05300
C  -2.38300 21.87300 23.79200
O  -2.31800 21.56700 22.64500
C  -2.15400 23.28600 24.12700
N  -2.13100 16.26000 23.96600
C  -1.95700 17.30200 23.18300
C  -1.78500 16.90900 21.70400
C  -1.41500 15.33200 21.85800
C  -1.81900 15.12700 23.33500
C  -3.06000 17.20600 20.86600
C  0.09500 14.92900 21.55000
C  1.16600 15.71900 22.32200
N  -2.20800 14.57400 26.27900
C  -2.12700 13.57700 25.30200
C  -2.21400 12.29500 25.90700
C  -2.46100 12.61100 27.24500
C  -2.47600 13.97700 27.46800
C  -2.08400 10.96000 25.30400
C  -2.68300 11.97400 28.56500
O  -2.82600 10.80000 28.80400
C  -2.94100 13.03500 29.54200
C  -1.82200 12.78900 30.55100
O  -0.64000 13.03000 30.30700
O  -2.33600 12.33800 31.73900
C  -1.27500 11.71300 32.57600
H  -3.27400 20.15600 28.85200
H  -2.36200 19.36700 22.68100
H  -1.50000 13.03400 23.41600
H  -4.39500 15.79000 30.67200
H  -3.03700 18.40700 30.97300
H  -5.31600 19.14000 29.67200
H  -5.07700 18.84000 31.40600
H  -5.88100 17.65200 30.39500
H  -2.06300 16.94800 32.14400
H  -1.87300 15.33600 31.59000
H  -4.42000 15.31700 32.74400
H  -3.73700 16.77800 33.49200
H  -3.54700 22.81800 26.63400
H  -1.79100 22.77300 26.91900
H  -3.02900 21.97100 28.06700
H  -3.04800 23.77700 24.51100
H  -2.05000 23.74200 23.14200
H  -1.30300 23.40400 24.79700
H  -0.90300 17.35600 21.24500
H  -1.95100 14.72300 21.13000
H  -3.69900 17.93800 21.36000
H  -3.70700 16.39400 20.53300
H  -2.76600 17.84700 20.03500
H  0.32100 14.93500 20.48400
H  0.28200 13.90200 21.86700
H  1.62900 14.92000 22.90100
H  0.67000 16.51300 22.88100
H  1.94500 16.23700 21.76300
H  -2.96300 10.39200 25.00000
H  -1.51400 10.27800 25.93500
H  -1.36100 11.13800 24.50800
H  -3.87300 12.77400 30.04500
H  -0.55200 12.46100 32.90300
H  -0.74700 10.83900 32.19400
H  -1.73100 11.39600 33.51400
Mg -11.07400 40.51800 40.92600
C  -10.11700 37.14600 40.13500
C  -8.02800 41.46800 39.95400
C  -12.35000 43.59400 40.93900
C  -14.35700 39.16500 41.42300
N  -9.35100 39.35100 40.07200
C  -9.14700 38.03700 39.84500
C  -7.76400 37.74200 39.26500
C  -7.03200 39.11900 39.48400
C  -8.15400 40.03800 39.95200
C  -5.80600 39.17100 40.47800
C  -7.70700 37.26300 37.81800
C  -7.15200 35.87200 37.55800
H  -6.31500 35.78900 36.24600
N  -10.24100 42.38000 40.59900
C  -8.97500 42.51900 40.15900
C  -8.66400 43.96400 40.17000
C  -9.98600 44.59900 40.33600
C  -10.97100 43.50200 40.66400
C  -7.28000 44.59400 39.83200
C  -10.23400 46.11100 40.18000
O  -9.27500 46.71300 39.78100
C  -11.54300 46.76300 40.23200
N  -12.97900 41.22200 41.21100
C  -13.22500 42.59800 41.34800
C  -14.70800 42.91300 41.65400
C  -15.29000 41.45900 41.83800
C  -14.16900 40.54800 41.36800
C  -14.82000 43.83300 42.92000
C  -16.67700 41.27600 41.04500
C  -17.86600 40.74300 41.87900
N  -12.01400 38.56800 41.00000
C  -13.34500 38.17700 41.22400
C  -13.47600 36.74000 41.21600
C  -12.19300 36.30200 40.79700
C  -11.38100 37.41300 40.67400
C  -14.80900 35.92700 41.48500
C  -11.42400 35.15800 40.49000
O  -11.71200 33.95300 40.53000
C  -10.10600 35.68500 40.00700
C  -9.11400 34.86400 40.96000
O  -8.85700 35.03400 42.14400
O  -8.59400 33.82600 40.19200
C  -7.84600 32.86300 40.95600
H  -6.97400 41.72200 39.82200
H  -12.92200 44.52400 40.92900
H  -15.38300 38.87500 41.65800
H  -7.36100 37.02900 39.98400
H  -6.77100 39.40200 38.46400
H  -5.96000 39.89200 41.28000
H  -4.87300 39.46900 40.00000
H  -5.61700 38.19100 40.91800
H  -7.16200 37.97400 37.19700
H  -8.75000 37.26200 37.50200
H  -7.88300 35.07300 37.43800
H  -6.44000 35.65500 38.35400
H  -7.27700 44.93100 38.79600
H  -6.47800 43.89500 40.06500
H  -7.29300 45.53000 40.39100
H  -12.02500 46.48400 41.17000
H  -12.17300 46.74100 39.34300
H  -11.26200 47.79200 40.45800
H  -14.97400 43.39400 40.71200
H  -15.40000 41.07900 42.85300
H  -15.11200 43.36000 43.85700
H  -15.42900 44.72100 42.75100
H  -13.83100 44.26900 43.06400
H  -16.50500 40.61900 40.19300
H  -16.93900 42.20100 40.53100
H  -17.61200 40.17100 42.77100
H  -18.47700 40.19500 41.16100
H  -18.55000 41.54600 42.15200
H  -14.59600 34.91200 41.81900
H  -15.26800 35.65200 40.53600
H  -15.53800 36.40500 42.13900
H  -10.00500 35.36800 38.96900
H  -8.41900 32.57200 41.83600
H  -6.87800 33.25400 41.27000
H  -7.64500 32.00800 40.31000

