158

Mg 42.77700 42.17500 26.31700
C  41.64500 44.13100 28.90800
C  44.11800 39.96900 28.63100
C  43.92800 40.28700 23.76900
C  42.00000 44.71400 24.01700
N  42.85800 42.06100 28.53200
C  42.21500 42.91300 29.34400
C  42.23300 42.35300 30.82300
C  43.29300 41.22600 30.74300
C  43.50600 41.06000 29.19300
C  44.66900 41.47400 31.37200
C  40.75900 42.07400 31.34900
C  40.19600 43.02500 32.41700
H  39.71200 42.51200 33.75800
N  43.78900 40.34000 26.14500
C  44.25800 39.62300 27.21600
C  44.83300 38.40700 26.68300
C  44.70400 38.40000 25.27000
C  44.12600 39.71900 24.99600
C  45.63400 37.47900 27.59000
C  45.21700 37.47000 24.25100
O  45.34700 37.74300 23.07200
C  45.63500 36.14600 24.70200
N  43.14000 42.54900 24.17100
C  43.46000 41.54400 23.35200
C  43.35900 41.94700 21.81200
C  42.67800 43.37800 22.00700
C  42.62300 43.62100 23.50700
C  44.72200 41.93600 21.10000
C  41.37500 43.49200 21.18500
C  40.01200 43.02800 21.79800
N  42.07600 44.07600 26.36500
C  41.74000 45.03400 25.37600
C  41.03000 46.17400 25.96700
C  41.02500 45.84900 27.32000
C  41.71800 44.58800 27.54500
C  40.49500 47.39200 25.26600
C  40.56000 46.31900 28.62300
O  39.92500 47.32100 28.91000
C  40.89500 45.27800 29.69500
C  41.73900 45.84800 30.75000
O  42.93600 45.85200 30.70200
O  40.89900 46.27400 31.82300
C  41.55800 46.74700 33.07600
H  44.53500 39.30400 29.39000
H  44.27900 39.75200 22.88400
H  41.62900 45.39000 23.24400
H  42.59800 43.20700 31.39400
H  42.94800 40.21900 30.97700
H  45.31400 41.77200 30.54600
H  44.95500 40.59300 31.94700
H  44.46500 42.13200 32.21600
H  40.77300 41.13000 31.89300
H  39.96100 41.99900 30.61100
H  39.34100 43.57000 32.01700
H  40.99100 43.75300 32.58200
H  45.65400 37.82100 28.62500
H  46.61500 37.50900 27.11800
H  45.18500 36.48700 27.54400
H  44.80100 35.63400 25.18200
H  46.52800 36.32000 25.30100
H  45.83200 35.49400 23.85100
H  42.59200 41.33500 21.33700
H  43.40000 44.08900 21.60400
H  45.16400 40.94000 21.11600
H  45.33100 42.67500 21.62100
H  44.52900 42.31300 20.09500
H  41.49600 42.94500 20.25000
H  41.47400 44.53900 20.90000
H  39.35600 43.89700 21.75900
H  40.02700 42.63900 22.81600
H  39.53300 42.29300 21.15100
H  40.02400 46.88500 24.42400
H  41.35400 47.94800 24.89100
H  39.87500 47.96500 25.95600
H  39.96000 44.97700 30.16700
H  42.63400 46.78000 32.90300
H  41.21500 46.08500 33.87100
H  41.22000 47.76900 33.24400
Mg 27.13600 50.28300 25.95200
C  25.20900 51.33300 28.84400
C  29.58600 49.23900 28.19700
C  29.16400 49.90100 23.36200
C  24.75200 51.95200 24.00100
N  27.30100 50.26400 28.29800
C  26.38900 50.71200 29.25200
C  26.88000 50.41300 30.68400
C  28.26500 49.79500 30.45200
C  28.41500 49.66700 28.91000
C  29.43500 50.61100 31.05900
C  25.92900 49.56200 31.50600
C  25.61500 50.11100 32.89100
H  26.66600 49.93400 33.98100
N  28.97300 49.48200 25.77600
C  29.82400 49.16600 26.84400
C  31.08100 48.74700 26.24900
C  30.99700 48.91200 24.81100
C  29.69200 49.43700 24.57900
C  32.20700 48.25700 27.11800
C  32.02700 48.57600 23.80000
O  31.74400 48.64800 22.56800
C  33.47100 48.12900 24.14700
N  27.02000 50.95400 24.03400
C  27.90600 50.46800 23.11500
C  27.38600 50.58700 21.69600
C  25.87800 51.03100 21.92000
C  25.85200 51.35000 23.40200
C  28.17100 51.58000 20.77900
C  24.74100 50.07900 21.46700
C  23.60000 50.76400 20.66400
N  25.28200 51.37000 26.30300
C  24.46000 52.04100 25.43000
C  23.30100 52.57800 26.09600
C  23.58400 52.29000 27.42300
C  24.78500 51.60300 27.49300
C  22.17900 53.20000 25.54200
C  23.02500 52.37700 28.82200
O  21.94600 52.83700 29.14600
C  24.08400 51.79500 29.85200
C  24.51900 52.82800 30.88200
O  25.44800 53.57600 30.81000
O  23.56100 52.84400 31.85900
C  23.76200 53.71200 33.07900
H  30.24300 48.77700 28.93700
H  29.80900 49.77000 22.49100
H  23.99300 52.37800 23.34200
H  27.04400 51.31200 31.27800
H  28.39400 48.82200 30.92700
H  29.14000 51.60300 31.40100
H  30.15600 50.69400 30.24500
H  29.88900 50.03600 31.86700
H  26.38100 48.57700 31.62600
H  24.96600 49.42300 31.01500
H  24.67900 49.63000 33.17600
H  25.25200 51.13600 32.82800
H  32.94700 49.04100 27.28100
H  32.64700 47.41000 26.59000
H  31.89400 48.01200 28.13300
H  33.91300 47.72800 23.23500
H  33.43100 47.17600 24.67400
H  33.92100 48.96600 24.68100
H  27.53700 49.69000 21.09600
H  25.83300 51.93500 21.31300
H  28.78800 52.22900 21.40100
H  27.60500 52.26600 20.15000
H  28.81700 50.95200 20.16600
H  24.33300 49.59100 22.35200
H  25.23300 49.30600 20.87600
H  22.64500 50.48300 21.10900
H  23.67200 50.35200 19.65700
H  23.72000 51.84700 20.67500
H  22.47800 54.06400 24.94900
H  21.44200 53.54300 26.26800
H  21.62400 52.50800 24.90800
H  23.66900 50.97100 30.43300
H  24.23200 54.62200 32.70500
H  24.55000 53.23500 33.66200
H  22.85300 53.83400 33.66800

