158

Mg 1.88000 -1.68600 44.13400
C  5.45000 -0.96400 43.97700
C  1.40200 1.23700 42.37600
C  -1.25600 -2.68300 43.92200
C  2.85900 -4.95800 45.35800
N  3.29300 -0.11100 43.29500
C  4.66700 0.04500 43.38800
C  5.08800 1.24600 42.58600
C  3.81800 1.96400 42.23700
C  2.75800 0.95200 42.65300
C  3.67900 3.30900 43.04100
C  5.84000 0.86700 41.25500
C  7.25600 1.54000 41.14000
H  8.19200 0.89600 40.02700
N  0.25400 -0.82400 43.31700
C  0.24200 0.41400 42.62100
C  -1.15500 0.72100 42.33300
C  -1.89900 -0.45000 42.69900
C  -0.97100 -1.35300 43.39900
C  -1.59300 2.13100 41.89300
C  -3.36700 -0.64100 42.55800
O  -3.97200 0.34900 42.15800
C  -4.23500 -1.89700 42.69000
N  0.96800 -3.60500 44.48100
C  -0.38000 -3.65300 44.46400
C  -0.82800 -5.13900 44.79600
C  0.45700 -5.80600 45.22400
C  1.54900 -4.73300 44.99000
C  -2.07700 -5.20000 45.81300
C  0.91400 -7.11500 44.42400
C  1.28900 -8.25600 45.43100
N  3.74100 -2.81000 44.66300
C  3.97300 -4.10200 45.08100
C  5.43200 -4.27400 45.39000
C  5.99200 -3.01700 44.98000
C  4.96500 -2.18800 44.45100
C  6.09400 -5.52700 45.96200
C  7.30100 -2.24600 44.87000
O  8.45100 -2.63500 45.13700
C  6.94200 -0.89500 44.25300
C  7.16400 0.27400 45.19600
O  6.41900 0.72400 46.01400
O  8.37600 0.81500 44.89000
C  8.64300 2.18000 45.44100
H  1.30800 2.19800 41.86600
H  -2.32400 -2.89500 44.01100
H  3.16500 -5.92100 45.77100
H  5.82000 1.77100 43.20000
H  3.69000 2.17300 41.17500
H  4.63900 3.81900 43.11500
H  3.25600 3.11300 44.02600
H  3.00900 3.98500 42.51000
H  5.20000 1.04700 40.39100
H  5.97800 -0.21400 41.25800
H  7.69800 1.77000 42.11000
H  6.99300 2.52600 40.75800
H  -0.89300 2.79700 42.39700
H  -2.54300 2.31600 42.39400
H  -1.73100 2.24600 40.81800
H  -3.68700 -2.65400 42.12900
H  -5.27800 -1.79700 42.39100
H  -4.27500 -2.12500 43.75500
H  -1.08200 -5.47700 43.79200
H  0.47600 -5.95300 46.30300
H  -1.92200 -5.95500 46.58400
H  -2.99800 -5.47400 45.29900
H  -2.19200 -4.28200 46.38800
H  1.78200 -6.89800 43.80200
H  0.21600 -7.44500 43.65400
H  0.90000 -9.22100 45.10700
H  1.09700 -8.02900 46.48000
H  2.36900 -8.40600 45.40500
H  6.77000 -5.32600 46.79300
H  6.65100 -5.84800 45.08200
H  5.41200 -6.25000 46.40900
H  7.56300 -0.77100 43.36600
H  8.07400 3.03600 45.07900
H  9.68400 2.45600 45.27000
H  8.63900 2.20100 46.53100
Mg 48.18000 35.40700 28.06800
C  46.12100 33.67300 30.21100
C  48.39800 37.91900 30.36900
C  49.85700 37.30500 25.67000
C  47.31800 33.15200 25.53200
N  47.56700 35.65400 30.14800
C  46.76300 34.77700 30.81900
C  46.92600 35.08900 32.33300
C  47.12400 36.58600 32.28400
C  47.76400 36.73800 30.90100
C  45.94500 37.46200 32.58600
C  48.20900 34.32300 32.80100
C  47.88300 33.69200 34.15700
H  47.18000 34.60500 35.18200
N  49.09100 37.27400 28.02200
C  49.14000 38.11600 29.16200
C  50.05800 39.23500 28.82900
C  50.50900 39.01200 27.46500
C  49.83000 37.80900 26.98800
C  50.26300 40.40400 29.82300
C  51.50900 39.87800 26.71500
O  51.67800 39.77600 25.51600
C  52.37400 40.90600 27.27600
N  48.40500 35.31800 25.93500
C  49.13900 36.18300 25.17300
C  49.38300 35.73200 23.72200
C  48.82800 34.30000 23.75700
C  48.13700 34.23300 25.15000
C  48.87600 36.63600 22.51100
C  49.92800 33.21000 23.62400
C  50.25700 32.76100 22.21900
N  46.96200 33.72600 27.92500
C  46.70800 32.98100 26.80400
C  45.71500 31.95800 27.17500
C  45.39000 32.26400 28.47800
C  46.14000 33.34800 28.89300
C  45.14800 30.83700 26.37000
C  44.61700 31.85600 29.58300
O  43.79200 30.97900 29.64000
C  45.00900 32.75900 30.82800
C  45.38000 32.03600 32.11900
O  46.25100 31.22600 32.30200
O  44.37000 32.34000 33.03400
C  44.35400 31.64400 34.32100
H  48.44400 38.75600 31.07000
H  50.43500 37.84600 24.91800
H  47.07000 32.32600 24.86200
H  46.05200 34.79800 32.91600
H  47.84400 36.92000 33.03100
H  45.64500 38.07100 31.73400
H  46.11100 38.10900 33.44800
H  45.06400 36.85600 32.79400
H  49.09100 34.95100 32.92400
H  48.41000 33.46300 32.16200
H  48.82800 33.24500 34.46500
H  47.22600 32.83100 34.03000
H  50.43600 41.31500 29.25000
H  51.16000 40.19100 30.40400
H  49.37400 40.59100 30.42600
H  53.33800 40.97400 26.77200
H  52.69100 40.85900 28.31800
H  51.86200 41.86700 27.25300
H  50.46900 35.65000 23.68000
H  47.99000 34.29100 23.06000
H  48.21600 37.33300 23.02700
H  48.21500 36.07300 21.85200
H  49.63100 37.21500 21.98100
H  49.63500 32.42000 24.31600
H  50.89400 33.49800 24.04000
H  51.29100 32.93200 21.92000
H  49.55300 33.20600 21.51600
H  50.07000 31.68800 22.16700
H  45.92400 30.37200 25.76100
H  44.42400 31.28600 25.68900
H  44.55800 30.01800 26.77900
H  44.18800 33.43700 31.05800
H  45.00800 30.77200 34.31900
H  43.32600 31.35000 34.53400
H  44.63000 32.32000 35.13000

