158

Mg 25.51400 1.66800 29.73000
C  27.53600 1.74100 32.53000
C  22.74800 2.04700 31.80000
C  23.54500 1.83900 26.97100
C  28.25000 1.00300 27.72600
N  25.24100 1.82700 32.01700
C  26.20600 1.89700 32.94400
C  25.64700 2.02500 34.33100
C  24.05700 1.98600 34.10300
C  23.96600 1.91500 32.56300
C  23.42500 0.73500 34.82700
C  26.17500 3.38000 35.02200
C  26.89900 3.19000 36.40500
H  26.29800 4.10400 37.59800
N  23.46200 1.95800 29.39700
C  22.47500 2.08100 30.42300
C  21.17500 2.13100 29.76500
C  21.39600 2.00200 28.36800
C  22.87000 1.88300 28.17900
C  19.88700 2.30600 30.46500
C  20.33200 1.78900 27.32100
O  20.58800 1.54700 26.18300
C  18.89500 1.82000 27.65300
N  25.78300 1.39700 27.62800
C  24.87400 1.65700 26.65000
C  25.47300 1.69300 25.26500
C  26.98100 1.67100 25.55400
C  27.08700 1.27700 27.05200
C  24.94300 0.62100 24.28400
C  27.75100 2.92200 25.25100
C  27.46300 4.17100 26.09300
N  27.51500 1.37800 30.02500
C  28.47900 1.03400 29.11300
C  29.72400 0.85700 29.76900
C  29.45700 1.13300 31.14500
C  28.00900 1.41300 31.25400
C  31.14200 0.49400 29.14300
C  30.01900 1.27000 32.54600
O  31.18300 1.18400 32.91300
C  28.75800 1.57200 33.42500
C  28.70200 0.36400 34.27600
O  28.04100 -0.60300 34.11800
O  29.36400 0.70300 35.37400
C  29.46900 -0.31900 36.42700
H  21.85500 2.28800 32.38200
H  22.90600 1.94600 26.09200
H  29.05000 0.75400 27.02500
H  26.06700 1.17600 34.87000
H  23.55300 2.84600 34.54300
H  24.00600 -0.16800 35.01700
H  22.72900 0.38300 34.06500
H  22.66600 0.97200 35.57300
H  25.28300 3.97400 35.21900
H  26.82100 4.03000 34.43200
H  27.98100 3.28300 36.30900
H  26.59400 2.20700 36.76300
H  19.37900 3.23500 30.20400
H  20.12200 2.29500 31.53000
H  19.14100 1.51800 30.36300
H  18.61200 2.81800 27.98700
H  18.44600 0.98900 28.19700
H  18.37300 1.62400 26.71700
H  25.24100 2.68600 24.87900
H  27.45600 0.88900 24.96300
H  25.71200 -0.11100 24.03900
H  24.75700 1.13600 23.34200
H  23.97900 0.17000 24.51900
H  27.56700 3.10200 24.19200
H  28.79000 2.59100 25.25800
H  27.95800 3.98600 27.04600
H  26.37700 4.26300 26.09800
H  27.79600 5.07700 25.58500
H  31.93400 0.55600 29.89000
H  31.49600 1.11000 28.31700
H  31.07000 -0.54900 28.83300
H  28.83400 2.48600 34.01300
H  28.57400 -0.06100 36.99200
H  30.38700 -0.24300 37.00900
H  29.42000 -1.34800 36.07100
Mg 30.46200 58.12900 39.26000
C  27.82200 56.09100 38.03600
C  32.70000 55.58000 38.42000
C  33.07300 60.35600 39.43800
C  28.14900 60.75900 39.54000
N  30.24500 56.07000 38.34800
C  29.08500 55.49400 37.94700
C  29.36000 54.03800 37.60700
C  30.85700 53.76800 37.92300
C  31.32100 55.19900 38.35100
C  31.17100 52.74200 39.06800
C  28.90100 53.69000 36.23300
C  29.53000 54.48400 35.05800
H  28.62600 55.46600 34.21500
N  32.61700 57.96200 38.95300
C  33.32600 56.76800 38.74700
C  34.77600 57.09400 38.72200
C  34.89100 58.48500 38.99800
C  33.48500 59.00900 39.14500
C  35.91400 56.08000 38.55000
C  36.16700 59.25500 38.94500
O  37.25400 58.64200 38.82700
C  36.21800 60.83100 38.88300
N  30.58300 60.28300 39.18600
C  31.77500 60.91500 39.52500
C  31.54300 62.48000 39.58600
C  30.01300 62.52600 39.63000
C  29.50400 61.06100 39.48400
C  32.26600 63.30300 40.68100
C  29.26300 63.42800 38.57000
C  28.60600 64.68400 39.18300
N  28.34900 58.37400 39.06600
C  27.58600 59.47400 39.23100
C  26.18400 59.08900 39.06000
C  26.18400 57.78600 38.58300
C  27.55500 57.40200 38.51100
C  24.98200 59.91800 39.31200
C  25.35100 56.66600 38.17000
O  24.14200 56.55700 38.03900
C  26.44200 55.54900 37.70100
C  26.10500 54.37900 38.51400
O  26.50700 54.06900 39.63400
O  25.25200 53.59200 37.73000
C  24.54600 52.50100 38.37000
H  33.42300 54.80600 38.15300
H  33.83300 61.09800 39.69000
H  27.39700 61.55100 39.57300
H  28.83500 53.37200 38.29200
H  31.43600 53.32500 37.11400
H  30.51600 52.71700 39.93900
H  32.17800 52.93400 39.43600
H  31.22700 51.76600 38.58700
H  27.82700 53.73400 36.05200
H  29.12100 52.62700 36.13400
H  29.91300 53.77600 34.32400
H  30.41700 55.03900 35.36400
H  36.85300 56.35400 39.03200
H  36.07800 56.03200 37.47300
H  35.65600 55.08700 38.92000
H  37.14000 61.15300 38.39700
H  36.01200 61.17800 39.89500
H  35.39300 61.07800 38.21500
H  31.91900 62.92800 38.66600
H  29.81800 62.82100 40.66100
H  33.01700 63.93800 40.21000
H  32.98700 62.69200 41.22500
H  31.61700 63.88000 41.33900
H  28.41900 62.87800 38.15500
H  30.00200 63.86700 37.89900
H  29.10500 65.52200 38.69800
H  28.73900 64.72800 40.26400
H  27.52500 64.63700 39.04300
H  24.49800 59.61600 40.24000
H  24.16200 59.78700 38.60600
H  25.25200 60.96500 39.45400
H  26.32600 55.27900 36.65100
H  23.59600 52.44000 37.83900
H  24.33700 52.48800 39.44000
H  25.10800 51.58000 38.21300

