158

Mg 8.98900 2.62000 26.92800
C  10.52000 1.00700 29.70400
C  7.07500 4.49800 29.23700
C  7.68000 4.22900 24.38900
C  10.59900 0.44300 24.81800
N  8.79500 2.66600 29.25800
C  9.60600 1.99000 30.12600
C  9.23000 2.33400 31.58000
C  8.13300 3.55000 31.42100
C  7.86900 3.53600 29.89500
C  6.84600 3.41800 32.26400
C  10.46100 2.76200 32.42500
C  10.32900 3.79200 33.55300
H  11.33800 3.65100 34.70900
N  7.61100 4.20000 26.83200
C  7.04800 4.80800 27.86600
C  6.43500 6.03500 27.36600
C  6.51200 6.04900 25.93900
C  7.23100 4.78700 25.64000
C  5.70200 6.95800 28.36800
C  5.93400 6.96900 24.84800
O  6.12800 6.75300 23.66800
C  5.20300 8.21400 25.21900
N  9.01100 2.26600 24.88400
C  8.35700 3.05100 24.01200
C  8.58800 2.60000 22.53100
C  9.75500 1.58200 22.74900
C  9.71800 1.31000 24.22200
C  7.36700 2.05600 21.77600
C  11.18400 1.98600 22.24300
C  11.28600 2.11300 20.65900
N  10.21400 0.94000 27.19900
C  10.77400 0.13900 26.19000
C  11.65700 -0.72800 26.81800
C  11.56700 -0.43800 28.22500
C  10.66200 0.61500 28.38900
C  12.45500 -1.67200 26.13000
C  12.00000 -0.85800 29.57600
O  12.77800 -1.73900 29.88900
C  11.45000 0.14300 30.50400
C  10.77700 -0.64700 31.56400
O  9.71200 -1.25800 31.46900
O  11.64700 -0.63800 32.68800
C  11.00200 -0.94400 33.98300
H  6.53500 5.14200 29.93500
H  7.40500 4.88300 23.55900
H  11.07700 -0.24400 24.11600
H  8.77200 1.45400 32.03000
H  8.57100 4.51200 31.68700
H  6.88000 2.52700 32.88900
H  5.96800 3.47700 31.62000
H  6.74000 4.33300 32.84800
H  11.27400 2.93100 31.71900
H  10.77500 1.82100 32.87600
H  9.31700 3.79800 33.95700
H  10.70500 4.77200 33.25700
H  6.34300 7.29400 29.18300
H  4.77800 6.57900 28.80600
H  5.63100 7.89800 27.82100
H  4.96500 8.67800 24.26200
H  5.94600 8.78100 25.78000
H  4.31200 7.97700 25.80200
H  8.98400 3.45900 21.98900
H  9.58900 0.66600 22.18100
H  6.57000 2.02700 22.51900
H  7.63400 1.16200 21.21400
H  7.09300 2.74800 20.98000
H  11.92700 1.26300 22.57800
H  11.45200 2.96500 22.63900
H  10.37700 1.97800 20.07300
H  11.90500 1.28300 20.31600
H  11.74900 3.03700 20.31300
H  13.34200 -2.01900 26.66000
H  12.77600 -1.35700 25.13700
H  11.94100 -2.61600 25.94900
H  12.22900 0.76100 30.95000
H  10.59400 -1.94700 33.85900
H  10.15000 -0.28700 34.15800
H  11.85700 -0.78000 34.63900
Mg -12.65400 38.89800 42.87600
C  -10.87400 35.92100 41.87600
C  -10.32800 40.72300 41.05800
C  -14.49800 41.56900 43.51600
C  -15.33100 36.76200 43.77500
N  -10.67200 38.33800 41.66000
C  -10.19400 37.07500 41.42400
C  -8.95600 37.20800 40.54300
C  -8.73800 38.72700 40.39400
C  -9.97400 39.31500 41.09700
C  -7.40900 39.21500 41.04400
C  -9.07500 36.64000 39.12800
C  -7.75000 36.15500 38.56100
H  -7.00300 36.95700 37.49000
N  -12.42100 40.83900 42.46500
C  -11.40300 41.40000 41.74500
C  -11.60400 42.81600 41.58900
C  -12.77000 43.12500 42.32200
C  -13.30400 41.85600 42.79500
C  -10.60400 43.66300 40.83800
C  -13.27300 44.52700 42.53500
O  -12.73600 45.49500 41.97200
C  -14.43000 44.67000 43.47500
N  -14.65700 39.09500 43.54300
C  -15.12800 40.34000 43.79000
C  -16.57800 40.23100 44.24100
C  -16.99100 38.72400 44.15100
C  -15.53000 38.14200 43.86300
C  -16.82100 40.79500 45.71100
C  -17.95900 38.33900 43.01300
C  -19.38300 38.68500 43.31300
N  -13.02100 36.70600 42.97900
C  -14.15900 36.11400 43.35400
C  -13.87600 34.63900 43.28900
C  -12.61300 34.54200 42.69200
C  -12.14600 35.87200 42.46600
C  -14.67000 33.39100 43.74100
C  -11.61700 33.63300 42.19200
O  -11.61800 32.41400 42.05800
C  -10.42300 34.49600 41.64900
C  -9.14200 34.13500 42.36400
O  -9.00900 34.25200 43.57800
O  -8.21500 33.74300 41.50000
C  -6.89000 33.72300 42.11500
H  -9.69200 41.29000 40.37400
H  -15.04200 42.45500 43.84800
H  -16.23000 36.14900 43.86300
H  -8.07400 36.77600 41.01500
H  -8.65300 39.06800 39.36200
H  -6.94800 38.50600 41.73100
H  -7.64300 40.07900 41.66600
H  -6.61900 39.49600 40.34800
H  -9.08900 37.38300 38.33100
H  -9.86000 35.89100 39.02300
H  -7.87300 35.11600 38.25400
H  -6.99300 36.13500 39.34400
H  -10.71400 44.73000 41.03000
H  -10.65100 43.49300 39.76200
H  -9.59600 43.49800 41.22000
H  -14.19000 44.38100 44.49800
H  -15.35600 44.26000 43.07300
H  -14.42800 45.76000 43.44500
H  -17.08900 40.82000 43.48000
H  -17.26900 38.30000 45.11600
H  -17.61500 41.53900 45.64500
H  -15.91700 41.23100 46.13600
H  -17.26400 40.06000 46.38300
H  -17.86100 37.26200 42.87300
H  -17.64600 38.89800 42.13100
H  -19.93500 37.75500 43.44400
H  -19.82200 39.30200 42.52900
H  -19.53500 39.34500 44.16700
H  -15.12400 32.90400 42.87800
H  -15.46700 33.71000 44.41200
H  -13.95100 32.72700 44.22100
H  -10.28600 34.36700 40.57500
H  -6.78200 32.99900 42.92300
H  -6.75300 34.71500 42.54600
H  -6.18000 33.51200 41.31500

