158

Mg 42.26500 41.41600 26.98300
C  41.40300 43.64200 29.53800
C  42.67700 38.88300 29.20900
C  43.13800 39.58000 24.41800
C  41.51000 44.17900 24.71900
N  41.94100 41.22200 29.08200
C  41.66600 42.27600 29.99200
C  41.68200 41.80900 31.42000
C  42.01100 40.26800 31.29800
C  42.24800 40.08200 29.77800
C  43.29800 39.90600 32.11800
C  40.35200 41.99000 32.24800
C  40.44000 42.40500 33.68100
H  39.34400 41.99300 34.71600
N  42.94900 39.55500 26.84600
C  42.97600 38.61900 27.80800
C  43.37500 37.35400 27.30000
C  43.56900 37.49900 25.89700
C  43.22400 38.95500 25.62400
C  43.48400 36.17100 28.16900
C  44.03800 36.52100 24.89800
O  44.22200 36.76300 23.66100
C  44.28600 35.16200 25.41700
N  42.40000 41.92700 24.91200
C  42.71700 40.91000 24.10800
C  42.60200 41.36400 22.66600
C  41.79800 42.74800 22.77200
C  41.86600 42.96300 24.20100
C  43.97100 41.56300 22.05400
C  40.35300 42.78700 22.19400
C  39.35100 41.91200 22.87400
N  41.81400 43.52200 27.06700
C  41.61500 44.46600 26.08100
C  41.28100 45.76000 26.67900
C  41.18000 45.51200 28.04800
C  41.49900 44.11500 28.21400
C  41.15600 47.05200 25.97300
C  40.83300 46.03700 29.30300
O  40.44800 47.16100 29.65200
C  40.99000 44.89800 30.35400
C  41.98700 45.36500 31.38700
O  43.19500 45.05100 31.39100
O  41.22000 45.89200 32.46100
C  42.03200 46.09100 33.69300
H  42.83300 38.18400 30.03300
H  43.27900 39.05700 23.47000
H  41.13700 44.92000 24.00900
H  42.49800 42.42100 31.80600
H  41.21500 39.65600 31.72300
H  43.54400 40.80500 32.68300
H  44.04100 39.54900 31.40600
H  43.25500 39.06800 32.81400
H  39.85000 41.02500 32.32300
H  39.69900 42.63800 31.66400
H  40.59600 43.47600 33.55100
H  41.36600 41.98800 34.07700
H  44.51400 35.81700 28.14000
H  42.76800 35.45100 27.77100
H  43.32400 36.27500 29.24200
H  44.97000 35.08600 26.26200
H  44.55700 34.47600 24.61500
H  43.30700 34.90400 25.82200
H  42.04400 40.59000 22.13900
H  42.30000 43.54800 22.22800
H  44.73900 40.93200 22.50200
H  44.20200 42.60100 22.29600
H  43.88400 41.45700 20.97300
H  40.38800 42.52900 21.13500
H  40.00000 43.81700 22.16500
H  39.76300 41.46300 23.77800
H  38.98100 41.11400 22.23000
H  38.49500 42.50400 23.19800
H  40.11200 47.34700 25.87100
H  41.49000 47.13900 24.93900
H  41.69400 47.83900 26.50100
H  40.01000 44.63000 30.74900
H  42.99900 46.52800 33.44500
H  42.23000 45.10600 34.11600
H  41.56800 46.75300 34.42400
Mg 6.06800 54.24500 40.58300
C  5.23700 50.88100 40.29000
C  9.43100 53.42800 39.93800
C  6.73900 57.45400 40.12000
C  2.69300 54.96500 40.87000
N  7.09200 52.43600 40.01800
C  6.56800 51.12900 39.89600
C  7.68900 50.14300 39.62200
C  9.05400 50.94500 39.78900
C  8.49400 52.35700 39.98100
C  10.01600 50.48500 40.92700
C  7.53500 49.26000 38.35200
C  7.54800 50.03200 36.93900
H  6.55500 49.57200 35.86500
N  7.89100 55.25600 40.24000
C  9.12000 54.77200 39.97000
C  10.02000 55.88700 39.83600
C  9.35600 57.12200 40.10600
C  7.93500 56.66800 40.18000
C  11.56300 55.44900 39.50700
C  9.97000 58.52600 40.19300
O  11.21000 58.67300 39.97200
C  9.15800 59.71600 40.53800
N  4.88600 55.89600 40.35100
C  5.41600 57.14800 40.22500
C  4.30400 58.23000 40.13300
C  3.06700 57.43300 40.46200
C  3.56200 56.00500 40.58900
C  4.49500 59.44000 41.08600
C  1.87800 57.74600 39.46200
C  0.52400 58.25600 40.07400
N  4.23100 53.18700 40.65100
C  2.91500 53.62600 40.84700
C  2.09700 52.48800 41.06700
C  2.99300 51.41500 40.85700
C  4.25300 51.83900 40.62300
C  0.59200 52.34900 41.35400
C  2.92600 49.94200 40.79200
O  1.99500 49.11400 40.86600
C  4.47100 49.53200 40.50700
C  4.36500 48.56200 39.40200
O  3.90100 48.67000 38.26500
O  4.73500 47.36300 39.97400
C  4.42500 46.11600 39.25700
H  10.42700 52.99000 39.84300
H  6.97500 58.51000 39.97300
H  1.68100 55.25800 41.15800
H  7.71800 49.45200 40.46500
H  9.53000 50.84100 38.81400
H  10.93400 50.04600 40.53700
H  9.65700 49.72400 41.62000
H  10.27800 51.41700 41.42900
H  6.78000 48.47600 38.40600
H  8.46600 48.69900 38.42100
H  8.55700 49.89900 36.55000
H  7.43800 51.10400 37.10600
H  12.08300 55.03800 40.37200
H  12.23800 56.20400 39.10300
H  11.47600 54.65500 38.76600
H  8.63000 60.10200 39.66600
H  9.87700 60.46500 40.86800
H  8.46900 59.48700 41.35100
H  4.40100 58.55400 39.09700
H  2.61700 57.75400 41.40100
H  5.12500 60.19600 40.61700
H  5.02900 59.06800 41.96000
H  3.55600 59.94400 41.31400
H  1.66900 56.85200 38.87300
H  2.15900 58.51600 38.74300
H  -0.23600 57.48600 39.93500
H  0.12800 59.18100 39.65500
H  0.63800 58.45300 41.14000
H  -0.10100 53.08500 40.94600
H  0.47400 52.31200 42.43700
H  0.32600 51.45200 40.79500
H  4.75800 49.00300 41.41500
H  4.65200 45.18600 39.77800
H  4.81700 46.24600 38.24800
H  3.34300 46.03100 39.15700

