158

Mg 48.65000 34.48500 27.53400
C  46.74100 33.09000 29.98100
C  48.86400 37.36100 29.58100
C  50.25800 36.13300 25.07800
C  48.23800 31.76500 25.49400
N  47.83400 35.11900 29.48400
C  47.20500 34.33100 30.34900
C  47.25100 34.90000 31.79500
C  47.59000 36.43000 31.46700
C  48.18300 36.27900 30.09700
C  46.40500 37.47900 31.66800
C  48.35500 34.19100 32.55500
C  48.20000 34.03000 34.10700
H  49.00100 35.07000 34.90200
N  49.59100 36.33400 27.38400
C  49.59900 37.38900 28.33600
C  50.43800 38.50300 27.82200
C  50.86700 38.05900 26.53900
C  50.20900 36.81300 26.26200
C  50.70200 39.74600 28.68000
C  51.80800 38.75900 25.54800
O  52.28100 38.27900 24.48600
C  52.25400 40.26600 25.77600
N  49.10800 34.04900 25.50800
C  49.76200 34.85900 24.74500
C  49.88200 34.27300 23.30500
C  49.56300 32.76300 23.58400
C  48.94600 32.81200 24.91600
C  48.93800 34.94100 22.20200
C  50.75000 31.78300 23.56500
C  51.17500 31.34200 22.19800
N  47.63600 32.75500 27.61500
C  47.56900 31.62200 26.76100
C  46.72800 30.60000 27.36500
C  46.34200 31.15300 28.59300
C  47.04200 32.42200 28.73500
C  46.54500 29.23400 26.85400
C  45.58700 30.86600 29.82100
O  44.97200 29.88900 30.18400
C  45.75400 32.14800 30.69000
C  46.10200 31.75800 32.05600
O  47.16200 31.33700 32.51000
O  45.03600 32.12700 32.89100
C  45.01900 32.03900 34.35000
H  48.84000 38.29700 30.14300
H  50.72900 36.56900 24.19500
H  48.25500 30.82200 24.94200
H  46.36100 34.92500 32.42300
H  48.29400 36.74600 32.23700
H  46.70300 38.50200 31.89600
H  45.60100 37.25700 32.36900
H  45.95000 37.60500 30.68500
H  49.34800 34.49800 32.22800
H  48.51400 33.16900 32.21100
H  48.43300 33.07200 34.57200
H  47.17200 34.27300 34.37300
H  50.14000 40.61600 28.33900
H  51.78400 39.86800 28.71900
H  50.39700 39.61900 29.71800
H  52.70500 40.40400 26.75900
H  51.32900 40.84100 25.73100
H  52.97000 40.47800 24.98200
H  50.87400 34.39500 22.86900
H  48.85700 32.48600 22.80100
H  48.40600 34.20000 21.60500
H  49.49400 35.58900 21.52300
H  48.12200 35.45200 22.71200
H  50.49100 30.83500 24.03700
H  51.62600 32.26400 23.99900
H  52.18900 31.59800 21.88800
H  50.63400 31.94300 21.46700
H  51.03500 30.27800 22.01100
H  45.48700 28.99300 26.74700
H  46.94700 28.58700 27.63400
H  47.05600 28.90200 25.95000
H  44.77800 32.63200 30.71300
H  45.40600 31.09300 34.72800
H  43.97100 32.00400 34.64700
H  45.51000 32.82000 34.93100
Mg -13.10000 16.13400 41.41700
C  -10.24200 14.57300 40.56400
C  -12.19500 18.85300 39.65900
C  -16.27900 17.42600 41.70400
C  -14.49600 13.01700 42.39200
N  -11.34000 16.69600 40.45900
C  -10.32000 15.93700 40.13300
C  -9.20900 16.65800 39.42800
C  -9.83800 18.14400 39.20000
C  -11.22100 17.93000 39.82000
C  -9.02300 19.26700 39.91700
C  -8.56800 15.83300 38.20900
C  -7.15100 15.53100 38.20800
H  -6.15700 16.13500 37.21800
N  -14.05600 17.84700 40.74400
C  -13.48900 18.86200 40.12300
C  -14.38200 19.98900 39.98700
C  -15.51000 19.65400 40.72600
C  -15.29600 18.24200 41.07300
C  -14.05700 21.32800 39.28600
C  -16.67200 20.66000 41.00000
O  -16.65900 21.83200 40.71600
C  -17.88000 20.27300 41.78900
N  -15.11600 15.33300 42.08700
C  -16.23800 16.08500 42.00600
C  -17.52200 15.21600 42.36900
C  -16.88000 13.87200 42.31600
C  -15.41000 14.05400 42.28000
C  -18.01000 15.63100 43.82700
C  -17.38900 13.13400 41.02600
C  -18.19200 11.83800 41.24400
N  -12.50600 14.13400 41.60000
C  -13.16800 13.01400 42.01900
C  -12.31700 11.87600 41.93400
C  -11.08600 12.46500 41.39800
C  -11.33400 13.83200 41.20800
C  -12.60800 10.47500 42.36800
C  -9.64600 12.22200 40.99900
O  -8.97900 11.21500 40.95500
C  -9.02700 13.57000 40.50000
C  -7.86600 13.87800 41.38400
O  -7.84300 14.68700 42.34200
O  -6.67700 13.19500 41.00900
C  -5.45700 13.60200 41.82100
H  -11.96100 19.83800 39.25000
H  -17.26600 17.88200 41.60800
H  -15.07500 12.10000 42.52400
H  -8.38000 16.81000 40.12000
H  -9.96700 18.30800 38.13000
H  -9.52000 19.51800 40.85400
H  -9.08200 20.20300 39.36200
H  -7.96600 19.06000 40.08700
H  -8.75300 16.52600 37.38800
H  -9.17600 14.98100 37.90700
H  -7.11100 14.45600 38.03200
H  -6.90100 15.54400 39.26800
H  -13.29200 21.16600 38.52700
H  -13.71500 22.09600 39.98000
H  -14.89500 21.83500 38.80800
H  -18.53300 19.61300 41.21800
H  -18.53100 21.09200 42.09400
H  -17.61100 19.79400 42.73100
H  -18.30500 15.34100 41.62100
H  -17.05300 13.33900 43.25000
H  -17.68200 16.67000 43.85100
H  -17.64400 15.09300 44.70100
H  -19.09600 15.67300 43.92000
H  -16.50600 12.84800 40.45500
H  -17.94900 13.85800 40.43500
H  -17.90700 11.13700 40.45900
H  -19.24300 12.12200 41.19900
H  -17.92900 11.43800 42.22400
H  -13.65900 10.36600 42.63700
H  -11.89500 10.22900 43.15600
H  -12.52200 9.90200 41.44500
H  -8.76600 13.32600 39.47100
H  -4.59200 13.60300 41.15800
H  -5.18400 12.94400 42.64600
H  -5.54700 14.53800 42.37300

