158

Mg 26.77000 49.47600 25.70300
C  24.80000 50.58700 28.25400
C  29.08900 48.59900 27.99900
C  28.88300 48.80300 23.17300
C  24.46400 50.75500 23.43000
N  26.87700 49.65500 27.88900
C  25.97400 50.09300 28.76200
C  26.33200 49.72000 30.19100
C  27.83600 49.48400 30.03600
C  27.95100 49.16400 28.52400
C  28.79100 50.58600 30.46100
C  25.45400 48.59400 30.92300
C  24.85900 48.84100 32.34700
H  25.76600 49.52700 33.39600
N  28.71500 48.72200 25.62300
C  29.54100 48.38900 26.71900
C  30.79600 47.75600 26.25000
C  30.81700 47.83300 24.80000
C  29.47000 48.42000 24.42800
C  31.95200 47.26200 27.10500
C  31.90900 47.54700 23.76900
O  31.67900 47.79100 22.60200
C  33.21500 46.96900 24.28500
N  26.69700 49.74600 23.59400
C  27.69300 49.43200 22.76500
C  27.30500 49.63400 21.28800
C  25.84700 50.17800 21.37500
C  25.59800 50.18100 22.89700
C  28.29300 50.49200 20.43900
C  24.65800 49.41500 20.62400
C  24.00100 50.01500 19.40400
N  25.03700 50.53500 25.81000
C  24.17700 50.97300 24.76500
C  23.07500 51.70000 25.33300
C  23.27500 51.53400 26.74400
C  24.45700 50.78100 26.92800
C  21.92200 52.23000 24.59500
C  22.61900 51.80300 28.02400
O  21.57800 52.39000 28.33100
C  23.62900 51.15800 29.01800
C  23.97400 52.14400 30.11900
O  24.37300 53.27900 29.81300
O  23.89200 51.54700 31.40000
C  24.27400 52.35400 32.55800
H  29.83000 48.31200 28.74700
H  29.47700 48.64100 22.27100
H  23.78500 51.30600 22.77600
H  26.31000 50.68200 30.70300
H  28.07200 48.58500 30.60700
H  29.31900 51.01200 29.60900
H  29.61600 50.06700 30.95000
H  28.23900 51.37600 30.97100
H  26.01400 47.65900 30.89700
H  24.59300 48.36900 30.29500
H  24.79900 47.78200 32.59900
H  23.88400 49.31900 32.25800
H  31.85100 46.18400 26.97700
H  31.75600 47.62700 28.11200
H  32.95100 47.62000 26.85300
H  33.05300 46.03000 24.81500
H  33.76900 47.70600 24.86700
H  33.95200 46.65400 23.54600
H  27.28900 48.62100 20.88500
H  25.77800 51.20900 21.02700
H  29.17400 50.85700 20.96900
H  27.75100 51.40300 20.18600
H  28.57300 49.92800 19.54900
H  23.89000 49.28100 21.38500
H  25.00800 48.41200 20.38000
H  24.12000 49.25900 18.62700
H  24.50800 50.94100 19.13300
H  22.97000 50.17200 19.72000
H  21.63600 51.69600 23.68900
H  22.15800 53.26300 24.34100
H  21.00700 52.25800 25.18600
H  23.07900 50.36900 29.53100
H  24.16200 51.65400 33.38500
H  23.51500 53.13600 32.52600
H  25.29400 52.73800 32.55400
Mg -11.68400 39.29400 41.82300
C  -10.38300 36.09500 40.89700
C  -9.09300 40.77200 40.19200
C  -13.36100 42.14400 42.13600
C  -14.61600 37.57100 42.94700
N  -9.95100 38.44000 40.65500
C  -9.61400 37.10600 40.36500
C  -8.33700 37.04500 39.52000
C  -7.89000 38.53400 39.55300
C  -9.02200 39.29700 40.17900
C  -6.65100 38.65500 40.51100
C  -8.63800 36.47800 38.13600
C  -7.66900 35.45100 37.47600
H  -6.94200 35.88100 36.16100
N  -11.30000 41.26900 41.34600
C  -10.18800 41.68100 40.58800
C  -10.27400 43.12100 40.39500
C  -11.46600 43.55900 41.02100
C  -12.13100 42.31600 41.55500
C  -9.20800 44.00700 39.76600
C  -11.88300 44.99900 41.19600
O  -11.14600 45.93000 40.91100
C  -13.27100 45.31800 41.77100
N  -13.87100 39.72700 42.18900
C  -14.11900 41.01600 42.52800
C  -15.62500 41.12100 42.95400
C  -16.08700 39.69700 43.13000
C  -14.83600 38.91400 42.72400
C  -15.77400 42.01400 44.23500
C  -17.27600 39.29900 42.19100
C  -18.49500 40.17300 42.33400
N  -12.39300 37.26700 41.90000
C  -13.53000 36.71500 42.50100
C  -13.39300 35.32300 42.73500
C  -12.20400 35.01800 42.12100
C  -11.62500 36.20200 41.58900
C  -14.36800 34.40900 43.56300
C  -11.30900 33.93800 41.70400
O  -11.34800 32.75200 41.85800
C  -10.21900 34.58200 40.81600
C  -8.91600 34.14600 41.34400
O  -8.44100 33.08400 40.92600
O  -8.27100 35.00300 42.19200
C  -7.05800 34.40100 42.71600
H  -8.30500 41.31500 39.66600
H  -13.97600 43.03900 42.25400
H  -15.45900 37.08700 43.44400
H  -7.72300 36.37600 40.12200
H  -7.61900 38.87400 38.55400
H  -6.08500 37.75500 40.75100
H  -6.88400 39.17500 41.44000
H  -5.91900 39.22000 39.93400
H  -8.64400 37.33000 37.45700
H  -9.63400 36.04400 38.05100
H  -8.08300 34.49300 37.16000
H  -6.87800 35.12400 38.15200
H  -9.72400 44.76100 39.17200
H  -8.53800 43.35700 39.20200
H  -8.59700 44.60600 40.44200
H  -14.06200 44.80200 41.22700
H  -13.35300 46.40300 41.83300
H  -13.23400 45.02600 42.82000
H  -16.28500 41.59500 42.22800
H  -16.43200 39.53600 44.15200
H  -15.58600 43.04200 43.92700
H  -14.96700 41.85200 44.94900
H  -16.74300 42.08500 44.72900
H  -17.51400 38.25700 42.40500
H  -16.96700 39.29600 41.14600
H  -18.32700 40.97100 43.05800
H  -19.31900 39.58900 42.74400
H  -18.87500 40.64400 41.42600
H  -15.36000 34.63900 43.17400
H  -14.31800 34.57500 44.63900
H  -14.30800 33.36500 43.25600
H  -10.33000 34.39400 39.74800
H  -6.89300 35.04300 43.58100
H  -6.23000 34.37800 42.00700
H  -7.19500 33.37600 43.06300

