158

Mg 43.80400 3.33800 47.10700
C  41.83600 6.31100 46.86300
C  40.71300 1.60800 46.83600
C  45.49500 0.80100 46.72100
C  46.69700 5.50200 46.69400
N  41.51200 3.99700 46.97500
C  40.99800 5.28800 46.97500
C  39.46500 5.23100 47.11600
C  39.16800 3.61900 47.30300
C  40.54500 3.02300 47.11200
C  38.57500 3.18700 48.64600
C  38.69000 5.92900 45.95200
C  39.36300 6.09100 44.55800
H  38.78100 5.35700 43.34900
N  43.18300 1.47900 46.64800
C  41.93700 0.91500 46.65600
C  42.12400 -0.49500 46.35100
C  43.49500 -0.74800 46.20400
C  44.14200 0.50900 46.50600
C  40.93200 -1.35000 46.00600
C  43.97100 -2.13000 45.85700
O  43.18200 -3.07800 45.70000
C  45.42500 -2.39300 45.80500
N  45.76000 3.22200 46.80200
C  46.25000 1.99800 46.79200
C  47.76400 1.94900 47.13200
C  48.15600 3.44700 46.53000
C  46.81200 4.12500 46.69600
C  48.02600 1.86700 48.64100
C  48.65400 3.42700 45.00800
C  50.18100 3.58700 44.67500
N  44.26200 5.45500 47.05100
C  45.43900 6.16600 46.75400
C  45.26300 7.54000 46.65100
C  43.84200 7.65300 46.75600
C  43.27800 6.35300 46.91900
C  46.28400 8.56500 46.42600
C  42.73300 8.62800 46.70300
O  42.79800 9.85600 46.51400
C  41.38700 7.76800 46.78500
C  40.74600 8.19100 48.07200
O  41.21700 8.13100 49.16400
O  39.54400 8.86800 47.81600
C  38.76000 9.62000 48.89500
H  39.79400 1.02500 46.75200
H  46.07900 -0.10300 46.90700
H  47.63900 6.04500 46.59300
H  39.21700 5.70800 48.06500
H  38.48800 3.24300 46.54000
H  38.05300 3.95900 49.21200
H  39.37200 2.85400 49.31100
H  37.92100 2.36000 48.37100
H  38.40100 6.95800 46.16300
H  37.77900 5.36200 45.76000
H  40.41500 5.84200 44.70200
H  39.41200 7.15600 44.32900
H  41.22400 -1.79700 45.05600
H  40.04000 -0.78100 45.74100
H  40.76300 -2.08000 46.79700
H  45.97700 -2.41500 46.74500
H  45.74500 -1.46900 45.32300
H  45.72000 -3.31100 45.29500
H  48.26100 1.16500 46.56100
H  48.88200 3.93700 47.17900
H  48.31500 2.85200 49.00700
H  48.74800 1.06400 48.79100
H  47.08700 1.54100 49.08900
H  48.12800 4.31100 44.64800
H  48.26600 2.46500 44.67400
H  50.67600 3.94200 45.57900
H  50.34500 4.42200 43.99400
H  50.64500 2.71900 44.20500
H  47.03000 8.69400 47.21000
H  45.87700 9.56800 46.30300
H  46.87800 8.35200 45.53700
H  40.77400 8.01200 45.91700
H  38.77700 9.05800 49.82900
H  37.80100 9.75400 48.39500
H  39.23100 10.59700 49.00400
Mg -4.39800 24.64200 26.83200
C  -3.06000 26.63200 29.16500
C  -5.77300 22.61200 29.27900
C  -5.77400 22.60100 24.35200
C  -2.73300 26.36000 24.23900
N  -4.20800 24.53000 28.96600
C  -3.77300 25.59500 29.72300
C  -4.15500 25.34600 31.22600
C  -4.52800 23.85200 31.21600
C  -4.90900 23.62100 29.69500
C  -3.36600 22.93600 31.57600
C  -5.37400 26.24600 31.63500
C  -5.34900 26.77000 33.12500
H  -6.39400 26.28300 33.99900
N  -5.71000 22.91500 26.83600
C  -6.15800 22.28900 27.93300
C  -6.95500 21.15800 27.59400
C  -7.03200 21.12100 26.17400
C  -6.13900 22.25000 25.68300
C  -7.53900 20.13700 28.54600
C  -7.80800 20.14500 25.29400
O  -7.65100 20.14100 24.10800
C  -8.75000 19.11700 25.92700
N  -4.27900 24.50800 24.56700
C  -5.04000 23.65800 23.82600
C  -4.76100 23.81400 22.31400
C  -3.75400 25.01400 22.29500
C  -3.56200 25.34100 23.79400
C  -4.18000 22.49600 21.57200
C  -4.07300 26.21700 21.41100
C  -5.35000 26.95200 21.84100
N  -3.13900 26.24300 26.66400
C  -2.45200 26.80400 25.54700
C  -1.70300 27.89700 26.04200
C  -1.94700 27.95300 27.45100
C  -2.78200 26.86600 27.74800
C  -0.95400 28.82500 25.11900
C  -1.80500 28.63700 28.71800
O  -1.31600 29.71400 28.98000
C  -2.50000 27.81800 29.86200
C  -1.54100 27.39000 30.86700
O  -0.83100 26.39400 30.79800
O  -1.58000 28.29200 31.93800
C  -0.84000 27.79600 33.15200
H  -6.12200 21.96700 30.08800
H  -6.20200 21.92100 23.61400
H  -2.20700 26.97300 23.50300
H  -3.25600 25.59500 31.79000
H  -5.38800 23.81100 31.88300
H  -3.46300 21.97500 31.07000
H  -3.25400 22.77800 32.64800
H  -2.49500 23.49700 31.23700
H  -6.30300 25.77000 31.32100
H  -5.31800 27.19100 31.09500
H  -5.26800 27.85600 33.16800
H  -4.39300 26.54100 33.59500
H  -8.61400 20.27400 28.42900
H  -7.19100 20.25900 29.57200
H  -7.28700 19.10100 28.32100
H  -9.22900 18.57700 25.11000
H  -9.47300 19.66200 26.53200
H  -8.13300 18.42800 26.50400
H  -5.72400 24.09100 21.88400
H  -2.73700 24.70300 22.05700
H  -4.04100 21.74900 22.35300
H  -3.24600 22.75200 21.07100
H  -4.89700 22.13200 20.83600
H  -4.31700 25.70000 20.48300
H  -3.19900 26.82200 21.16900
H  -5.10800 27.78100 22.50600
H  -5.98100 26.36800 22.51000
H  -5.88800 27.24500 20.93900
H  -0.11400 28.36900 24.59500
H  -0.69600 29.68500 25.73700
H  -1.52500 29.09400 24.23100
H  -3.22500 28.45400 30.37100
H  -0.99400 26.72600 33.28900
H  -1.19500 28.40000 33.98700
H  0.24300 27.88100 33.06300

