158

Mg 46.82600 25.21900 28.29700
C  47.58900 27.47400 30.94300
C  46.01000 22.82700 30.63500
C  47.21300 22.81700 25.85800
C  48.02900 27.58300 26.17700
N  46.81000 25.14600 30.51300
C  47.01000 26.24100 31.37800
C  46.59400 25.92500 32.74100
C  46.31500 24.29800 32.68500
C  46.43000 24.02100 31.15800
C  47.16900 23.39300 33.60500
C  45.43500 26.79500 33.43800
C  45.77400 27.22300 34.90400
H  44.61200 27.28400 35.86300
N  46.50800 23.07200 28.24400
C  46.13300 22.36500 29.32800
C  45.75700 21.08200 28.79500
C  46.29900 20.94900 27.49000
C  46.69200 22.34200 27.13800
C  45.15800 19.95000 29.59200
C  46.29500 19.79800 26.52400
O  46.67400 19.93700 25.33000
C  45.73700 18.43000 26.95300
N  47.44600 25.17300 26.26500
C  47.52700 24.09300 25.44800
C  47.65500 24.50600 24.01500
C  47.72600 26.09300 24.05600
C  47.73100 26.34700 25.61700
C  48.78600 23.80900 23.15100
C  46.62000 26.83800 23.20900
C  45.16800 26.67800 23.59500
N  47.61400 27.19200 28.44000
C  47.99600 28.03500 27.50300
C  48.26400 29.30900 27.97200
C  48.17200 29.21900 29.41500
C  47.71200 27.84300 29.61900
C  48.65500 30.49300 27.13100
C  48.45500 29.79800 30.76600
O  49.00800 30.86400 31.09900
C  47.98400 28.70400 31.80300
C  49.09000 28.37900 32.74800
O  50.08100 27.66000 32.50200
O  48.90900 28.98100 33.99300
C  49.94900 28.68300 34.97600
H  45.57000 22.04200 31.25300
H  47.29900 22.03800 25.09800
H  48.31600 28.34600 25.45000
H  47.41700 26.14400 33.42200
H  45.28300 24.13400 32.99800
H  46.54700 22.88500 34.34200
H  47.71800 24.09200 34.23600
H  47.83300 22.67700 33.12200
H  44.53600 26.18300 33.51400
H  45.25000 27.64300 32.77900
H  46.05000 28.27600 34.86500
H  46.59000 26.61800 35.30000
H  44.50900 19.38300 28.92500
H  44.69100 20.38800 30.47400
H  45.94500 19.27700 29.93200
H  45.79800 17.66500 26.17900
H  44.64800 18.41200 27.00100
H  46.05900 18.14200 27.95400
H  46.69400 24.17300 23.62100
H  48.67500 26.51600 23.72800
H  49.48700 24.56700 22.80200
H  48.40200 23.18500 22.34400
H  49.32300 23.14200 23.82600
H  46.75100 26.47100 22.19100
H  46.97300 27.86900 23.23000
H  44.96200 25.64300 23.86600
H  44.48000 27.01200 22.81800
H  44.86700 27.23600 24.48200
H  49.05800 31.27000 27.78100
H  47.80300 30.87600 26.56900
H  49.43800 30.30500 26.39700
H  47.22200 29.25300 32.35700
H  50.94000 28.96100 34.61900
H  50.02900 27.61400 35.17600
H  49.76500 29.30100 35.85400
Mg -9.68300 18.05900 42.85100
C  -6.32500 17.40600 42.46500
C  -9.08900 21.35700 41.89700
C  -13.09600 18.57900 42.40000
C  -10.30900 14.59800 43.06700
N  -7.86800 19.22000 42.40800
C  -6.63700 18.74200 42.22900
C  -5.55100 19.78700 41.98600
C  -6.45200 21.16800 42.01900
C  -7.88800 20.54400 42.05400
C  -6.26400 22.07600 43.27600
C  -4.78100 19.55500 40.61300
C  -5.72800 18.99000 39.48800
H  -5.42300 19.39100 38.03800
N  -10.94800 19.71000 42.42700
C  -10.46200 20.93000 42.08400
C  -11.59900 21.77600 41.75200
C  -12.81300 21.08100 42.00500
C  -12.32900 19.71700 42.24600
C  -11.48400 23.17000 41.25300
C  -14.16800 21.65200 41.88900
O  -14.32800 22.79900 41.61900
C  -15.42300 20.89200 42.18600
N  -11.39900 16.81400 42.66500
C  -12.65400 17.24900 42.54900
C  -13.70800 16.19300 42.65700
C  -12.84600 14.82800 42.81700
C  -11.39100 15.45500 42.81800
C  -14.67600 16.38600 43.80600
C  -13.18700 13.71800 41.66200
C  -13.49600 12.23600 42.09000
N  -8.55900 16.33100 42.97300
C  -8.93600 14.99400 43.10300
C  -7.78700 14.17700 43.10600
C  -6.75300 15.09200 42.87400
C  -7.24700 16.37800 42.87300
C  -7.76800 12.60600 43.12000
C  -5.29200 15.20800 42.61200
O  -4.41600 14.32600 42.48200
C  -4.98700 16.74000 42.49100
C  -4.13600 17.20800 43.57100
O  -2.94900 17.37900 43.41000
O  -4.79200 17.20200 44.76900
C  -3.84700 17.41800 45.91300
H  -8.85700 22.33600 41.47300
H  -14.17000 18.77400 42.36100
H  -10.57400 13.54300 43.16300
H  -4.96200 19.71100 42.90000
H  -6.31900 21.72500 41.09200
H  -5.46300 21.79100 43.95800
H  -7.18600 22.15500 43.85200
H  -6.03900 23.08500 42.93200
H  -3.92500 18.89400 40.75100
H  -4.35400 20.49900 40.27400
H  -6.65300 19.54300 39.65000
H  -5.79100 17.91700 39.66900
H  -12.27900 23.45000 40.56200
H  -10.54800 23.34200 40.72200
H  -11.42100 23.87600 42.08100
H  -15.35800 20.29200 43.09400
H  -15.50300 20.18600 41.35900
H  -16.22500 21.62000 42.30800
H  -14.12800 16.09800 41.65500
H  -12.90700 14.41800 43.82500
H  -14.38100 17.36500 44.18400
H  -14.55300 15.71000 44.65100
H  -15.74300 16.49200 43.61200
H  -12.27700 13.72300 41.06200
H  -13.99400 14.06500 41.01600
H  -13.52200 12.14200 43.17500
H  -12.76200 11.59700 41.60000
H  -14.42900 11.90500 41.63200
H  -7.82900 12.17100 44.11800
H  -6.88600 12.26400 42.57800
H  -8.66500 12.29900 42.58100
H  -4.48300 17.02000 41.56600
H  -3.24400 16.53800 46.13600
H  -4.51400 17.63700 46.74700
H  -3.15200 18.25100 45.81400

