158

Mg 41.21300 9.04500 30.08500
C  43.13600 10.35700 32.71400
C  38.81400 7.96900 32.29500
C  39.35900 7.91700 27.47600
C  43.76400 10.02300 27.85300
N  40.99800 9.22100 32.26800
C  41.86700 9.86300 33.18300
C  41.31600 9.81700 34.64800
C  40.07100 8.78800 34.48000
C  39.94300 8.66400 32.93500
C  40.32200 7.45100 35.18800
C  41.04000 11.18800 35.24300
C  40.36100 11.23400 36.68800
H  41.05300 12.17400 37.65300
N  39.29600 8.05400 29.89900
C  38.47900 7.72800 30.95500
C  37.30600 7.13000 30.39700
C  37.38000 7.15200 28.95500
C  38.69000 7.75900 28.74100
C  36.25700 6.53400 31.33900
C  36.37600 6.67900 27.86100
O  36.66800 6.59800 26.68600
C  34.91500 6.24600 28.24900
N  41.57500 8.87700 27.99900
C  40.62100 8.46300 27.17800
C  41.00200 8.51800 25.75400
C  42.46000 9.13200 25.84400
C  42.63000 9.39000 27.31300
C  40.91900 7.29400 24.80600
C  42.72800 10.37100 24.92400
C  42.34200 11.74200 25.50300
N  43.06100 9.93600 30.19700
C  44.00600 10.22400 29.21400
C  45.08000 10.95500 29.78000
C  44.80500 11.05700 31.13600
C  43.56900 10.35900 31.37900
C  46.24000 11.54000 29.10400
C  45.15400 11.68300 32.43800
O  46.06800 12.50700 32.63700
C  44.09200 11.25000 33.52300
C  44.73400 10.48800 34.62900
O  45.36300 9.49800 34.55000
O  44.41500 11.13800 35.77700
C  44.61700 10.34500 37.05900
H  37.97400 7.78400 32.96900
H  38.79100 7.70200 26.56800
H  44.53100 10.45900 27.20900
H  42.08400 9.30800 35.23200
H  39.10500 9.14600 34.83600
H  39.75900 7.34400 36.11500
H  41.38300 7.37100 35.42400
H  40.06600 6.60700 34.54700
H  40.46900 11.86600 34.60800
H  42.00300 11.67200 35.40300
H  40.34300 10.27400 37.20500
H  39.35200 11.63500 36.59500
H  36.10600 5.50700 31.00600
H  35.32100 7.05800 31.14700
H  36.50400 6.34600 32.38300
H  34.27500 6.35700 27.37400
H  34.61600 6.73300 29.17800
H  35.13500 5.20100 28.46700
H  40.40200 9.30000 25.28800
H  43.31000 8.55600 25.47900
H  40.85900 6.36000 25.36500
H  41.81500 7.34500 24.18700
H  40.11600 7.35000 24.07100
H  42.24300 10.24800 23.95500
H  43.81200 10.42400 24.82200
H  41.47500 11.60000 26.14800
H  42.05900 12.39600 24.67900
H  43.16900 12.09200 26.12100
H  45.93700 12.23200 28.31900
H  46.80400 10.71400 28.67100
H  46.92300 12.04500 29.78700
H  43.65200 12.21200 33.78800
H  44.26900 9.31500 36.98100
H  44.20500 10.80300 37.95900
H  45.67800 10.42300 37.29800
Mg 36.40000 48.97700 24.25400
C  36.42000 47.32000 27.45700
C  35.14000 51.70300 25.93600
C  35.62500 50.29400 21.21100
C  37.25000 45.96800 22.71500
N  35.77900 49.40700 26.47100
C  35.92500 48.63200 27.59200
C  35.72900 49.44100 28.88700
C  35.36500 50.82600 28.32700
C  35.38500 50.64300 26.82900
C  34.06400 51.47700 28.93600
C  36.99300 49.40600 29.86900
C  36.84200 48.96700 31.31600
H  35.48400 49.07100 31.96500
N  35.48300 50.75300 23.65400
C  35.11200 51.75500 24.51500
C  34.61800 52.90600 23.71400
C  34.80000 52.57100 22.36600
C  35.30400 51.17000 22.33200
C  34.08800 54.15800 24.32500
C  34.47100 53.41200 21.13200
O  34.73200 53.05200 20.03400
C  33.96900 54.82300 21.28700
N  36.40300 48.24400 22.27000
C  36.10200 48.98000 21.14200
C  36.34900 48.17900 19.81600
C  36.91100 46.83100 20.35300
C  36.92800 47.01500 21.89000
C  35.05100 47.99300 18.94600
C  38.21900 46.35800 19.53900
C  39.55700 46.95200 20.00100
N  36.88500 47.05000 24.88000
C  37.22800 45.90100 24.16700
C  37.42000 44.76800 25.05500
C  37.21400 45.31500 26.35300
C  36.76800 46.66400 26.20400
C  37.88600 43.36900 24.59000
C  37.20500 44.91900 27.82100
O  37.45100 43.82700 28.46900
C  36.64200 46.24900 28.53600
C  35.38300 45.94900 29.29700
O  34.26200 46.04800 28.92100
O  35.70300 45.37400 30.48800
C  34.59600 44.89200 31.31800
H  34.94300 52.58700 26.54500
H  35.35400 50.76900 20.26600
H  37.50900 45.02600 22.22900
H  34.85100 49.01000 29.36800
H  36.07700 51.62500 28.53700
H  33.55800 52.07200 28.17600
H  34.31600 52.14300 29.76100
H  33.37900 50.70500 29.28700
H  37.43600 50.39600 29.98000
H  37.83200 48.79700 29.53300
H  37.56700 49.54200 31.89100
H  37.04900 47.89800 31.27800
H  34.75300 55.02100 24.30200
H  33.76900 53.96600 25.34900
H  33.16100 54.38600 23.79800
H  34.57200 55.34100 22.03300
H  32.90600 54.94500 21.49900
H  34.18500 55.43100 20.40900
H  36.98600 48.73400 19.12700
H  36.17900 46.10300 20.00300
H  34.94600 48.74200 18.16000
H  34.23400 48.03300 19.66700
H  34.95100 47.01000 18.48600
H  38.05700 46.47100 18.46700
H  38.31800 45.29500 19.75500
H  40.05800 46.23100 20.64700
H  39.35800 47.93200 20.43600
H  40.09100 47.07800 19.05900
H  37.81600 42.75000 25.48500
H  38.86200 43.46700 24.11500
H  37.16900 43.05300 23.83200
H  37.36800 46.45900 29.32200
H  34.01000 44.12600 30.81000
H  33.94500 45.70300 31.64400
H  34.97000 44.56300 32.28800

