158

Mg 25.46300 1.83000 29.58800
C  27.90000 1.40000 32.39400
C  23.15700 1.95900 32.00000
C  23.29100 2.04100 27.15800
C  28.14800 1.16700 27.44300
N  25.51500 1.60000 31.96300
C  26.58600 1.57900 32.86500
C  26.04400 1.79200 34.32600
C  24.48300 1.70900 34.14700
C  24.34200 1.74000 32.60400
C  23.98000 0.39800 34.90600
C  26.62700 3.07400 35.07700
C  26.91300 2.96500 36.52000
H  26.26900 4.15500 37.43000
N  23.51200 2.06500 29.50000
C  22.75300 2.19100 30.64800
C  21.37300 2.50200 30.24700
C  21.34000 2.44900 28.82700
C  22.71100 2.13500 28.44000
C  20.21500 2.68200 31.21000
C  20.04800 2.44500 27.91700
O  20.15100 2.38200 26.70100
C  18.81300 2.69400 28.44000
N  25.68600 1.43800 27.59400
C  24.66100 1.81800 26.72900
C  25.15300 1.80100 25.29300
C  26.73900 1.71400 25.44400
C  26.89000 1.37900 26.90100
C  24.44400 0.65300 24.40900
C  27.61600 2.96000 24.98800
C  27.23300 4.30100 25.64400
N  27.52900 1.24500 29.78800
C  28.42700 0.99700 28.79700
C  29.72000 0.82800 29.34800
C  29.54100 0.86800 30.71000
C  28.18300 1.21300 30.93900
C  30.98300 0.56300 28.56000
C  30.24000 0.80100 31.99600
O  31.35200 0.53200 32.23200
C  29.19300 1.17900 33.10900
C  29.05600 0.15800 34.17100
O  28.27900 -0.79900 34.19100
O  29.93200 0.42300 35.22300
C  29.79600 -0.52700 36.35700
H  22.30700 2.08600 32.67300
H  22.69100 2.37200 26.30700
H  28.93200 1.15800 26.68300
H  26.44700 0.89100 34.78900
H  24.00900 2.60000 34.55800
H  24.61400 0.29700 35.78700
H  23.85200 -0.43200 34.21200
H  22.97100 0.72400 35.15700
H  25.90200 3.87100 34.91200
H  27.47200 3.51200 34.54600
H  27.98400 2.77400 36.59900
H  26.42900 2.08500 36.94300
H  19.82300 3.66800 30.96100
H  20.44200 2.63700 32.27600
H  19.54600 1.87300 30.91600
H  18.26400 1.87400 28.90200
H  18.16400 2.97900 27.61100
H  18.86700 3.49600 29.17600
H  25.04900 2.77600 24.81500
H  27.06700 0.89900 24.79900
H  23.58100 0.24600 24.93600
H  25.24200 -0.02100 24.09900
H  24.06500 1.06800 23.47500
H  27.54400 3.08600 23.90700
H  28.65800 2.73400 25.21400
H  28.02100 4.70700 26.27900
H  26.37500 4.26600 26.31600
H  27.01500 5.04400 24.87600
H  31.79400 0.83700 29.23500
H  31.06900 1.14900 27.64400
H  31.07300 -0.51300 28.40900
H  29.67200 2.01600 33.61700
H  28.90600 -0.15500 36.86500
H  30.68400 -0.51500 36.98800
H  29.55900 -1.54900 36.06000
Mg 1.07700 42.02300 24.99000
C  2.13500 42.13000 28.42400
C  -2.01800 41.12400 26.24700
C  0.08900 41.57700 21.87100
C  4.39700 42.74600 24.02000
N  0.23100 41.53000 27.11400
C  0.80400 41.84600 28.29100
C  -0.17700 41.66500 29.44700
C  -1.55500 41.27600 28.76800
C  -1.13700 41.32300 27.29200
C  -1.89400 39.82700 29.10100
C  -0.24300 42.98300 30.31800
C  -0.31500 42.88100 31.85600
H  -0.47600 41.47100 32.45900
N  -0.80700 41.49700 24.16700
C  -1.88100 41.07300 24.85600
C  -2.95200 40.85000 23.85100
C  -2.41600 40.96400 22.55400
C  -0.99600 41.35700 22.79300
C  -4.36100 40.44600 24.17700
C  -2.98500 40.74800 21.16900
O  -2.33600 41.04200 20.18000
C  -4.38000 40.23600 20.97300
N  2.05000 42.31400 23.26500
C  1.36000 42.05300 22.10300
C  2.28000 42.15800 20.79500
C  3.64700 42.60700 21.51400
C  3.35700 42.53300 23.02500
C  2.26100 40.87400 19.91300
C  4.10700 44.09000 21.11300
C  2.95900 45.12700 21.09800
N  2.92600 42.39400 25.95300
C  4.14200 42.73300 25.45000
C  5.12800 42.74500 26.54100
C  4.28600 42.64900 27.70600
C  3.04500 42.32700 27.30400
C  6.56300 43.04900 26.43100
C  4.30600 42.69100 29.21300
O  5.16200 42.97500 30.07400
C  2.98100 42.36600 29.71500
C  3.34000 41.08200 30.47900
O  3.76300 40.08200 29.95200
O  3.01000 41.20200 31.75500
C  3.41600 40.29700 32.80300
H  -3.04600 41.01900 26.60100
H  -0.16200 41.51300 20.81000
H  5.39200 43.09600 23.73900
H  0.18300 40.90200 30.13600
H  -2.36300 41.98400 28.95500
H  -1.47300 39.48200 30.04600
H  -1.53400 39.22700 28.26600
H  -2.98100 39.87500 29.16800
H  -1.10200 43.53500 29.93400
H  0.68100 43.54700 30.19100
H  -1.16100 43.44800 32.24500
H  0.52100 43.35300 32.37300
H  -5.03000 41.02800 23.54400
H  -4.62100 40.66100 25.21300
H  -4.53500 39.37500 24.06700
H  -4.44100 39.28600 21.50400
H  -4.46900 40.12500 19.89300
H  -5.12000 40.95700 21.32100
H  1.78000 42.98500 20.28900
H  4.38100 41.86400 21.20300
H  1.53300 40.15000 20.27700
H  3.23800 40.38900 19.90100
H  2.12100 41.15200 18.86800
H  4.35600 43.91300 20.06600
H  4.91800 44.44800 21.74700
H  2.07100 44.97100 21.71100
H  2.63000 45.25300 20.06600
H  3.35200 46.09200 21.41700
H  6.62500 43.88700 25.73700
H  7.06100 42.18500 25.99100
H  7.08000 43.27800 27.36300
H  2.63100 43.04000 30.49700
H  4.40000 40.57500 33.18100
H  3.37500 39.21700 32.66400
H  2.75400 40.46500 33.65300

