158

Mg 41.37900 8.41800 29.30600
C  43.46700 9.36500 32.09100
C  39.13800 7.12500 31.62600
C  39.66900 7.38100 26.76600
C  44.13500 9.29400 27.18300
N  41.35600 8.32200 31.60100
C  42.25300 8.80700 32.50200
C  41.63100 8.79100 33.91300
C  40.39100 7.80700 33.78400
C  40.23800 7.73300 32.21900
C  40.57600 6.46500 34.60600
C  41.22000 10.14600 34.47900
C  40.91300 10.13900 35.99200
H  41.58400 11.28900 36.82900
N  39.65300 7.42700 29.17300
C  38.87500 6.94700 30.19600
C  37.70900 6.33700 29.52200
C  37.67700 6.50900 28.15700
C  39.06700 7.05000 27.97100
C  36.77500 5.44000 30.31700
C  36.78200 6.10600 27.09700
O  36.90800 6.28600 25.90900
C  35.45100 5.52500 27.52800
N  42.02700 8.11500 27.29700
C  40.95700 7.88400 26.44400
C  41.41700 8.07700 24.98700
C  42.68400 8.85500 25.12300
C  42.96800 8.74200 26.62800
C  41.60700 6.65200 24.19900
C  42.71300 10.22700 24.58000
C  41.63600 11.15500 25.18800
N  43.38300 9.22700 29.52500
C  44.40500 9.46000 28.56100
C  45.59100 9.92800 29.16200
C  45.25100 9.96800 30.57600
C  43.90400 9.46900 30.73800
C  46.79700 10.37900 28.49900
C  45.68500 10.35100 31.84900
O  46.75600 10.89200 32.11000
C  44.57300 9.99000 32.87800
C  45.13400 9.03700 33.90300
O  45.15700 7.81400 33.92500
O  45.72500 9.77500 34.92100
C  46.21400 9.12200 36.12800
H  38.35300 6.82700 32.32400
H  38.94000 7.25600 25.96200
H  44.88000 9.57700 26.43700
H  42.33500 8.39800 34.64700
H  39.47100 8.28100 34.12700
H  39.92500 6.22800 35.44800
H  41.53700 6.37000 35.11100
H  40.41500 5.61800 33.94000
H  40.28900 10.56500 34.09600
H  41.95800 10.92100 34.27000
H  41.22100 9.28400 36.59300
H  39.82700 10.22500 35.96900
H  36.57700 4.50500 29.79300
H  35.88100 6.02600 30.53000
H  37.17900 5.19700 31.30000
H  35.48800 4.47100 27.80300
H  34.77400 5.51900 26.67400
H  34.99500 6.24800 28.20400
H  40.70900 8.67700 24.41500
H  43.46400 8.36700 24.54000
H  41.06700 6.64900 23.25200
H  41.19000 5.81500 24.76000
H  42.67600 6.49000 24.05800
H  42.55400 10.12600 23.50600
H  43.67600 10.71900 24.71400
H  42.04300 12.09400 25.56400
H  41.02800 10.64400 25.93400
H  40.83900 11.34000 24.46700
H  46.96300 9.85300 27.55900
H  47.72600 10.17600 29.03100
H  46.68100 11.43700 28.26600
H  44.31100 10.90400 33.41100
H  45.40200 8.92300 36.82800
H  46.99300 9.71000 36.61300
H  46.60800 8.15700 35.81000
Mg 48.36400 15.25300 28.32000
C  46.35000 15.04300 31.16100
C  50.57400 17.15400 30.05100
C  50.22200 15.48200 25.52500
C  45.64200 14.16700 26.46200
N  48.43200 16.01100 30.39200
C  47.57800 15.63400 31.43200
C  48.00600 16.21500 32.73900
C  49.23800 17.07100 32.33500
C  49.45900 16.77800 30.83400
C  49.21500 18.60900 32.66700
C  48.35800 15.13000 33.84500
C  47.93000 15.31300 35.26600
H  48.00100 16.79600 35.82700
N  50.24800 16.16800 27.90100
C  51.05900 16.83900 28.75800
C  52.25200 17.22700 28.07100
C  52.17000 16.69500 26.74300
C  50.84400 16.08600 26.66000
C  53.40900 17.99200 28.76100
C  53.27500 16.73900 25.66600
O  53.13600 16.13900 24.60800
C  54.50400 17.47900 25.85300
N  47.98500 14.92600 26.29200
C  48.94400 15.11600 25.32900
C  48.46000 14.66500 23.91500
C  46.96000 14.32400 24.14700
C  46.81000 14.47700 25.72000
C  48.56400 15.96000 22.93300
C  46.51600 12.90000 23.56100
C  47.19600 11.64700 24.19200
N  46.51000 14.65300 28.71400
C  45.50300 14.24500 27.82500
C  44.31700 13.83600 28.49500
C  44.58600 14.24200 29.82100
C  45.93600 14.64900 29.91500
C  42.96200 13.28800 28.00100
C  44.06700 14.26800 31.17900
O  42.99200 13.92300 31.61000
C  45.18700 14.73000 32.08900
C  44.61700 15.76600 32.89400
O  44.43700 16.88000 32.47400
O  44.35400 15.28600 34.16400
C  43.59600 16.28000 35.00500
H  51.37100 17.73200 30.52400
H  50.79300 15.51000 24.59500
H  44.84700 13.70100 25.87600
H  47.25800 16.91700 33.10700
H  50.10500 16.74900 32.91300
H  48.46200 18.82600 33.42400
H  49.01200 19.18900 31.76600
H  50.21800 18.78900 33.05300
H  49.43600 14.97500 33.89800
H  47.92800 14.17100 33.55600
H  48.44900 14.60700 35.91500
H  46.87900 15.02700 35.32500
H  53.50100 18.97500 28.30000
H  54.34900 17.44000 28.74100
H  53.22500 18.21900 29.81000
H  55.20600 17.27700 25.04400
H  54.93900 17.14700 26.79500
H  54.46900 18.54700 26.07000
H  48.95700 13.76700 23.54700
H  46.29500 15.05100 23.68100
H  49.07500 16.83800 23.32700
H  47.57900 16.27300 22.58600
H  49.04100 15.65500 22.00100
H  46.60400 12.95000 22.47600
H  45.43800 12.79700 23.68900
H  47.42500 10.82700 23.51100
H  46.52200 11.12400 24.87100
H  48.10300 11.94800 24.71700
H  42.14300 13.65000 28.62200
H  42.84500 12.20500 28.04500
H  42.78900 13.67500 26.99600
H  45.44400 13.95000 32.80600
H  42.76100 16.53700 34.35300
H  44.04800 17.25900 35.16400
H  43.36700 15.76800 35.93900

