158

Mg -10.72000 39.81500 43.83800
C  -9.61700 36.81100 42.40200
C  -8.10400 41.46700 42.05500
C  -12.23200 42.76600 44.54500
C  -13.57200 38.10000 44.80500
N  -9.05600 39.21200 42.43600
C  -8.84600 37.92200 41.99100
C  -7.62600 37.86800 40.98000
C  -7.07900 39.32100 41.18700
C  -8.11200 40.07700 41.95200
C  -5.65200 39.57300 41.65200
C  -7.94500 37.41700 39.52100
C  -7.19400 36.16400 39.08400
H  -6.01700 36.38200 37.97600
N  -10.19900 41.86300 43.44100
C  -9.13700 42.31200 42.59800
C  -9.21000 43.68700 42.57900
C  -10.38700 44.13100 43.34300
C  -11.00800 42.87800 43.85100
C  -8.26000 44.60100 41.78700
C  -10.68800 45.53600 43.60800
O  -10.04700 46.37900 43.04000
C  -11.70200 45.94500 44.69200
N  -12.61800 40.34300 44.64400
C  -13.01100 41.62100 44.75100
C  -14.55700 41.71900 45.13500
C  -14.92400 40.26500 45.36800
C  -13.65900 39.48800 44.93000
C  -14.80900 42.71800 46.34800
C  -16.16200 39.84500 44.57200
C  -17.05300 38.92900 45.33500
N  -11.46300 37.80900 43.72900
C  -12.61600 37.29000 44.17100
C  -12.65500 35.87200 44.07600
C  -11.48800 35.61400 43.39600
C  -10.80000 36.85100 43.17400
C  -13.56600 34.82800 44.57600
C  -10.67600 34.62000 42.72100
O  -10.79800 33.37100 42.65500
C  -9.39500 35.33900 41.99600
C  -8.24000 34.80400 42.75500
O  -7.75800 35.32700 43.72300
O  -7.74300 33.77900 42.06200
C  -6.53400 33.11900 42.57100
H  -7.35900 42.09600 41.56300
H  -12.87600 43.64800 44.52900
H  -14.52700 37.66900 45.11300
H  -6.96200 37.12900 41.42700
H  -6.89600 39.78900 40.22000
H  -4.99800 38.70300 41.70900
H  -5.68000 39.93200 42.68100
H  -5.15100 40.31100 41.02600
H  -7.57600 38.20800 38.86700
H  -9.01100 37.25500 39.36400
H  -7.99500 35.54000 38.68600
H  -6.81200 35.62200 39.94900
H  -8.83500 44.85300 40.89600
H  -7.45800 43.99300 41.37000
H  -7.98800 45.53300 42.28300
H  -12.71100 45.78100 44.31600
H  -11.50500 46.97600 44.98700
H  -11.62200 45.24600 45.52500
H  -15.00900 42.10700 44.22200
H  -15.01200 40.10300 46.44300
H  -15.26300 42.23000 47.21100
H  -15.44600 43.55900 46.07700
H  -13.81900 43.04300 46.66900
H  -15.94900 39.34100 43.62900
H  -16.73600 40.76900 44.50800
H  -17.07500 37.93700 44.88400
H  -18.06300 39.33000 45.25100
H  -16.78300 38.96300 46.39100
H  -13.95900 35.22900 45.51000
H  -13.06100 33.91900 44.90200
H  -14.29600 34.66100 43.78400
H  -9.27300 35.11200 40.93600
H  -5.66600 33.77100 42.66500
H  -6.39800 32.43900 41.72900
H  -6.69700 32.66600 43.54900
Mg -1.98100 34.33200 26.32400
C  -3.16400 32.41900 29.06900
C  -0.70800 36.49200 28.56400
C  -1.47200 36.18000 23.62900
C  -3.42400 31.90100 24.24700
N  -2.04200 34.47500 28.61900
C  -2.45900 33.47500 29.48500
C  -2.15000 33.89500 30.97700
C  -1.31400 35.22100 30.72600
C  -1.42800 35.47000 29.18500
C  -1.81900 36.49500 31.50700
C  -1.39100 32.74900 31.78200
C  -2.17000 32.12900 32.99500
H  -1.42200 32.36600 34.40000
N  -1.20900 36.02000 26.11700
C  -0.69200 36.85400 27.15000
C  -0.07700 37.99500 26.58800
C  -0.25700 37.90100 25.15400
C  -1.05400 36.66900 24.90600
C  0.59300 39.09700 27.29800
C  0.28700 38.81000 24.06800
O  0.22000 38.57600 22.86600
C  1.12500 39.99200 24.42700
N  -2.40500 34.09400 24.28400
C  -2.07200 34.98100 23.28200
C  -2.58800 34.62500 21.92400
C  -3.06700 33.22200 22.14600
C  -2.91400 33.03000 23.67800
C  -3.53100 35.49000 21.10500
C  -2.27600 32.14400 21.33400
C  -0.81300 31.83500 21.68900
N  -3.07600 32.51500 26.52500
C  -3.65500 31.68600 25.61900
C  -4.43600 30.64800 26.26500
C  -4.20600 30.85700 27.60300
C  -3.38800 32.02500 27.73000
C  -5.24700 29.58500 25.59000
C  -4.62500 30.39800 28.85300
O  -5.43000 29.53000 29.16200
C  -4.00800 31.42600 29.85600
C  -5.02500 32.20200 30.51900
O  -5.47500 33.24900 30.23000
O  -5.30000 31.56100 31.66500
C  -5.98800 32.37600 32.69500
H  -0.22600 37.17300 29.26900
H  -1.43800 36.83600 22.75700
H  -3.93100 31.20500 23.57600
H  -3.12100 34.22900 31.34500
H  -0.28700 35.06700 31.05600
H  -1.03900 36.99800 32.07900
H  -2.55500 36.14300 32.23000
H  -2.45700 37.11200 30.87500
H  -0.41000 33.10000 32.10200
H  -1.07700 31.89500 31.18200
H  -2.24500 31.05200 32.84700
H  -3.16800 32.56700 32.97600
H  0.65600 38.99800 28.38100
H  0.08500 40.05200 27.15900
H  1.61800 39.14000 26.93100
H  2.10700 39.63100 24.73300
H  0.77500 40.66500 25.21000
H  1.27300 40.64300 23.56600
H  -1.67100 34.58700 21.33500
H  -4.12100 33.17800 21.87000
H  -4.26900 34.83200 20.64400
H  -3.03100 36.01700 20.29200
H  -4.00700 36.24000 21.73700
H  -2.27000 32.44800 20.28800
H  -2.86900 31.23000 21.33300
H  -0.35800 32.31800 22.55300
H  -0.25800 31.96200 20.75900
H  -0.88300 30.76400 21.87900
H  -5.43800 28.71400 26.21600
H  -4.72200 29.25600 24.69300
H  -6.26100 29.93800 25.40400
H  -3.37700 30.86600 30.54500
H  -6.89500 32.74700 32.21600
H  -5.39400 33.21700 33.05300
H  -6.25600 31.73000 33.53100

