158

Mg 6.20200 53.75200 40.07900
C  5.83300 50.12500 40.20300
C  9.22200 53.20700 38.67200
C  6.15400 56.94000 39.61300
C  2.73200 53.82000 40.85700
N  7.21000 51.86400 39.31400
C  7.00400 50.52200 39.56100
C  8.22900 49.59000 39.14900
C  9.32300 50.69800 39.07700
C  8.52700 52.08300 39.03800
C  10.45600 50.72000 40.24500
C  7.93100 48.69400 37.88800
C  8.29000 49.22500 36.51600
H  7.26800 48.86500 35.41300
N  7.63200 54.95300 39.44000
C  8.80100 54.55400 38.86900
C  9.53800 55.74500 38.62200
C  8.61400 56.83700 38.67900
C  7.41100 56.26200 39.24700
C  10.97400 55.82500 38.23100
C  8.94500 58.28600 38.34200
O  10.07400 58.57400 37.85500
C  8.02900 59.45300 38.68400
N  4.66300 55.18000 40.15800
C  4.93400 56.49700 39.97000
C  3.66400 57.44900 39.92200
C  2.56700 56.42100 40.23500
C  3.35600 55.01000 40.41200
C  3.69100 58.66600 40.84800
C  1.45900 56.31300 39.10000
C  0.27100 57.34900 39.16200
N  4.48000 52.34900 40.49000
C  3.26400 52.53100 40.93000
C  2.70200 51.27200 41.34300
C  3.68700 50.32400 41.11100
C  4.72900 51.00500 40.55600
C  1.29400 50.95200 41.78500
C  3.94700 48.93900 41.21500
O  3.23200 48.02800 41.66900
C  5.39600 48.71900 40.70000
C  5.21600 47.72400 39.62100
O  4.60000 47.93800 38.61400
O  5.81100 46.55400 40.00300
C  5.33500 45.43300 39.17100
H  10.28600 53.10100 38.44900
H  6.10400 58.02600 39.51700
H  1.65700 54.00700 40.84500
H  8.39500 48.90700 39.98100
H  10.00000 50.63200 38.22600
H  11.34700 50.25100 39.82800
H  10.15100 50.26900 41.18900
H  10.70600 51.75500 40.48000
H  6.86500 48.46600 37.92000
H  8.35600 47.70700 38.06900
H  9.12600 48.62300 36.16200
H  8.39600 50.30100 36.65600
H  11.39700 54.83900 38.42500
H  11.53900 56.57900 38.77800
H  10.92900 55.97400 37.15200
H  8.49400 60.39400 38.39000
H  7.97400 59.28800 39.76100
H  7.05300 59.26200 38.23900
H  3.70600 57.74400 38.87400
H  2.04500 56.67100 41.15800
H  3.82400 59.54300 40.21400
H  4.50800 58.57000 41.56300
H  2.76200 58.75200 41.41200
H  0.94500 55.35200 39.09600
H  1.91700 56.39300 38.11400
H  0.42500 58.05200 39.98000
H  -0.65000 56.83600 39.44100
H  0.07700 57.90700 38.24600
H  0.65300 51.79200 41.51900
H  1.20700 50.95600 42.87100
H  0.86200 50.10100 41.25800
H  6.12600 48.25500 41.36300
H  5.21900 45.59400 38.10000
H  4.42200 45.00600 39.58600
H  6.08100 44.65800 39.34900
Mg 0.64900 43.01000 25.34700
C  2.56000 43.08700 28.27400
C  -2.13800 42.81900 27.26600
C  -1.11400 42.72600 22.57000
C  3.58000 43.48200 23.41700
N  0.29900 43.02200 27.52400
C  1.19200 43.01000 28.63000
C  0.56100 42.87600 29.99800
C  -0.95200 42.68500 29.54400
C  -0.93200 42.89700 28.02900
C  -1.53400 41.29100 29.91400
C  0.90200 44.03000 30.94700
C  1.11800 43.72200 32.44100
H  0.75700 42.27900 32.85600
N  -1.34000 42.65300 24.98600
C  -2.33000 42.72600 25.91200
C  -3.58400 42.73800 25.21600
C  -3.43300 42.58800 23.79200
C  -1.92700 42.59700 23.73000
C  -4.91500 42.68800 25.95500
C  -4.41800 42.42000 22.67700
O  -4.09600 42.18300 21.51800
C  -5.87800 42.56400 23.02600
N  1.10000 43.17600 23.26700
C  0.21200 42.96800 22.32400
C  0.74500 43.31500 20.88000
C  2.20300 43.73600 21.22300
C  2.33300 43.46700 22.75300
C  0.71100 42.03700 19.93500
C  2.44900 45.22300 20.85800
C  3.76900 45.51000 20.09400
N  2.65400 43.26400 25.76200
C  3.71600 43.41800 24.84800
C  4.94800 43.54500 25.63500
C  4.57700 43.32800 27.02200
C  3.16300 43.20700 26.96300
C  6.36100 43.63100 25.08100
C  5.08300 43.10600 28.33000
O  6.21000 43.10600 28.77400
C  3.81300 42.94900 29.21400
C  3.88000 41.77000 30.13200
O  3.57600 40.65100 29.76100
O  4.51200 42.01700 31.33300
C  5.03600 40.89000 32.10600
H  -2.96600 42.63700 27.95500
H  -1.72500 42.77600 21.66600
H  4.41800 43.55300 22.72000
H  0.87700 41.90700 30.38700
H  -1.57800 43.45000 30.00400
H  -2.42300 41.40700 30.53300
H  -0.85900 40.78000 30.60000
H  -1.70100 40.64100 29.05500
H  0.12000 44.78300 30.84800
H  1.75500 44.58800 30.56000
H  0.44700 44.36000 33.01500
H  2.15000 44.03100 32.60700
H  -5.43500 43.41000 25.32500
H  -4.94200 43.01900 26.99300
H  -5.31500 41.69300 25.76100
H  -6.20700 41.96200 23.87400
H  -6.46000 42.17700 22.19000
H  -6.24600 43.58900 23.07300
H  0.09600 44.10200 20.49700
H  2.94500 43.04300 20.82600
H  0.30000 41.17600 20.46200
H  1.65700 41.84500 19.42900
H  -0.09000 42.20200 19.21500
H  2.42300 45.85400 21.74600
H  1.75200 45.69800 20.16600
H  4.38500 44.62100 20.23200
H  4.25000 46.39500 20.50900
H  3.56900 45.69700 19.03900
H  6.81100 44.60200 25.28500
H  6.38700 43.39600 24.01700
H  6.91400 42.78900 25.49700
H  3.85100 43.81500 29.87500
H  6.10200 41.03800 32.28200
H  4.82400 39.91700 31.66300
H  4.53400 40.93700 33.07200

