158

Mg 3.66800 -2.81200 44.57100
C  5.90900 -0.65600 43.49200
C  1.17300 -1.07500 42.82600
C  1.43300 -5.33500 45.36300
C  6.13100 -4.86500 45.80400
N  3.56000 -1.15400 43.15000
C  4.71100 -0.41900 42.77400
C  4.33700 0.71200 41.89100
C  2.78600 0.75800 41.84400
C  2.43700 -0.61400 42.55700
C  2.19400 1.98600 42.51400
C  5.05500 0.64700 40.50400
C  6.11100 1.74100 40.14200
H  5.95400 2.49300 38.86800
N  1.53100 -3.08900 44.23600
C  0.72100 -2.24800 43.53500
C  -0.63200 -2.82900 43.56300
C  -0.58400 -4.01900 44.31300
C  0.84000 -4.19400 44.72900
C  -1.80400 -2.11000 42.97700
C  -1.81900 -4.84900 44.65200
O  -2.90400 -4.62900 44.14000
C  -1.72000 -6.02400 45.57300
N  3.71100 -4.82000 45.50600
C  2.70700 -5.60000 45.77900
C  3.18900 -6.96800 46.30200
C  4.67100 -6.84800 46.17200
C  4.85100 -5.44000 45.78900
C  2.71000 -7.25100 47.80600
C  5.35700 -7.81200 45.15700
C  6.50800 -8.68400 45.64100
N  5.63500 -2.79600 44.69500
C  6.50000 -3.59500 45.30400
C  7.77300 -2.98700 45.41700
C  7.63200 -1.82900 44.66700
C  6.29800 -1.76200 44.27700
C  9.07800 -3.44600 46.12500
C  8.31300 -0.67100 44.18300
O  9.54700 -0.41700 44.11700
C  7.19500 0.16500 43.39300
C  7.02400 1.53100 43.91800
O  7.01300 2.53800 43.26100
O  6.89800 1.49500 45.29100
C  6.48000 2.71200 46.05800
H  0.33100 -0.55500 42.36500
H  0.80700 -6.18100 45.65300
H  6.97900 -5.51600 46.02700
H  4.62600 1.64800 42.36800
H  2.37500 0.67800 40.83700
H  2.89900 2.75900 42.82100
H  1.60600 1.76900 43.40600
H  1.56200 2.45600 41.76000
H  4.29900 0.73100 39.72300
H  5.36500 -0.39100 40.38900
H  7.07400 1.23600 40.22500
H  6.10500 2.48600 40.93800
H  -2.67100 -2.05800 43.63500
H  -1.92500 -2.78900 42.13300
H  -1.51200 -1.13400 42.58700
H  -1.28000 -5.60100 46.47700
H  -1.08800 -6.82200 45.18400
H  -2.63100 -6.51600 45.91400
H  2.83800 -7.77900 45.66500
H  5.28300 -6.90000 47.07300
H  2.13700 -8.17800 47.83400
H  2.08800 -6.45300 48.21200
H  3.59800 -7.41300 48.41600
H  5.71400 -7.25200 44.29300
H  4.60300 -8.50800 44.78800
H  6.33600 -9.75000 45.49900
H  6.69300 -8.49200 46.69800
H  7.33700 -8.27800 45.06100
H  9.88200 -3.56900 45.40000
H  8.87900 -4.36600 46.67400
H  9.38900 -2.71900 46.87500
H  7.56400 0.26800 42.37200
H  5.51900 2.58500 46.55800
H  6.52900 3.57500 45.39400
H  7.20300 2.82300 46.86600
Mg 54.69400 25.00900 44.78300
C  52.35300 27.40700 43.64000
C  52.59400 22.64200 43.72800
C  57.34100 23.02900 44.86200
C  56.62200 27.75100 45.94900
N  52.87200 25.15400 43.45300
C  52.08800 26.17500 43.00100
C  50.75700 25.71100 42.31100
C  50.74600 24.28200 42.98400
C  52.23000 23.96600 43.40700
C  49.69400 24.05900 44.13400
C  50.73400 25.77000 40.76400
C  51.79300 26.45100 39.93600
H  52.89400 25.62000 39.25200
N  54.94400 23.03800 44.33300
C  53.91100 22.18600 44.06200
C  54.43100 20.79700 44.21400
C  55.80500 20.83800 44.52600
C  56.13600 22.35000 44.54500
C  53.57500 19.66000 43.91300
C  56.77100 19.68900 44.74000
O  56.33400 18.57700 44.77300
C  58.11000 19.86700 45.07800
N  56.69000 25.38700 45.20400
C  57.61700 24.37100 45.17000
C  59.07700 24.89400 45.55200
C  58.70700 26.27800 46.19600
C  57.26600 26.51600 45.79500
C  59.97500 23.96700 46.43100
C  59.73600 27.44700 45.89500
C  60.48800 27.98700 47.01100
N  54.50200 27.09300 44.93000
C  55.31300 28.02800 45.58300
C  54.63800 29.34400 45.61300
C  53.51100 29.08600 44.84100
C  53.43000 27.74100 44.47600
C  55.09100 30.57200 46.24700
C  52.32000 29.71800 44.40800
O  51.90300 30.85000 44.49400
C  51.47600 28.66900 43.70600
C  51.17600 29.16800 42.32400
O  51.91100 29.65300 41.51100
O  49.81500 28.89000 42.08700
C  49.06900 29.53900 41.01900
H  51.85300 21.89000 43.44900
H  58.21300 22.37200 44.83800
H  57.27400 28.54900 46.31000
H  49.98400 26.35500 42.73200
H  50.62800 23.56400 42.17300
H  50.19300 23.57100 44.97100
H  48.90800 23.40500 43.75800
H  49.35400 25.05400 44.42200
H  49.72500 26.13900 40.58100
H  50.59400 24.75100 40.40100
H  52.29200 27.14100 40.61600
H  51.26300 27.02100 39.17300
H  54.11100 18.79500 44.30500
H  53.15300 19.40200 42.94200
H  52.69700 19.71100 44.55700
H  58.43200 18.92100 45.51400
H  58.25500 20.59200 45.87800
H  58.59200 20.13300 44.13700
H  59.65000 25.14300 44.65900
H  58.59000 26.15300 47.27200
H  61.02300 24.20500 46.24600
H  59.67900 22.93100 46.26800
H  59.65500 24.06300 47.46800
H  59.32500 28.25700 45.29300
H  60.51400 27.06100 45.23600
H  61.51400 27.62700 47.08200
H  60.06100 27.74600 47.98400
H  60.40300 29.07300 47.00300
H  55.26400 30.37700 47.30500
H  54.32900 31.33700 46.09300
H  55.98000 30.82800 45.67000
H  50.52800 28.57000 44.23500
H  49.40100 29.30600 40.00700
H  49.03700 30.57300 41.36300
H  48.04300 29.18100 41.10600

