158

Mg 26.89000 50.68200 26.60800
C  24.92900 51.77900 29.23300
C  29.21500 49.56500 28.87000
C  29.08000 50.17600 24.09200
C  24.54600 51.93800 24.24200
N  26.98700 50.64200 28.83300
C  26.06800 51.11800 29.69700
C  26.44300 50.83600 31.17500
C  27.88200 50.23600 31.06600
C  28.01300 50.09700 29.49400
C  29.01400 51.26100 31.64500
C  25.43400 49.86500 31.89000
C  24.51200 50.55900 32.88200
H  24.52000 49.95200 34.25600
N  28.85700 50.03900 26.53500
C  29.58300 49.57300 27.54300
C  30.86300 49.10200 27.14000
C  30.96500 49.37200 25.74000
C  29.61100 49.89900 25.31800
C  31.92700 48.60200 28.11300
C  32.09200 49.14800 24.80800
O  31.98400 49.35800 23.59900
C  33.32600 48.58300 25.26000
N  26.79300 51.06000 24.43000
C  27.82400 50.57700 23.68000
C  27.43100 50.61000 22.12600
C  25.91300 51.15100 22.20100
C  25.69100 51.33900 23.74700
C  28.23300 51.45400 21.18100
C  24.77100 50.29600 21.60500
C  24.08200 50.91800 20.39600
N  25.10800 51.63900 26.65300
C  24.22800 52.05400 25.65700
C  23.07100 52.64700 26.28800
C  23.32500 52.62000 27.66000
C  24.52200 51.93900 27.85900
C  21.91300 53.24800 25.51900
C  22.80700 53.01400 29.00000
O  21.82500 53.53900 29.29600
C  23.90700 52.53500 29.98200
C  24.45600 53.72200 30.65000
O  25.19200 54.54700 30.16500
O  23.87800 53.81500 31.89100
C  23.92400 55.19700 32.55200
H  29.92200 49.31300 29.66300
H  29.86100 50.15200 23.32900
H  23.85200 52.12300 23.41900
H  26.40400 51.82300 31.63700
H  28.02000 49.26700 31.54600
H  28.63800 52.02300 32.32800
H  29.59500 51.68500 30.82600
H  29.68900 50.75300 32.33300
H  26.05100 49.07300 32.31400
H  24.75200 49.53300 31.10700
H  23.49800 50.45700 32.49600
H  24.75600 51.61500 33.00200
H  31.92500 49.07500 29.09500
H  32.93600 48.84000 27.77700
H  31.86900 47.51300 28.10600
H  33.95400 49.25600 25.84300
H  33.83500 48.18900 24.38100
H  33.04200 47.71900 25.86200
H  27.40800 49.59600 21.72700
H  25.72300 52.14300 21.79000
H  29.28200 51.40700 21.47400
H  27.97800 52.51200 21.12000
H  28.10100 50.92900 20.23500
H  24.02300 50.18600 22.39100
H  25.22800 49.33000 21.39000
H  22.99500 50.95700 20.47000
H  24.40100 50.27600 19.57500
H  24.35600 51.96100 20.23800
H  21.47000 52.61000 24.75400
H  22.13000 54.09700 24.87100
H  21.14000 53.44300 26.26200
H  23.54100 51.87800 30.77100
H  23.84500 55.86800 31.69700
H  24.84700 55.37400 33.10500
H  23.03700 55.20500 33.18600
Mg -5.46000 25.40600 25.54200
C  -3.55800 26.91100 28.19500
C  -6.64800 23.09400 27.82700
C  -6.93400 23.73600 23.08700
C  -3.80100 27.52000 23.30400
N  -5.00200 24.97000 27.67100
C  -4.34100 25.81100 28.55200
C  -4.68800 25.48300 30.02100
C  -5.38200 24.10600 29.96800
C  -5.71700 23.99300 28.40500
C  -4.44500 22.87400 30.29200
C  -5.66400 26.49900 30.68600
C  -5.23600 26.96100 32.07400
H  -4.50700 25.94400 32.91600
N  -6.62000 23.71700 25.44600
C  -7.07300 22.93000 26.52100
C  -8.09200 21.95000 26.05300
C  -8.14400 22.10400 24.70500
C  -7.19700 23.19700 24.33400
C  -8.90200 21.03200 27.09600
C  -9.20900 21.56400 23.74400
O  -9.29400 21.98700 22.60700
C  -10.12500 20.45600 24.21400
N  -5.30600 25.53500 23.45100
C  -6.10700 24.77400 22.61500
C  -5.96200 25.15900 21.18200
C  -5.10100 26.44800 21.28500
C  -4.65300 26.55900 22.78000
C  -5.26400 23.93600 20.47900
C  -5.72100 27.81600 20.76800
C  -5.16300 28.48200 19.53100
N  -3.93100 26.92000 25.70000
C  -3.42200 27.66800 24.66000
C  -2.56300 28.66000 25.28500
C  -2.61200 28.43400 26.67700
C  -3.40800 27.31800 26.85600
C  -1.74100 29.68700 24.50100
C  -2.16300 28.84600 28.02100
O  -1.34200 29.65300 28.30300
C  -2.84000 27.89900 29.06700
C  -1.78100 27.25800 29.81400
O  -0.99400 26.37500 29.39300
O  -1.85400 27.62700 31.14500
C  -0.78600 27.08400 32.00600
H  -7.05000 22.36300 28.53100
H  -7.34100 23.26000 22.19300
H  -3.46500 28.26600 22.58100
H  -3.79800 25.30400 30.62300
H  -6.28200 23.97600 30.57000
H  -4.68700 22.53300 31.29800
H  -3.39900 23.18100 30.32000
H  -4.43900 22.13700 29.48900
H  -6.61300 25.98900 30.85100
H  -5.64100 27.43500 30.12900
H  -6.01700 27.38200 32.70700
H  -4.55700 27.81300 32.04600
H  -9.11300 19.98600 26.87200
H  -9.80300 21.53100 27.45200
H  -8.40700 20.89900 28.05800
H  -10.81700 20.07300 23.46400
H  -10.78000 20.93500 24.94300
H  -9.58500 19.63400 24.68300
H  -6.92300 25.44400 20.75400
H  -4.14500 26.30500 20.78200
H  -6.00500 23.66100 19.72800
H  -5.10300 23.05300 21.09900
H  -4.35700 24.24400 19.95900
H  -5.58500 28.54400 21.56800
H  -6.79600 27.82600 20.59000
H  -4.23500 28.87700 19.94600
H  -5.88400 29.22700 19.19500
H  -4.93100 27.74800 18.76000
H  -0.93300 29.20600 23.95000
H  -1.22800 30.31000 25.23300
H  -2.33800 30.29900 23.82600
H  -3.41000 28.55600 29.72400
H  0.19800 27.26400 31.57200
H  -0.93500 26.03200 32.24900
H  -0.80200 27.62600 32.95200

