158

Mg 1.66600 -0.22000 43.49600
C  5.10500 0.33700 43.21600
C  1.07100 2.76000 42.05400
C  -1.50200 -1.01900 43.57500
C  2.47600 -3.57500 44.54300
N  2.95800 1.30600 42.64700
C  4.31200 1.35500 42.68600
C  4.86700 2.65600 41.99900
C  3.51600 3.56700 42.05800
C  2.40800 2.46900 42.20700
C  3.53200 4.60300 43.18000
C  5.43400 2.34400 40.58600
C  6.89800 2.89700 40.14400
H  6.96100 3.80300 38.90400
N  0.03200 0.71400 42.89200
C  -0.03500 1.97500 42.32100
C  -1.44100 2.36600 42.16600
C  -2.25600 1.34900 42.76500
C  -1.23300 0.26800 43.13300
C  -1.93800 3.77500 41.54100
C  -3.78500 1.36600 43.00500
O  -4.45400 2.25400 42.52700
C  -4.52800 0.34800 43.73700
N  0.58500 -2.14600 43.88500
C  -0.76900 -2.08300 44.00600
C  -1.26000 -3.44000 44.42400
C  0.06300 -4.16400 44.92500
C  1.12200 -3.32200 44.29400
C  -2.34200 -3.33800 45.47800
C  0.11100 -5.65700 44.60600
C  0.23300 -6.60000 45.77000
N  3.40900 -1.44500 43.82800
C  3.60200 -2.74800 44.28000
C  5.00000 -2.95900 44.43600
C  5.63900 -1.79600 43.99600
C  4.58200 -0.86400 43.68200
C  5.67000 -4.25200 44.73000
C  7.02100 -1.20100 43.77500
O  8.15000 -1.56000 44.11800
C  6.61300 0.24400 43.28300
C  7.23900 1.21200 44.12600
O  6.70900 1.88000 45.03800
O  8.49000 1.44200 43.65600
C  9.42400 2.24200 44.41000
H  0.96900 3.75600 41.61700
H  -2.53800 -1.36300 43.54600
H  2.84000 -4.51300 44.96900
H  5.63400 3.00200 42.69200
H  3.48300 4.19600 41.16800
H  3.82600 5.56400 42.75700
H  4.27600 4.36400 43.94000
H  2.51800 4.75100 43.55100
H  4.81000 2.85700 39.85400
H  5.32000 1.28600 40.35100
H  7.53400 2.01900 40.03000
H  7.38100 3.40000 40.98200
H  -2.90600 3.72700 41.04100
H  -1.19500 4.19000 40.86000
H  -2.02200 4.39600 42.43200
H  -5.41600 0.73900 44.23400
H  -3.84900 -0.02800 44.50300
H  -4.78400 -0.48500 43.08200
H  -1.66800 -3.96800 43.56200
H  0.19900 -3.93800 45.98300
H  -2.58900 -2.29400 45.67000
H  -2.03100 -3.77600 46.42700
H  -3.18900 -3.89900 45.08300
H  0.98700 -5.78800 43.97100
H  -0.69400 -5.94400 43.92900
H  1.12500 -7.21900 45.66500
H  -0.59800 -7.28800 45.61300
H  0.14600 -6.09200 46.73000
H  5.65500 -4.79400 43.78400
H  5.12700 -4.75600 45.52900
H  6.70800 -4.02000 44.96500
H  7.03200 0.35000 42.28200
H  9.63700 3.25100 44.05900
H  10.41800 1.80200 44.48100
H  9.07400 2.51100 45.40700
Mg 47.51700 34.73100 27.15400
C  45.48400 33.46500 29.57500
C  47.99200 37.57300 29.05600
C  48.84400 36.24600 24.56000
C  46.55400 32.10900 25.01000
N  46.91000 35.37200 29.11000
C  46.16400 34.63000 29.98000
C  46.15700 35.24100 31.38400
C  46.65600 36.72800 31.14000
C  47.23800 36.56900 29.73200
C  45.54200 37.82900 31.19900
C  47.16400 34.52100 32.31500
C  46.84300 34.38900 33.81000
H  47.72900 34.96200 34.77200
N  48.49300 36.60600 26.91400
C  48.55200 37.61300 27.76300
C  49.26500 38.77700 27.20700
C  49.66800 38.31500 25.90600
C  49.01100 37.00000 25.75200
C  49.59400 39.96600 27.95000
C  50.48600 39.00900 24.84100
O  50.63800 38.49800 23.76500
C  51.11400 40.39100 25.15600
N  47.74400 34.23900 25.13500
C  48.41400 35.02500 24.30800
C  48.48500 34.32300 22.92100
C  47.72400 33.02800 23.04000
C  47.32100 33.10800 24.49200
C  48.22600 35.21600 21.69400
C  48.49300 31.68300 22.66100
C  47.89300 30.80800 21.55000
N  46.29400 33.07400 27.25300
C  46.07200 32.05600 26.33100
C  45.21100 31.07700 26.97300
C  44.97700 31.60000 28.27100
C  45.60300 32.82000 28.37300
C  44.79800 29.73600 26.44400
C  44.38700 31.26400 29.47000
O  43.82100 30.30100 29.78600
C  44.47000 32.54300 30.35700
C  44.67400 32.26000 31.81000
O  45.53700 31.59800 32.33400
O  43.71500 32.95300 32.56400
C  43.41900 32.54100 33.93700
H  48.22300 38.39300 29.73900
H  49.16000 36.73500 23.63600
H  46.37400 31.26100 24.34600
H  45.15400 35.28900 31.80700
H  47.49400 36.95200 31.80100
H  45.44200 38.29200 30.21700
H  45.69700 38.52100 32.02700
H  44.53900 37.42600 31.33500
H  48.12800 35.03000 32.32600
H  47.31400 33.56300 31.81800
H  46.82000 33.34400 34.12100
H  45.84700 34.65800 34.16200
H  50.67700 40.01200 27.84000
H  49.41900 39.81800 29.01500
H  49.09900 40.80100 27.45400
H  50.32300 40.97800 25.62300
H  51.34400 40.83800 24.18800
H  51.96100 40.17600 25.80800
H  49.53200 34.08900 22.72600
H  46.78600 33.10200 22.49000
H  47.55200 34.72500 20.99100
H  49.08500 35.47000 21.07400
H  47.68100 36.10100 22.02200
H  48.51100 31.07700 23.56800
H  49.49600 31.97100 22.34800
H  48.71000 30.70200 20.83600
H  47.02300 31.32700 21.14800
H  47.60600 29.84000 21.96100
H  45.19000 29.00500 27.15100
H  45.45000 29.67000 25.57400
H  43.73500 29.51900 26.33800
H  43.50500 33.04500 30.28400
H  43.45300 31.45400 34.00700
H  42.39900 32.87700 34.12600
H  44.12900 32.98100 34.63800

