158

Mg 48.58100 46.15300 43.40000
C  45.38300 46.80600 41.92400
C  48.43800 43.02900 41.76100
C  51.76800 45.88100 43.98700
C  48.71700 49.57000 44.29000
N  47.11000 45.09300 41.89900
C  45.90400 45.60700 41.47200
C  45.22300 44.59000 40.53000
C  46.11900 43.33800 40.69500
C  47.25400 43.80000 41.52800
C  45.42400 42.07700 41.24400
C  45.04300 45.11500 39.10400
C  43.73400 44.63000 38.42500
H  43.88300 43.67200 37.16000
N  49.84300 44.58000 43.16200
C  49.62200 43.39100 42.43200
C  50.85200 42.64900 42.41300
C  51.89000 43.38400 43.10800
C  51.16500 44.70100 43.49000
C  50.92300 41.28400 41.67800
C  53.38800 42.97200 43.24700
O  53.80000 41.86100 42.83100
C  54.34400 43.98000 43.81900
N  50.05400 47.54300 44.05700
C  51.32600 47.13300 44.31500
C  52.22500 48.33100 44.70800
C  51.20100 49.39600 45.14500
C  49.91000 48.85600 44.46200
C  53.28100 47.92700 45.81500
C  51.55800 50.80700 44.64200
C  51.62300 51.84700 45.67800
N  47.36300 47.91300 43.18900
C  47.45200 49.15500 43.76000
C  46.21700 49.86800 43.62400
C  45.35200 48.98800 42.87200
C  46.12200 47.80900 42.65600
C  45.89000 51.32100 44.13000
C  44.04300 48.88400 42.28200
O  43.12400 49.64300 42.18000
C  44.08800 47.48400 41.48000
C  42.88300 46.67100 41.80700
O  41.90300 46.28000 41.08900
O  43.00400 46.42700 43.10300
C  42.11600 45.36900 43.52000
H  48.44600 42.07600 41.22800
H  52.83900 45.79500 44.18200
H  48.71600 50.62500 44.57500
H  44.24500 44.33200 40.93700
H  46.59800 43.07900 39.75100
H  45.32800 42.10200 42.33000
H  45.96100 41.15900 41.00400
H  44.47900 42.02200 40.70500
H  45.87300 44.92900 38.42300
H  45.11400 46.19300 38.95800
H  43.29300 45.60400 38.21400
H  42.94600 44.09100 38.95100
H  51.75300 40.61300 41.90200
H  50.90800 41.40600 40.59500
H  50.03800 40.67500 41.86200
H  53.90400 44.14600 44.80300
H  54.52700 44.78900 43.11200
H  55.31100 43.53100 44.04700
H  52.81700 48.56800 43.82400
H  51.14900 49.44100 46.23300
H  53.19900 48.68300 46.59600
H  54.25200 48.07000 45.34200
H  53.29300 46.93200 46.26100
H  50.96700 51.13200 43.78600
H  52.59600 50.66400 44.34100
H  51.41500 51.53800 46.70200
H  50.98400 52.69700 45.44000
H  52.65400 52.19500 45.74400
H  46.62900 52.01000 43.72100
H  45.85300 51.40100 45.21700
H  44.97500 51.70900 43.68200
H  44.00300 47.66900 40.40900
H  42.41900 45.14100 44.54200
H  42.23700 44.47400 42.90900
H  41.04000 45.51700 43.42600
Mg 16.86400 52.27000 26.84800
C  19.06900 50.95500 29.34800
C  14.91600 53.50100 29.34500
C  14.85900 53.58900 24.43200
C  19.04700 51.18900 24.40000
N  16.97600 52.14000 28.98800
C  17.94400 51.56800 29.79300
C  17.61800 51.88100 31.26500
C  16.11000 52.21700 31.20500
C  15.98500 52.70700 29.75500
C  15.10300 51.03900 31.39900
C  18.51900 52.94600 31.93000
C  19.02200 52.86300 33.36600
H  18.18300 52.15900 34.38000
N  15.10700 53.37900 26.87700
C  14.46800 53.76500 28.04500
C  13.28800 54.53600 27.72300
C  13.27500 54.58800 26.26800
C  14.39400 53.79100 25.78500
C  12.36700 55.15300 28.73400
C  12.26600 55.34800 25.42400
O  12.34100 55.43500 24.21400
C  11.14600 56.11700 26.04000
N  16.87000 52.11000 24.69800
C  15.89500 52.78300 23.93900
C  16.12600 52.50600 22.43000
C  17.54100 51.92000 22.44600
C  17.89700 51.75900 23.94900
C  15.03600 51.65000 21.80300
C  18.59600 52.70700 21.60200
C  19.15400 54.02200 22.16600
N  18.61800 51.12200 26.92100
C  19.43900 50.83700 25.78700
C  20.62900 50.15500 26.30900
C  20.50200 50.13900 27.69900
C  19.30500 50.77200 28.01100
C  21.79800 49.87600 25.50500
C  21.19600 49.86400 28.99800
O  22.26100 49.31200 29.27400
C  20.23100 50.38900 30.06400
C  19.86200 49.48800 31.12400
O  19.11600 48.51000 30.94900
O  20.28900 49.84200 32.31400
C  20.30700 48.86100 33.46400
H  14.23600 53.74200 30.16600
H  14.29500 54.08400 23.63900
H  19.76700 50.84600 23.65400
H  17.66200 50.96000 31.84600
H  16.07600 53.04100 31.91700
H  14.37700 50.91100 30.59600
H  14.53000 51.25100 32.30100
H  15.57600 50.06500 31.52600
H  18.04000 53.92200 31.85400
H  19.44000 53.01000 31.35200
H  19.13200 53.82700 33.86200
H  20.02100 52.42900 33.40300
H  12.11000 56.15200 28.38000
H  12.79100 55.21800 29.73600
H  11.46100 54.54600 28.75200
H  10.43200 56.47800 25.29900
H  11.62200 56.94200 26.56900
H  10.65600 55.42700 26.72700
H  16.20900 53.48100 21.95100
H  17.56400 50.88600 22.10100
H  14.66800 51.99200 20.83600
H  14.14200 51.67600 22.42600
H  15.38800 50.62200 21.71900
H  18.22000 53.15300 20.68100
H  19.36000 51.98200 21.32200
H  18.95700 54.79600 21.42300
H  20.22100 54.01100 22.39000
H  18.65000 54.31000 23.08800
H  22.66700 50.12500 26.11300
H  21.78300 50.41800 24.55900
H  21.89000 48.83600 25.19100
H  20.72700 51.19900 30.59700
H  19.27200 48.76300 33.79200
H  20.99600 49.13700 34.26300
H  20.54000 47.87800 33.05600

