158

Mg 47.35000 24.83600 29.46100
C  48.09400 27.24200 31.94900
C  46.22300 22.79100 32.05100
C  46.81200 22.56500 27.21800
C  48.90700 26.90900 27.05900
N  47.14500 24.98800 31.69900
C  47.52800 26.07600 32.45200
C  47.18000 25.81900 33.91600
C  47.00200 24.25400 33.95500
C  46.72900 24.01600 32.50800
C  48.19200 23.54800 34.61200
C  46.02200 26.70400 34.46500
C  46.39000 27.58800 35.72200
H  46.52100 26.84900 37.06400
N  46.57600 22.96500 29.65100
C  46.18600 22.28300 30.74100
C  45.68400 20.96000 30.36900
C  45.80300 20.92000 28.92400
C  46.39800 22.19400 28.51600
C  45.01800 19.98800 31.34400
C  45.41200 19.81000 28.02200
O  45.49700 19.89500 26.84700
C  45.13500 18.37700 28.57600
N  47.74300 24.78500 27.42500
C  47.45600 23.70100 26.65200
C  47.72300 23.89700 25.16700
C  48.33100 25.31800 25.12100
C  48.35300 25.71600 26.61200
C  48.66900 22.77300 24.69300
C  47.57500 26.46900 24.25300
C  48.54500 27.06400 23.24100
N  48.28800 26.71900 29.46400
C  48.90600 27.41100 28.41800
C  49.35800 28.71500 28.90500
C  49.10800 28.63200 30.30700
C  48.40400 27.44200 30.58500
C  50.02300 29.79600 28.17200
C  49.22000 29.43200 31.58400
O  49.69400 30.53600 31.74000
C  48.55900 28.51700 32.65500
C  49.73300 28.13600 33.63000
O  50.71000 27.42500 33.41600
O  49.52400 28.65500 34.92000
C  50.62700 28.36300 35.86300
H  46.08300 22.19900 32.95900
H  46.47400 21.93500 26.39300
H  49.28800 27.66400 26.36800
H  48.10200 25.93300 34.48600
H  46.08700 23.99000 34.48400
H  47.91300 22.76100 35.31300
H  48.93100 24.23500 35.02300
H  48.66300 22.86700 33.90300
H  45.20800 26.02200 34.71300
H  45.44800 27.27700 33.73700
H  45.70300 28.42900 35.82100
H  47.37800 28.03800 35.63100
H  45.60400 19.07600 31.45500
H  44.03100 19.60700 31.08300
H  44.95000 20.34200 32.37200
H  45.84200 18.01900 29.32400
H  45.15200 17.65700 27.75800
H  44.16400 18.49100 29.05900
H  46.80700 23.91600 24.57600
H  49.33000 25.22800 24.69500
H  49.07400 23.18200 23.76700
H  48.13200 21.86300 24.42400
H  49.40000 22.63500 25.49000
H  47.19700 27.28500 24.86800
H  46.64800 26.16100 23.77100
H  48.71000 28.13800 23.32400
H  48.07100 26.99400 22.26200
H  49.56700 26.68900 23.17400
H  49.97500 29.63900 27.09500
H  51.08700 29.88300 28.39500
H  49.43600 30.66800 28.46300
H  47.66900 28.82200 33.20400
H  50.04900 27.76200 36.56500
H  50.97400 29.29800 36.30400
H  51.41400 27.70700 35.49000
Mg -2.47700 34.68100 25.94600
C  -4.29200 32.94500 28.56900
C  -0.86100 36.44200 28.47200
C  -0.86300 36.28700 23.62800
C  -4.35300 32.84700 23.63500
N  -2.63600 34.73700 28.26600
C  -3.34800 33.89200 29.06300
C  -3.02000 34.11400 30.57500
C  -2.05400 35.37100 30.49400
C  -1.76800 35.53900 28.98200
C  -2.60100 36.75600 31.13600
C  -2.38300 32.89100 31.18300
C  -2.90700 32.59000 32.57000
H  -1.92600 32.41400 33.77700
N  -1.03200 36.19000 26.00300
C  -0.53800 36.81300 27.10600
C  0.44300 37.74900 26.65500
C  0.61900 37.56100 25.27500
C  -0.43700 36.62900 24.89500
C  1.06200 38.74400 27.60000
C  1.55100 38.22700 24.32700
O  1.55500 38.04300 23.14000
C  2.76300 38.99000 24.87100
N  -2.65300 34.58000 23.86200
C  -1.83900 35.39700 23.11400
C  -2.16600 35.22200 21.55500
C  -3.19100 34.05100 21.63200
C  -3.40200 33.75600 23.10600
C  -2.62200 36.57300 20.92700
C  -2.81100 32.87900 20.68100
C  -1.78100 31.92100 21.23600
N  -4.09000 33.28400 26.04500
C  -4.65800 32.54600 24.96600
C  -5.59200 31.59200 25.49700
C  -5.49900 31.75600 26.86800
C  -4.50900 32.68600 27.22100
C  -6.38100 30.70300 24.59100
C  -6.01900 31.35400 28.17800
O  -6.95800 30.68600 28.47700
C  -5.18500 31.97100 29.27900
C  -6.12700 32.64600 30.14200
O  -6.67500 33.74300 29.98900
O  -6.42700 31.91300 31.29400
C  -7.13900 32.49900 32.39100
H  -0.33300 36.93900 29.28900
H  -0.29400 36.66800 22.77800
H  -4.79800 32.23700 22.84600
H  -3.95200 34.48500 31.00300
H  -1.10500 35.12300 30.97000
H  -3.68300 36.88400 31.15900
H  -2.31100 37.65400 30.59100
H  -2.20300 36.98500 32.12500
H  -1.30300 33.03900 31.19000
H  -2.43700 32.00100 30.55600
H  -3.43600 31.64700 32.42900
H  -3.64000 33.28800 32.97400
H  0.65600 38.75500 28.61100
H  1.02900 39.78200 27.26800
H  2.07800 38.34900 27.59700
H  3.61000 38.92700 24.18800
H  3.05500 38.26600 25.63100
H  2.35300 39.83900 25.41700
H  -1.16300 34.98000 21.20200
H  -4.14900 34.29400 21.17100
H  -3.69800 36.65600 20.77100
H  -2.08400 36.61900 19.98000
H  -2.20200 37.42000 21.46800
H  -2.32600 33.28400 19.79300
H  -3.66300 32.31800 20.29700
H  -1.42700 32.40400 22.14600
H  -0.94900 31.82100 20.53900
H  -2.34600 31.01500 21.45700
H  -5.89600 30.39100 23.66600
H  -7.29800 31.24700 24.36400
H  -6.47600 29.75300 25.11700
H  -4.67900 31.19600 29.85400
H  -7.81800 33.22000 31.93600
H  -6.46900 33.15100 32.95200
H  -7.55700 31.80000 33.11600

