158

Mg 48.10500 15.66200 27.87900
C  46.21100 15.55400 30.86800
C  50.47400 17.55000 29.31100
C  49.65700 16.05600 24.69700
C  45.34800 14.52200 26.18900
N  48.32300 16.51900 29.84900
C  47.48700 16.26400 30.95200
C  48.15500 16.75700 32.25900
C  49.32600 17.61900 31.65300
C  49.42500 17.19400 30.18300
C  49.19200 19.16800 31.80300
C  48.56500 15.56800 33.27500
C  48.47700 15.94400 34.76100
H  48.44100 17.44100 35.20800
N  49.90200 16.51300 27.16600
C  50.80000 17.12800 27.98300
C  52.05900 17.25800 27.25800
C  51.81100 16.93000 25.86400
C  50.37400 16.50800 25.84400
C  53.18500 17.89300 27.99200
C  52.76600 16.99900 24.73700
O  52.47600 16.71700 23.60500
C  54.24000 17.40400 24.95400
N  47.66300 15.25600 25.73600
C  48.41200 15.55300 24.63900
C  47.63600 15.37100 23.29600
C  46.28500 14.73600 23.85000
C  46.44400 14.79500 25.35100
C  47.44300 16.74700 22.56100
C  45.98400 13.34800 23.31200
C  44.71600 13.26600 22.42300
N  46.22500 14.98200 28.42000
C  45.23300 14.54600 27.63500
C  44.05300 14.16000 28.40400
C  44.39600 14.56500 29.75400
C  45.69200 15.07900 29.62300
C  42.84500 13.54900 27.85500
C  43.98800 14.66400 31.12800
O  42.90400 14.37100 31.56600
C  45.24200 15.22400 31.91000
C  44.86000 16.45300 32.59700
O  44.75100 17.57200 32.06800
O  44.84600 16.26300 33.94900
C  44.40600 17.50700 34.61200
H  51.20200 18.16000 29.84900
H  50.03900 16.21100 23.68600
H  44.47400 14.09100 25.69700
H  47.37500 17.40100 32.66600
H  50.23300 17.22700 32.11300
H  49.08300 19.56600 30.79400
H  50.06200 19.60100 32.29600
H  48.29800 19.41700 32.37400
H  49.55500 15.20800 32.99400
H  47.93200 14.69100 33.13700
H  49.29000 15.49900 35.33600
H  47.61800 15.40300 35.15900
H  53.49500 18.88000 27.64700
H  54.05100 17.24300 27.86700
H  53.03500 17.96700 29.06900
H  54.79200 16.78100 25.65800
H  54.33300 18.44400 25.26800
H  54.72300 17.36500 23.97800
H  48.13300 14.68200 22.61300
H  45.42600 15.35900 23.60000
H  47.85800 17.49600 23.23600
H  46.36600 16.87600 22.45100
H  48.00100 16.74700 21.62500
H  45.80100 12.60400 24.08700
H  46.83100 13.06600 22.68700
H  43.83600 13.06400 23.03400
H  44.88200 12.43700 21.73500
H  44.50900 14.21100 21.92100
H  42.12100 13.48600 28.66700
H  43.03500 12.49100 27.67800
H  42.43700 14.07400 26.99100
H  45.55500 14.55500 32.71100
H  44.21700 17.21800 35.64500
H  43.51000 17.88700 34.12000
H  45.15100 18.29900 34.68900
Mg 35.56400 49.56500 26.71700
C  35.53100 47.05700 29.09900
C  34.69600 51.88600 29.13600
C  35.12000 51.73700 24.25000
C  36.13800 46.94800 24.36300
N  35.13100 49.46300 28.85500
C  35.24200 48.33800 29.59400
C  35.29300 48.69000 31.09300
C  34.58200 50.09100 31.16900
C  34.90300 50.55700 29.65500
C  33.04000 50.06300 31.36800
C  36.75500 48.62200 31.68200
C  36.89900 47.92900 33.07700
H  36.92100 48.91900 34.33900
N  35.15300 51.62600 26.70100
C  34.77200 52.38000 27.78800
C  34.55000 53.70500 27.28600
C  34.64100 53.73300 25.86500
C  34.98400 52.33100 25.51200
C  34.09300 54.79700 28.20700
C  34.51700 54.88100 24.85300
O  34.75500 54.66400 23.62100
C  34.03600 56.21000 25.26100
N  35.52100 49.39200 24.64400
C  35.30600 50.42900 23.83500
C  35.45500 49.99100 22.35900
C  35.79300 48.48000 22.35700
C  35.85700 48.27100 23.88900
C  34.24200 50.42400 21.39900
C  37.00600 47.95600 21.54300
C  36.81000 46.72900 20.68000
N  35.80300 47.46000 26.67300
C  36.06100 46.53100 25.66900
C  36.11900 45.14900 26.20800
C  35.93600 45.36300 27.56500
C  35.69600 46.73400 27.77700
C  36.45000 43.87400 25.42700
C  35.83700 44.66100 28.74400
O  35.93100 43.45300 28.91100
C  35.60600 45.75500 29.86100
C  34.43800 45.40900 30.63100
O  33.26100 45.57000 30.35600
O  34.82300 44.94000 31.82900
C  34.01400 45.00100 33.00400
H  34.35500 52.50000 29.97100
H  34.90600 52.35000 23.37200
H  36.35500 46.25000 23.55100
H  34.59700 48.03000 31.61000
H  35.14600 50.84000 31.72600
H  32.61500 50.90900 30.82900
H  32.69000 50.26400 32.38000
H  32.60500 49.15500 30.94800
H  37.07200 49.64500 31.88500
H  37.44300 48.14900 30.98100
H  37.81300 47.33500 33.11100
H  36.07600 47.23800 33.25800
H  34.60900 55.74200 28.03800
H  34.20300 54.56400 29.26600
H  33.00700 54.81800 28.11700
H  33.84600 56.78600 24.35500
H  34.79200 56.83400 25.73800
H  33.19300 56.12000 25.94600
H  36.22200 50.58900 21.86600
H  34.88900 47.92300 22.11000
H  34.64200 51.08200 20.62700
H  33.50500 51.04400 21.91100
H  33.70100 49.57700 20.97800
H  37.70300 47.70800 22.34400
H  37.31900 48.83100 20.97400
H  37.11000 46.92300 19.65000
H  35.80400 46.31100 20.68600
H  37.47000 46.00900 21.16500
H  37.39500 43.50500 25.82600
H  36.59100 44.21600 24.40200
H  35.61500 43.17300 25.43600
H  36.44000 45.80300 30.56200
H  33.13500 45.61500 32.80600
H  34.49900 45.48100 33.85400
H  33.65000 44.04300 33.37700

