158

Mg 54.29800 24.84900 45.38100
C  51.56200 26.94200 44.36000
C  52.70200 22.24300 43.63500
C  57.05600 23.20200 45.65400
C  55.79100 27.84700 46.75300
N  52.39700 24.76200 43.92200
C  51.39100 25.69600 43.80400
C  50.31000 25.09700 42.83000
C  50.52600 23.55000 43.00600
C  51.99700 23.45300 43.57400
C  49.48000 22.89600 43.95800
C  50.13100 25.58600 41.32600
C  51.44800 26.09700 40.65500
H  52.24700 25.09100 39.74700
N  54.80000 22.90400 44.78900
C  54.01900 22.02300 44.14200
C  54.88700 20.72800 43.89900
C  56.15300 21.03700 44.47500
C  56.02600 22.42500 45.03000
C  54.39800 19.51800 43.20400
C  57.32000 19.95000 44.37600
O  57.22100 18.98700 43.57900
C  58.63600 20.12200 45.09800
N  56.14400 25.49700 45.94000
C  57.12200 24.54500 46.04000
C  58.32000 25.12400 46.91400
C  58.03800 26.59800 47.03900
C  56.55000 26.66800 46.60800
C  58.48600 24.44400 48.29300
C  58.86400 27.58400 46.12500
C  58.26400 28.10600 44.75600
N  53.76500 26.89800 45.69700
C  54.40300 27.98800 46.30200
C  53.53700 29.16200 46.31600
C  52.46600 28.79700 45.51800
C  52.61700 27.42900 45.15800
C  53.73900 30.44600 46.99900
C  51.26600 29.30400 44.96100
O  50.80200 30.40100 44.99400
C  50.68000 28.14400 44.08700
C  50.65800 28.57700 42.65900
O  51.65100 28.93000 42.06800
O  49.40400 28.72400 42.16700
C  49.25900 29.19300 40.74500
H  52.28000 21.35200 43.16600
H  57.97600 22.69100 45.94900
H  56.22800 28.74200 47.20000
H  49.33700 25.33600 43.26100
H  50.65200 22.99300 42.07800
H  48.74800 23.52500 44.46500
H  50.00900 22.30100 44.70100
H  49.03100 22.07400 43.40000
H  49.27300 26.24500 41.19200
H  49.78700 24.67700 40.83300
H  52.23300 26.24300 41.39800
H  51.38500 27.11200 40.26400
H  55.00800 19.45400 42.30300
H  53.35200 19.52900 42.89800
H  54.45200 18.57100 43.74200
H  59.28500 19.31000 44.76900
H  58.52700 20.12300 46.18200
H  59.03200 21.08100 44.76500
H  59.25600 24.94500 46.38600
H  58.13600 26.90500 48.08000
H  59.56200 24.26900 48.26100
H  58.09900 23.42700 48.35000
H  58.16000 25.05600 49.13400
H  59.83100 27.12200 45.92800
H  59.07100 28.44600 46.76000
H  57.60800 27.38300 44.27100
H  59.13200 28.29800 44.12500
H  57.78600 29.05800 44.98900
H  53.57200 31.25900 46.29300
H  54.65800 30.69500 47.52900
H  52.92800 30.53100 47.72200
H  49.66000 27.93900 44.41000
H  50.08700 29.87000 40.53600
H  48.30200 29.71500 40.74800
H  49.06900 28.35100 40.07900
Mg -11.72800 37.29500 42.92100
C  -9.60700 35.04600 41.14600
C  -10.12500 39.96700 41.35900
C  -14.40500 39.27300 43.41800
C  -13.75100 34.46000 43.75100
N  -10.15400 37.41900 41.46700
C  -9.30900 36.40100 40.92800
C  -8.06500 36.98000 40.20700
C  -8.04300 38.39500 40.76300
C  -9.55500 38.66300 41.19000
C  -7.06700 38.54400 42.02600
C  -8.00500 36.95900 38.65900
C  -6.60300 37.19200 37.98600
H  -6.05700 36.14400 37.02600
N  -12.15600 39.39500 42.62000
C  -11.33900 40.25300 41.99100
C  -11.95100 41.54800 41.98800
C  -13.13500 41.45700 42.74600
C  -13.29500 39.95500 42.91300
C  -11.36800 42.89500 41.42100
C  -14.18500 42.54900 43.03500
O  -13.96200 43.70700 42.65700
C  -15.40500 42.21100 43.82100
N  -13.83800 36.94200 43.40600
C  -14.66800 37.91400 43.66000
C  -15.95700 37.44600 44.41400
C  -15.67700 35.91000 44.61200
C  -14.30900 35.68900 43.91900
C  -16.26400 38.26200 45.74600
C  -16.74500 34.99400 44.13200
C  -17.58700 34.31300 45.21300
N  -11.58600 35.15800 42.74400
C  -12.41400 34.15200 43.24500
C  -11.75500 32.86400 43.00500
C  -10.61300 33.19700 42.26700
C  -10.61200 34.56700 42.06200
C  -12.20300 31.58100 43.51000
C  -9.41300 32.61900 41.64600
O  -9.06900 31.42300 41.61400
C  -8.70600 33.78200 40.84300
C  -7.28100 33.87900 41.08300
O  -6.42900 33.44800 40.30900
O  -7.13500 34.32800 42.35500
C  -5.76300 34.13800 42.94000
H  -9.45300 40.72000 40.94100
H  -15.36800 39.72400 43.66400
H  -14.30900 33.60200 44.13000
H  -7.17800 36.52700 40.64900
H  -7.73500 39.06400 39.96000
H  -6.26300 39.22500 41.74700
H  -6.63800 37.60600 42.37800
H  -7.66800 38.99900 42.81400
H  -8.84500 37.50600 38.23100
H  -8.13600 35.88900 38.49500
H  -5.87600 37.06800 38.78900
H  -6.79800 38.14400 37.49400
H  -11.06400 43.56900 42.22100
H  -12.00300 43.44300 40.72500
H  -10.49000 42.61500 40.83800
H  -15.82600 43.13600 44.21400
H  -15.17600 41.64700 44.72500
H  -16.10600 41.73200 43.13700
H  -16.66300 37.69700 43.62300
H  -15.45900 35.78000 45.67200
H  -16.92900 37.61800 46.32200
H  -16.78700 39.17000 45.44600
H  -15.33600 38.50900 46.26200
H  -16.36200 34.28500 43.39800
H  -17.35300 35.63300 43.49200
H  -18.63500 34.61200 45.18100
H  -17.13900 34.34600 46.20600
H  -17.72400 33.24600 45.03600
H  -11.30200 31.05200 43.82200
H  -12.71600 31.07800 42.69100
H  -12.86400 31.70000 44.36900
H  -8.82400 33.64900 39.76700
H  -5.83200 34.67700 43.88600
H  -4.99800 34.61400 42.32700
H  -5.55500 33.12000 43.27000

