158

Mg 8.28900 2.93400 28.30600
C  9.93500 1.52800 31.06800
C  6.38400 4.81100 30.57600
C  6.61700 4.47500 25.73700
C  9.89600 0.82600 26.18600
N  7.93100 2.87800 30.52000
C  8.88500 2.39000 31.42200
C  8.59100 2.86800 32.83000
C  7.34100 3.71400 32.68500
C  7.22600 3.80700 31.11400
C  6.00700 3.29200 33.40700
C  9.85400 3.53800 33.44000
C  9.60000 4.27200 34.74500
H  10.33700 3.73100 36.01300
N  6.70500 4.47900 28.18500
C  6.09600 5.10100 29.19900
C  5.15300 6.03200 28.71600
C  5.12200 5.93400 27.28200
C  6.21700 4.95500 27.00500
C  4.22600 6.76400 29.63700
C  4.19100 6.65900 26.37500
O  4.25500 6.43800 25.16600
C  3.19100 7.66300 26.87000
N  8.38800 2.81800 26.28200
C  7.49500 3.43900 25.38800
C  7.64200 2.88400 24.00100
C  8.88000 1.88200 24.07600
C  9.02700 1.75700 25.60500
C  6.38400 2.25700 23.38100
C  10.15000 2.28900 23.33400
C  10.25700 2.02400 21.81600
N  9.67400 1.44300 28.52900
C  10.24600 0.65700 27.53600
C  11.14200 -0.21500 28.16800
C  11.14100 0.12500 29.53000
C  10.22900 1.14100 29.70400
C  11.90800 -1.28100 27.51700
C  11.75100 -0.22200 30.87200
O  12.58600 -1.04600 31.14600
C  11.04100 0.78800 31.92000
C  10.50100 0.01400 33.09900
O  9.34800 -0.45500 33.13700
O  11.39700 0.13400 34.04900
C  10.91500 -0.38700 35.33600
H  5.96000 5.53500 31.27500
H  6.09200 4.82300 24.84500
H  10.41500 0.07700 25.58400
H  8.30800 1.99000 33.40900
H  7.41900 4.76100 32.97700
H  5.97300 2.22100 33.60700
H  5.13000 3.70500 32.90900
H  6.06800 3.83500 34.35100
H  10.46200 4.03900 32.68600
H  10.50600 2.72800 33.76700
H  8.55100 4.25200 35.04000
H  10.05700 5.25400 34.62300
H  4.06200 7.80600 29.36300
H  4.74700 6.78700 30.59400
H  3.30600 6.21200 29.83100
H  2.65800 8.06400 26.00800
H  3.75400 8.46500 27.34600
H  2.46800 7.08100 27.44200
H  7.99400 3.75700 23.45200
H  8.50800 0.88100 23.85200
H  5.84600 3.08500 22.92000
H  5.71400 1.81500 24.11900
H  6.73200 1.58700 22.59500
H  11.08300 1.92300 23.76400
H  10.27400 3.37100 23.39200
H  9.26000 1.73400 21.48400
H  10.91300 1.17300 21.63100
H  10.74800 2.82400 21.26300
H  11.46400 -2.27100 27.61600
H  12.89600 -1.23800 27.97600
H  12.14900 -1.00700 26.49000
H  11.61600 1.56400 32.42400
H  10.31800 0.31400 35.91900
H  11.72900 -0.58300 36.03500
H  10.33100 -1.30700 35.28900
Mg 17.16900 51.42800 26.43900
C  19.10900 49.88500 28.94100
C  14.86100 52.04900 28.84200
C  15.45100 52.57800 23.96100
C  19.59600 50.20300 24.11200
N  17.00000 50.84700 28.65100
C  17.97100 50.34300 29.42400
C  17.57200 50.33500 30.95500
C  16.08200 50.84300 30.85000
C  15.98300 51.32300 29.36200
C  15.03300 49.77200 31.18500
C  18.56100 51.26600 31.79400
C  18.84400 51.16600 33.24600
H  17.86900 50.30000 34.09600
N  15.38600 52.28900 26.38400
C  14.55500 52.39900 27.44200
C  13.31100 52.99200 26.97300
C  13.50900 53.33700 25.57800
C  14.85100 52.71200 25.17800
C  12.08900 53.40200 27.82300
C  12.61400 54.14100 24.56000
O  12.86500 54.15900 23.35500
C  11.38000 54.85300 24.93600
N  17.43700 51.31700 24.30700
C  16.54000 51.91700 23.51200
C  17.06000 51.94800 22.10700
C  18.48400 51.38100 22.19700
C  18.56100 50.96000 23.60400
C  16.19300 51.07700 21.14800
C  19.60100 52.36400 21.74900
C  19.80000 53.57500 22.69100
N  18.96900 50.35500 26.47300
C  19.81300 49.91900 25.47500
C  21.00400 49.30500 26.02300
C  20.74100 49.32200 27.36800
C  19.49600 49.95000 27.59200
C  22.18400 48.83400 25.31300
C  21.34800 48.98000 28.67300
O  22.38400 48.35900 28.90800
C  20.27700 49.29400 29.73000
C  19.95500 48.02000 30.46000
O  19.51800 46.98400 29.97800
O  20.47500 48.05500 31.69900
C  19.96500 47.07400 32.70600
H  14.08900 52.35800 29.54900
H  14.97300 53.14800 23.16200
H  20.34000 49.90700 23.37000
H  17.53400 49.32400 31.36000
H  15.91000 51.82200 31.29700
H  14.39600 50.27700 31.91200
H  15.38300 48.90800 31.75000
H  14.44900 49.35100 30.36700
H  18.22000 52.26700 31.52800
H  19.57700 51.28400 31.40000
H  18.73000 52.16700 33.66300
H  19.84200 50.79700 33.48100
H  11.85300 54.46300 27.73800
H  12.33400 53.24900 28.87400
H  11.21700 52.81500 27.53400
H  11.57600 55.72800 25.55600
H  10.74300 54.09300 25.38900
H  10.96100 55.21500 23.99800
H  17.05700 52.93100 21.63700
H  18.65800 50.48700 21.59900
H  15.23700 50.93500 21.65200
H  16.53000 50.04400 21.05400
H  16.06400 51.61900 20.21200
H  19.57200 52.62200 20.69000
H  20.51600 51.77400 21.80600
H  20.80500 53.50900 23.10700
H  19.07400 53.67200 23.49800
H  19.81000 54.50700 22.12400
H  23.01800 49.53400 25.35700
H  21.80800 48.48300 24.35200
H  22.51900 47.88200 25.72500
H  20.81800 49.97100 30.39100
H  20.54600 46.15200 32.72500
H  18.94500 46.76900 32.47200
H  20.05700 47.61200 33.65000

