158

Mg 36.53100 2.46000 30.66300
C  33.67000 3.46500 32.59300
C  38.28400 2.79100 33.66800
C  39.20700 1.91400 28.95800
C  34.54000 2.66300 27.84500
N  35.97900 3.21400 32.82700
C  34.80600 3.37200 33.38600
C  34.83800 3.56100 34.91500
C  36.42300 3.63400 35.13500
C  36.95900 3.19700 33.77600
C  36.96800 5.08800 35.43100
C  34.06700 2.38200 35.62600
C  33.55300 2.43600 37.13600
H  34.21100 3.44500 38.07100
N  38.49800 2.26800 31.34700
C  39.05500 2.33500 32.54600
C  40.43400 1.93000 32.51700
C  40.75200 1.80900 31.14300
C  39.46400 2.04000 30.40900
C  41.23300 1.60300 33.70000
C  42.11700 1.45100 30.48000
O  42.32400 1.35000 29.29000
C  43.36500 1.24700 31.36700
N  36.83000 2.32800 28.67000
C  38.05700 2.08700 28.20600
C  38.00100 2.01000 26.69900
C  36.46200 2.16800 26.36900
C  35.89700 2.41400 27.73700
C  38.77200 3.15400 26.06100
C  35.75400 1.08000 25.58200
C  35.59700 -0.27300 26.29800
N  34.48800 2.91400 30.28900
C  33.83200 2.91200 29.06900
C  32.40800 3.23600 29.21200
C  32.34300 3.40500 30.60900
C  33.61400 3.24900 31.16800
C  31.36100 3.15400 28.19100
C  31.40300 3.68500 31.73800
O  30.18700 3.85800 31.68200
C  32.25500 3.64000 33.06900
C  32.06700 4.90600 33.89600
O  32.62300 5.96300 33.70800
O  31.18800 4.75700 34.95600
C  31.29200 5.82000 35.98200
H  38.81700 2.72500 34.61800
H  40.03700 1.61600 28.31400
H  33.91500 2.76900 26.95500
H  34.44400 4.55200 35.14100
H  36.81300 2.98000 35.91500
H  37.25900 5.09900 36.48100
H  36.25300 5.89500 35.27000
H  37.79800 5.29600 34.75500
H  34.74400 1.53200 35.70900
H  33.26900 1.99400 34.99300
H  33.70600 1.46900 37.61300
H  32.48600 2.64800 37.08000
H  41.56800 0.56700 33.65500
H  40.72200 1.72700 34.65400
H  42.13900 2.18900 33.85300
H  43.38200 0.32000 31.94100
H  43.28400 2.11700 32.01900
H  44.25900 1.23200 30.74300
H  38.33900 1.08100 26.23900
H  36.28800 3.11700 25.86200
H  39.84100 3.02000 26.22400
H  38.41200 4.03100 26.60000
H  38.60800 3.29000 24.99200
H  36.26100 0.95000 24.62600
H  34.77300 1.48900 25.34000
H  35.86000 -0.28100 27.35500
H  36.12700 -1.09300 25.81400
H  34.54600 -0.56200 26.26500
H  31.33700 3.95800 27.45600
H  30.39700 3.11700 28.69800
H  31.55100 2.16600 27.77100
H  31.89100 2.78200 33.63500
H  30.79000 6.75800 35.74400
H  32.32700 6.00700 36.26800
H  30.74100 5.47000 36.85500
Mg -10.69600 17.22100 41.01500
C  -7.15200 16.68600 40.88500
C  -10.12100 20.55500 40.32100
C  -13.94500 17.56400 40.40900
C  -11.10200 13.74000 41.13000
N  -8.85400 18.42200 40.51700
C  -7.57000 17.98400 40.60100
C  -6.65800 19.18800 40.35500
C  -7.49300 20.38100 40.80300
C  -8.90200 19.82400 40.53600
C  -7.24900 20.70000 42.31000
C  -6.26500 19.22200 38.83600
C  -4.82400 18.96700 38.42700
H  -4.55200 17.84500 37.38500
N  -11.90400 18.85300 40.49600
C  -11.45100 20.08600 40.13200
C  -12.49800 20.92500 39.80500
C  -13.71900 20.14700 40.02300
C  -13.24400 18.79600 40.33800
C  -12.28800 22.37500 39.51900
C  -15.11800 20.72800 40.00400
O  -15.34500 21.89900 39.77700
C  -16.29800 19.80600 40.25100
N  -12.26700 15.86200 40.61800
C  -13.56500 16.27100 40.62100
C  -14.54100 15.12000 40.75200
C  -13.58500 13.92800 40.72000
C  -12.20800 14.54000 40.79500
C  -15.31900 15.06200 42.13300
C  -13.80100 12.86300 39.61900
C  -12.98200 12.94800 38.31500
N  -9.44800 15.54200 41.09000
C  -9.72600 14.15100 41.11500
C  -8.46700 13.41600 41.33500
C  -7.46400 14.32900 41.14500
C  -8.09000 15.58100 40.96200
C  -8.33100 11.99800 41.65100
C  -6.06100 14.50200 41.09500
O  -5.14600 13.68600 41.20700
C  -5.77800 16.01200 40.82700
C  -4.92500 16.45300 41.89200
O  -3.76200 16.74500 41.71400
O  -5.60200 16.58500 43.07000
C  -4.79600 17.07700 44.23300
H  -9.96300 21.63300 40.24800
H  -15.02800 17.70100 40.45500
H  -11.35100 12.67900 41.18000
H  -5.81100 18.96500 41.00400
H  -7.35600 21.30800 40.24700
H  -6.85800 19.86200 42.88700
H  -8.15700 20.91600 42.87400
H  -6.57300 21.53900 42.47400
H  -6.59000 20.23100 38.58300
H  -6.94900 18.56800 38.29500
H  -4.13900 18.61100 39.19600
H  -4.34700 19.86100 38.02600
H  -11.45200 22.59700 38.85600
H  -12.10400 22.86900 40.47300
H  -13.18300 22.77400 39.04200
H  -16.21800 19.05800 39.46300
H  -17.26900 20.28700 40.12800
H  -16.14100 19.35300 41.23000
H  -15.29800 15.12000 39.96700
H  -13.57700 13.37400 41.65900
H  -15.18100 14.09500 42.61700
H  -16.34700 15.25200 41.82600
H  -14.95000 15.80300 42.84300
H  -14.85100 12.91700 39.33100
H  -13.72800 11.85100 40.01700
H  -12.56500 11.97200 38.06700
H  -12.13500 13.63400 38.28400
H  -13.65800 13.12800 37.47900
H  -8.05600 11.47000 40.73800
H  -9.24700 11.54700 42.03200
H  -7.58600 11.92500 42.44300
H  -5.39900 16.19400 39.82200
H  -5.34800 16.78900 45.12800
H  -4.66900 18.15900 44.28100
H  -3.78900 16.66300 44.29100

