158

Mg 9.06400 4.03000 27.70900
C  10.19400 2.52500 30.66800
C  6.80800 5.80800 29.55600
C  7.81400 5.27700 24.80400
C  10.81800 1.55900 25.89000
N  8.45800 3.99200 29.82900
C  9.10500 3.31500 30.87100
C  8.62800 3.83600 32.26200
C  7.29100 4.60300 31.82700
C  7.44400 4.79800 30.29700
C  5.94000 3.96200 32.24900
C  9.73800 4.70400 32.98900
C  9.91600 4.51400 34.52100
H  11.23300 4.82300 35.22300
N  7.60100 5.46300 27.27600
C  6.81100 6.16400 28.16700
C  6.06100 7.17200 27.46300
C  6.36600 7.03800 26.06500
C  7.31200 5.90900 26.02900
C  5.06800 8.04000 28.14000
C  5.74200 7.79100 24.79700
O  6.04700 7.48200 23.65100
C  4.83900 8.97500 25.09800
N  9.12500 3.46000 25.68600
C  8.60000 4.18100 24.66900
C  9.14600 3.73100 23.26000
C  9.90600 2.38300 23.61200
C  10.03100 2.52900 25.18700
C  7.96400 3.41400 22.31000
C  11.21900 2.22400 22.87700
C  11.42500 0.94600 22.04000
N  10.32800 2.44000 28.13000
C  10.96900 1.52000 27.31400
C  11.76800 0.55100 28.18200
C  11.56200 1.01100 29.44500
C  10.68600 2.14500 29.44100
C  12.58700 -0.60200 27.68900
C  11.91800 0.69400 30.75700
O  12.68700 -0.10800 31.22200
C  11.05600 1.69500 31.67400
C  10.42900 1.00400 32.79500
O  9.40700 0.34400 32.71400
O  11.25700 1.09600 33.88600
C  10.79400 0.39900 35.06400
H  6.09500 6.38300 30.15000
H  7.57200 5.63500 23.80100
H  11.36200 0.85000 25.26300
H  8.42500 2.92000 32.81700
H  7.25700 5.61800 32.22100
H  5.49500 4.61700 32.99700
H  6.15300 3.03500 32.78200
H  5.25600 3.86200 31.40600
H  9.47000 5.72800 32.73000
H  10.69600 4.49200 32.51500
H  9.52000 3.55300 34.84900
H  9.18900 5.27200 34.81200
H  4.07000 7.78000 27.78900
H  5.08900 9.10300 27.89600
H  5.07300 7.99500 29.22900
H  4.53300 9.53000 24.21100
H  5.40600 9.66600 25.72300
H  4.02900 8.65600 25.75300
H  9.77800 4.56900 22.96500
H  9.18300 1.56800 23.60800
H  6.98600 3.64600 22.73100
H  7.86100 2.43800 21.83500
H  8.06000 4.02100 21.41000
H  12.06800 2.20500 23.56000
H  11.24100 3.06200 22.18100
H  11.86200 1.23100 21.08300
H  10.42900 0.51200 21.95500
H  12.17900 0.30500 22.49700
H  13.59300 -0.20700 27.54600
H  12.18600 -0.86500 26.71000
H  12.71100 -1.36000 28.46200
H  11.86300 2.24800 32.15400
H  11.58500 -0.25900 35.42600
H  9.92800 -0.26100 35.01600
H  10.55200 1.10100 35.86100
Mg 26.23900 1.19300 29.71600
C  28.37600 0.72400 32.65400
C  23.59200 1.43000 31.78500
C  24.28400 1.07800 26.99900
C  29.02100 0.52200 27.67600
N  26.08900 1.08300 31.95700
C  27.05000 1.08900 32.98000
C  26.41600 1.10800 34.32000
C  24.85800 1.14400 34.01700
C  24.81900 1.27200 32.47500
C  24.00700 -0.03800 34.53300
C  27.00100 2.24000 35.19000
C  26.34900 2.60800 36.53200
H  26.94800 2.09700 37.87700
N  24.13400 1.27100 29.45800
C  23.18100 1.41900 30.39800
C  21.87300 1.63000 29.78300
C  22.12100 1.47400 28.36700
C  23.56300 1.25700 28.18700
C  20.72000 1.95300 30.69300
C  21.03400 1.40800 27.32700
O  21.27300 1.15600 26.11800
C  19.55000 1.46700 27.75900
N  26.58900 0.69900 27.66800
C  25.62500 0.95600 26.69000
C  26.20000 0.90300 25.24400
C  27.76600 0.80000 25.52500
C  27.84100 0.70100 27.05800
C  25.61900 -0.28600 24.40500
C  28.62200 2.07700 25.04600
C  27.90700 3.41700 25.24800
N  28.30400 0.74500 30.02800
C  29.25000 0.39700 29.07800
C  30.52900 0.08600 29.76500
C  30.24300 0.24200 31.16100
C  28.87000 0.59400 31.29300
C  31.93300 -0.19300 29.24900
C  30.74500 0.07600 32.50700
O  31.87400 -0.27600 32.80700
C  29.67700 0.50000 33.50800
C  29.51000 -0.61400 34.53600
O  28.75700 -1.56900 34.28400
O  30.31400 -0.52400 35.62900
C  30.04300 -1.54200 36.60500
H  22.75900 1.65000 32.45600
H  23.65400 1.09000 26.10700
H  29.89000 0.16800 27.11800
H  26.69300 0.17400 34.80800
H  24.43800 2.06700 34.41600
H  24.42100 -0.48800 35.43500
H  23.85000 -0.77900 33.74900
H  22.99800 0.23200 34.84500
H  27.15600 3.13300 34.58300
H  28.03100 1.92000 35.34800
H  25.30700 2.29000 36.56500
H  26.29700 3.69100 36.63900
H  20.44400 2.96600 30.39900
H  20.85600 2.01500 31.77300
H  19.86800 1.27600 30.63300
H  18.89700 1.27900 26.90700
H  19.40100 2.39700 28.30800
H  19.32100 0.67700 28.47400
H  25.94300 1.86900 24.80900
H  28.15700 -0.14100 25.13900
H  24.78500 0.12800 23.83800
H  25.21300 -1.03700 25.08300
H  26.44100 -0.57100 23.74800
H  28.80400 2.04400 23.97200
H  29.52600 2.16700 25.64800
H  28.55300 4.05900 25.84700
H  27.05500 3.34700 25.92400
H  27.45600 3.79500 24.33000
H  31.95100 -0.91000 28.42800
H  32.60400 -0.61300 30.00000
H  32.37000 0.72500 28.85700
H  30.09700 1.37600 34.00300
H  30.95000 -1.70300 37.18800
H  29.84100 -2.52600 36.18200
H  29.17700 -1.20200 37.17200

