158

Mg 16.68000 -2.18100 27.71800
C  15.40900 0.02300 30.17400
C  18.77500 -3.47700 30.04800
C  18.09100 -3.99700 25.30000
C  14.80600 -0.31600 25.34700
N  16.98200 -1.79900 29.85000
C  16.31900 -0.94500 30.64000
C  16.63400 -1.17800 32.07200
C  17.93900 -2.04400 32.05100
C  17.96000 -2.49500 30.55500
C  19.30200 -1.32200 32.47600
C  15.46500 -1.71600 32.96400
C  15.11800 -0.86400 34.18000
H  16.19300 -0.05800 34.89100
N  18.10900 -3.59000 27.73100
C  18.89800 -4.03600 28.77100
C  19.80900 -5.04000 28.38700
C  19.56400 -5.23300 27.01000
C  18.52900 -4.25000 26.58800
C  20.80600 -5.71500 29.25100
C  20.24000 -6.14200 26.00000
O  20.08400 -6.10000 24.80000
C  21.04500 -7.43100 26.43200
N  16.53200 -2.07600 25.66300
C  17.20500 -2.97400 24.83400
C  16.94800 -2.75500 23.32200
C  15.75900 -1.77000 23.39600
C  15.70900 -1.27900 24.86500
C  18.16700 -2.13700 22.65800
C  14.38700 -2.20400 22.76800
C  14.21300 -2.02800 21.18200
N  15.34000 -0.50300 27.70000
C  14.68700 0.17700 26.65900
C  13.88200 1.24900 27.19600
C  14.15700 1.24800 28.57900
C  15.01100 0.19800 28.80400
C  12.86400 2.03700 26.42000
C  13.89400 1.90900 29.86400
O  13.24800 2.88900 30.12100
C  14.66900 1.10000 30.89500
C  15.54500 2.10100 31.61600
O  16.69300 2.40900 31.32100
O  14.78500 2.65500 32.59000
C  15.56300 3.78500 33.22500
H  19.44600 -3.96400 30.75900
H  18.43300 -4.53400 24.41300
H  14.28000 0.34200 24.65100
H  16.97800 -0.24400 32.51800
H  17.98700 -2.94700 32.65900
H  20.00000 -1.26400 31.64100
H  19.73200 -1.89500 33.29700
H  19.13300 -0.29400 32.79700
H  15.73400 -2.69800 33.35400
H  14.53000 -1.77300 32.40700
H  14.85100 -1.57100 34.96600
H  14.17900 -0.32400 34.05400
H  21.81200 -5.85000 28.85300
H  20.46000 -6.70400 29.55200
H  20.95200 -5.18400 30.19200
H  20.98200 -8.19000 25.65300
H  20.53700 -7.89100 27.27900
H  22.10900 -7.27400 26.60700
H  16.68700 -3.60900 22.69800
H  15.91700 -0.80300 22.91700
H  18.08800 -2.36300 21.59400
H  19.12100 -2.50500 23.03600
H  18.08600 -1.05100 22.71400
H  13.54100 -1.69400 23.22900
H  14.16600 -3.27000 22.80900
H  14.98900 -1.35700 20.81400
H  13.26600 -1.54400 20.94400
H  14.26100 -2.99900 20.68900
H  12.71500 1.66100 25.40800
H  13.11900 3.09600 26.38000
H  11.89800 1.91200 26.91100
H  13.95500 0.67800 31.60200
H  16.58500 3.52400 33.49800
H  15.06500 4.01700 34.16700
H  15.58100 4.72100 32.66600
Mg 40.36000 10.69600 30.28600
C  42.29400 12.08900 32.80700
C  38.29300 9.35400 32.71000
C  38.90000 8.94400 27.84500
C  43.19800 11.05300 28.10900
N  40.27900 10.72100 32.48700
C  41.10700 11.50400 33.31700
C  40.56500 11.39500 34.77200
C  39.26700 10.52100 34.68300
C  39.31900 10.08400 33.22200
C  39.19700 9.24900 35.60800
C  40.26400 12.80200 35.32800
C  40.61200 12.92900 36.83700
H  39.61700 13.83700 37.71400
N  38.76100 9.44200 30.31600
C  37.96800 9.05500 31.34600
C  36.84100 8.35500 30.86100
C  37.02300 8.17200 29.44700
C  38.27300 8.89700 29.09400
C  35.79300 7.82300 31.82300
C  36.17300 7.28500 28.46300
O  36.54300 7.02800 27.33500
C  35.01900 6.58400 28.95600
N  41.01700 10.07500 28.29100
C  40.15300 9.36100 27.43900
C  40.59600 9.24400 26.01400
C  41.97000 10.05800 26.08400
C  42.06400 10.41900 27.56400
C  40.73900 7.74800 25.44000
C  42.07400 11.27500 25.11100
C  41.90600 12.69100 25.74300
N  42.23800 11.64100 30.29000
C  43.30600 11.55100 29.41800
C  44.43500 12.28500 29.96300
C  44.06000 12.49800 31.33200
C  42.76000 12.07100 31.47800
C  45.79500 12.44400 29.34900
C  44.53300 13.04800 32.55600
O  45.46800 13.70200 32.96100
C  43.40800 12.68300 33.62800
C  44.00400 11.70500 34.58500
O  44.33100 10.54400 34.49100
O  44.13700 12.41900 35.79400
C  44.69500 11.69600 36.96700
H  37.66200 8.94400 33.50100
H  38.44400 8.44100 26.99000
H  44.09200 11.06300 27.48100
H  41.26800 10.82900 35.38400
H  38.33100 11.04700 34.87000
H  38.23500 8.76100 35.76000
H  39.51500 9.65500 36.56800
H  39.82300 8.38100 35.40200
H  39.18100 12.90000 35.39600
H  40.50800 13.58900 34.61400
H  41.55500 13.47000 36.91500
H  40.71500 11.95800 37.32200
H  35.96400 6.74700 31.77800
H  34.73700 7.96500 31.59200
H  36.03700 8.07600 32.85500
H  35.55600 5.96000 29.67100
H  34.57100 5.98100 28.16500
H  34.38100 7.39000 29.31800
H  39.93900 9.73600 25.29600
H  42.82300 9.44600 25.79100
H  41.73100 7.32300 25.59300
H  40.47700 7.70900 24.38200
H  40.08900 7.03800 25.95100
H  41.35500 11.06200 24.32000
H  43.04400 11.19200 24.62100
H  42.13300 12.76600 26.80600
H  40.86300 12.96700 25.58900
H  42.55600 13.42600 25.26800
H  46.07400 11.63400 28.67600
H  46.49600 12.56600 30.17400
H  45.79500 13.25100 28.61600
H  43.11500 13.57600 34.18100
H  43.96400 11.14800 37.56200
H  45.22600 12.44500 37.55400
H  45.32600 10.87100 36.63800

