158

Mg 41.12100 9.42900 29.72100
C  43.10800 10.76100 32.31000
C  38.95200 8.29900 32.06700
C  39.64500 7.78500 27.21200
C  43.86600 10.13300 27.47400
N  41.23200 9.34200 31.94400
C  42.00400 10.13300 32.76300
C  41.59700 9.91300 34.21000
C  40.27400 9.05300 34.12600
C  40.12500 8.86200 32.63500
C  40.23300 7.73500 34.96600
C  41.44100 11.29800 34.97600
C  40.59200 11.32000 36.26800
H  41.06000 12.27500 37.44400
N  39.46200 8.33400 29.59900
C  38.68500 7.92900 30.69700
C  37.52400 7.12200 30.22300
C  37.63400 7.08000 28.80100
C  38.99000 7.75400 28.47200
C  36.50800 6.48800 31.19000
C  36.66600 6.46600 27.83600
O  36.89700 6.40300 26.65100
C  35.30500 6.13600 28.30700
N  41.74300 8.82700 27.62000
C  40.91600 8.21500 26.78400
C  41.39300 8.38800 25.30600
C  42.63000 9.26100 25.48700
C  42.73500 9.46200 26.98400
C  41.51500 7.08400 24.44700
C  42.67700 10.50300 24.61600
C  43.83300 10.54600 23.58700
N  43.12000 10.25000 29.77200
C  44.07300 10.51800 28.79900
C  45.19800 11.17800 29.42000
C  44.83400 11.32000 30.76600
C  43.55300 10.74900 30.93800
C  46.44300 11.64900 28.73300
C  45.34300 11.78500 32.00900
O  46.41600 12.29400 32.33600
C  44.24700 11.41100 33.08700
C  44.89100 10.49300 34.03000
O  44.94800 9.28100 33.84500
O  45.32600 11.03100 35.17300
C  45.86100 10.07000 36.24300
H  38.17200 8.16500 32.82000
H  39.08000 7.26800 26.43300
H  44.64000 10.52300 26.81000
H  42.36900 9.38500 34.77100
H  39.42000 9.66900 34.40700
H  40.10100 6.85300 34.33900
H  39.44800 7.82600 35.71700
H  41.19000 7.68400 35.48500
H  41.26100 12.09600 34.25700
H  42.42300 11.45400 35.42400
H  40.37800 10.32600 36.66200
H  39.61400 11.70300 35.97700
H  36.79600 6.58700 32.23700
H  36.39100 5.45700 30.85900
H  35.53600 6.97400 31.11300
H  34.98800 6.91900 28.99500
H  35.21200 5.14200 28.74400
H  34.58200 6.12600 27.49100
H  40.58400 8.89400 24.77800
H  43.50700 8.68100 25.19800
H  42.31400 6.41100 24.75700
H  41.60200 7.40000 23.40700
H  40.55700 6.61200 24.66800
H  42.80600 11.40700 25.21100
H  41.74300 10.62900 24.06900
H  44.70200 11.09500 23.94800
H  43.57000 10.96400 22.61500
H  44.25800 9.58400 23.30000
H  46.66400 10.93700 27.93800
H  47.19500 11.52400 29.51100
H  46.36300 12.64700 28.30200
H  43.85300 12.30800 33.56400
H  46.51200 10.73100 36.81500
H  46.52700 9.34800 35.76900
H  45.08600 9.60800 36.85500
Mg 26.83400 50.86500 26.05600
C  24.89500 52.21700 28.73700
C  29.27800 50.15000 28.10500
C  28.41200 49.55100 23.41300
C  24.34400 52.26600 23.81600
N  27.04700 51.13700 28.21100
C  26.12500 51.67400 29.13500
C  26.64000 51.52900 30.57500
C  28.20100 51.13200 30.33400
C  28.20500 50.84700 28.78600
C  29.22000 52.11700 30.81500
C  25.78600 50.41800 31.31900
C  25.06700 50.79800 32.63900
H  25.89500 51.31600 33.83500
N  28.68200 49.98900 25.75700
C  29.47800 49.67600 26.79500
C  30.59900 48.86500 26.30300
C  30.25000 48.51300 24.98000
C  29.09200 49.40200 24.62600
C  31.69400 48.34700 27.19800
C  30.83500 47.35900 24.09100
O  30.45100 47.17500 22.92500
C  31.94400 46.50000 24.54100
N  26.57600 51.15200 23.87300
C  27.26100 50.24300 23.05800
C  26.69000 50.15000 21.63900
C  25.31400 50.96000 21.90300
C  25.42700 51.53400 23.26700
C  27.46800 50.64000 20.40300
C  24.00500 50.05100 21.65400
C  22.95800 50.69500 20.64900
N  24.98500 52.10000 26.22900
C  24.15800 52.52400 25.17900
C  22.96000 53.12000 25.71600
C  23.16000 52.96100 27.16500
C  24.43800 52.35500 27.36000
C  21.80700 53.71300 24.97000
C  22.65400 53.23000 28.53300
O  21.61000 53.77300 28.83400
C  23.70000 52.78600 29.56000
C  24.06200 54.01700 30.38700
O  24.77200 54.96600 29.96400
O  23.43800 53.87400 31.63200
C  23.68900 55.06400 32.52600
H  30.12300 49.79900 28.70100
H  28.70500 48.82800 22.64800
H  23.58200 52.59000 23.10500
H  26.55800 52.47600 31.10700
H  28.41100 50.14400 30.74200
H  29.68700 51.64200 31.67900
H  28.70800 53.01600 31.15600
H  30.01800 52.43600 30.14500
H  26.51600 49.66600 31.61800
H  25.04000 49.89500 30.72000
H  24.39300 50.01800 32.99500
H  24.43000 51.61500 32.30100
H  31.71900 48.73000 28.21800
H  32.68300 48.60000 26.81600
H  31.60400 47.26700 27.31600
H  32.62000 47.03200 25.21000
H  32.56400 46.22100 23.68900
H  31.57800 45.59600 25.02900
H  26.56400 49.07700 21.50000
H  25.41800 51.89900 21.36000
H  26.97800 51.47200 19.89700
H  27.47600 49.86100 19.64000
H  28.44300 51.01900 20.70800
H  23.65300 49.86300 22.66800
H  24.42100 49.18800 21.13500
H  23.35700 51.69200 20.46300
H  21.96100 50.80200 21.07500
H  22.85100 50.23200 19.66800
H  22.12200 54.65800 24.52800
H  21.04700 53.93700 25.71900
H  21.47600 53.12900 24.11200
H  23.24100 51.94500 30.08000
H  24.29500 55.87600 32.12400
H  24.24500 54.53700 33.30100
H  22.71200 55.40100 32.87300

