158

Mg 35.28900 2.39900 30.42100
C  33.17900 3.70300 32.77500
C  37.76800 2.09800 32.82800
C  37.61200 1.57800 27.96900
C  33.09000 3.16600 27.99300
N  35.34600 2.81800 32.57700
C  34.34000 3.23200 33.38700
C  34.74500 3.38300 34.93400
C  36.27700 3.06600 34.82600
C  36.53300 2.65400 33.27000
C  37.22400 4.28500 35.27600
C  33.91600 2.40300 35.78000
C  33.55300 2.91900 37.22700
H  34.42200 4.08200 37.80000
N  37.34300 1.84900 30.40800
C  38.12200 1.67800 31.55100
C  39.42200 1.08500 31.13100
C  39.31000 0.80600 29.72200
C  38.03300 1.40600 29.28400
C  40.49300 0.79400 32.21100
C  40.32400 0.08500 28.89900
O  40.17900 -0.14900 27.73600
C  41.63500 -0.36000 29.55300
N  35.35000 2.41400 28.27500
C  36.41500 2.04300 27.50500
C  36.11700 2.30900 26.06800
C  34.64000 2.73000 26.03200
C  34.31000 2.71500 27.51200
C  37.10200 3.26300 25.40600
C  33.71200 1.94100 25.09300
C  33.42200 0.51500 25.50100
N  33.42800 3.19800 30.34200
C  32.56600 3.47400 29.29300
C  31.22800 3.84300 29.77400
C  31.39900 3.96600 31.16400
C  32.74600 3.61800 31.38900
C  30.07500 4.09800 28.90200
C  30.80500 4.34800 32.39300
O  29.70800 4.78200 32.67000
C  31.94500 4.15600 33.44300
C  32.23100 5.45100 34.20000
O  32.68500 6.50900 33.74600
O  31.74200 5.37400 35.48600
C  31.76800 6.54000 36.33300
H  38.53200 2.12700 33.60800
H  38.33800 1.31400 27.19800
H  32.37100 3.25500 27.17600
H  34.65600 4.42800 35.23000
H  36.61800 2.17600 35.35500
H  37.93800 4.51000 34.48400
H  37.80600 3.99300 36.15000
H  36.66000 5.19700 35.47500
H  34.42500 1.44700 35.90000
H  32.96500 2.30200 35.25800
H  33.72800 2.02600 37.82600
H  32.54000 3.32200 37.23200
H  41.47300 1.21500 31.98500
H  40.54900 -0.29100 32.30400
H  40.25300 1.04700 33.24400
H  41.37600 -1.10700 30.30300
H  42.29100 0.44300 29.89100
H  42.09300 -1.00700 28.80500
H  36.28300 1.32700 25.62300
H  34.49900 3.75300 25.68200
H  37.62600 2.64400 24.67800
H  37.88000 3.76700 25.98000
H  36.55400 4.10300 24.98000
H  34.24000 1.99600 24.14100
H  32.76000 2.46500 25.00600
H  33.79200 -0.18200 24.74900
H  32.34900 0.35000 25.59700
H  33.86000 0.17600 26.43900
H  29.51000 4.99300 29.16500
H  29.37200 3.29600 29.12500
H  30.36300 4.10200 27.85100
H  31.55700 3.40100 34.12600
H  30.90400 7.08900 35.95800
H  32.65800 7.14800 36.17000
H  31.61000 6.39200 37.40200
Mg -1.95100 35.26500 27.27000
C  -3.95900 33.48000 29.66600
C  -0.98300 37.48500 29.67800
C  -0.60800 37.18500 24.76200
C  -3.44100 33.28300 24.84200
N  -2.41500 35.42100 29.42400
C  -3.09800 34.48800 30.22800
C  -3.15100 35.01700 31.63600
C  -2.23100 36.24500 31.60200
C  -1.83100 36.37900 30.10900
C  -2.79400 37.55500 32.25200
C  -2.93800 33.94600 32.80400
C  -1.93500 34.33400 33.92800
H  -1.98800 33.51500 35.16500
N  -0.87700 37.05900 27.26800
C  -0.49000 37.77700 28.33900
C  0.36800 38.88700 28.01000
C  0.46900 38.85100 26.56200
C  -0.36400 37.70800 26.14800
C  1.12900 39.69700 28.96000
C  1.18500 39.77800 25.58300
O  1.18700 39.62600 24.34800
C  1.93500 40.93100 26.11700
N  -2.04400 35.28600 25.03000
C  -1.47500 36.24500 24.21200
C  -1.60400 35.92100 22.68700
C  -2.38600 34.55600 22.83500
C  -2.55100 34.30500 24.34400
C  -2.26500 36.96600 21.76900
C  -1.80100 33.29600 22.25200
C  -2.72200 32.59800 21.22400
N  -3.42800 33.71300 27.21100
C  -3.88000 32.99600 26.17500
C  -4.70600 31.89100 26.64500
C  -4.82300 32.08000 27.99000
C  -4.02900 33.21500 28.31500
C  -5.31400 30.78900 25.74800
C  -5.39700 31.59500 29.26500
O  -6.04800 30.54900 29.45800
C  -4.88700 32.54700 30.41100
C  -6.09800 33.36000 30.94600
O  -6.75100 34.21700 30.40100
O  -6.36300 32.86300 32.16600
C  -7.34700 33.53200 33.01500
H  -0.60700 38.14000 30.46700
H  -0.17300 37.71600 23.91200
H  -3.85400 32.65300 24.05200
H  -4.17800 35.27100 31.89700
H  -1.33000 36.15800 32.21000
H  -3.05200 38.23700 31.44100
H  -2.07700 38.03800 32.91500
H  -3.72800 37.42600 32.79800
H  -2.55700 33.01200 32.39100
H  -3.87900 33.72200 33.30600
H  -2.01900 35.35600 34.29800
H  -0.97500 34.15600 33.44200
H  0.93500 39.23700 29.92900
H  0.69200 40.68600 28.81900
H  2.21000 39.71900 28.81800
H  2.80600 40.49200 26.60400
H  1.36100 41.55700 26.80000
H  2.27600 41.47600 25.23700
H  -0.54800 35.84000 22.42600
H  -3.45100 34.76000 22.72200
H  -2.39400 37.83100 22.41900
H  -3.16000 36.51900 21.33800
H  -1.63400 37.25200 20.92700
H  -1.47100 32.61700 23.03900
H  -0.95400 33.66500 21.67400
H  -2.30400 32.86100 20.25200
H  -3.71600 33.04600 21.20800
H  -2.77300 31.52800 21.42500
H  -4.73300 30.69500 24.83000
H  -6.26300 31.04100 25.27500
H  -5.42000 29.83900 26.27100
H  -4.33800 32.02400 31.19400
H  -6.97500 34.53900 33.19900
H  -7.54300 32.90300 33.88400
H  -8.32200 33.67400 32.54700

