158

Mg 16.29300 -1.48100 27.88200
C  15.13400 0.47500 30.50300
C  18.42300 -3.10800 30.03300
C  17.90400 -3.00800 25.29600
C  14.58700 0.43600 25.58800
N  16.69000 -1.22200 30.05400
C  16.15200 -0.41300 30.97000
C  16.79200 -0.58900 32.39000
C  17.86300 -1.62100 32.08600
C  17.63700 -1.97300 30.58500
C  19.36900 -1.32200 32.31300
C  15.73200 -0.96800 33.39500
C  15.73100 -0.13300 34.75100
H  16.94200 0.66600 35.14700
N  17.75700 -3.14200 27.67900
C  18.43700 -3.67600 28.76700
C  19.22400 -4.80900 28.26600
C  19.23400 -4.66600 26.85000
C  18.22200 -3.64500 26.55200
C  20.09300 -5.66600 29.15300
C  20.04300 -5.35000 25.66100
O  19.68500 -5.35200 24.48300
C  21.08100 -6.29400 26.08200
N  16.39600 -1.20800 25.78300
C  17.06200 -2.00500 24.94300
C  16.79300 -1.63500 23.47000
C  15.60900 -0.69000 23.50400
C  15.49800 -0.50300 25.06500
C  18.08000 -1.13400 22.75900
C  14.28100 -1.15300 22.71600
C  13.49500 -0.07000 21.96800
N  14.96900 -0.06700 27.96300
C  14.35600 0.68800 26.94100
C  13.50600 1.67000 27.54100
C  13.75100 1.63600 28.90700
C  14.74900 0.61500 29.14500
C  12.65700 2.68600 26.87900
C  13.48900 2.31000 30.18700
O  12.70600 3.23300 30.45100
C  14.37000 1.55400 31.26300
C  15.21900 2.57900 31.86400
O  16.15500 3.13500 31.29300
O  14.59700 3.02700 32.99600
C  15.16000 4.20400 33.60200
H  19.17900 -3.44400 30.74500
H  18.54100 -3.39900 24.50000
H  14.05900 0.96400 24.79200
H  17.31000 0.34300 32.61500
H  17.66300 -2.57200 32.58000
H  19.45600 -0.61500 33.13800
H  19.81000 -0.94200 31.39100
H  19.90000 -2.19500 32.69300
H  15.86400 -2.01500 33.66600
H  14.74600 -0.79700 32.96300
H  15.44300 -0.75900 35.59600
H  14.96500 0.60200 34.50500
H  20.13700 -6.65600 28.69900
H  19.67100 -5.74500 30.15400
H  21.07400 -5.19100 29.19200
H  20.67800 -7.19000 26.55400
H  21.82100 -5.75300 26.67200
H  21.64600 -6.55800 25.18900
H  16.51000 -2.59300 23.03400
H  15.93300 0.28700 23.14400
H  18.55800 -0.36100 23.35900
H  17.98100 -0.63700 21.79400
H  18.86700 -1.85500 22.53700
H  13.68700 -1.58900 23.52000
H  14.57000 -1.94800 22.02800
H  13.70000 -0.21000 20.90700
H  13.91000 0.84800 22.38500
H  12.41600 -0.21500 22.03100
H  12.83800 2.62600 25.80500
H  12.92400 3.68400 27.22600
H  11.59800 2.44300 26.95500
H  13.78000 1.08000 32.04600
H  14.75200 4.23900 34.61200
H  14.81500 5.05100 33.00900
H  16.24800 4.20300 33.66700
Mg 9.83800 48.16600 25.92100
C  8.22500 48.01200 29.04100
C  12.66100 49.19800 27.54200
C  11.43900 48.33700 22.94500
C  6.91200 47.04900 24.35900
N  10.28500 48.76600 28.02500
C  9.50000 48.52600 29.11100
C  10.21200 48.94800 30.37600
C  11.53100 49.54000 29.82100
C  11.51300 49.13800 28.36800
C  11.58100 51.11000 29.86500
C  10.41000 47.89600 31.52900
C  9.75200 48.38900 32.84200
H  9.48300 47.32500 33.94700
N  11.77100 48.66500 25.31000
C  12.88400 49.02600 26.15100
C  14.10600 49.03900 25.38500
C  13.66900 48.82600 24.03200
C  12.19700 48.61200 24.02500
C  15.52500 49.23900 25.94300
C  14.55200 48.86700 22.85300
O  14.09400 48.84200 21.74100
C  16.07400 48.89600 23.03700
N  9.15500 47.93800 23.88000
C  10.07500 48.02200 22.83200
C  9.30000 47.76800 21.49300
C  8.22000 46.81600 22.03700
C  7.99400 47.34400 23.47300
C  8.86400 49.08000 20.83700
C  8.62200 45.34500 22.20500
C  8.66600 44.56900 20.84900
N  7.94600 47.81900 26.47600
C  6.85900 47.35700 25.76800
C  5.68700 47.13100 26.61600
C  6.15800 47.38100 27.94900
C  7.53900 47.78900 27.78400
C  4.37300 46.59300 26.17400
C  5.88300 47.28900 29.37700
O  4.82100 47.10500 29.97600
C  7.23300 47.62700 30.15600
C  7.53400 46.33300 30.83900
O  8.06100 45.34500 30.37700
O  6.94900 46.34300 32.08600
C  7.05500 45.05400 32.81600
H  13.55600 49.44000 28.11800
H  11.76800 48.15500 21.92000
H  6.06400 46.42100 24.08100
H  9.63500 49.77300 30.79300
H  12.40500 49.06900 30.27100
H  10.63500 51.60900 30.07600
H  11.79800 51.53900 28.88700
H  12.38800 51.40800 30.53500
H  11.46500 47.65200 31.65600
H  9.95900 46.91500 31.38200
H  8.74200 48.78500 32.73400
H  10.38100 49.16900 33.27100
H  16.23700 48.47400 25.63400
H  15.42300 49.06800 27.01400
H  15.84900 50.26600 25.77200
H  16.54800 47.98700 23.40700
H  16.32200 49.84000 23.52200
H  16.40400 49.16100 22.03300
H  9.95300 47.17400 20.85500
H  7.23300 46.92000 21.58600
H  9.44500 49.96700 21.09100
H  7.84300 49.38700 21.06600
H  8.97000 48.91500 19.76500
H  7.95400 44.86100 22.91800
H  9.58900 45.22500 22.69200
H  8.05900 43.66400 20.86500
H  9.70000 44.31600 20.61300
H  8.29900 45.09200 19.96600
H  3.79000 46.52400 27.09200
H  4.50300 45.57800 25.79700
H  3.91800 47.33800 25.52200
H  7.12400 48.35600 30.95800
H  6.51600 45.22200 33.74900
H  8.10700 44.86700 33.03500
H  6.56500 44.17200 32.40400

