158

Mg 26.33800 1.15100 29.57900
C  28.16100 1.05700 32.55500
C  23.43700 1.61900 31.52800
C  24.38100 1.14600 26.70900
C  28.93400 -0.08200 27.75800
N  25.85900 1.20400 31.81400
C  26.81400 1.25100 32.82700
C  26.13400 1.43000 34.19900
C  24.61100 1.55400 33.89000
C  24.58100 1.41700 32.28600
C  23.69600 0.60600 34.55200
C  26.66600 2.52200 35.09500
C  25.96400 2.78600 36.43300
H  26.78600 2.84200 37.71300
N  24.17300 1.35100 29.16500
C  23.19500 1.55100 30.09100
C  21.94200 1.73200 29.48600
C  22.16800 1.54700 28.10700
C  23.65200 1.31300 27.88900
C  20.65200 2.03100 30.18400
C  21.19000 1.55800 26.97900
O  21.49400 1.30800 25.81900
C  19.82200 2.05900 27.21900
N  26.56500 0.48400 27.57300
C  25.63200 0.64500 26.51500
C  26.22500 0.27300 25.13100
C  27.74700 -0.06800 25.44300
C  27.75500 0.10800 27.02700
C  25.31700 -0.65000 24.19600
C  28.77700 0.73100 24.60100
C  29.16700 2.12900 25.05000
N  28.18600 0.62200 29.96400
C  29.19600 0.17400 29.12600
C  30.37400 -0.00700 29.89800
C  30.07000 0.47300 31.20800
C  28.69300 0.72400 31.25300
C  31.73600 -0.46700 29.36700
C  30.59000 0.70800 32.53200
O  31.73200 0.55300 32.92600
C  29.32800 1.17100 33.47000
C  29.51000 0.28500 34.74400
O  29.24300 -0.88700 34.86700
O  29.86300 1.09000 35.84900
C  30.01400 0.49000 37.15700
H  22.63100 2.03600 32.13600
H  23.78000 1.30100 25.81100
H  29.81100 -0.44900 27.22100
H  26.35200 0.50200 34.72800
H  24.32700 2.53800 34.26200
H  23.45600 -0.19500 33.85300
H  22.80100 1.05900 34.97700
H  24.28700 0.13300 35.33700
H  26.55300 3.43100 34.50400
H  27.75100 2.47400 35.18500
H  25.41000 1.85800 36.57400
H  25.36800 3.69900 36.45100
H  20.09500 1.09700 30.26600
H  20.17200 2.95800 29.87100
H  20.82200 2.15800 31.25300
H  19.46900 1.35200 27.97000
H  19.09400 2.11400 26.41000
H  19.95600 3.05700 27.63500
H  26.23800 1.26200 24.67400
H  27.85900 -1.14000 25.28100
H  24.73400 -0.07400 23.47700
H  24.63400 -1.23500 24.81200
H  25.86300 -1.32600 23.53700
H  28.29500 0.76700 23.62400
H  29.67300 0.11200 24.56300
H  30.22700 2.16000 25.30300
H  28.50100 2.46500 25.84400
H  28.86900 2.78600 24.23300
H  31.81500 -0.51300 28.28100
H  32.01000 -1.46100 29.72100
H  32.40400 0.37000 29.57400
H  29.60500 2.16500 33.82000
H  30.96400 0.79500 37.59500
H  29.90200 -0.59200 37.08300
H  29.16300 0.94700 37.66300
Mg -2.09600 34.74000 27.01600
C  -3.91900 32.60200 29.21300
C  -1.40800 36.81200 29.57100
C  -0.52800 36.76600 24.86700
C  -3.03800 32.67100 24.41300
N  -2.80900 34.81100 29.15900
C  -3.28600 33.73600 29.87300
C  -3.02000 33.93400 31.34400
C  -2.54600 35.44400 31.44800
C  -2.26700 35.76600 29.99400
C  -3.35600 36.47200 32.29900
C  -2.00900 32.90200 31.93600
C  -2.12600 32.61100 33.48100
H  -3.03400 33.52500 34.34700
N  -1.11200 36.59800 27.17300
C  -0.86200 37.30900 28.36400
C  -0.11500 38.47600 28.05500
C  0.07600 38.48200 26.65100
C  -0.60100 37.28000 26.16100
C  0.30800 39.52300 29.11000
C  0.80600 39.46100 25.76400
O  0.76400 39.44600 24.53600
C  1.62400 40.54600 26.41900
N  -1.71500 34.63500 25.03800
C  -0.91700 35.57400 24.37600
C  -0.65200 35.19300 22.88000
C  -1.47700 33.85800 22.78100
C  -2.08800 33.67200 24.18000
C  -0.90500 36.26100 21.75500
C  -0.56700 32.61400 22.33400
C  0.62100 32.17600 23.29900
N  -3.30500 33.12600 26.80600
C  -3.59300 32.40700 25.67600
C  -4.63000 31.38700 25.89300
C  -4.72900 31.37700 27.30800
C  -3.95600 32.47700 27.79600
C  -5.23600 30.48800 24.87300
C  -5.30100 30.71000 28.50800
O  -6.18700 29.87700 28.56600
C  -4.72000 31.43000 29.80400
C  -5.85000 31.93800 30.68100
O  -6.69000 32.74500 30.28000
O  -5.85000 31.26400 31.84800
C  -6.93700 31.60800 32.80700
H  -1.01200 37.38200 30.41400
H  0.16500 37.28100 24.19900
H  -3.33900 32.13100 23.51300
H  -4.00000 33.86800 31.81700
H  -1.60100 35.49300 31.99000
H  -4.24700 36.14300 32.83300
H  -3.70100 37.28500 31.66000
H  -2.65700 36.90200 33.01700
H  -0.96800 33.20300 31.81900
H  -2.09100 32.02500 31.29500
H  -1.18500 32.60200 34.03200
H  -2.57500 31.61900 33.52400
H  1.39500 39.51700 29.19500
H  -0.00400 39.18400 30.09700
H  -0.06600 40.53800 28.98200
H  0.95500 41.30100 26.83200
H  2.27100 41.11400 25.75000
H  2.26300 40.13500 27.20000
H  0.41500 34.97500 22.93200
H  -2.27000 34.00500 22.04800
H  -1.18700 37.22700 22.17500
H  -1.64100 35.98200 21.00200
H  -0.01400 36.38200 21.13800
H  -0.01600 32.94600 21.45400
H  -1.21700 31.79400 22.02700
H  1.62400 32.17100 22.87200
H  0.40300 31.16000 23.62900
H  0.64700 32.76000 24.21900
H  -4.63500 30.15300 24.02800
H  -6.08000 30.95000 24.35900
H  -5.55500 29.62500 25.45700
H  -3.98600 30.85700 30.37100
H  -7.77900 32.15900 32.38900
H  -6.50900 32.27300 33.55800
H  -7.22300 30.68500 33.31200

