158

Mg 1.63600 -1.10200 43.72500
C  4.87100 -0.28600 43.13100
C  0.71600 1.89900 42.26400
C  -1.57000 -2.29100 43.45300
C  2.59900 -4.26400 44.69000
N  2.71900 0.66900 42.79700
C  4.04600 0.75400 42.63800
C  4.50200 2.03400 41.83200
C  3.12200 2.76500 41.61600
C  2.09600 1.74400 42.25000
C  3.01200 4.24200 42.12500
C  5.30300 1.79300 40.52200
C  6.54100 2.67600 40.22000
H  6.87800 3.28100 38.88300
N  -0.17900 -0.21700 43.15000
C  -0.35500 1.04700 42.59500
C  -1.75200 1.32900 42.47800
C  -2.39300 0.08000 42.79700
C  -1.40300 -0.87600 43.20600
C  -2.29400 2.72500 42.14900
C  -3.94900 -0.05200 42.74900
O  -4.65300 0.89400 42.55900
C  -4.56700 -1.42600 42.81200
N  0.65500 -3.09400 43.98100
C  -0.66000 -3.30200 43.83400
C  -1.10200 -4.78400 44.09600
C  0.19600 -5.23100 44.74100
C  1.21900 -4.18500 44.44100
C  -2.44200 -5.01900 44.85300
C  0.81300 -6.66600 44.45800
C  -0.19200 -7.78300 44.18100
N  3.37800 -2.10200 43.97500
C  3.64700 -3.32400 44.44900
C  4.99400 -3.54600 44.75600
C  5.58600 -2.28700 44.25600
C  4.49400 -1.54800 43.69300
C  5.69000 -4.68000 45.36600
C  6.80800 -1.49600 43.94400
O  7.98200 -1.78500 44.12500
C  6.37300 -0.12900 43.20500
C  6.81900 1.07300 43.99700
O  6.24400 1.51800 44.99800
O  7.89200 1.69300 43.37700
C  8.47300 2.96600 43.88500
H  0.49900 2.88400 41.84700
H  -2.56200 -2.74300 43.39500
H  2.89600 -5.21200 45.14500
H  5.03700 2.74600 42.46000
H  2.85600 2.83300 40.56100
H  2.74600 4.78900 41.22000
H  3.98900 4.58300 42.46800
H  2.28500 4.25900 42.93700
H  4.63300 1.97100 39.68100
H  5.51000 0.73100 40.39000
H  7.34100 1.99700 40.51500
H  6.41100 3.45400 40.97200
H  -1.47800 3.44500 42.21800
H  -3.13200 3.11600 42.72700
H  -2.71700 2.76500 41.14600
H  -5.60000 -1.56900 42.49500
H  -4.37100 -1.71100 43.84500
H  -4.06500 -2.10000 42.11900
H  -1.15100 -5.11400 43.05800
H  -0.01600 -5.21000 45.81000
H  -2.19100 -5.34600 45.86300
H  -2.99200 -5.70700 44.21100
H  -3.06500 -4.14400 45.03700
H  1.33600 -6.94300 45.37300
H  1.54500 -6.49900 43.66800
H  -0.30000 -7.79800 43.09700
H  -1.11500 -7.73700 44.76000
H  0.23000 -8.75200 44.44500
H  4.98000 -5.42400 45.72800
H  6.33200 -4.41000 46.20500
H  6.24900 -5.13100 44.54600
H  6.81300 0.04200 42.22300
H  7.71200 3.69700 44.16000
H  9.17300 3.53800 43.27600
H  9.00900 2.81300 44.82200
Mg 0.55900 44.27000 25.43000
C  2.57100 43.50900 28.40500
C  -2.02600 43.22100 27.36800
C  -1.07700 43.21400 22.73600
C  3.58700 44.21500 23.66800
N  0.36500 43.50100 27.69500
C  1.24500 43.44300 28.72700
C  0.56700 43.20300 30.11700
C  -0.95900 43.08800 29.68900
C  -0.88400 43.23800 28.15800
C  -1.59800 41.69700 30.14500
C  0.77000 44.44100 31.07800
C  0.74200 44.14600 32.60400
H  0.48400 42.72600 33.22400
N  -1.39600 43.79200 25.05800
C  -2.35100 43.45800 26.00300
C  -3.66500 43.27000 25.36400
C  -3.36500 43.27000 23.93700
C  -1.92500 43.45500 23.80600
C  -4.98400 43.33300 26.15000
C  -4.31900 42.96700 22.84600
O  -3.98800 42.90900 21.63400
C  -5.79200 42.77300 23.11400
N  1.21800 43.66700 23.52800
C  0.30300 43.39800 22.58000
C  0.91600 43.24300 21.24400
C  2.27000 43.94700 21.39400
C  2.38000 43.99300 22.97300
C  0.99900 41.74900 20.75600
C  2.40100 45.24900 20.60500
C  1.91400 46.48700 21.22000
N  2.60100 44.18200 25.89600
C  3.67400 44.13000 25.06500
C  4.94500 43.98800 25.82000
C  4.52400 43.75900 27.13500
C  3.08700 43.86200 27.13700
C  6.36000 43.98200 25.31000
C  4.98200 43.46500 28.37700
O  6.13300 43.42200 28.73700
C  3.79100 43.42900 29.30500
C  3.83400 42.21000 30.14100
O  3.41300 41.10100 29.84100
O  4.49500 42.51500 31.37400
C  4.50700 41.43600 32.43000
H  -2.92500 43.05100 27.96400
H  -1.63100 42.94700 21.83400
H  4.51100 44.37400 23.10700
H  0.85600 42.24200 30.54300
H  -1.59400 43.85900 30.12800
H  -1.91100 41.15600 29.25200
H  -2.54000 41.81500 30.68100
H  -0.93200 41.18300 30.83800
H  0.07300 45.26800 30.94300
H  1.74200 44.85700 30.81200
H  0.11600 44.87600 33.11800
H  1.78300 44.23800 32.91300
H  -4.71200 43.44400 27.20000
H  -5.33000 42.30100 26.11100
H  -5.66900 44.09300 25.77400
H  -6.37900 42.66300 22.20200
H  -6.09500 43.73800 23.52100
H  -5.87000 42.08900 23.95900
H  0.19400 43.79600 20.64300
H  2.92600 43.26000 20.86000
H  0.00400 41.55100 20.35900
H  1.37600 41.05000 21.50200
H  1.62900 41.83000 19.87000
H  2.04600 45.16800 19.57700
H  3.47800 45.30800 20.45000
H  1.11600 46.89500 20.59800
H  2.72000 47.21900 21.17800
H  1.45600 46.38800 22.20400
H  7.01300 44.60800 25.91700
H  6.52600 44.30600 24.28300
H  6.79900 42.99700 25.47000
H  3.87100 44.26800 29.99600
H  4.23600 41.74500 33.43900
H  5.53300 41.08600 32.55100
H  3.88300 40.61000 32.08900

