158

Mg 25.63300 0.05700 28.85600
C  27.37000 0.24100 31.83200
C  22.78300 0.28600 30.58600
C  24.09900 0.14600 25.81600
C  28.63900 -0.67000 27.29400
N  25.21100 0.24200 31.03400
C  26.02000 0.41200 32.02900
C  25.25700 0.66300 33.34200
C  23.78800 0.64000 32.91100
C  23.92400 0.36000 31.44100
C  22.92300 -0.42600 33.56300
C  25.69100 1.92900 34.13500
C  26.22500 1.71800 35.55200
H  25.39500 2.39700 36.64400
N  23.74600 0.15300 28.28900
C  22.70500 0.20000 29.17600
C  21.45300 0.21500 28.36400
C  21.84300 0.26300 26.99400
C  23.33200 0.20000 26.98200
C  20.09200 0.23800 29.01000
C  20.95400 0.47700 25.76500
O  21.36400 0.43600 24.62000
C  19.45100 0.87500 25.90400
N  26.31500 -0.13300 26.76300
C  25.47600 -0.06100 25.71200
C  26.24700 -0.02900 24.41800
C  27.64400 -0.49200 24.85400
C  27.54000 -0.49700 26.40000
C  25.53900 -0.95400 23.37800
C  28.80900 0.37800 24.31500
C  28.69500 1.87600 24.43200
N  27.54300 -0.29600 29.41000
C  28.68500 -0.63400 28.68500
C  29.82300 -0.87800 29.54600
C  29.30500 -0.49600 30.78700
C  27.95200 -0.11900 30.62600
C  31.07500 -1.48700 29.08400
C  29.75900 -0.42900 32.17600
O  30.83500 -0.73800 32.61100
C  28.44100 0.09700 32.90200
C  28.11900 -1.05400 33.83000
O  27.65100 -2.15000 33.44400
O  28.49700 -0.71500 35.06700
C  28.58900 -1.82700 36.07800
H  21.80400 0.53900 31.00000
H  23.70600 0.35300 24.81800
H  29.58300 -0.88400 26.78900
H  25.36500 -0.27400 33.88800
H  23.41700 1.65500 33.05400
H  23.01800 -0.25000 34.63500
H  23.27000 -1.44600 33.39800
H  21.84900 -0.43700 33.37700
H  24.94500 2.72400 34.13900
H  26.50100 2.40900 33.58600
H  27.22800 2.14100 35.61700
H  26.45100 0.67400 35.77300
H  19.60000 1.16000 28.70100
H  20.02800 0.20600 30.09700
H  19.50300 -0.60400 28.64600
H  18.96800 0.01700 26.37100
H  19.11500 1.16700 24.90900
H  19.36500 1.72100 26.58700
H  26.23300 0.98100 24.00800
H  27.86800 -1.54900 24.71500
H  25.25300 -1.84500 23.93700
H  26.18100 -1.33100 22.58100
H  24.71600 -0.48200 22.84100
H  28.91000 -0.02300 23.30700
H  29.59900 0.06200 24.99600
H  27.84200 2.28100 24.97600
H  28.76100 2.41800 23.48900
H  29.62400 2.18200 24.91300
H  31.82700 -1.38100 29.86600
H  31.45200 -1.01300 28.17800
H  30.76000 -2.52100 28.94200
H  28.59000 0.97700 33.52800
H  28.50400 -2.83900 35.68000
H  27.76900 -1.55800 36.74300
H  29.44400 -1.86100 36.75300
Mg 0.28700 43.96800 26.47100
C  2.63600 43.60200 29.13700
C  -1.94800 42.34500 28.41200
C  -1.73200 43.81800 23.75000
C  2.99300 45.12500 24.41800
N  0.42300 43.09400 28.52300
C  1.30000 43.28300 29.48800
C  0.69900 43.08600 30.91400
C  -0.69700 42.47000 30.61600
C  -0.81100 42.67200 29.11000
C  -0.99400 41.05500 31.11900
C  0.62500 44.37700 31.77700
C  1.00100 44.23000 33.33900
H  0.68100 42.94900 34.08900
N  -1.55700 43.00300 26.09000
C  -2.31000 42.35100 27.01600
C  -3.52400 41.90900 26.41200
C  -3.58500 42.45000 25.06600
C  -2.23100 43.16200 24.89000
C  -4.56500 41.00900 27.19600
C  -4.62200 42.29000 24.02300
O  -4.51700 42.78900 22.90800
C  -5.75800 41.37600 24.25000
N  0.56500 44.39900 24.36600
C  -0.47900 44.43900 23.52000
C  -0.16400 45.32800 22.34500
C  1.30000 45.81400 22.60800
C  1.68000 45.10000 23.86500
C  -0.27100 44.70300 20.93500
C  1.28300 47.33800 22.96800
C  2.06500 48.32700 22.08600
N  2.37000 44.43300 26.66000
C  3.35200 44.75400 25.73200
C  4.67200 44.63200 26.35400
C  4.38000 44.24300 27.66600
C  3.00700 44.12700 27.84200
C  6.02500 44.86000 25.74900
C  4.99800 43.92300 28.98000
O  6.19400 43.86300 29.24900
C  3.79800 43.70100 29.94500
C  4.03500 42.45500 30.72100
O  4.33500 41.33100 30.29300
O  3.90300 42.78200 32.03900
C  4.35800 41.69000 32.97700
H  -2.78800 42.05200 29.04600
H  -2.45200 43.91000 22.93400
H  3.78500 45.68800 23.91900
H  1.26200 42.30200 31.42000
H  -1.45000 43.04600 31.15400
H  -1.12700 40.36100 30.29000
H  -1.85600 40.98200 31.78300
H  -0.23500 40.73100 31.83000
H  -0.40000 44.71900 31.92100
H  1.24200 45.17500 31.36400
H  0.39900 45.02200 33.78400
H  2.08300 44.30600 33.45100
H  -4.48000 39.97400 26.86300
H  -5.55100 41.35400 26.88700
H  -4.34000 41.08800 28.25900
H  -6.50700 41.85400 24.88100
H  -5.40600 40.42700 24.65600
H  -6.17700 41.13400 23.27300
H  -0.96600 46.06400 22.29300
H  1.95600 45.57500 21.77000
H  0.62200 44.94500 20.35800
H  -1.23800 44.96700 20.50800
H  -0.26000 43.61300 20.97500
H  1.46400 47.40900 24.04100
H  0.29600 47.75600 22.76600
H  1.42300 49.00900 21.52900
H  2.66300 47.70400 21.42000
H  2.81700 48.85600 22.67100
H  6.56000 43.94300 25.99700
H  6.44300 45.77600 26.16500
H  5.93100 44.99900 24.67200
H  3.65800 44.51000 30.66200
H  3.63800 40.87500 32.89800
H  4.25100 42.20900 33.93000
H  5.39400 41.44900 32.74000

