158

Mg 55.83700 25.53700 45.38000
C  53.12700 26.87100 43.35200
C  54.77300 22.40900 44.36000
C  58.84800 24.28400 46.13000
C  56.85200 28.70600 45.94200
N  54.12300 24.78800 43.89600
C  53.13900 25.49200 43.26400
C  52.12200 24.52000 42.62200
C  52.45500 23.17700 43.28300
C  53.87700 23.39900 43.87900
C  51.48300 23.00200 44.47300
C  52.24700 24.45000 41.06800
C  50.86300 24.38000 40.35900
H  50.77100 23.73100 38.92100
N  56.66600 23.58400 45.36900
C  56.06900 22.45700 44.92600
C  56.94600 21.30800 45.08400
C  58.22200 21.84300 45.41800
C  58.00500 23.31600 45.69000
C  56.47900 19.93300 44.74300
C  59.54100 21.11800 45.53600
O  59.53900 19.84900 45.39900
C  60.87400 21.72000 45.91300
N  57.71400 26.37800 45.75600
C  58.73600 25.70100 46.21200
C  59.87500 26.61600 46.83200
C  59.19500 27.98400 46.78600
C  57.85000 27.69900 46.09400
C  60.23000 26.17400 48.23200
C  59.93600 29.19300 46.11800
C  60.22200 30.31900 47.16600
N  55.12100 27.40800 44.93900
C  55.56200 28.60200 45.33000
C  54.52700 29.61100 45.06100
C  53.57500 29.02100 44.20100
C  53.99900 27.64800 44.14000
C  54.57600 31.04600 45.47000
C  52.34300 29.24800 43.48500
O  51.59900 30.18600 43.33100
C  52.14000 27.86400 42.79400
C  52.29300 28.02000 41.21200
O  53.25600 27.71000 40.60800
O  51.15200 28.70300 40.71400
C  51.04800 28.88300 39.26600
H  54.54100 21.36900 44.12100
H  59.78400 23.92700 46.56600
H  57.06700 29.63700 46.47100
H  51.08700 24.74900 42.87500
H  52.51300 22.35300 42.57200
H  50.51200 22.52600 44.34000
H  51.32800 23.91400 45.04900
H  51.85400 22.40900 45.31000
H  52.86400 23.59500 40.79000
H  52.84000 25.27800 40.67900
H  50.51600 25.41200 40.32300
H  50.22900 23.92800 41.12200
H  55.49500 19.65000 45.11500
H  57.12100 19.13000 45.10300
H  56.38100 19.76100 43.67100
H  61.11400 22.60900 45.33100
H  61.56700 20.97900 45.51500
H  60.94800 21.85700 46.99200
H  60.80700 26.55800 46.27000
H  58.84800 28.23100 47.78900
H  61.18400 25.67000 48.07500
H  59.42300 25.49300 48.50000
H  60.30700 26.99400 48.94700
H  59.52100 29.75200 45.27900
H  60.94500 28.91600 45.81300
H  59.30100 30.38000 47.74500
H  60.52000 31.25100 46.68600
H  61.02900 30.06400 47.85300
H  53.58500 31.31600 45.83500
H  54.91300 31.64100 44.62100
H  55.24600 31.31300 46.28800
H  51.08900 27.59900 42.91500
H  50.19600 29.51100 39.00500
H  51.03600 27.91700 38.76000
H  51.95100 29.40800 38.95300
Mg 35.06700 48.33000 25.01400
C  35.69400 46.69200 27.97600
C  33.69800 51.01000 26.89400
C  34.08200 49.79000 22.12100
C  35.96800 45.53300 23.27300
N  34.58600 48.73200 27.20500
C  35.04600 47.92600 28.24300
C  34.79700 48.61300 29.71500
C  33.97600 49.90400 29.23600
C  33.99600 49.87800 27.65600
C  32.49400 50.15600 29.76800
C  36.11500 49.03200 30.38300
C  36.05800 48.85400 31.82700
H  34.75800 49.03000 32.58700
N  34.16600 50.19900 24.48800
C  33.71200 51.14200 25.42400
C  33.44600 52.33000 24.68400
C  33.42200 52.02200 23.29100
C  33.89500 50.60100 23.25300
C  33.25200 53.66400 25.25400
C  32.99600 52.85700 22.09800
O  33.16800 52.50400 20.97500
C  32.39000 54.27400 22.27300
N  35.10100 47.77700 22.93300
C  34.66200 48.55400 21.94400
C  34.77300 47.80900 20.55600
C  35.40500 46.43400 20.95800
C  35.57100 46.57500 22.47800
C  33.39600 47.70900 19.71500
C  36.81800 46.23500 20.31100
C  37.95600 47.23700 20.65300
N  35.59100 46.44200 25.47500
C  36.08300 45.43600 24.64900
C  36.53900 44.34800 25.46200
C  36.41100 44.80300 26.84200
C  35.91500 46.11700 26.74100
C  36.90300 43.02800 25.03000
C  36.56500 44.42200 28.32400
O  37.04800 43.43700 28.83700
C  36.09700 45.68300 29.07100
C  35.01000 45.31700 29.94800
O  33.90000 44.96100 29.49900
O  35.39600 45.35700 31.27900
C  34.25000 45.12400 32.17500
H  33.31400 51.89900 27.39800
H  33.73800 50.24600 21.19100
H  36.46100 44.74900 22.69300
H  34.15800 48.05200 30.39700
H  34.54100 50.76800 29.58900
H  31.84100 50.07400 28.89900
H  32.38600 51.13100 30.24400
H  32.19400 49.44800 30.54100
H  36.27000 50.09800 30.21600
H  36.94600 48.48500 29.93700
H  36.76800 49.46500 32.38400
H  36.34800 47.81300 31.97000
H  32.21200 53.97500 25.16500
H  33.85500 54.38500 24.70300
H  33.61300 53.68300 26.28200
H  31.87100 54.55000 21.35600
H  33.24500 54.91100 22.50200
H  31.59600 54.27900 23.02000
H  35.51300 48.40700 20.02400
H  34.84100 45.56900 20.60800
H  33.67500 47.67300 18.66200
H  32.75900 48.57400 19.90000
H  32.83200 46.85300 20.08500
H  36.67200 46.28200 19.23200
H  37.20800 45.25600 20.59100
H  38.00300 48.10900 19.99900
H  38.92300 46.74400 20.75100
H  37.79600 47.62200 21.66000
H  37.95100 43.11700 24.74200
H  36.33300 42.57500 24.21900
H  36.84000 42.37100 25.89700
H  36.92600 45.97500 29.71600
H  33.49900 45.91000 32.08500
H  34.63700 45.21500 33.19000
H  33.86300 44.11400 32.04400

