158

Mg 30.84800 58.43600 41.45900
C  28.05900 57.02400 39.88600
C  32.77000 55.85100 40.23500
C  33.65800 60.33600 42.12900
C  28.94300 61.33700 41.95600
N  30.47800 56.68100 40.04400
C  29.25000 56.26500 39.57900
C  29.42900 54.89600 38.85200
C  30.87600 54.43300 39.25300
C  31.41300 55.70300 39.90400
C  30.90500 53.31300 40.26000
C  29.31800 55.08600 37.28600
C  28.19900 54.31300 36.54100
H  27.24000 55.16400 35.77100
N  32.95900 58.08400 41.32200
C  33.54700 56.96400 40.75100
C  34.94900 57.23000 40.68500
C  35.23900 58.44500 41.40500
C  33.90600 58.97800 41.70800
C  35.92700 56.20400 40.13100
C  36.61600 59.07200 41.73800
O  37.63900 58.58500 41.27400
C  36.72000 60.26900 42.63400
N  31.26600 60.49300 42.10800
C  32.51300 61.03800 42.21000
C  32.46200 62.56600 42.46100
C  30.94200 62.82200 42.71600
C  30.26600 61.47500 42.37700
C  33.52200 63.01900 43.60500
C  30.43300 64.13200 42.01100
C  31.12700 65.41700 42.35800
N  28.80400 58.96800 41.37500
C  28.19000 60.22100 41.52800
C  26.80200 60.05800 41.16500
C  26.70900 58.71800 40.67300
C  27.94400 58.20500 40.66100
C  25.61200 60.94400 41.24800
C  25.80200 57.79500 40.02800
O  24.54600 57.80100 39.88400
C  26.62800 56.61700 39.46900
C  26.20400 55.29300 40.07200
O  26.78600 54.77700 41.04300
O  25.17300 54.76900 39.34700
C  24.76200 53.40800 39.78500
H  33.39800 54.99700 39.97400
H  34.48500 61.01300 42.35200
H  28.33300 62.22900 42.11200
H  28.62000 54.18300 39.01800
H  31.51100 54.03800 38.46000
H  30.03200 52.66100 40.26400
H  31.03100 53.72500 41.26200
H  31.77500 52.66700 40.13600
H  30.20400 54.67500 36.80300
H  29.29400 56.13800 37.00400
H  27.53300 53.73900 37.18600
H  28.70300 53.59300 35.89700
H  36.94500 56.57700 40.02000
H  35.52200 55.73900 39.23200
H  36.05900 55.51000 40.96200
H  36.13900 60.25800 43.55600
H  36.31600 60.97800 41.91000
H  37.77800 60.46700 42.80800
H  32.80300 63.27900 41.70900
H  30.78000 62.82600 43.79400
H  33.03400 63.67400 44.32800
H  34.32400 63.55400 43.09600
H  33.87800 62.11800 44.10400
H  29.36100 64.22300 42.18700
H  30.50200 63.89600 40.94900
H  31.99800 65.25300 42.99200
H  30.44400 65.92300 43.04000
H  31.40300 66.02900 41.49900
H  24.73400 60.30000 41.19500
H  25.72500 61.57700 40.36800
H  25.70200 61.47900 42.19400
H  26.47600 56.63200 38.38900
H  25.65000 52.77800 39.73600
H  24.00900 53.00700 39.10600
H  24.31800 53.32300 40.77700
Mg 7.30600 54.10100 41.69300
C  6.73800 50.66800 40.99600
C  10.46900 53.81700 40.19700
C  7.52000 57.46700 41.41700
C  3.99600 54.28100 42.70800
N  8.34600 52.48400 40.47900
C  7.90100 51.18900 40.45500
C  8.96800 50.41200 39.69400
C  10.29300 51.24200 39.88400
C  9.70400 52.62500 40.18900
C  11.28900 50.72200 40.94900
C  8.51200 50.17900 38.20200
C  8.71300 48.76000 37.56600
H  7.98200 48.36500 36.28500
N  8.81800 55.48300 41.00600
C  10.12000 55.15000 40.55200
C  10.86200 56.31500 40.24700
C  10.03800 57.43400 40.67100
C  8.68900 56.85700 41.01900
C  12.27000 56.31000 39.58000
C  10.40800 58.90500 40.72000
O  11.54400 59.19800 40.38200
C  9.55300 59.99900 41.29200
N  5.94000 55.60800 41.87400
C  6.26400 56.95200 41.77700
C  5.24700 57.86000 42.49800
C  4.01100 56.84100 42.67400
C  4.65800 55.49400 42.38600
C  5.80200 58.41000 43.82000
C  2.91800 57.23300 41.66500
C  2.15100 58.50300 42.11300
N  5.74800 52.77000 41.96300
C  4.47400 53.02200 42.47500
C  3.75200 51.79500 42.71000
C  4.62000 50.83200 42.14000
C  5.70100 51.49000 41.61000
C  2.37000 51.76500 43.40600
C  4.70900 49.41300 41.88700
O  3.96300 48.43100 42.15600
C  6.06200 49.27100 40.97200
C  5.68200 48.58600 39.71600
O  5.31300 49.17700 38.70700
O  5.74800 47.22900 39.86700
C  5.37700 46.29900 38.81400
H  11.52300 53.68000 39.94400
H  7.67100 58.54800 41.38300
H  3.04500 54.56700 43.16200
H  9.08200 49.42400 40.14200
H  10.92000 51.24000 38.99300
H  10.87000 49.84300 41.43700
H  11.54000 51.52100 41.64700
H  12.23300 50.49600 40.45200
H  9.02500 50.98300 37.67300
H  7.47000 50.45900 38.05100
H  8.43300 47.96500 38.25600
H  9.73200 48.63300 37.19900
H  12.88600 57.18100 39.80200
H  12.22600 56.09000 38.51300
H  12.80100 55.54600 40.14800
H  9.24400 59.76600 42.31100
H  8.66600 60.14200 40.67500
H  10.17200 60.89300 41.36400
H  4.95700 58.72000 41.89500
H  3.57600 56.91500 43.67100
H  5.10300 58.42800 44.65600
H  5.94100 59.47500 43.63400
H  6.79300 57.97300 43.93900
H  2.35100 56.39400 41.26000
H  3.43100 57.48700 40.73800
H  2.32200 59.37500 41.48200
H  2.42600 58.75900 43.13600
H  1.06300 58.43100 42.08900
H  2.52100 52.30600 44.34000
H  2.14800 50.72500 43.64900
H  1.57300 52.15900 42.77600
H  6.77600 48.59000 41.43500
H  5.83400 45.33800 39.05300
H  5.77300 46.57200 37.83600
H  4.30300 46.11700 38.77400

