158

Mg 9.67800 4.37300 27.78600
C  10.81600 2.71000 30.84200
C  7.85500 6.37600 29.65900
C  8.10300 5.46900 24.89100
C  11.10500 1.81200 25.88500
N  9.27800 4.42200 30.05400
C  10.02600 3.86900 31.08600
C  9.75400 4.55100 32.41100
C  8.60600 5.54600 32.01900
C  8.55100 5.44200 30.46400
C  7.18000 5.23400 32.67800
C  11.04100 5.17000 33.13800
C  11.60900 4.41500 34.31400
H  11.90700 5.28200 35.58100
N  8.26900 5.81300 27.40100
C  7.63000 6.56900 28.26300
C  6.78400 7.58600 27.62500
C  6.99300 7.42200 26.21100
C  7.86800 6.26000 26.04200
C  6.07700 8.65500 28.48300
C  6.48200 8.21400 25.01800
O  6.74200 7.98600 23.87700
C  5.61100 9.51600 25.24700
N  9.78700 3.85700 25.66600
C  8.85100 4.24800 24.80200
C  8.98400 3.57000 23.40900
C  10.14800 2.55500 23.67600
C  10.45100 2.78800 25.15200
C  7.79800 2.95800 22.81300
C  11.36600 2.76900 22.72100
C  11.62500 1.93500 21.44400
N  10.77800 2.68400 28.19300
C  11.17500 1.67300 27.32300
C  11.67800 0.55400 28.08200
C  11.60700 0.95000 29.44800
C  11.04800 2.18100 29.47600
C  12.15500 -0.74200 27.49400
C  11.89700 0.50600 30.83800
O  12.40200 -0.57800 31.19700
C  11.45800 1.72300 31.83100
C  10.57200 1.11200 32.84100
O  9.37000 1.15800 32.84000
O  11.31500 0.47500 33.82000
C  10.67200 0.37700 35.11400
H  7.58300 7.18500 30.34200
H  7.69800 5.69700 23.90300
H  11.50300 1.04200 25.22100
H  9.33200 3.68000 32.91400
H  8.86900 6.57400 32.27200
H  7.16300 4.37600 33.35000
H  6.48400 5.04100 31.86200
H  6.78300 6.05900 33.27000
H  10.80200 6.21000 33.36000
H  11.68900 5.15000 32.26100
H  12.54100 3.95700 33.98300
H  10.81500 3.72500 34.59700
H  4.99900 8.72600 28.33600
H  6.57100 9.57700 28.17800
H  6.17200 8.50100 29.55700
H  5.44600 9.87100 24.23000
H  6.07400 10.34100 25.78800
H  4.60500 9.22300 25.54800
H  9.21800 4.40800 22.75200
H  9.85300 1.50800 23.59600
H  7.88700 1.89000 22.61700
H  7.61800 3.55000 21.91600
H  6.88900 3.07700 23.40300
H  12.24100 2.62900 23.35500
H  11.39800 3.78900 22.33700
H  11.88200 2.57800 20.60200
H  10.74300 1.31800 21.27400
H  12.41400 1.19600 21.58300
H  11.94600 -1.59700 28.13700
H  13.17600 -0.62700 27.12800
H  11.58400 -0.90500 26.58000
H  12.37200 2.14400 32.25100
H  11.48900 0.41200 35.83500
H  10.15800 -0.58400 35.14100
H  9.90900 1.12100 35.33900
Mg -1.70500 34.44800 26.73200
C  -3.19200 32.58700 29.10400
C  -0.33900 36.44800 29.16600
C  -0.60600 36.61300 24.26000
C  -3.67700 32.89900 24.34700
N  -1.61600 34.38300 28.82400
C  -2.24800 33.45400 29.63400
C  -1.95300 33.65200 31.17000
C  -1.00600 34.91700 31.17600
C  -0.92300 35.28800 29.64200
C  -1.49100 36.13700 32.02100
C  -1.23600 32.36200 31.74800
C  -1.85700 31.73700 32.96600
H  -1.06900 31.88400 34.27600
N  -0.49100 36.23000 26.69700
C  -0.09000 36.87700 27.83700
C  0.67400 38.00600 27.43300
C  0.78900 37.96500 25.96300
C  -0.11500 36.90700 25.54900
C  1.16200 39.05800 28.40800
C  1.58400 38.82100 25.05300
O  1.51700 38.71700 23.81400
C  2.46300 39.86300 25.60200
N  -2.12600 34.76600 24.63700
C  -1.56700 35.70500 23.87400
C  -2.10200 35.56400 22.39200
C  -2.88100 34.25500 22.45300
C  -2.97200 34.01900 23.91500
C  -2.95300 36.81600 21.97300
C  -2.36100 33.05900 21.66200
C  -1.27600 32.09500 22.28600
N  -3.11800 32.94900 26.56900
C  -3.85500 32.41700 25.64900
C  -4.62600 31.30800 26.08500
C  -4.44300 31.36800 27.46600
C  -3.51400 32.37000 27.74200
C  -5.52300 30.45700 25.36300
C  -4.76100 30.80900 28.73200
O  -5.46900 29.81700 28.97100
C  -4.04500 31.68700 29.86300
C  -5.07400 32.29000 30.73100
O  -5.97800 33.08500 30.37100
O  -5.02800 31.73300 32.01600
C  -6.13300 32.13100 32.81000
H  0.25100 36.95800 29.93000
H  -0.34600 37.29000 23.44400
H  -4.23200 32.36800 23.57100
H  -2.90800 33.91400 31.62600
H  -0.01500 34.57900 31.47900
H  -1.74000 36.99700 31.40100
H  -0.60000 36.43800 32.57300
H  -2.23700 35.78900 32.73600
H  -0.20700 32.61100 32.00800
H  -1.24700 31.72100 30.86600
H  -1.91200 30.66100 32.80000
H  -2.79900 32.27200 33.08400
H  0.86400 40.07100 28.13800
H  2.24000 39.21000 28.46200
H  0.84800 38.94100 29.44600
H  3.17900 40.13700 24.82700
H  2.99100 39.51500 26.49000
H  1.69700 40.61200 25.80500
H  -1.18700 35.41800 21.81900
H  -3.91900 34.36800 22.13800
H  -2.34800 37.49900 21.37600
H  -3.21300 37.43100 22.83400
H  -3.81000 36.48000 21.38900
H  -1.90200 33.28800 20.70000
H  -3.20900 32.38700 21.53000
H  -1.58800 31.13700 22.70200
H  -0.66200 32.67300 22.97600
H  -0.52600 31.96300 21.50700
H  -5.79200 29.49200 25.79400
H  -5.20400 30.14100 24.37000
H  -6.46300 30.99000 25.21600
H  -3.40300 30.98700 30.39700
H  -5.94000 32.74800 33.68800
H  -6.37400 31.14600 33.20900
H  -7.06300 32.41400 32.31600

