158

Mg 52.60400 25.10000 44.93300
C  50.07700 27.27100 43.90600
C  51.04600 22.46700 43.40800
C  55.58800 23.38800 44.58000
C  54.36900 27.87800 46.15700
N  50.69500 24.94000 43.87800
C  49.82400 25.92100 43.56100
C  48.69300 25.33300 42.63800
C  48.80600 23.82700 42.99200
C  50.29600 23.69500 43.47300
C  47.76700 23.22100 44.02400
C  49.05200 25.78900 41.22100
C  47.85700 25.89200 40.29900
H  48.27300 26.30100 38.88000
N  53.20700 23.10100 44.37800
C  52.39400 22.14300 43.79800
C  53.18800 20.91200 43.66100
C  54.51100 21.23500 43.98700
C  54.47200 22.62800 44.37800
C  52.61900 19.66600 43.08800
C  55.71800 20.21900 43.96800
O  55.49500 19.01100 43.82900
C  57.15000 20.57700 44.21800
N  54.73400 25.58000 45.29900
C  55.71100 24.68900 45.14500
C  57.00500 25.22800 45.75900
C  56.64800 26.72000 46.22300
C  55.15800 26.70800 45.98200
C  57.64900 24.38400 46.90300
C  57.37400 27.81500 45.36600
C  57.32400 29.17500 45.88700
N  52.33200 27.20000 44.95900
C  53.04200 28.14200 45.67100
C  52.31400 29.39400 45.69600
C  51.17500 29.10200 44.94400
C  51.22100 27.76100 44.52100
C  52.69700 30.66300 46.34800
C  49.97100 29.62100 44.52700
O  49.55900 30.75200 44.71100
C  49.17500 28.56700 43.74600
C  48.94800 29.07200 42.33700
O  49.73800 29.24300 41.39300
O  47.58200 29.29900 42.29200
C  47.12400 29.79000 41.02700
H  50.57700 21.54900 43.04800
H  56.60000 22.97800 44.59700
H  54.94300 28.69400 46.60000
H  47.66100 25.67000 42.73200
H  48.71200 23.24900 42.07200
H  47.27100 24.02600 44.56700
H  48.29800 22.57700 44.72500
H  47.03600 22.70800 43.39900
H  49.75400 25.04400 40.84700
H  49.47800 26.79100 41.27900
H  47.34700 26.76900 40.69600
H  47.19800 25.02500 40.33700
H  51.67800 19.94600 42.61400
H  52.48500 18.94200 43.89200
H  53.22400 19.27000 42.27300
H  57.85200 19.74300 44.24200
H  57.24900 21.03100 45.20400
H  57.38000 21.27600 43.41500
H  57.74200 25.42500 44.98000
H  56.63200 26.99400 47.27800
H  57.59800 24.91300 47.85500
H  58.68200 24.24400 46.58500
H  57.24600 23.38000 47.03400
H  56.91400 27.74500 44.38100
H  58.42200 27.51500 45.38500
H  58.30100 29.64200 46.01100
H  56.92200 29.09200 46.89700
H  56.62700 29.78400 45.31200
H  52.09800 30.80700 47.24800
H  52.46800 31.51100 45.70200
H  53.77800 30.80200 46.37500
H  48.16800 28.44400 44.14500
H  46.23000 30.41400 41.01500
H  46.86800 29.08100 40.23900
H  47.79700 30.60400 40.75700
Mg 9.80700 47.86900 26.83700
C  8.11900 48.11100 29.90700
C  12.46300 49.55800 28.36800
C  11.16600 47.95400 23.88000
C  6.54000 47.11500 25.38600
N  10.19000 48.72000 28.86800
C  9.41200 48.54300 30.01600
C  10.18300 48.92600 31.25500
C  11.19800 49.88800 30.56000
C  11.37600 49.35000 29.16600
C  10.86200 51.42900 30.64300
C  10.82300 47.70900 32.13700
C  10.43800 47.78400 33.65300
H  10.31200 46.47600 34.39200
N  11.66000 48.49100 26.22600
C  12.62700 49.10200 27.00500
C  13.81700 49.25500 26.15500
C  13.47900 48.70600 24.85200
C  12.02900 48.36100 24.92200
C  15.06300 49.99900 26.63700
C  14.41700 48.59300 23.69000
O  14.06800 48.20400 22.59900
C  15.89000 48.83200 23.94200
N  8.94100 47.68500 24.91300
C  9.76700 47.71500 23.86800
C  9.06400 47.28200 22.55000
C  7.64400 46.82000 23.06300
C  7.68600 47.31600 24.57400
C  9.01900 48.29700 21.50600
C  7.39100 45.28500 22.94200
C  7.96500 44.25000 23.94300
N  7.68700 47.70600 27.51300
C  6.50400 47.33000 26.81900
C  5.39800 47.13600 27.73600
C  6.04900 47.39400 29.01800
C  7.41100 47.74900 28.78600
C  3.94800 46.73500 27.40600
C  5.75800 47.40100 30.44900
O  4.72300 47.24000 31.04600
C  7.15600 47.76200 31.06500
C  7.57800 46.47300 31.74300
O  7.89500 45.48000 31.16800
O  7.32000 46.53500 33.09200
C  7.24600 45.27400 33.78100
H  13.25400 50.14400 28.84200
H  11.62600 47.81900 22.89900
H  5.60600 46.71700 24.98400
H  9.56700 49.55200 31.90100
H  12.12900 49.87300 31.12600
H  10.16600 51.60800 31.46200
H  10.50100 51.75000 29.66600
H  11.74800 52.04200 30.80700
H  11.91100 47.73800 32.08800
H  10.45900 46.76100 31.74200
H  9.49100 48.32400 33.64400
H  11.22900 48.31500 34.18300
H  14.82500 50.41500 27.61600
H  15.34900 50.70900 25.86200
H  15.90700 49.31400 26.71800
H  16.22100 48.14800 24.72300
H  16.08600 49.87300 24.20100
H  16.49300 48.55400 23.07700
H  9.57200 46.36500 22.25100
H  6.85700 47.35100 22.52800
H  9.79500 49.01000 21.78600
H  8.10900 48.89400 21.56700
H  9.17900 48.04100 20.45900
H  7.62200 44.97200 21.92300
H  6.35200 45.04900 23.17500
H  8.60300 44.78200 24.64900
H  8.68800 43.59500 23.45800
H  7.24400 43.79500 24.62300
H  3.75700 46.57500 26.34500
H  3.27200 47.47600 27.83300
H  3.75000 45.78500 27.90200
H  7.09100 48.54100 31.82500
H  7.75000 44.39800 33.37300
H  6.19600 44.99100 33.85200
H  7.67800 45.48400 34.75900

