158

Mg 0.59000 6.94200 25.93400
C  1.56400 9.16100 28.53300
C  0.74300 4.38200 28.29500
C  -0.25200 4.85300 23.54500
C  1.12600 9.53700 23.68700
N  1.04600 6.84400 28.21700
C  1.32900 7.85900 29.04500
C  1.35800 7.39600 30.50300
C  1.39600 5.86200 30.30900
C  1.06400 5.65900 28.86400
C  2.79300 5.42200 30.66200
C  0.07700 7.83400 31.32200
C  0.34700 8.08400 32.84800
H  1.62500 7.62000 33.56600
N  0.23000 4.98200 25.96600
C  0.40100 4.07700 26.98400
C  0.06600 2.73700 26.52500
C  -0.16700 2.81800 25.08100
C  -0.14200 4.27900 24.80000
C  0.05500 1.65900 27.51800
C  -0.47800 1.76700 24.13500
O  -0.78400 2.00800 22.95700
C  -0.26200 0.32100 24.50500
N  0.65200 7.09200 23.84000
C  0.14500 6.10900 23.07400
C  -0.19900 6.66600 21.67200
C  0.57300 8.01700 21.61200
C  0.71200 8.27900 23.17500
C  0.12900 5.77800 20.36600
C  -0.24300 9.25300 20.91300
C  0.51800 10.12600 19.84800
N  1.21200 9.00900 25.99100
C  1.37100 9.94700 24.97700
C  1.71100 11.27500 25.55400
C  1.84500 10.97400 26.89400
C  1.51000 9.64700 27.14700
C  2.02700 12.50100 24.84200
C  2.15800 11.52400 28.17400
O  2.59100 12.64000 28.38300
C  1.96500 10.44200 29.31400
C  3.23900 10.40800 30.18400
O  4.27300 9.79900 29.84000
O  3.15200 11.19900 31.30000
C  4.31800 11.28100 32.12800
H  0.78200 3.51100 28.95300
H  -0.54800 4.25800 22.67900
H  1.46900 10.25800 22.94200
H  2.15300 7.86900 31.08000
H  0.70900 5.40100 31.01900
H  3.53900 5.36000 29.87000
H  2.71800 4.43900 31.12700
H  3.18700 6.03400 31.47400
H  -0.78400 7.16600 31.29300
H  -0.16600 8.85100 31.01300
H  -0.42800 7.50700 33.35200
H  0.15000 9.13800 33.04300
H  -0.50600 0.79900 27.15000
H  -0.40200 2.04500 28.42900
H  1.02000 1.36700 27.93100
H  0.65300 0.34200 25.09800
H  -0.02500 -0.23600 23.59800
H  -1.18800 -0.01200 24.97100
H  -1.25500 6.93600 21.66700
H  1.57600 7.96800 21.18700
H  0.42400 6.46500 19.57300
H  -0.78700 5.31500 19.99700
H  0.96500 5.09100 20.49200
H  -0.51500 9.95700 21.69900
H  -1.17900 8.84500 20.53200
H  0.41500 11.09500 20.33700
H  0.06900 10.21700 18.85900
H  1.58500 9.93600 19.73900
H  2.90100 12.37700 24.20200
H  2.44300 13.08900 25.66100
H  1.15600 12.86200 24.29600
H  1.15600 10.77200 29.96600
H  5.28000 11.10800 31.64600
H  4.35300 10.52600 32.91300
H  4.40800 12.27400 32.56900
Mg -10.94100 39.94800 41.46200
C  -9.96400 36.66000 40.71500
C  -7.82900 41.08800 40.34700
C  -12.20900 43.05600 41.28500
C  -14.29900 38.72400 41.66100
N  -9.16900 38.93900 40.67000
C  -8.95700 37.55500 40.46300
C  -7.58100 37.31700 39.82800
C  -6.82900 38.68700 40.04300
C  -8.01000 39.63400 40.38200
C  -5.71000 38.80300 41.14000
C  -7.63900 36.78100 38.32400
C  -6.59600 35.72100 37.88200
H  -5.65200 36.18600 36.79900
N  -10.04700 41.83300 40.93000
C  -8.75600 42.12700 40.54800
C  -8.69300 43.55300 40.27400
C  -9.96100 44.11600 40.48500
C  -10.81600 42.97600 40.93000
C  -7.40600 44.24500 39.67300
C  -10.31400 45.53100 40.21100
O  -9.49300 46.28100 39.76300
C  -11.78300 45.95900 40.25700
N  -13.05900 40.73700 41.62000
C  -13.20200 42.12200 41.54800
C  -14.75100 42.44000 41.63400
C  -15.38900 41.06400 41.73700
C  -14.24300 40.09400 41.66000
C  -15.24900 43.60600 42.67600
C  -16.56900 40.73900 40.81400
C  -17.96800 40.66600 41.45900
N  -11.84400 38.11900 41.58000
C  -13.17700 37.80700 41.67700
C  -13.37400 36.43000 41.72800
C  -12.10300 35.87300 41.43200
C  -11.20400 36.97200 41.23500
C  -14.56300 35.74300 42.01000
C  -11.33400 34.71600 41.18300
O  -11.69000 33.53500 41.27800
C  -9.96800 35.17300 40.71800
C  -8.91000 34.64900 41.58800
O  -8.68900 34.87200 42.80700
O  -8.06500 33.91000 40.85200
C  -6.72300 33.69800 41.36500
H  -6.81800 41.36700 40.04600
H  -12.63400 44.05600 41.40200
H  -15.31100 38.31600 41.65100
H  -7.03100 36.55900 40.38700
H  -6.45400 38.97400 39.06000
H  -4.90500 39.44600 40.78700
H  -5.28100 37.80500 41.22900
H  -5.99000 39.08200 42.15600
H  -7.44100 37.63000 37.67000
H  -8.59400 36.34700 38.02700
H  -7.18100 34.88700 37.49400
H  -6.01700 35.34600 38.72600
H  -6.77600 43.40900 39.36800
H  -6.95300 44.82400 40.47700
H  -7.59400 44.90500 38.82600
H  -12.08700 46.09600 41.29500
H  -12.41800 45.25200 39.72300
H  -11.79600 46.93900 39.77900
H  -14.94700 42.81300 40.62900
H  -15.58000 40.90100 42.79800
H  -15.73800 43.07900 43.49600
H  -15.89800 44.23200 42.06400
H  -14.42400 44.05300 43.23000
H  -16.44100 39.80700 40.26400
H  -16.69200 41.54500 40.09000
H  -18.22500 39.60800 41.51300
H  -18.76700 41.28900 41.05600
H  -17.89100 40.97800 42.50100
H  -15.02600 36.24200 42.86100
H  -14.46100 34.69400 42.28600
H  -15.19100 35.82700 41.12300
H  -9.90300 34.74400 39.71800
H  -5.95000 34.35700 40.96800
H  -6.34900 32.74200 40.99800
H  -6.53300 33.62500 42.43600

