158

Mg 41.70600 40.48600 26.14500
C  40.99400 43.03600 28.49400
C  43.17600 38.59600 28.63800
C  42.59100 38.20800 23.76900
C  41.12000 42.77400 23.61200
N  42.17800 40.85900 28.33900
C  41.63600 41.86100 29.10300
C  41.84400 41.56200 30.55500
C  42.64200 40.23200 30.55200
C  42.63000 39.84800 29.05200
C  44.14100 40.23000 31.08900
C  40.55500 41.49000 31.32200
C  40.68300 42.22600 32.60600
H  39.83500 41.88700 33.77300
N  42.71700 38.66500 26.23700
C  43.19300 38.07600 27.35700
C  43.63600 36.76900 27.02900
C  43.44800 36.52400 25.63900
C  42.91600 37.82100 25.13500
C  44.10800 35.77500 28.02500
C  43.85400 35.38100 24.74800
O  43.70900 35.28600 23.54600
C  44.28300 34.15300 25.40400
N  42.12100 40.62300 24.08800
C  42.26600 39.49200 23.35500
C  42.19800 39.84300 21.85200
C  41.70600 41.25900 21.83800
C  41.58900 41.56600 23.29000
C  43.54100 39.64600 21.15200
C  40.46300 41.53200 21.03000
C  39.02100 41.06900 21.58700
N  41.01000 42.47800 26.01800
C  40.85300 43.29200 24.93500
C  40.48500 44.58300 25.39400
C  40.45000 44.54400 26.73300
C  40.83000 43.23100 27.08300
C  40.11700 45.71900 24.51100
C  40.07500 45.22700 27.95400
O  39.43700 46.28700 28.06600
C  40.42000 44.29900 29.09500
C  41.34100 44.98000 30.06600
O  42.53800 45.02900 29.93600
O  40.61300 45.41400 31.20500
C  41.43700 45.87500 32.32200
H  43.70000 38.08800 29.45000
H  42.77000 37.42600 23.02800
H  40.84800 43.45800 22.80400
H  42.42600 42.43700 30.84500
H  42.17000 39.39400 31.06500
H  44.83500 40.16900 30.25100
H  44.34400 39.39300 31.75700
H  44.30400 41.13300 31.67700
H  40.37900 40.48500 31.70600
H  39.65100 41.66100 30.73800
H  40.55100 43.27000 32.32200
H  41.67800 42.26200 33.05000
H  43.70400 35.88900 29.03100
H  45.18900 35.65300 27.95600
H  43.50200 34.90000 27.79100
H  43.38300 33.71000 25.83100
H  45.02700 34.18100 26.20000
H  44.57100 33.44300 24.62800
H  41.40400 39.23900 21.41300
H  42.53100 41.84000 21.42700
H  43.88000 40.57100 20.68600
H  43.30300 38.90200 20.39200
H  44.31300 39.09500 21.69000
H  40.51400 40.98000 20.09100
H  40.50100 42.60200 20.82500
H  39.09600 40.01800 21.86800
H  38.25700 41.15600 20.81400
H  38.66200 41.63600 22.44500
H  39.30000 46.32500 24.90400
H  39.80000 45.40600 23.51700
H  40.90700 46.42200 24.24800
H  39.47900 43.98600 29.54700
H  40.87500 46.55000 32.96700
H  42.39100 46.29000 31.99600
H  41.69600 45.03600 32.96800
Mg 16.23400 51.79400 26.66600
C  18.25900 50.50200 29.31800
C  13.96700 52.74100 29.09400
C  14.67700 53.52300 24.33800
C  18.39700 50.41300 24.36600
N  16.27700 51.86300 29.02300
C  17.14300 51.24400 29.83700
C  16.69900 51.25200 31.28500
C  15.17000 51.70900 31.15000
C  15.07000 52.11100 29.64800
C  14.11100 50.68300 31.67300
C  17.59300 52.21500 32.13000
C  17.79800 51.79900 33.58400
H  17.24800 52.60500 34.72600
N  14.51700 52.86300 26.68800
C  13.71500 53.15500 27.76600
C  12.60400 53.91000 27.27100
C  12.89000 54.31200 25.92800
C  14.08900 53.54600 25.55500
C  11.41700 54.26000 28.10400
C  12.19700 55.29100 25.04600
O  12.57900 55.63200 23.92300
C  10.97300 56.05600 25.56300
N  16.42900 51.90200 24.57100
C  15.67500 52.73000 23.80800
C  16.23300 52.82600 22.32900
C  17.33400 51.66900 22.36500
C  17.41200 51.28200 23.86600
C  15.05800 52.82000 21.26200
C  18.78100 52.05200 21.78000
C  19.66900 53.15700 22.45700
N  17.90400 50.55500 26.77700
C  18.66200 50.06900 25.72700
C  19.83800 49.37400 26.29100
C  19.65100 49.42400 27.65600
C  18.54400 50.26300 27.92400
C  20.95500 48.71100 25.48000
C  20.19500 49.01900 28.89600
O  21.16000 48.26500 29.04400
C  19.40100 49.68600 30.06000
C  18.78000 48.49200 30.81600
O  18.32500 47.46100 30.32500
O  18.97000 48.73600 32.21200
C  18.41600 47.67200 32.94800
H  13.27300 52.96900 29.90600
H  14.23500 54.17200 23.58000
H  19.03200 49.98700 23.58600
H  16.74100 50.20900 31.60000
H  14.98600 52.68800 31.59400
H  13.65200 51.07100 32.58300
H  14.60800 49.80200 32.08000
H  13.40900 50.47400 30.86500
H  17.15700 53.21100 32.05200
H  18.53900 52.34100 31.60500
H  18.87900 51.85000 33.71800
H  17.48600 50.77600 33.79500
H  11.70800 55.00300 28.84700
H  11.13900 53.36600 28.66300
H  10.52400 54.51500 27.53500
H  10.04300 55.50300 25.69800
H  10.75500 56.87400 24.87600
H  11.26900 56.60500 26.45600
H  16.75900 53.75600 22.11200
H  16.92000 50.81500 21.82900
H  15.34300 52.14500 20.45500
H  14.90700 53.81500 20.84300
H  14.10700 52.47000 21.66400
H  18.71000 52.28900 20.71800
H  19.39600 51.16100 21.65200
H  19.51000 54.13400 22.00200
H  20.68800 52.78400 22.34500
H  19.46000 53.19700 23.52600
H  21.57200 49.47700 25.01000
H  20.51300 48.02200 24.76100
H  21.59700 48.00200 26.00400
H  19.98100 50.31400 30.73700
H  18.61900 46.71700 32.46300
H  17.36400 47.82800 33.18700
H  19.04800 47.54800 33.82700

