158

Mg 0.79700 6.87100 26.60900
C  1.35200 9.27000 29.06200
C  0.80200 4.47000 28.88500
C  0.10400 4.76500 24.01100
C  1.34900 9.41600 24.19100
N  0.97000 6.91100 28.70900
C  1.12100 8.00900 29.54700
C  1.05000 7.59200 31.04300
C  1.20500 6.04500 30.94200
C  0.99800 5.77500 29.40800
C  2.58200 5.59400 31.43700
C  -0.19900 7.97100 31.85100
C  0.06700 8.16100 33.38700
H  1.26200 7.61400 34.06100
N  0.58500 4.83900 26.50600
C  0.61400 3.98700 27.54400
C  0.40000 2.63500 27.08700
C  0.14100 2.74100 25.71700
C  0.26000 4.17300 25.34700
C  0.46900 1.46300 28.08400
C  -0.30400 1.59900 24.77000
O  -0.47200 1.73200 23.55900
C  -0.29600 0.21800 25.25500
N  0.78200 7.12800 24.39500
C  0.38400 6.08100 23.59400
C  0.31300 6.53000 22.09100
C  0.88900 8.00700 22.16000
C  1.02000 8.18700 23.65200
C  0.96200 5.49300 21.13900
C  0.03000 9.05900 21.33900
C  0.69300 10.09800 20.39800
N  1.30400 8.91400 26.58400
C  1.53400 9.81700 25.48800
C  2.01400 11.05500 25.98700
C  1.87300 10.92000 27.42000
C  1.44800 9.56600 27.69500
C  2.34100 12.25300 25.13100
C  2.04000 11.60000 28.66500
O  2.37500 12.74600 28.91600
C  1.55900 10.54200 29.79800
C  2.66100 10.59300 30.80300
O  3.81800 10.22800 30.58800
O  2.20500 10.95000 31.99800
C  3.19800 11.08700 33.08300
H  0.78200 3.68700 29.64600
H  -0.34500 4.05800 23.31000
H  1.52000 10.18400 23.43400
H  1.93800 7.98900 31.53400
H  0.37000 5.63400 31.50800
H  3.00700 4.76100 30.87700
H  2.56200 5.12100 32.41900
H  3.22400 6.47500 31.41700
H  -0.87000 7.11700 31.93300
H  -0.68500 8.80700 31.34800
H  -0.79700 7.75100 33.91100
H  0.13100 9.23000 33.59000
H  0.90500 0.61400 27.55900
H  -0.46600 1.12200 28.52800
H  1.13700 1.78300 28.88400
H  -0.61900 -0.42300 24.43500
H  -0.98500 0.19200 26.09900
H  0.73000 -0.08100 25.47200
H  -0.73700 6.48400 21.80100
H  1.92200 8.09700 21.82500
H  1.82300 5.96500 20.66400
H  0.28700 5.29200 20.30700
H  1.22300 4.48700 21.46800
H  -0.51700 9.63900 22.08300
H  -0.71600 8.58200 20.70400
H  0.28700 11.08900 20.60100
H  0.62200 9.70400 19.38400
H  1.76700 10.11100 20.58300
H  3.05600 12.86900 25.67500
H  1.48100 12.84100 24.81100
H  2.89100 11.93700 24.24400
H  0.65600 10.99700 30.20700
H  2.90100 11.66700 33.95700
H  4.01400 11.68100 32.67000
H  3.45000 10.05100 33.30900
Mg 6.98500 56.58300 41.83000
C  6.03800 53.09600 41.97600
C  10.07100 55.65400 40.50300
C  7.72200 59.83000 41.35600
C  4.05900 57.40100 43.40800
N  7.88200 54.63800 41.22700
C  7.29100 53.30000 41.34800
C  8.28800 52.33400 40.86600
C  9.66500 53.09000 40.88400
C  9.21500 54.57000 40.83300
C  10.53100 52.77800 42.14300
C  7.90900 51.81700 39.35900
C  8.19600 50.28100 39.27000
H  7.38900 49.47100 38.28000
N  8.57900 57.63300 40.92000
C  9.80100 57.04300 40.53600
C  10.77800 58.07400 40.30000
C  10.09400 59.30500 40.31400
C  8.68500 58.93400 40.83600
C  12.24000 57.78700 39.82500
C  10.73000 60.62900 40.02200
O  11.91900 60.70300 39.74800
C  9.98700 61.97700 40.20600
N  5.90000 58.34000 42.19600
C  6.45900 59.58200 41.93900
C  5.42800 60.64700 42.42700
C  4.27100 59.91600 43.14000
C  4.77700 58.46100 42.95000
C  6.06000 61.87200 43.25100
C  2.84700 60.20500 42.61900
C  1.66800 60.09400 43.64800
N  5.41400 55.51600 42.55600
C  4.31600 55.99300 43.22300
C  3.45900 54.93000 43.60500
C  4.06600 53.76800 43.11900
C  5.24200 54.19100 42.41600
C  2.13700 54.88000 44.25600
C  3.98000 52.33400 43.03300
O  3.14300 51.47600 43.39700
C  5.23000 51.90500 42.19000
C  4.68200 51.32100 40.95900
O  4.25100 51.86200 39.90800
O  4.69500 49.95800 41.03100
C  3.88700 49.26300 40.03200
H  11.09400 55.34600 40.28000
H  8.01400 60.87900 41.27400
H  3.13100 57.60000 43.94800
H  8.38500 51.43200 41.46900
H  10.30700 52.85900 40.03400
H  11.52200 52.53500 41.75900
H  10.18500 51.87500 42.64500
H  10.76700 53.56600 42.85900
H  8.64700 52.34700 38.75700
H  6.92500 52.19200 39.07700
H  7.90400 49.70400 40.14700
H  9.26000 50.12900 39.09000
H  13.01800 58.55100 39.82700
H  12.24900 57.59800 38.75200
H  12.65900 56.90600 40.31200
H  9.89600 62.26700 41.25200
H  9.01700 61.78500 39.74700
H  10.59900 62.68800 39.65000
H  5.03400 61.01400 41.48000
H  4.26200 60.12800 44.20900
H  6.09600 62.83200 42.73700
H  7.09000 61.62000 43.50400
H  5.48300 61.98700 44.16900
H  2.74800 59.43700 41.85200
H  2.60200 61.08700 42.02600
H  1.47100 61.04900 44.13500
H  1.82600 59.33400 44.41300
H  0.79300 59.69500 43.13500
H  1.94300 55.83800 44.73900
H  2.19300 54.19700 45.10300
H  1.30100 54.62500 43.60400
H  5.71800 51.12900 42.78200
H  2.81200 49.42100 40.12300
H  3.99900 48.18900 40.17600
H  4.18500 49.42900 38.99700

