158

Mg 33.87800 2.50700 29.35900
C  31.82400 3.34500 32.13100
C  36.44000 2.11500 31.64200
C  35.89100 2.30500 26.77300
C  31.16600 3.29500 27.35700
N  34.05900 2.88100 31.67400
C  33.07600 3.05200 32.55600
C  33.66500 3.03300 33.98100
C  35.23000 2.69600 33.81500
C  35.24700 2.46900 32.26400
C  36.19600 3.83300 34.20700
C  32.80800 2.05300 34.90200
C  32.78400 2.40200 36.43600
H  33.93900 3.15500 37.10700
N  35.86000 2.20900 29.22700
C  36.81000 2.07100 30.26500
C  38.13100 1.92700 29.72800
C  38.04100 2.07200 28.29100
C  36.52800 2.21300 28.06600
C  39.41400 1.73700 30.60600
C  39.11400 1.97800 27.17300
O  38.81500 2.09200 25.99200
C  40.54200 1.61400 27.56900
N  33.56500 2.78100 27.41700
C  34.53500 2.45800 26.50700
C  34.09200 2.61100 25.02900
C  32.50500 2.73500 25.25600
C  32.37700 2.90400 26.76400
C  34.69100 3.85600 24.22200
C  31.66300 1.53300 24.63900
C  30.60500 1.72000 23.55900
N  31.91000 3.22500 29.59500
C  30.93900 3.50300 28.67700
C  29.71100 3.93400 29.28000
C  30.00900 3.94700 30.63300
C  31.37100 3.44700 30.75700
C  28.37700 4.23200 28.59800
C  29.54200 4.23700 31.95300
O  28.44800 4.58800 32.29700
C  30.69300 3.96800 32.92500
C  31.09200 5.22300 33.54800
O  31.55100 6.17600 32.96000
O  30.91900 5.07700 34.89100
C  31.31600 6.10100 35.76500
H  37.29200 2.04600 32.32200
H  36.51000 2.05300 25.91000
H  30.33100 3.48500 26.67900
H  33.60100 4.07400 34.29700
H  35.49600 1.78200 34.34700
H  36.70200 3.37000 35.05500
H  35.61100 4.68400 34.55600
H  36.84000 4.11600 33.37400
H  33.39900 1.13900 34.86200
H  31.78600 1.93300 34.54400
H  32.63500 1.52400 37.06500
H  31.89600 3.03200 36.48000
H  40.36800 2.18600 30.33000
H  39.60100 0.66600 30.68200
H  39.41500 2.11200 31.62900
H  40.62600 0.85700 28.34900
H  40.84500 2.58700 27.95600
H  41.15900 1.44400 26.68600
H  34.38800 1.68300 24.54000
H  32.16800 3.69300 24.86000
H  35.35400 4.35200 24.93200
H  34.01800 4.68900 24.01500
H  35.17700 3.47700 23.32400
H  31.27300 0.90800 25.44200
H  32.34300 0.87700 24.09400
H  29.56600 1.65300 23.88300
H  30.76800 1.00500 22.75300
H  30.77700 2.73200 23.19300
H  28.38700 4.56900 27.56200
H  27.81700 5.03100 29.08500
H  27.79700 3.31300 28.52100
H  30.31700 3.27600 33.67800
H  31.44400 5.69700 36.76900
H  30.44700 6.75900 35.80200
H  32.20500 6.71000 35.60000
Mg 41.96700 41.91100 27.76100
C  40.52200 44.39300 29.97300
C  42.82100 40.07400 30.52100
C  43.75000 39.96900 25.71800
C  42.11800 44.50300 25.41000
N  41.75300 42.30900 29.92000
C  40.91900 43.20100 30.58200
C  40.74800 42.79700 32.05100
C  41.63000 41.58200 32.24700
C  42.12900 41.30600 30.78900
C  42.71100 41.86500 33.33800
C  39.26600 42.68600 32.61600
C  38.98700 43.30800 33.99800
H  38.75000 42.37700 35.16300
N  43.07600 40.14900 27.97800
C  43.18300 39.51300 29.24000
C  43.88600 38.24100 28.98100
C  44.15800 38.19100 27.53400
C  43.69400 39.43400 27.00500
C  44.17400 37.16700 30.06700
C  44.79200 37.15400 26.68800
O  44.86400 37.27100 25.45100
C  45.35800 35.94800 27.34100
N  42.88300 42.20400 25.91000
C  43.37200 41.18700 25.21400
C  43.56100 41.62700 23.71100
C  42.93400 42.95400 23.62600
C  42.64200 43.26000 25.05700
C  45.06000 41.61500 23.18900
C  41.65400 42.98000 22.68100
C  40.23500 42.69600 23.33100
N  41.32100 44.03800 27.57200
C  41.45500 44.96800 26.52800
C  40.96700 46.27400 26.87100
C  40.56600 46.10100 28.22800
C  40.80200 44.72600 28.60000
C  40.91800 47.48300 25.97400
C  40.09700 46.75200 29.42900
O  39.86100 47.95900 29.61800
C  40.03800 45.71800 30.59700
C  40.90400 46.24400 31.68000
O  42.11100 46.51800 31.55000
O  40.08300 46.59500 32.84400
C  40.87900 47.35000 33.90700
H  42.97100 39.49100 31.43200
H  44.00300 39.31900 24.87700
H  42.03900 45.21600 24.58700
H  41.17200 43.67200 32.54400
H  40.99300 40.77800 32.61400
H  42.14800 41.95500 34.26700
H  43.17500 42.84300 33.21800
H  43.51600 41.13000 33.32200
H  38.95100 41.64400 32.67700
H  38.57600 43.13100 31.89900
H  38.09500 43.89700 33.78300
H  39.84900 43.92800 34.24400
H  45.23400 36.91700 30.02800
H  43.68800 36.21800 29.84300
H  44.00600 37.43600 31.11000
H  44.67700 35.36100 27.95800
H  46.12400 36.40300 27.96800
H  45.80300 35.25700 26.62500
H  42.94100 40.91900 23.16000
H  43.67700 43.68800 23.31400
H  45.32000 42.45000 22.53900
H  45.16800 40.71200 22.58700
H  45.81900 41.53800 23.96800
H  41.82000 42.56500 21.68700
H  41.46600 44.01400 22.39200
H  40.36100 42.37100 24.36300
H  39.75400 41.95400 22.69400
H  39.50100 43.50100 23.29400
H  40.43000 47.39300 25.00300
H  41.93800 47.79900 25.75500
H  40.47300 48.28500 26.56300
H  38.98800 45.64100 30.88100
H  41.27500 48.32700 33.62900
H  41.60600 46.71900 34.41800
H  40.20100 47.66000 34.70300

