158

Mg 49.49500 46.65700 43.85800
C  46.34700 46.93100 42.50300
C  49.96200 43.67500 42.29400
C  52.95100 46.93000 44.46800
C  49.32700 50.02200 44.82100
N  48.22400 45.44400 42.45200
C  46.96400 45.68200 42.07000
C  46.41700 44.59500 41.11300
C  47.59600 43.48800 41.18000
C  48.68400 44.20800 42.03000
C  47.18000 42.10700 41.74100
C  46.02500 45.21400 39.70200
C  44.68200 44.83500 39.14000
H  44.58100 43.78300 38.06300
N  51.15800 45.46300 43.49500
C  51.14500 44.24200 42.93000
C  52.45900 43.62100 42.90100
C  53.29500 44.49800 43.65000
C  52.49500 45.71100 43.91100
C  52.73400 42.24200 42.42300
C  54.71500 44.20000 43.99800
O  55.23100 43.14100 43.68700
C  55.49300 45.10600 44.85900
N  50.97200 48.33500 44.51700
C  52.30200 48.15500 44.70000
C  52.93500 49.45600 45.34700
C  51.75400 50.42100 45.43100
C  50.61700 49.54100 45.01300
C  53.87600 49.21700 46.56700
C  51.75000 51.89700 44.70900
C  51.79100 53.11400 45.70500
N  48.07800 48.11900 43.91700
C  48.14700 49.43900 44.31300
C  46.84900 50.05200 44.12000
C  46.07500 49.06700 43.49900
C  46.90600 47.96300 43.31800
C  46.43700 51.40100 44.45100
C  44.86400 48.79100 42.79700
O  43.85000 49.37200 42.61500
C  44.97000 47.35300 42.22400
C  44.03700 46.52800 43.01600
O  43.94800 46.57600 44.23500
O  43.23300 45.91000 42.12500
C  42.01100 45.29100 42.65300
H  50.00600 42.76200 41.69700
H  54.04100 46.97500 44.52200
H  49.18300 51.07400 45.08000
H  45.53600 44.10700 41.53100
H  48.05200 43.29000 40.21000
H  47.84900 41.95200 42.58700
H  47.37200 41.24100 41.10800
H  46.14500 41.99100 42.06200
H  46.81500 44.82200 39.06200
H  45.95100 46.30000 39.65300
H  44.09000 45.68000 38.78800
H  44.03800 44.54100 39.96900
H  53.22100 42.38400 41.45800
H  51.81800 41.65200 42.42100
H  53.34300 41.77800 43.19800
H  56.32400 44.47000 45.16500
H  54.83600 45.45800 45.65400
H  55.88100 45.99400 44.36200
H  53.52600 50.01300 44.62000
H  51.68400 50.58900 46.50600
H  54.01900 48.15700 46.77300
H  53.47800 49.73800 47.43800
H  54.86100 49.56500 46.25600
H  50.85000 51.95900 44.09600
H  52.58600 51.94700 44.01100
H  52.38300 53.86800 45.18700
H  52.17600 52.92800 46.70800
H  50.74200 53.38200 45.82700
H  46.71900 51.54400 45.49400
H  45.40200 51.53200 44.13400
H  46.99600 52.11800 43.85100
H  44.80000 47.34300 41.14700
H  42.28700 44.23900 42.73600
H  41.18800 45.46000 41.95900
H  41.71900 45.75100 43.59700
Mg 42.13100 41.25900 26.89400
C  41.58000 43.57800 29.58100
C  43.28300 39.11900 29.30900
C  42.91600 39.21200 24.53600
C  41.35100 43.73000 24.62100
N  42.42000 41.32600 29.28200
C  42.01200 42.33300 30.07300
C  42.04500 41.94600 31.58000
C  42.82600 40.49300 31.46200
C  42.84300 40.30600 29.93900
C  44.16600 40.19300 32.18200
C  40.56700 41.98000 32.16500
C  40.26700 42.83300 33.37900
H  39.58700 42.27900 34.66100
N  43.03900 39.39500 26.89200
C  43.27400 38.58700 27.98200
C  43.77000 37.34100 27.51200
C  43.70600 37.29100 26.10700
C  43.19000 38.68900 25.78600
C  44.27600 36.31200 28.44800
C  43.88300 36.13600 25.13400
O  43.61600 36.35300 23.96600
C  44.33300 34.74300 25.57300
N  42.23500 41.54200 24.99800
C  42.42900 40.43500 24.21300
C  42.15400 40.67700 22.76000
C  41.71900 42.17500 22.77600
C  41.70100 42.49000 24.22200
C  43.33800 40.32200 21.74400
C  40.36200 42.31300 22.10100
C  39.13200 41.82100 22.89100
N  41.48400 43.23400 27.01600
C  41.27700 44.16400 25.99300
C  40.85400 45.44500 26.57200
C  40.92200 45.15300 27.97000
C  41.35300 43.85600 28.20600
C  40.47700 46.70800 25.78800
C  40.73900 45.83800 29.26200
O  40.37700 46.97200 29.53100
C  41.15000 44.82300 30.30900
C  42.22000 45.31500 31.18100
O  43.35400 45.57400 30.79100
O  41.75700 45.47700 32.40200
C  42.61900 46.17700 33.35200
H  43.65300 38.47500 30.10900
H  42.94000 38.49100 23.71600
H  41.09500 44.42500 23.81800
H  42.73900 42.59600 32.11200
H  42.17600 39.73200 31.89500
H  44.44200 40.96500 32.90000
H  45.01200 39.98200 31.52800
H  43.97300 39.27300 32.73500
H  40.26000 40.97200 32.44300
H  39.98800 42.33400 31.31100
H  39.55800 43.53700 32.94400
H  41.20400 43.36100 33.55400
H  44.15300 36.58000 29.49800
H  45.35800 36.20500 28.38300
H  43.93400 35.34200 28.08700
H  43.61100 34.22200 26.20200
H  45.13900 34.83700 26.30000
H  44.70800 34.32500 24.63900
H  41.34500 40.04300 22.39500
H  42.47600 42.76800 22.26200
H  43.96900 39.49400 22.06700
H  44.02200 41.16900 21.68600
H  42.85600 40.04100 20.80700
H  40.39000 41.76700 21.15800
H  40.17800 43.35700 21.84900
H  38.59600 41.15700 22.21200
H  38.66500 42.57100 23.52800
H  39.48100 41.06600 23.59600
H  40.84100 46.81200 24.76600
H  40.91700 47.50300 26.39000
H  39.39100 46.80000 25.81400
H  40.21000 44.49300 30.75200
H  42.14600 47.11300 33.64800
H  43.60300 46.47900 32.99500
H  42.65800 45.75000 34.35500

