158

Mg 47.93000 15.75300 28.26100
C  46.14400 15.63000 31.16400
C  50.54300 17.23500 30.00800
C  49.51900 15.82100 25.44900
C  45.23100 14.24300 26.59600
N  48.16100 16.61600 30.32800
C  47.35800 16.28800 31.40000
C  47.97800 16.78400 32.70100
C  49.19100 17.66900 32.25000
C  49.38700 17.14700 30.78900
C  49.16200 19.27400 32.43100
C  48.32100 15.69200 33.69700
C  47.70000 15.82700 35.06600
H  47.51500 17.24800 35.77500
N  49.76900 16.53500 27.76300
C  50.72100 16.99000 28.59000
C  52.02000 17.11700 27.85200
C  51.72300 16.63400 26.53400
C  50.31700 16.34500 26.48500
C  53.30800 17.73900 28.40400
C  52.61400 16.55300 25.27700
O  52.20400 16.26800 24.13900
C  54.07000 16.77400 25.50200
N  47.31100 15.30400 26.21400
C  48.28000 15.30000 25.25800
C  47.80200 14.77300 23.86200
C  46.52200 13.90800 24.45800
C  46.28500 14.54400 25.85000
C  47.54200 15.79700 22.76400
C  46.86200 12.39900 24.56300
C  46.51400 11.53900 23.34800
N  45.98000 15.08900 28.72100
C  44.93100 14.55400 27.96900
C  43.87600 14.14300 28.82700
C  44.22700 14.49700 30.09200
C  45.48900 15.17700 29.97400
C  42.62100 13.43100 28.40700
C  43.91700 14.51900 31.49800
O  42.98500 14.08900 32.20700
C  45.12100 15.23900 32.19300
C  44.46200 16.46600 32.75900
O  44.54100 17.59200 32.32400
O  43.88500 16.06100 33.98100
C  43.17100 17.06900 34.71400
H  51.39200 17.63200 30.56900
H  50.09700 15.70800 24.52900
H  44.47900 13.64800 26.07500
H  47.28600 17.50000 33.14400
H  50.08000 17.44400 32.83900
H  49.18300 19.70600 31.43000
H  50.12900 19.61800 32.79800
H  48.31900 19.60400 33.03800
H  49.40100 15.66700 33.83800
H  47.81600 14.76900 33.41000
H  48.35600 15.23100 35.70100
H  46.78600 15.23400 35.03400
H  54.04600 16.99400 28.70100
H  53.18100 18.41000 29.25400
H  53.92200 18.38500 27.77800
H  54.27800 17.83900 25.40600
H  54.53600 16.30000 24.63900
H  54.47000 16.25800 26.37500
H  48.58600 14.22200 23.34300
H  45.68200 14.02400 23.77300
H  47.70500 16.82800 23.07800
H  46.48400 15.79600 22.50100
H  47.98400 15.53200 21.80400
H  46.23500 11.96800 25.34400
H  47.92500 12.29000 24.77600
H  45.59600 11.82800 22.83600
H  46.53700 10.48500 23.62300
H  47.24400 11.61800 22.54100
H  42.84000 12.71900 27.61100
H  41.94300 14.12600 27.91200
H  42.14700 13.01400 29.29500
H  45.41200 14.53300 32.97000
H  43.60500 18.06700 34.65100
H  43.22800 16.82500 35.77500
H  42.11700 17.04500 34.43900
Mg 0.47200 43.60800 26.68900
C  2.66200 43.67900 29.43800
C  -2.03900 42.56300 28.93700
C  -1.58700 42.89400 24.05200
C  3.06300 44.53300 24.58400
N  0.34900 43.13700 28.88200
C  1.36300 43.34300 29.81300
C  0.86200 43.07500 31.25500
C  -0.66100 42.67100 31.10500
C  -0.77800 42.79900 29.53400
C  -1.03700 41.23400 31.67200
C  1.19000 44.28900 32.16200
C  0.31400 44.60600 33.39800
H  -0.01900 43.52100 34.42700
N  -1.60800 42.96800 26.59200
C  -2.42100 42.64700 27.57100
C  -3.75100 42.47000 26.99600
C  -3.66700 42.56500 25.60700
C  -2.22400 42.78100 25.29900
C  -4.95400 42.13400 27.88700
C  -4.66500 42.33100 24.51600
O  -4.41600 42.39300 23.29000
C  -6.11000 41.93100 24.92200
N  0.71700 43.53800 24.71300
C  -0.24000 43.18000 23.76600
C  0.30500 43.38200 22.31500
C  1.49500 44.34400 22.56000
C  1.81200 44.11300 24.06900
C  0.63600 42.04800 21.54500
C  1.15800 45.87500 22.45400
C  1.86300 46.50700 21.27600
N  2.43600 43.99000 26.90100
C  3.33900 44.40400 25.95700
C  4.65600 44.45400 26.52600
C  4.43100 44.17600 27.85200
C  3.04300 43.92400 28.08500
C  5.95800 44.85900 25.89200
C  5.07700 43.99700 29.15700
O  6.25200 44.00400 29.43100
C  3.91300 43.77000 30.22900
C  4.28100 42.56600 30.96600
O  4.12300 41.42000 30.51200
O  4.68000 42.97400 32.22700
C  4.90100 41.84700 33.15400
H  -2.83900 42.29000 29.62700
H  -2.12400 42.66300 23.12900
H  3.91000 44.74000 23.92700
H  1.55400 42.28000 31.53100
H  -1.30500 43.43400 31.54200
H  -1.31400 40.55700 30.86400
H  -1.99600 41.18100 32.18800
H  -0.18500 40.76900 32.16700
H  1.20900 45.14500 31.48700
H  2.18900 44.12000 32.56400
H  -0.63100 45.10700 33.18900
H  0.93400 45.22100 34.04900
H  -5.83400 42.53000 27.38100
H  -5.04000 42.73800 28.79100
H  -5.00000 41.09300 28.20600
H  -6.76600 41.92800 24.05100
H  -6.57900 42.74400 25.47800
H  -6.02300 40.96400 25.41600
H  -0.50300 43.95100 21.85600
H  2.35700 44.07800 21.94800
H  -0.27300 41.82000 20.98800
H  0.91300 41.27600 22.26300
H  1.38900 42.17600 20.76700
H  1.35500 46.48700 23.33500
H  0.10800 46.13100 22.31500
H  1.19200 46.87600 20.50100
H  2.55500 45.84900 20.75000
H  2.42700 47.35300 21.67000
H  6.37000 45.51100 26.66100
H  6.01800 45.19800 24.85800
H  6.69800 44.06600 25.78000
H  3.89000 44.68600 30.82000
H  4.22400 41.89500 34.00700
H  5.89000 42.06100 33.55800
H  4.84000 40.79400 32.88000

