158

Mg 47.14400 16.18800 28.12200
C  44.95400 15.65800 30.86200
C  48.97100 18.34900 29.91800
C  49.25600 16.37500 25.40600
C  45.03000 14.11900 26.19200
N  46.89700 17.08000 30.13800
C  46.03900 16.59600 31.15400
C  46.36700 17.30200 32.45400
C  47.53800 18.26400 32.03800
C  47.89400 17.85000 30.55600
C  47.20500 19.80600 32.08800
C  46.80400 16.29200 33.52600
C  46.56000 16.51700 35.06300
H  47.73900 16.26500 36.05900
N  48.82600 17.28700 27.72400
C  49.49000 18.14500 28.59500
C  50.50100 18.84400 27.83600
C  50.42200 18.32400 26.48700
C  49.49300 17.26900 26.50400
C  51.34500 19.92200 28.36800
C  51.23900 18.77400 25.31500
O  50.94600 18.35500 24.20200
C  52.39300 19.79900 25.44000
N  47.04500 15.47100 26.11900
C  48.09000 15.63100 25.24700
C  47.75500 14.96400 23.99200
C  46.69200 13.93600 24.36100
C  46.22800 14.53200 25.63800
C  47.32700 15.99800 22.87100
C  47.10100 12.46000 24.59300
C  46.11500 11.33700 24.01200
N  45.32200 15.18300 28.39400
C  44.56700 14.43200 27.50100
C  43.36200 13.85200 28.21500
C  43.49900 14.29100 29.47000
C  44.71000 15.11600 29.57200
C  42.31400 13.03900 27.55900
C  42.84700 14.22500 30.77800
O  41.84000 13.63700 31.10500
C  43.85600 15.01900 31.79900
C  43.06800 16.06200 32.48600
O  42.43800 16.98400 32.00900
O  43.08100 15.83900 33.83500
C  42.34400 16.62100 34.83900
H  49.56200 19.09800 30.45000
H  49.93000 16.11200 24.58800
H  44.37300 13.41400 25.67800
H  45.56200 17.92400 32.84700
H  48.42900 18.08900 32.64100
H  46.34500 20.11600 32.68300
H  47.03200 20.13900 31.06500
H  48.03900 20.43800 32.39200
H  47.85700 16.03100 33.42100
H  46.20500 15.42100 33.26200
H  45.77300 15.80800 35.31800
H  46.21200 17.50500 35.36600
H  50.93000 20.79100 27.85800
H  52.41500 19.80800 28.19200
H  51.19500 20.00000 29.44500
H  53.08400 19.50300 26.22900
H  51.99400 20.73300 25.83800
H  52.82700 20.01200 24.46300
H  48.63200 14.34300 23.80700
H  45.77500 14.08100 23.78900
H  46.33300 15.69100 22.54500
H  48.01400 16.13400 22.03600
H  47.24400 16.99500 23.30300
H  47.19800 12.32200 25.67000
H  48.01000 12.18100 24.06100
H  45.27100 11.84100 23.54200
H  45.75000 10.65600 24.78100
H  46.62000 10.66600 23.31700
H  42.48500 11.98600 27.78400
H  42.31600 13.10000 26.47100
H  41.38200 13.51400 27.86500
H  44.30500 14.40500 32.57900
H  43.12800 17.07000 35.44800
H  41.73500 16.05200 35.54100
H  41.82700 17.43000 34.32300
Mg -4.88100 24.99300 25.92800
C  -3.16100 26.66300 28.52800
C  -5.64000 22.57000 28.24300
C  -6.28100 23.31300 23.42000
C  -3.15600 27.06500 23.66000
N  -4.14100 24.48500 28.19100
C  -3.74800 25.50300 29.04100
C  -4.16900 25.18000 30.52800
C  -4.77400 23.76600 30.34100
C  -4.87000 23.58800 28.88300
C  -3.85400 22.63800 30.99400
C  -4.95600 26.27900 31.18100
C  -4.57600 26.75300 32.63600
H  -4.17700 25.66500 33.61100
N  -5.77200 23.20000 25.82200
C  -6.00400 22.37600 26.89900
C  -6.83300 21.24000 26.49100
C  -7.02400 21.39700 25.04100
C  -6.34800 22.72300 24.67800
C  -7.19700 20.07800 27.41600
C  -7.78400 20.54700 24.08400
O  -7.76500 20.74200 22.90400
C  -8.51600 19.42300 24.62700
N  -4.76300 25.20200 23.89400
C  -5.55300 24.43200 23.03600
C  -5.28700 24.84600 21.59500
C  -4.35100 26.08200 21.74200
C  -4.12200 26.18800 23.23100
C  -4.60500 23.70900 20.74600
C  -4.96900 27.40800 21.18400
C  -4.01200 28.09500 20.13200
N  -3.45900 26.53400 26.04900
C  -2.84100 27.23700 25.03600
C  -2.02300 28.32800 25.60700
C  -2.10100 28.13800 26.95600
C  -2.98400 27.00400 27.18900
C  -1.32700 29.35900 24.78500
C  -1.69700 28.62300 28.29900
O  -0.97200 29.54800 28.60300
C  -2.51100 27.70200 29.34900
C  -1.57900 27.13300 30.27600
O  -0.81700 26.25700 30.03300
O  -1.58200 27.91300 31.35600
C  -0.60100 27.63100 32.32600
H  -6.10500 21.89400 28.96300
H  -6.79500 22.80500 22.60100
H  -2.73100 27.72700 22.90200
H  -3.24600 25.01300 31.08200
H  -5.76600 23.54600 30.73600
H  -4.36500 22.07000 31.77200
H  -2.87700 22.91400 31.39100
H  -3.60200 22.01100 30.13900
H  -6.00700 26.03200 31.03600
H  -4.88300 27.23000 30.65200
H  -5.33000 27.42200 33.05200
H  -3.74900 27.46000 32.57900
H  -7.59600 19.13300 27.04700
H  -7.94700 20.39300 28.14200
H  -6.27200 19.74300 27.88400
H  -8.89400 19.74600 25.59700
H  -7.78900 18.61300 24.56500
H  -9.35600 19.12400 24.00000
H  -6.22500 25.11300 21.11000
H  -3.35600 25.97000 21.31300
H  -4.14900 23.06300 21.49600
H  -3.90600 23.92300 19.93800
H  -5.49300 23.14000 20.46900
H  -5.15800 28.08000 22.02100
H  -5.97800 27.16600 20.85200
H  -4.62100 28.41100 19.28500
H  -3.23700 27.37600 19.86800
H  -3.67500 28.98900 20.65800
H  -1.95500 29.77800 23.99900
H  -0.47600 28.87800 24.30300
H  -1.01600 30.24500 25.33900
H  -3.17900 28.34200 29.92400
H  -0.71000 26.61000 32.69200
H  -0.71800 28.35300 33.13300
H  0.38100 27.76800 31.87400

