158

Mg 23.96300 -4.88900 45.42200
C  25.92800 -2.64600 43.54400
C  21.23600 -3.90900 43.58200
C  22.31900 -7.62700 46.35700
C  26.86000 -6.16500 46.93800
N  23.64200 -3.42700 43.84500
C  24.55400 -2.55700 43.31200
C  23.96400 -1.66700 42.27300
C  22.36700 -1.99600 42.33500
C  22.34100 -3.10100 43.43200
C  21.51400 -0.75200 42.69100
C  24.57600 -1.83000 40.83300
C  25.26600 -0.64400 40.13600
H  24.89700 -0.42600 38.63600
N  21.98100 -5.60800 45.10000
C  21.00200 -5.05900 44.33300
C  19.86100 -5.88000 44.25800
C  20.23500 -6.98600 45.07200
C  21.56200 -6.80000 45.51100
C  18.53000 -5.54500 43.52000
C  19.32700 -8.19300 45.25000
O  18.14900 -8.15000 44.87800
C  19.79600 -9.47700 45.77100
N  24.60400 -6.79300 46.39200
C  23.65700 -7.62200 46.81300
C  24.27700 -8.70000 47.69000
C  25.74200 -8.16800 47.97700
C  25.77200 -6.96100 47.09500
C  23.39900 -9.10800 48.88900
C  26.92100 -9.17200 47.69600
C  27.96100 -9.23200 48.86200
N  26.02900 -4.45500 45.39000
C  27.01000 -5.10200 46.08700
C  28.22600 -4.48700 45.62700
C  27.91100 -3.46100 44.68200
C  26.49600 -3.51900 44.51100
C  29.60800 -4.78800 46.10600
C  28.44000 -2.55900 43.82000
O  29.59300 -2.15800 43.49700
C  27.13100 -1.82700 43.14900
C  26.99000 -0.59300 43.90100
O  26.07700 -0.22300 44.65500
O  28.01700 0.23300 43.63500
C  27.96500 1.66100 44.06600
H  20.39000 -3.60700 42.96000
H  21.82700 -8.53100 46.72400
H  27.72900 -6.54900 47.47700
H  24.10800 -0.60800 42.48500
H  21.98200 -2.47000 41.43200
H  22.05200 0.19300 42.76300
H  21.21100 -1.00000 43.70800
H  20.68900 -0.56000 42.00600
H  23.73900 -2.08500 40.18400
H  25.29600 -2.64300 40.92900
H  26.34500 -0.65400 40.28400
H  24.92600 0.31200 40.53600
H  18.22700 -6.34400 42.84400
H  18.72400 -4.71800 42.83700
H  17.69000 -5.44000 44.20600
H  19.16400 -10.30900 45.46200
H  19.96200 -9.53800 46.84700
H  20.78200 -9.56300 45.31300
H  24.43000 -9.56700 47.04700
H  25.80100 -7.84000 49.01500
H  23.92100 -9.25600 49.83500
H  22.76600 -9.94000 48.58100
H  22.70000 -8.30400 49.11700
H  27.41400 -8.92100 46.75700
H  26.44900 -10.13500 47.50300
H  28.46500 -10.19700 48.90700
H  27.38900 -9.25800 49.78900
H  28.69700 -8.42700 48.85400
H  29.42400 -5.78300 46.51300
H  29.80200 -4.12700 46.95100
H  30.15300 -4.73200 45.16500
H  27.27500 -1.58900 42.09500
H  27.19100 2.04500 44.73000
H  28.20700 2.36300 43.26800
H  28.80200 1.76800 44.75600
Mg 24.66400 1.83000 29.61900
C  26.86500 1.56700 32.22800
C  22.09300 2.04900 31.62000
C  22.59300 1.87700 26.82500
C  27.32900 1.46100 27.34600
N  24.52900 1.49600 31.72800
C  25.51500 1.64400 32.66700
C  24.91900 1.87700 34.03800
C  23.35200 1.86500 33.74900
C  23.29600 1.87800 32.27100
C  22.52300 0.62700 34.16700
C  25.50000 3.23200 34.54100
C  25.50000 3.22200 36.11400
H  25.03700 4.36900 36.99700
N  22.62200 1.91800 29.28300
C  21.71900 2.03100 30.29200
C  20.37100 2.00200 29.67300
C  20.48500 1.74200 28.28400
C  21.96900 1.91200 28.06400
C  19.11500 2.07200 30.57700
C  19.38000 1.40800 27.19400
O  19.55200 1.28300 25.99400
C  17.95200 1.03800 27.64800
N  24.95300 1.67400 27.36300
C  23.95900 1.79200 26.53100
C  24.45700 1.87700 25.02800
C  26.00300 1.88900 25.17600
C  26.11700 1.71600 26.73300
C  23.82400 0.95000 23.87700
C  26.75600 3.04300 24.55700
C  27.14000 4.32700 25.33700
N  26.70000 1.43200 29.66300
C  27.68600 1.32600 28.72600
C  28.93300 1.05700 29.37800
C  28.71000 1.18200 30.74200
C  27.33200 1.37700 30.85500
C  30.10700 0.59700 28.68800
C  29.27600 1.14400 32.08700
O  30.38500 0.82600 32.41700
C  28.15700 1.50000 33.17700
C  28.13700 0.51200 34.26400
O  27.71800 -0.63200 34.22800
O  28.61800 1.05100 35.42800
C  28.70800 0.12200 36.60200
H  21.35900 2.25700 32.40200
H  22.00000 1.84200 25.90900
H  28.24300 1.42400 26.75000
H  25.31000 1.07900 34.66800
H  22.92600 2.78700 34.14400
H  23.15700 0.01300 34.80600
H  22.15800 0.06600 33.30700
H  21.65600 0.88000 34.77700
H  24.97900 4.12100 34.18500
H  26.54300 3.39800 34.27100
H  26.52000 3.02500 36.44400
H  24.86800 2.40200 36.45500
H  18.60700 2.96100 30.20300
H  19.41600 2.17100 31.62000
H  18.55300 1.15700 30.39100
H  18.18700 0.03000 27.98900
H  17.33200 1.02500 26.75200
H  17.47600 1.71100 28.36100
H  24.13500 2.91200 24.91300
H  26.43100 1.02500 24.66800
H  22.98200 1.46700 23.41700
H  23.29200 0.06900 24.23600
H  24.63300 0.67400 23.20000
H  26.24000 3.32700 23.63900
H  27.69100 2.70100 24.11300
H  28.22500 4.41300 25.29100
H  26.72200 4.26700 26.34100
H  26.51700 5.12700 24.93800
H  30.81600 1.41700 28.80100
H  29.99300 0.39800 27.62300
H  30.54700 -0.32100 29.07700
H  28.35100 2.49400 33.57900
H  28.88000 -0.91600 36.31700
H  27.85100 0.16600 37.27400
H  29.54800 0.46900 37.20400

