158

Mg 40.75100 9.53600 29.11000
C  42.58500 10.72000 31.80600
C  38.59700 7.92300 31.11700
C  39.43500 8.18000 26.44400
C  43.56400 10.54000 27.04900
N  40.70900 9.29900 31.20200
C  41.48500 9.99800 32.18200
C  40.88100 9.78500 33.57000
C  39.66600 8.80300 33.28400
C  39.68800 8.59500 31.80800
C  39.59500 7.58600 34.29700
C  40.43200 11.14500 34.22900
C  39.50300 11.01400 35.41800
H  39.87600 11.59500 36.79700
N  39.17200 8.26800 28.83200
C  38.34000 7.74900 29.76500
C  37.27100 7.05100 29.12300
C  37.52300 7.02100 27.73000
C  38.72500 7.85800 27.62500
C  36.04700 6.47900 29.85300
C  36.73100 6.50100 26.62100
O  37.07200 6.81800 25.47700
C  35.58400 5.52300 26.80200
N  41.43000 9.40100 27.04900
C  40.58700 8.87700 26.13400
C  41.09900 8.93600 24.67500
C  42.49400 9.65900 24.89200
C  42.53600 9.90500 26.43300
C  41.16800 7.49900 24.02200
C  42.74200 10.85100 23.96600
C  42.15600 12.23100 24.37200
N  42.65900 10.54800 29.28900
C  43.63400 10.86400 28.42000
C  44.69600 11.60100 29.04900
C  44.30100 11.45800 30.37500
C  43.06600 10.81400 30.46500
C  45.88200 12.13200 28.42400
C  44.78600 11.72800 31.68900
O  45.85500 12.14500 32.09300
C  43.64100 11.35500 32.69800
C  44.08500 10.29400 33.72700
O  44.49600 9.17300 33.49400
O  44.02100 10.86000 34.97400
C  44.62200 10.13600 36.03700
H  37.83600 7.44700 31.73800
H  39.04700 7.80200 25.49600
H  44.41100 10.75200 26.39300
H  41.66300 9.19300 34.04500
H  38.68800 9.27800 33.35700
H  38.70900 7.55800 34.93200
H  40.43900 7.61100 34.98700
H  39.68400 6.66200 33.72500
H  40.05000 11.94900 33.60000
H  41.36000 11.59700 34.57800
H  39.23900 9.96100 35.51600
H  38.68200 11.67400 35.13700
H  35.10600 6.59800 29.31700
H  36.05300 6.97300 30.82500
H  36.17200 5.39600 29.86100
H  35.59900 4.80800 25.97900
H  34.59500 5.97900 26.83300
H  35.84500 4.91400 27.66700
H  40.42300 9.57500 24.10800
H  43.31000 8.94800 24.76100
H  40.39600 7.27300 23.28600
H  41.20600 6.67800 24.73800
H  42.14800 7.40200 23.55400
H  42.25200 10.54500 23.04200
H  43.81400 10.96800 23.80600
H  41.59000 12.62500 23.52800
H  43.03400 12.85100 24.55000
H  41.47500 12.20100 25.22300
H  45.69900 12.96700 27.74800
H  46.53000 11.39600 27.94800
H  46.44000 12.56400 29.25500
H  43.28600 12.22100 33.25800
H  43.84200 9.79000 36.71500
H  45.17500 10.91300 36.56500
H  45.26500 9.30400 35.75200
Mg -10.74900 40.59500 41.25300
C  -9.62500 37.42400 40.06800
C  -7.99900 41.96800 39.48800
C  -12.31100 43.54400 41.01900
C  -13.69700 39.00800 42.19500
N  -9.01400 39.77000 39.90800
C  -8.75800 38.44800 39.64100
C  -7.41700 38.35200 38.97400
C  -6.81600 39.76600 38.94500
C  -8.00700 40.60000 39.43700
C  -5.45000 40.03400 39.72800
C  -7.51100 37.61100 37.65200
C  -6.54900 36.38600 37.40400
H  -5.59600 36.51200 36.14100
N  -10.21000 42.51200 40.50700
C  -9.01600 42.82400 39.93500
C  -8.97000 44.27500 39.77000
C  -10.23600 44.80400 40.12500
C  -10.96900 43.59600 40.57300
C  -7.72500 44.98300 39.22900
C  -10.58400 46.26500 40.11000
O  -9.83900 47.15300 39.67900
C  -11.97700 46.80200 40.49800
N  -12.74100 41.16200 41.38700
C  -13.14900 42.46500 41.36800
C  -14.63700 42.61900 41.82200
C  -15.08800 41.14700 42.06400
C  -13.76700 40.36400 41.87800
C  -14.84300 43.48200 43.04700
C  -16.21800 40.57600 41.13700
C  -15.88900 39.63400 40.00500
N  -11.51000 38.65700 41.25100
C  -12.66500 38.14200 41.77500
C  -12.64300 36.68900 41.84700
C  -11.48100 36.37000 41.17200
C  -10.80600 37.61800 40.79700
C  -13.70200 35.68100 42.29500
C  -10.72100 35.31900 40.67500
O  -10.86900 34.06100 40.85700
C  -9.56600 35.89900 39.83200
C  -8.37200 35.18800 40.35100
O  -7.95200 35.29100 41.48700
O  -7.97200 34.28600 39.41700
C  -7.00500 33.29300 39.85400
H  -7.01800 42.30000 39.14100
H  -12.83000 44.49000 40.85200
H  -14.60100 38.59600 42.64900
H  -6.84000 37.69200 39.62100
H  -6.61200 40.07700 37.92000
H  -5.13300 39.20100 40.35600
H  -5.54200 40.92600 40.34700
H  -4.54700 40.20600 39.14300
H  -7.40100 38.40900 36.91800
H  -8.54400 37.28900 37.51700
H  -7.06300 35.46600 37.12600
H  -5.98400 36.15700 38.30800
H  -7.79500 45.16600 38.15700
H  -6.89900 44.29400 39.40600
H  -7.48500 45.92400 39.72400
H  -12.12800 46.63300 41.56400
H  -12.56700 46.14800 39.85600
H  -12.14400 47.84300 40.22200
H  -15.15600 43.00600 40.94500
H  -15.30800 40.95100 43.11300
H  -15.51100 44.28600 42.73900
H  -13.87500 43.84500 43.39400
H  -15.47400 42.91000 43.72700
H  -16.71400 41.48400 40.79700
H  -16.95500 40.06500 41.75700
H  -16.39800 38.69400 40.21300
H  -14.84700 39.34300 39.87300
H  -16.24000 40.06900 39.06900
H  -13.93800 36.02800 43.30100
H  -13.35600 34.65000 42.22000
H  -14.54300 35.89600 41.63500
H  -9.74500 35.84400 38.75800
H  -6.06500 33.84000 39.92600
H  -6.80800 32.46400 39.17400
H  -7.36300 32.83100 40.77500

