158

Mg 9.04700 4.17200 27.32500
C  10.27000 2.61600 30.15700
C  7.16400 6.20800 29.20300
C  8.10900 5.62500 24.49900
C  10.79900 1.67600 25.33700
N  8.73200 4.42500 29.49800
C  9.39500 3.68000 30.45600
C  9.15000 4.21400 31.81600
C  7.92500 5.22600 31.56300
C  7.96600 5.33100 29.99000
C  6.58500 4.82600 32.21600
C  10.39900 4.79100 32.61900
C  10.10900 5.88100 33.72000
H  10.86400 5.64000 35.06000
N  7.82700 5.72700 26.94600
C  7.01300 6.31400 27.83300
C  6.06000 7.17000 27.06900
C  6.47300 7.09300 25.66100
C  7.58900 6.13800 25.67800
C  4.99200 7.92000 27.77500
C  5.87600 7.82700 24.44800
O  6.21600 7.64400 23.33200
C  4.96700 8.92800 24.60100
N  9.34500 3.62700 25.16300
C  8.88300 4.45300 24.23900
C  9.09100 3.90000 22.79400
C  9.95100 2.59200 23.08200
C  10.11300 2.64000 24.60700
C  7.73200 3.65500 22.05300
C  11.34100 2.39100 22.38500
C  11.56500 1.05800 21.55200
N  10.19600 2.43800 27.61500
C  10.90300 1.62100 26.74500
C  11.64800 0.71300 27.53300
C  11.46800 1.08700 28.87700
C  10.53500 2.09600 28.89100
C  12.47000 -0.37500 27.06700
C  11.91900 0.77500 30.26300
O  12.62000 -0.09200 30.77300
C  11.05500 1.76400 31.12600
C  10.15800 0.93200 32.00100
O  9.35600 0.05200 31.66900
O  10.38400 1.38400 33.29600
C  9.42300 0.84000 34.28600
H  6.47800 6.84300 29.76700
H  7.76300 5.99700 23.53300
H  11.39200 0.94000 24.79000
H  8.77900 3.37600 32.40700
H  8.18500 6.23700 31.88000
H  5.88700 4.81600 31.38000
H  6.27100 5.63200 32.88000
H  6.69000 3.93700 32.83900
H  10.98900 5.16000 31.78000
H  10.94500 4.00600 33.14100
H  9.03400 5.81700 33.88700
H  10.30200 6.89500 33.36800
H  4.69400 7.46400 28.71900
H  4.11900 7.81100 27.13100
H  5.10500 9.00400 27.80400
H  5.44200 9.70800 25.19500
H  4.01500 8.61700 25.03100
H  4.84300 9.39600 23.62400
H  9.60200 4.72000 22.29000
H  9.43500 1.66700 22.82300
H  6.89100 4.12700 22.56100
H  7.51300 2.60200 21.87600
H  7.79700 4.14600 21.08200
H  12.17900 2.31600 23.07800
H  11.46400 3.15000 21.61300
H  12.10400 1.39300 20.66500
H  10.63700 0.59100 21.22300
H  12.12200 0.34000 22.15300
H  13.14000 -0.17000 26.23100
H  11.84900 -1.23500 26.81400
H  13.09600 -0.53300 27.94600
H  11.78400 2.34500 31.69000
H  9.43300 -0.24900 34.24600
H  8.49400 1.37800 34.09500
H  9.71900 1.10400 35.30100
Mg 25.87800 1.15500 29.26200
C  27.83200 0.75000 32.13100
C  23.14000 1.55800 31.26600
C  24.13500 1.37600 26.43800
C  28.78600 0.22300 27.40800
N  25.58800 0.97400 31.51800
C  26.55300 1.04700 32.44600
C  25.96200 1.30700 33.82700
C  24.40900 1.33500 33.54800
C  24.33900 1.29100 32.03700
C  23.57300 0.21000 34.30200
C  26.45400 2.58100 34.50400
C  26.91600 2.51600 35.99000
H  26.37100 3.61700 36.97700
N  23.92500 1.39200 28.89400
C  22.88800 1.59000 29.81600
C  21.61200 1.84500 29.15800
C  21.87200 1.75600 27.75700
C  23.35600 1.51900 27.63200
C  20.37400 2.15800 29.98700
C  20.92400 1.87600 26.59600
O  21.29000 1.65300 25.44200
C  19.47100 2.19500 26.73300
N  26.41400 0.78500 27.23700
C  25.49200 1.01300 26.22800
C  26.12600 0.82000 24.91300
C  27.64200 0.62700 25.22100
C  27.63300 0.49900 26.71700
C  25.53000 -0.33500 23.98800
C  28.64100 1.78000 24.73900
C  28.48600 3.16800 25.29100
N  27.86200 0.50600 29.60600
C  28.89900 0.21200 28.76100
C  30.12300 0.07700 29.53300
C  29.73000 0.37400 30.85100
C  28.33800 0.52500 30.82600
C  31.47400 -0.23000 29.06900
C  30.25300 0.61100 32.17700
O  31.41300 0.57000 32.60000
C  29.05500 0.81800 33.07000
C  28.98600 -0.15800 34.16200
O  28.83600 -1.36900 34.03700
O  29.12700 0.53700 35.33700
C  29.44400 -0.31600 36.47400
H  22.26400 1.75500 31.88700
H  23.60200 1.48300 25.49000
H  29.66100 0.01300 26.78900
H  26.16500 0.42100 34.42800
H  24.05600 2.31700 33.86300
H  23.07000 -0.42400 33.57300
H  22.78800 0.65600 34.91200
H  24.20600 -0.39500 34.95100
H  25.61300 3.27300 34.50200
H  27.19100 3.02100 33.83200
H  27.99500 2.65200 35.91000
H  26.88300 1.58600 36.55600
H  20.32700 3.22500 30.20800
H  20.42400 1.66700 30.95900
H  19.48100 1.92800 29.40500
H  18.88500 1.95800 25.84600
H  19.18300 3.13800 27.19900
H  19.20800 1.42100 27.45300
H  26.04000 1.75600 24.36100
H  28.01500 -0.38500 25.07000
H  24.96500 -0.99800 24.64300
H  26.34500 -0.86400 23.49300
H  24.84500 0.11300 23.26700
H  28.50500 1.83100 23.65900
H  29.61700 1.30000 24.81800
H  27.81300 3.17700 26.14900
H  28.20500 3.94600 24.58100
H  29.41800 3.51900 25.73400
H  31.44900 -1.29900 28.85500
H  32.27000 -0.09900 29.80200
H  31.68900 0.36400 28.18100
H  29.22000 1.80700 33.49900
H  28.65000 -0.37100 37.21800
H  30.21800 0.05500 37.14500
H  29.74500 -1.33100 36.21500

