158

Mg 25.81500 0.68800 28.75000
C  27.98300 0.51300 31.50400
C  23.19200 1.30900 30.89800
C  23.86600 0.38500 26.23000
C  28.58900 -0.14300 26.73800
N  25.60500 0.95200 30.97500
C  26.65000 0.86000 31.90000
C  26.10800 1.13400 33.25800
C  24.49700 1.03900 33.05300
C  24.41600 1.16100 31.56800
C  23.89300 -0.25900 33.64300
C  26.67500 2.43900 33.92100
C  25.93500 3.20500 34.96900
H  26.42200 2.78200 36.39600
N  23.77800 0.97000 28.56700
C  22.85400 1.33800 29.54500
C  21.53000 1.47900 28.90400
C  21.70100 1.15900 27.54500
C  23.17200 0.80000 27.35100
C  20.31200 1.79100 29.69100
C  20.67400 1.16400 26.43300
O  20.87400 0.65600 25.33300
C  19.31500 1.70600 26.72900
N  26.14800 0.03600 26.80800
C  25.20200 0.14300 25.85800
C  25.72200 -0.04700 24.45200
C  27.32600 0.13200 24.70500
C  27.37300 0.02000 26.20000
C  25.34500 -1.45200 23.83000
C  27.77900 1.62200 24.35400
C  29.21900 1.76200 23.71400
N  27.85300 0.23500 29.04900
C  28.88700 -0.02700 28.19200
C  30.20200 -0.16200 28.83200
C  29.86700 -0.00600 30.20800
C  28.43900 0.28300 30.22800
C  31.35100 -0.73800 28.16100
C  30.36400 -0.03600 31.56200
O  31.50600 -0.20100 32.02400
C  29.14900 0.30500 32.49200
C  29.00600 -0.85400 33.44000
O  28.81200 -2.03400 33.22600
O  29.10300 -0.29300 34.66100
C  29.16200 -1.14300 35.82500
H  22.48200 1.55600 31.69000
H  23.25000 0.20400 25.34600
H  29.45600 -0.13700 26.07400
H  26.53800 0.34800 33.87800
H  23.81300 1.82400 33.37500
H  23.35700 -0.12500 34.58300
H  24.80700 -0.85200 33.66700
H  23.26700 -0.89200 33.01500
H  26.85300 3.16700 33.13000
H  27.65800 2.26000 34.35700
H  24.90100 2.86700 34.89600
H  25.99700 4.25900 34.69800
H  20.42800 2.01700 30.75100
H  19.79100 0.83400 29.71200
H  19.80800 2.66000 29.26700
H  18.69200 1.12200 27.40600
H  18.74100 1.84600 25.81300
H  19.42500 2.67700 27.21400
H  25.24200 0.77800 23.92500
H  27.91200 -0.59100 24.13700
H  24.86300 -2.04400 24.60800
H  26.23500 -1.98600 23.49800
H  24.56600 -1.39500 23.07000
H  27.90900 2.24400 25.24000
H  27.04200 2.10300 23.71100
H  29.12900 2.09500 22.68000
H  29.74700 0.80900 23.71500
H  29.87200 2.39200 24.31800
H  31.16600 -1.14500 27.16700
H  31.87900 -1.51600 28.71300
H  32.12400 0.03100 28.16300
H  29.37200 1.30200 32.87200
H  30.11500 -0.90700 36.29900
H  28.92700 -2.18400 35.60200
H  28.35700 -1.03600 36.55100
Mg -2.53200 34.28000 26.62500
C  -4.44100 32.89700 29.25900
C  -1.72900 36.94500 28.64400
C  -0.88700 35.73200 24.07300
C  -4.06900 31.98000 24.55800
N  -3.21500 34.81200 28.68000
C  -3.76700 33.99200 29.63600
C  -3.75400 34.73200 30.98700
C  -2.97300 36.09600 30.62100
C  -2.65300 35.97400 29.17200
C  -3.75800 37.36100 30.97400
C  -3.09600 34.02600 32.15700
C  -2.67200 34.84800 33.42500
H  -3.19700 34.53000 34.83800
N  -1.45300 36.12100 26.37100
C  -1.22100 37.06000 27.29400
C  -0.29000 38.09400 26.82300
C  0.00600 37.71800 25.48200
C  -0.83400 36.53300 25.20900
C  0.30800 39.23400 27.72000
C  0.93500 38.34900 24.42200
O  1.03500 37.96100 23.28500
C  1.76000 39.51200 24.86600
N  -2.62500 33.98500 24.63600
C  -1.79300 34.67700 23.79600
C  -1.69100 33.95400 22.40900
C  -2.65800 32.73100 22.57400
C  -3.15200 32.93000 24.04700
C  -2.02300 34.75800 21.10300
C  -1.82300 31.40800 22.46500
C  -2.59600 30.24800 21.90200
N  -3.99300 32.75400 26.80900
C  -4.49100 31.87500 25.88500
C  -5.38100 30.85500 26.50000
C  -5.40200 31.27800 27.89900
C  -4.56200 32.40300 27.98200
C  -6.03000 29.71000 25.76700
C  -5.94600 30.95600 29.21600
O  -6.67400 30.04100 29.47700
C  -5.26900 31.93700 30.19500
C  -6.29900 32.60200 31.04700
O  -7.11100 33.40200 30.57600
O  -6.26900 32.15700 32.32600
C  -7.39400 32.50700 33.25200
H  -1.41400 37.72600 29.34000
H  -0.31000 36.01100 23.18900
H  -4.45400 31.19800 23.90000
H  -4.81200 34.89900 31.18700
H  -2.00200 36.14500 31.11300
H  -3.47800 38.19000 30.32400
H  -3.56900 37.63900 32.01000
H  -4.81900 37.19900 30.77900
H  -2.35600 33.31200 31.79500
H  -3.78200 33.29500 32.58600
H  -2.84900 35.91900 33.33100
H  -1.58800 34.77100 33.50500
H  1.34100 38.94800 27.91400
H  -0.30700 39.32100 28.61700
H  0.23000 40.19500 27.21200
H  2.21100 39.35900 25.84600
H  1.11400 40.38500 24.95600
H  2.55500 39.75700 24.16100
H  -0.65400 33.65200 22.26100
H  -3.55800 32.78300 21.96200
H  -2.37100 35.78000 21.25500
H  -2.68900 34.27300 20.39000
H  -1.14400 34.90200 20.47500
H  -1.54700 31.21800 23.50200
H  -0.87700 31.55500 21.94600
H  -1.96100 29.72500 21.18700
H  -3.55800 30.49500 21.45200
H  -2.73500 29.56100 22.73700
H  -7.02500 29.90300 25.36600
H  -6.10200 28.86600 26.45400
H  -5.38500 29.55400 24.90300
H  -4.57600 31.45500 30.88400
H  -8.03200 33.19800 32.70000
H  -7.04400 32.89100 34.21000
H  -7.98300 31.61600 33.47200

