158

Mg 24.02900 -5.76300 46.16100
C  26.08700 -3.26800 44.38900
C  21.39500 -4.53600 44.34700
C  22.41800 -8.48200 46.88800
C  27.09900 -7.13200 47.34800
N  23.86600 -4.00800 44.49900
C  24.74200 -3.06600 44.06400
C  24.06300 -2.16700 43.09700
C  22.52900 -2.37700 43.28600
C  22.60000 -3.70800 44.10300
C  21.81700 -1.25700 44.14600
C  24.53500 -2.42700 41.65300
C  25.26900 -1.28900 40.82100
H  26.18700 -1.62000 39.58500
N  22.09400 -6.33800 45.81000
C  21.13300 -5.74100 45.06100
C  19.98800 -6.55000 45.06500
C  20.21900 -7.67600 45.88600
C  21.60900 -7.53800 46.26800
C  18.67300 -6.09000 44.36400
C  19.19800 -8.75300 46.35100
O  17.99600 -8.77400 45.97100
C  19.55000 -9.86300 47.27300
N  24.63200 -7.60200 46.93600
C  23.72100 -8.51200 47.17200
C  24.35400 -9.62400 48.03300
C  25.90200 -9.23600 48.15100
C  25.89400 -7.90600 47.47000
C  23.79000 -9.75900 49.42500
C  26.76700 -10.28300 47.50500
C  27.77100 -10.84300 48.43100
N  26.11500 -5.29300 46.08100
C  27.19300 -5.87000 46.70700
C  28.39200 -5.11400 46.41800
C  28.00600 -4.10300 45.55600
C  26.57200 -4.22500 45.31100
C  29.77300 -5.42700 46.98300
C  28.50000 -2.99100 44.69900
O  29.66600 -2.64300 44.39200
C  27.23900 -2.47000 43.85700
C  26.96800 -1.05800 44.19500
O  26.32700 -0.66100 45.13700
O  27.67400 -0.32100 43.32100
C  27.91900 1.07600 43.58000
H  20.58000 -4.02000 43.83400
H  21.90000 -9.43400 47.02600
H  28.02200 -7.64700 47.62200
H  24.40100 -1.18200 43.42000
H  21.95800 -2.53500 42.37100
H  22.08400 -1.35700 45.19800
H  20.73300 -1.17500 44.06400
H  22.16500 -0.26600 43.85500
H  23.72500 -2.60800 40.94700
H  25.22800 -3.26500 41.58600
H  25.77300 -0.67700 41.56900
H  24.52400 -0.56700 40.48600
H  18.00200 -6.03200 45.22200
H  18.20100 -6.80500 43.69100
H  18.72700 -5.12300 43.86400
H  18.73900 -10.24000 47.89600
H  20.22300 -9.44900 48.02300
H  20.11200 -10.67000 46.80200
H  24.16800 -10.54000 47.47200
H  26.21200 -9.10700 49.18700
H  22.75800 -10.11200 49.42100
H  23.93200 -8.82800 49.97400
H  24.34300 -10.62000 49.80000
H  27.22300 -9.88700 46.59700
H  26.11300 -11.14100 47.35000
H  28.02400 -10.13400 49.21900
H  28.72700 -11.12300 47.98800
H  27.32000 -11.65900 48.99600
H  30.03700 -6.45500 46.73200
H  29.64300 -5.46000 48.06500
H  30.57900 -4.78300 46.63300
H  27.59800 -2.58400 42.83400
H  28.32700 1.44900 42.64000
H  28.74600 1.09200 44.29000
H  27.08600 1.73000 43.83800
Mg 25.47800 0.73400 29.92300
C  27.60400 0.66200 32.83900
C  22.88300 0.49400 32.12300
C  23.48100 0.58400 27.25700
C  28.24800 0.47000 27.95800
N  25.36700 0.65500 32.21100
C  26.28500 0.72300 33.18900
C  25.70300 0.81700 34.59700
C  24.19600 0.66500 34.29800
C  24.13100 0.61600 32.79100
C  23.60600 -0.65900 34.77800
C  26.18500 2.10200 35.32100
C  25.37800 2.41800 36.60100
H  26.09900 2.66800 37.91200
N  23.40900 0.60700 29.71700
C  22.48300 0.50500 30.75700
C  21.13500 0.38500 30.18100
C  21.34900 0.46000 28.77900
C  22.79400 0.59300 28.54100
C  19.88800 0.31500 31.02400
C  20.25300 0.52300 27.65800
O  20.53600 0.58600 26.46300
C  18.82400 0.59100 28.01400
N  25.84300 0.66300 27.87700
C  24.87400 0.75500 26.97700
C  25.36700 0.77900 25.58200
C  26.90000 0.92000 25.80100
C  27.01200 0.65700 27.30500
C  24.91400 -0.31800 24.57300
C  27.65200 2.12400 25.31000
C  28.76300 1.85900 24.31300
N  27.49300 0.55900 30.26300
C  28.47600 0.37000 29.31900
C  29.73500 0.19600 29.95400
C  29.45600 0.28900 31.33300
C  28.04400 0.58300 31.51200
C  30.99500 -0.09000 29.26600
C  30.00800 0.24700 32.71700
O  31.11600 -0.11300 33.09900
C  28.94700 0.71200 33.67600
C  29.01100 -0.09500 34.89500
O  28.53700 -1.17700 35.01700
O  29.83800 0.54500 35.78700
C  29.80900 -0.06300 37.13300
H  22.07700 0.57300 32.85600
H  22.90400 0.59200 26.33000
H  29.04200 0.55000 27.21200
H  26.11400 0.00500 35.19600
H  23.67200 1.53600 34.69100
H  24.22400 -1.10800 35.55600
H  23.36400 -1.39800 34.01500
H  22.64300 -0.49000 35.26000
H  26.06100 3.01900 34.74400
H  27.25300 1.96600 35.49100
H  24.82000 1.50200 36.79700
H  24.75200 3.29200 36.41600
H  19.35400 1.26300 30.96800
H  20.19100 0.09400 32.04800
H  19.22300 -0.47700 30.67900
H  18.14200 0.81400 27.19400
H  18.70100 1.48300 28.62800
H  18.43600 -0.29900 28.51000
H  25.02600 1.72100 25.15200
H  27.43200 0.10200 25.31500
H  24.38400 -1.03600 25.19900
H  25.74300 -0.87700 24.13900
H  24.24100 0.10300 23.82600
H  28.05300 2.79400 26.07000
H  26.95500 2.75800 24.76200
H  28.31600 1.83400 23.31900
H  29.28100 0.90300 24.39900
H  29.37100 2.75300 24.44900
H  31.61200 0.54200 29.90400
H  31.08800 0.29300 28.25000
H  31.23000 -1.14800 29.38600
H  29.10200 1.77600 33.85700
H  30.44400 -0.93100 36.95600
H  28.82200 -0.23500 37.56200
H  30.44700 0.48700 37.82500

