158

Mg 1.11300 7.78600 26.54000
C  1.62900 9.70100 29.45100
C  0.83900 4.93300 28.53000
C  0.62600 5.94400 23.79900
C  1.51700 10.66000 24.56700
N  1.39500 7.40700 28.75500
C  1.44400 8.34100 29.77900
C  1.20300 7.65700 31.18200
C  1.40900 6.21200 30.83800
C  1.18800 6.14600 29.24600
C  2.78100 5.59200 31.28700
C  -0.25300 8.07300 31.65300
C  -0.35700 8.43700 33.14000
H  0.92600 8.31900 33.98400
N  0.76500 5.71200 26.25100
C  0.62800 4.67900 27.17700
C  0.02200 3.53600 26.49400
C  -0.15200 3.87200 25.11500
C  0.44500 5.20600 25.00700
C  -0.51100 2.32100 27.20900
C  -0.65500 2.99500 24.00900
O  -0.50200 3.29600 22.86500
C  -1.43900 1.78300 24.34900
N  1.40900 8.21000 24.42200
C  1.06800 7.25300 23.49900
C  1.16300 7.84600 22.10500
C  1.13700 9.32700 22.33500
C  1.36400 9.44600 23.88500
C  2.34300 7.38300 21.25500
C  -0.24100 10.05900 21.95000
C  -0.04100 11.10600 20.91900
N  1.49600 9.77500 26.84200
C  1.70600 10.81900 25.93400
C  2.02200 12.00100 26.69400
C  2.03000 11.61300 28.04100
C  1.67500 10.29100 28.11000
C  2.44100 13.25800 26.08600
C  2.26900 12.03700 29.38100
O  2.75500 13.08200 29.79100
C  1.89000 10.87300 30.32400
C  3.05600 10.71900 31.19200
O  4.05900 10.11000 30.87300
O  2.86200 11.40200 32.37100
C  4.08500 11.42800 33.16000
H  0.53600 4.05800 29.10900
H  0.35600 5.41600 22.88300
H  1.50700 11.58600 23.98900
H  1.97700 8.00100 31.86900
H  0.60600 5.60300 31.25400
H  2.58300 4.68200 31.85400
H  3.34400 6.39000 31.77200
H  3.39700 5.30300 30.43600
H  -0.96700 7.25000 31.64800
H  -0.71900 8.84400 31.03800
H  -1.10700 7.76100 33.55000
H  -0.74400 9.44200 33.30800
H  -0.21400 1.38100 26.74600
H  -1.59400 2.37100 27.09300
H  -0.07700 2.27200 28.20700
H  -1.83700 1.26000 23.48000
H  -2.20500 1.90000 25.11600
H  -0.58200 1.19600 24.67900
H  0.25800 7.46500 21.63100
H  2.04400 9.81700 21.98000
H  2.25900 6.29700 21.20400
H  3.26800 7.69800 21.73700
H  2.31200 7.79000 20.24400
H  -0.55100 10.52300 22.88600
H  -1.04100 9.42500 21.56700
H  0.95300 10.95400 20.49600
H  -0.00600 12.11600 21.32800
H  -0.73700 11.17400 20.08300
H  3.46000 13.24600 25.69800
H  2.32000 14.02100 26.85500
H  1.67900 13.41600 25.32400
H  1.02700 11.35100 30.78800
H  4.21700 10.43900 33.59800
H  3.96900 12.09500 34.01500
H  4.94500 11.73600 32.56300
Mg 53.54500 23.78000 44.40400
C  50.96100 26.00400 43.68300
C  51.51300 21.14100 43.27100
C  56.28800 21.75500 44.12200
C  55.47800 26.47400 45.29000
N  51.46800 23.61000 43.68800
C  50.63600 24.65600 43.35400
C  49.31500 24.11800 42.87900
C  49.46300 22.56200 43.11700
C  50.91200 22.39500 43.42200
C  48.52800 21.90700 44.11000
C  49.11500 24.48100 41.32100
C  47.69400 24.82000 40.94500
H  47.30300 24.17900 39.50800
N  53.86100 21.65600 43.76700
C  52.89300 20.82800 43.26300
C  53.47900 19.51400 42.95000
C  54.82900 19.70400 43.07700
C  55.10100 21.05200 43.69000
C  52.69000 18.33500 42.63200
C  55.83600 18.62000 42.85500
O  55.55500 17.43200 42.56700
C  57.32400 18.91300 42.91600
N  55.62400 24.04100 44.67000
C  56.49800 23.10200 44.53600
C  57.90800 23.63800 44.75800
C  57.67100 25.12400 45.24800
C  56.14300 25.24300 45.05400
C  58.74300 22.79300 45.75300
C  58.38000 26.15300 44.41700
C  59.03900 27.30700 45.13600
N  53.34400 25.85500 44.54300
C  54.15000 26.80800 45.03900
C  53.47700 28.09000 45.16700
C  52.22000 27.78900 44.55900
C  52.17100 26.43400 44.24600
C  53.91300 29.46300 45.71500
C  50.96800 28.35000 44.16800
O  50.49800 29.47600 44.32100
C  50.17400 27.21500 43.42500
C  49.89500 27.66700 42.06500
O  50.72900 27.86700 41.17700
O  48.51900 27.80300 41.92800
C  48.14600 28.38800 40.60400
H  50.91700 20.22900 43.19300
H  57.15700 21.09500 44.08200
H  56.17100 27.29300 45.49800
H  48.51200 24.52200 43.49500
H  49.20300 21.99100 42.22600
H  47.63500 22.49400 44.32900
H  48.98500 21.78900 45.09300
H  48.15000 20.95500 43.73800
H  49.29700 23.50400 40.87400
H  49.83500 25.21900 40.96900
H  47.52500 25.89500 41.00700
H  47.01600 24.39400 41.68400
H  51.86100 18.55600 41.96000
H  52.32600 17.77400 43.49300
H  53.30500 17.63900 42.06100
H  57.71700 19.79700 42.41400
H  57.74600 18.13000 42.28500
H  57.62500 18.92700 43.96300
H  58.32900 23.60000 43.75400
H  57.70800 25.23000 46.33200
H  58.23600 21.89100 46.09800
H  58.96700 23.43900 46.60100
H  59.63900 22.40600 45.26600
H  57.82800 26.59900 43.58900
H  59.22000 25.63200 43.95900
H  60.12800 27.26400 45.15000
H  58.55600 27.50800 46.09200
H  58.82600 28.19800 44.54600
H  54.61400 29.82900 44.96400
H  54.60200 29.40100 46.55700
H  53.09000 30.16800 45.83600
H  49.33200 27.09100 44.10500
H  47.05600 28.39300 40.59800
H  48.42200 27.87000 39.68500
H  48.52500 29.39900 40.75400

