158

Mg 1.27200 8.55000 27.09500
C  1.87000 10.76200 29.91500
C  1.45700 5.95400 29.32300
C  1.46200 6.49800 24.42900
C  1.51100 11.29100 25.09400
N  1.71000 8.38900 29.39100
C  1.85600 9.35600 30.27900
C  1.69600 8.83600 31.68900
C  1.98700 7.31700 31.57900
C  1.67900 7.21100 30.04300
C  3.33700 6.71400 31.85600
C  0.31800 9.18800 32.30400
C  0.25200 9.26500 33.85000
H  1.29400 8.53400 34.69600
N  1.31400 6.51900 26.90500
C  1.27000 5.62500 27.93300
C  1.20900 4.26800 27.37700
C  1.29600 4.42800 25.95200
C  1.33200 5.85900 25.71800
C  1.11400 3.08200 28.22400
C  1.22000 3.40300 24.82500
O  1.35500 3.68400 23.58900
C  0.76200 2.01300 25.19200
N  1.67800 8.90400 24.98000
C  1.57100 7.85300 24.10000
C  1.55800 8.37900 22.63700
C  1.32300 9.88200 22.88900
C  1.45100 10.07500 24.39600
C  2.82800 7.98700 21.81100
C  0.03100 10.47400 22.25900
C  -1.20500 10.74200 23.09700
N  1.58300 10.59600 27.42800
C  1.63100 11.59000 26.45900
C  1.61600 12.91300 27.12500
C  1.74700 12.59600 28.51400
C  1.66800 11.23000 28.64300
C  1.70300 14.24800 26.61700
C  1.98800 13.15900 29.81800
O  2.17200 14.32400 30.20800
C  1.97900 11.99600 30.81800
C  3.08000 12.04400 31.74400
O  4.23700 11.69300 31.51500
O  2.67300 12.49900 32.95300
C  3.66100 12.47700 34.09400
H  1.50800 5.09100 29.99100
H  1.48700 5.95700 23.48100
H  1.36500 12.23400 24.56200
H  2.47600 9.37000 32.23100
H  1.24800 6.77600 32.17200
H  3.77400 6.14400 31.03600
H  3.18700 5.90100 32.56600
H  4.01100 7.52300 32.13800
H  -0.51900 8.56300 31.99200
H  0.07400 10.14800 31.84800
H  -0.82100 9.18900 34.02900
H  0.42300 10.29100 34.17500
H  0.17000 2.57800 28.01500
H  1.04700 3.33500 29.28200
H  2.01200 2.51200 27.98600
H  0.63500 1.46600 24.25800
H  -0.20500 2.08200 25.69200
H  1.38600 1.43700 25.87600
H  0.70800 7.91000 22.14100
H  2.10300 10.50900 22.45700
H  3.51000 7.55100 22.54000
H  3.32400 8.86400 21.39500
H  2.51300 7.25100 21.07100
H  -0.34700 9.71800 21.57100
H  0.24400 11.36300 21.66500
H  -2.00400 10.22000 22.57100
H  -1.38500 11.81700 23.11600
H  -1.25200 10.45600 24.14800
H  2.69600 14.55600 26.29100
H  1.44200 14.92300 27.43300
H  0.96500 14.58900 25.89100
H  1.03800 12.12800 31.35300
H  4.45200 11.74200 33.94600
H  3.09600 12.29600 35.00900
H  4.12700 13.45400 34.22600
Mg 35.62000 2.89800 29.81900
C  33.24500 3.60500 32.26800
C  37.98900 2.69600 32.47000
C  38.15000 2.65000 27.51000
C  33.26300 3.25000 27.34800
N  35.58400 3.25200 32.09700
C  34.46900 3.39600 32.88400
C  34.80700 3.40100 34.36200
C  36.31100 3.30400 34.39500
C  36.64100 3.04100 32.90500
C  37.03200 4.56100 34.97100
C  34.15900 2.23200 35.21600
C  33.72000 2.67800 36.55900
H  34.67900 3.63300 37.40500
N  37.68100 2.55400 29.97700
C  38.46700 2.51100 31.14400
C  39.87600 2.19900 30.81400
C  39.99100 2.23900 29.37100
C  38.58600 2.42600 28.88200
C  40.96000 1.90500 31.92500
C  41.17700 2.05100 28.42500
O  41.17000 1.94800 27.21800
C  42.49400 2.02500 29.11700
N  35.68800 2.97000 27.73100
C  36.86000 2.87000 27.04400
C  36.55100 3.16600 25.52500
C  35.04200 3.40500 25.43600
C  34.63400 3.20400 26.93800
C  37.32100 4.28400 24.85600
C  34.34100 2.45500 24.46000
C  34.16500 1.00700 24.84900
N  33.61900 3.40500 29.73100
C  32.75100 3.38900 28.71500
C  31.43800 3.76500 29.18100
C  31.62000 3.81000 30.57200
C  32.91100 3.51300 30.87400
C  30.14400 4.09700 28.37800
C  30.86500 4.09900 31.79700
O  29.68500 4.39000 31.95700
C  31.94700 3.97300 33.05500
C  31.99400 5.36200 33.57500
O  32.26700 6.30200 32.84500
O  31.63900 5.42000 34.91900
C  32.00200 6.65400 35.58300
H  38.69400 2.64400 33.30300
H  38.92200 2.76700 26.74700
H  32.62000 3.64800 26.56000
H  34.44100 4.36900 34.70600
H  36.73700 2.49800 34.99200
H  36.49400 5.19000 35.68000
H  37.47800 5.25400 34.25800
H  37.86900 4.07400 35.47200
H  34.90900 1.44200 35.23900
H  33.36200 1.67900 34.71800
H  33.42700 1.87700 37.23700
H  32.88700 3.34700 36.34300
H  41.36500 0.89800 31.82600
H  40.51000 1.93000 32.91700
H  41.77400 2.62400 31.83200
H  42.63500 2.95700 29.66300
H  43.30700 1.86900 28.40800
H  42.50100 1.15800 29.77900
H  36.69400 2.33800 24.83100
H  34.71700 4.39700 25.12300
H  36.64500 5.07200 24.52400
H  37.70100 3.92400 23.90000
H  38.14100 4.74700 25.40500
H  34.68900 2.61900 23.44000
H  33.29700 2.75800 24.38000
H  33.15200 0.64400 24.67700
H  34.43600 0.87200 25.89600
H  34.89200 0.43200 24.27500
H  30.27500 3.98800 27.30100
H  29.69300 5.06400 28.60000
H  29.27500 3.44600 28.47300
H  31.58200 3.16300 33.68700
H  32.46700 6.32500 36.51300
H  31.12200 7.24600 35.83800
H  32.81700 7.13400 35.04200

