158

Mg 0.21400 7.97200 26.27800
C  0.98100 9.73300 29.22100
C  0.20500 5.05300 28.19300
C  -0.20000 6.31500 23.48300
C  0.58900 10.94000 24.49700
N  0.46800 7.49100 28.33800
C  0.69400 8.37900 29.41800
C  0.57800 7.73700 30.77700
C  0.51000 6.20700 30.40400
C  0.47500 6.24000 28.87400
C  1.65900 5.36000 31.01400
C  -0.69600 8.28500 31.53000
C  -0.51900 8.42700 33.06600
H  0.71000 7.87200 33.87100
N  0.05800 6.00800 25.86000
C  0.01800 4.94600 26.81500
C  -0.33000 3.69800 26.11300
C  -0.31300 4.03800 24.72100
C  -0.15700 5.53600 24.64000
C  -0.51500 2.34000 26.85800
C  -0.60500 3.13200 23.51500
O  -0.56500 3.50500 22.36200
C  -1.06400 1.83800 23.78900
N  0.38400 8.53100 24.29100
C  -0.01400 7.66500 23.30500
C  -0.20300 8.27900 21.92500
C  -0.03700 9.81000 22.28100
C  0.30500 9.78200 23.77000
C  0.86600 7.75100 20.83500
C  -1.22900 10.69700 21.85000
C  -2.52200 10.61600 22.64000
N  0.80000 9.91700 26.70700
C  0.94600 10.98300 25.83800
C  1.36300 12.13800 26.57900
C  1.36500 11.70900 27.93700
C  1.04500 10.33600 27.95900
C  1.68400 13.50400 25.99100
C  1.55000 12.14000 29.27500
O  1.94700 13.18900 29.70000
C  1.26000 10.92600 30.14000
C  2.32400 10.76300 31.07300
O  3.24200 9.93600 30.99700
O  2.21200 11.70100 32.05900
C  3.19100 11.59600 33.15000
H  0.09900 4.14800 28.79400
H  -0.51600 5.77200 22.59000
H  0.82800 11.84900 23.94100
H  1.42200 8.06200 31.38500
H  -0.44600 5.75400 30.66900
H  1.28700 4.55500 31.64700
H  2.20600 5.89400 31.79100
H  2.39900 4.95400 30.32300
H  -1.34900 7.42900 31.35900
H  -1.08500 9.19700 31.07900
H  -1.38800 7.95000 33.51800
H  -0.56000 9.49400 33.28800
H  -1.26700 1.69900 26.39800
H  -0.84600 2.51600 27.88100
H  0.43800 1.82100 26.74900
H  -1.44000 1.32700 22.90200
H  -1.95400 2.10200 24.35900
H  -0.40400 1.19400 24.37100
H  -1.17900 7.99100 21.53500
H  0.83500 10.23900 21.78800
H  1.58500 7.03000 21.22600
H  1.52300 8.48000 20.36100
H  0.27400 7.13600 20.15700
H  -1.36400 10.54800 20.77900
H  -0.92100 11.73400 21.98200
H  -2.44700 9.80200 23.36000
H  -3.38100 10.44600 21.99100
H  -2.76300 11.52800 23.18700
H  0.67000 13.81800 25.74200
H  2.31200 13.36200 25.11100
H  2.04200 14.20500 26.74500
H  0.36200 11.06800 30.74200
H  4.05000 12.26500 33.09500
H  3.50200 10.57500 33.37300
H  2.59500 11.91600 34.00400
Mg 49.19800 35.04900 26.77000
C  46.99300 33.79000 29.41800
C  49.57300 37.87400 28.88300
C  50.73400 36.65600 24.27200
C  47.93900 32.57500 24.70200
N  48.42600 35.57800 28.89500
C  47.65000 34.94200 29.81700
C  47.73600 35.59300 31.18600
C  48.26300 37.02900 30.81500
C  48.78200 36.84500 29.42800
C  47.29000 38.23900 30.96600
C  48.65700 34.80900 32.16200
C  48.39500 34.86300 33.68600
H  47.28800 35.84800 34.12900
N  50.16600 36.93200 26.64400
C  50.26900 37.89600 27.63900
C  51.01800 39.01600 27.08300
C  51.32200 38.75200 25.75800
C  50.79400 37.36100 25.46700
C  51.41100 40.23200 27.98100
C  51.97600 39.68400 24.73600
O  52.05500 39.26400 23.57800
C  52.31900 41.16000 24.98900
N  49.34900 34.63100 24.81500
C  50.06900 35.45500 23.91900
C  50.01800 34.73800 22.47900
C  49.36000 33.34700 22.79700
C  48.77100 33.55100 24.16900
C  49.28500 35.56400 21.46000
C  50.24300 31.98200 22.49000
C  49.54300 30.94000 21.62200
N  47.85300 33.42100 27.05700
C  47.49700 32.58800 25.99800
C  46.58100 31.64600 26.62500
C  46.24400 32.14800 27.90200
C  47.16100 33.16600 28.16800
C  45.96400 30.55000 25.79300
C  45.48600 31.93700 29.06900
O  44.61500 31.11500 29.25700
C  45.97700 32.96000 30.17200
C  46.57300 32.11100 31.26900
O  47.71900 31.62700 31.26700
O  45.72800 31.91200 32.31700
C  46.27900 30.99800 33.37200
H  49.76400 38.78300 29.45800
H  51.11500 37.24100 23.43200
H  47.51300 31.85600 24.00000
H  46.71500 35.59800 31.56800
H  49.08500 37.34500 31.45600
H  46.99100 38.76600 30.06100
H  47.88200 38.93400 31.56200
H  46.44400 37.93400 31.58200
H  49.65800 35.21200 32.01400
H  48.73900 33.77100 31.83900
H  49.28900 35.18500 34.22000
H  48.22300 33.85400 34.06100
H  51.58600 39.90700 29.00600
H  50.62500 40.98700 27.97700
H  52.26500 40.79600 27.60600
H  53.33600 41.28100 25.36400
H  51.68000 41.52000 25.79500
H  52.18300 41.73300 24.07300
H  51.07500 34.71600 22.21400
H  48.42800 33.24100 22.24200
H  49.98700 36.24900 20.98500
H  48.45300 36.11800 21.89500
H  48.79400 34.96400 20.69500
H  50.52000 31.52200 23.43800
H  51.21400 32.20100 22.04500
H  49.94000 30.86300 20.61000
H  48.47500 31.10700 21.48300
H  49.64200 29.98600 22.14200
H  45.28100 30.06500 26.49000
H  46.72000 29.85200 25.43300
H  45.41300 30.82700 24.89400
H  45.21700 33.47800 30.75700
H  45.42600 30.67100 33.96700
H  46.85300 31.66700 34.01200
H  46.81800 30.10800 33.04800

