158

Mg 17.61000 -1.03700 28.25500
C  16.02000 1.03100 30.65400
C  19.27900 -2.55700 30.90100
C  19.52400 -2.42500 26.08500
C  16.13400 1.06000 25.75900
N  17.89300 -0.54400 30.44600
C  16.95500 0.14400 31.22200
C  17.22400 -0.05900 32.77900
C  18.37400 -1.12400 32.69000
C  18.55800 -1.43500 31.27300
C  19.62100 -0.75200 33.51600
C  16.04300 -0.58800 33.57200
C  15.63800 0.03500 34.90100
H  16.75600 0.17800 35.92900
N  19.06500 -2.42400 28.46000
C  19.56200 -3.03400 29.61500
C  20.53200 -4.12700 29.22800
C  20.60800 -4.04500 27.79600
C  19.74700 -2.83200 27.40700
C  21.18400 -5.05700 30.28900
C  21.55400 -4.85200 26.83200
O  21.61100 -4.65200 25.62900
C  22.56100 -5.76800 27.38800
N  17.76800 -0.76200 26.20300
C  18.75900 -1.38500 25.51500
C  18.78500 -1.01000 24.01700
C  17.68000 0.06900 23.94200
C  17.13000 0.13100 25.36200
C  20.09700 -0.51300 23.44100
C  16.64700 -0.12500 22.74700
C  16.77100 0.81000 21.50900
N  16.30000 0.71100 28.11800
C  15.70900 1.37700 27.03700
C  14.87900 2.52100 27.48400
C  14.93700 2.36500 28.90500
C  15.73600 1.24600 29.24800
C  14.14100 3.44200 26.54500
C  14.35700 2.88900 30.20200
O  13.47500 3.63900 30.48600
C  15.14600 2.05200 31.34000
C  16.03100 3.00700 32.07400
O  17.15200 3.33200 31.78100
O  15.29900 3.48700 33.13100
C  15.93800 4.18800 34.23400
H  19.62000 -3.12300 31.77000
H  20.17800 -2.83100 25.31100
H  15.72100 1.56400 24.88300
H  17.60100 0.87600 33.19400
H  18.12500 -2.10100 33.10300
H  19.38600 0.05200 34.21300
H  20.34800 -0.56500 32.72600
H  19.90200 -1.61700 34.11500
H  16.12400 -1.65600 33.77200
H  15.22600 -0.39200 32.87700
H  14.83400 -0.55900 35.33600
H  15.14000 0.98500 34.70600
H  22.22100 -4.79200 30.49800
H  21.17700 -6.09800 29.96700
H  20.79800 -4.88000 31.29300
H  22.18300 -6.33700 28.23700
H  23.44100 -5.20400 27.69900
H  22.73100 -6.40600 26.52100
H  18.52900 -1.94700 23.52200
H  18.19300 1.02900 23.87600
H  20.05700 0.54500 23.18200
H  20.37600 -1.05400 22.53700
H  20.84000 -0.57200 24.23600
H  15.61200 -0.01000 23.07100
H  16.81600 -1.13200 22.36700
H  17.66300 1.43600 21.49500
H  15.86500 1.40600 21.39900
H  16.79800 0.14000 20.64900
H  13.34000 2.79600 26.18900
H  14.94600 3.64300 25.83800
H  13.62700 4.29300 26.99300
H  14.43800 1.74000 32.10700
H  16.94200 4.53700 33.99000
H  15.89500 3.43900 35.02500
H  15.29600 4.93300 34.70400
Mg 47.07800 25.67000 28.75400
C  48.11700 27.79700 31.30200
C  45.99700 23.41400 31.02300
C  46.64100 23.36800 26.21000
C  48.52300 27.80700 26.33000
N  47.16300 25.65300 30.87700
C  47.59400 26.59500 31.78600
C  47.26200 26.24500 33.23900
C  46.77900 24.76000 33.04800
C  46.55400 24.60100 31.52500
C  47.70200 23.68300 33.67400
C  46.10900 27.21200 33.87200
C  46.47800 27.48600 35.29100
H  45.33800 27.09000 36.24200
N  46.40900 23.64600 28.58100
C  45.92100 22.94200 29.65800
C  45.55700 21.64900 29.29900
C  45.70600 21.60100 27.89400
C  46.30400 22.86800 27.47200
C  45.03000 20.58400 30.27900
C  45.44400 20.42300 26.94600
O  45.76700 20.47600 25.78700
C  44.84800 19.15500 27.50300
N  47.52100 25.61500 26.57500
C  47.12300 24.53100 25.79600
C  47.54000 24.80600 24.41300
C  47.84100 26.29600 24.37600
C  48.01000 26.58800 25.84000
C  48.63800 23.87900 23.79500
C  46.80500 27.22000 23.64700
C  47.47300 28.00400 22.46700
N  48.02400 27.48000 28.77600
C  48.50700 28.24200 27.73600
C  49.18100 29.36700 28.29700
C  48.94800 29.25100 29.67900
C  48.29500 28.08700 29.93000
C  49.94100 30.43800 27.57200
C  49.20900 29.90700 30.95800
O  49.74900 30.92700 31.29400
C  48.55400 29.01600 32.02700
C  49.58000 28.65800 33.07900
O  50.71100 28.29900 32.85200
O  49.01900 28.80100 34.33300
C  49.96800 28.77700 35.44800
H  45.69300 22.74300 31.83000
H  46.50400 22.66500 25.38600
H  48.85400 28.46700 25.52500
H  48.16700 26.24300 33.84500
H  45.86300 24.55800 33.60400
H  48.59100 24.13000 34.11900
H  47.82200 22.98200 32.84800
H  47.22900 23.11000 34.47200
H  45.07200 26.97500 33.63500
H  46.24400 28.13800 33.31300
H  46.54300 28.56400 35.44100
H  47.41000 27.02000 35.61000
H  45.60400 19.66400 30.39500
H  44.08300 20.27600 29.83600
H  44.85900 20.91000 31.30500
H  44.68600 18.47900 26.66400
H  43.90800 19.45500 27.96600
H  45.51200 18.65100 28.20500
H  46.70000 24.75100 23.72200
H  48.84500 26.43200 23.97400
H  48.77100 22.99800 24.42300
H  49.52600 24.50100 23.67900
H  48.30700 23.53500 22.81500
H  46.36000 27.82100 24.43900
H  46.00200 26.63100 23.20300
H  46.88000 27.94900 21.55400
H  48.50400 27.69400 22.29800
H  47.38700 29.08200 22.60700
H  49.96200 30.31200 26.48900
H  50.94400 30.24800 27.95300
H  49.57100 31.43500 27.81400
H  47.73300 29.53800 32.51900
H  49.81800 27.84100 35.98600
H  49.80200 29.62600 36.11200
H  51.00800 29.00400 35.21600

