158

Mg 54.42900 24.45100 44.39800
C  51.70000 26.46500 43.40900
C  52.76900 21.70600 43.24400
C  57.32300 22.64400 44.55400
C  56.14900 27.45100 44.98400
N  52.43200 24.14100 43.46000
C  51.50100 25.07800 43.17200
C  50.31400 24.41200 42.40600
C  50.49700 22.91600 42.82500
C  51.96000 22.89700 43.26900
C  49.55300 22.39000 43.98900
C  50.32200 24.65800 40.90000
C  48.86700 24.51700 40.28300
H  48.80400 24.24200 38.74000
N  54.94300 22.43000 44.09800
C  54.08500 21.47000 43.65500
C  54.77400 20.20400 43.62600
C  56.12500 20.49000 44.00900
C  56.17300 21.89200 44.22800
C  54.09000 18.82800 43.20600
C  57.31200 19.50900 43.87300
O  57.10500 18.34100 43.71300
C  58.71200 19.87500 43.59100
N  56.48600 24.96800 44.44700
C  57.47100 24.01600 44.58900
C  58.83100 24.74000 44.80800
C  58.43300 26.19300 45.10700
C  56.90100 26.19000 44.86300
C  59.85500 24.21800 45.82300
C  59.35000 27.25500 44.44500
C  59.83300 28.43300 45.32000
N  54.03800 26.56500 44.39500
C  54.77000 27.62400 44.73000
C  54.01400 28.83200 44.64900
C  52.75600 28.41200 44.17000
C  52.83900 27.04200 43.97800
C  54.44800 30.24900 45.18000
C  51.47300 28.88000 43.92300
O  50.89000 29.87800 44.17300
C  50.83000 27.71600 43.12000
C  50.74800 28.07400 41.67800
O  51.66500 28.46800 40.92100
O  49.44400 27.99700 41.26300
C  49.17000 28.21700 39.77700
H  52.17500 20.82800 42.98300
H  58.25600 22.08300 44.63200
H  56.79800 28.30400 45.18700
H  49.35800 24.80600 42.75300
H  50.42600 22.29300 41.93300
H  48.59000 22.89200 44.07900
H  50.09200 22.60100 44.91300
H  49.36800 21.32100 43.87600
H  50.87100 23.90300 40.33800
H  50.64300 25.69500 40.79400
H  48.45800 25.52500 40.34600
H  48.25400 23.85600 40.89600
H  54.42300 18.43100 42.24700
H  53.00200 18.83700 43.13800
H  54.44100 18.07900 43.91500
H  58.84800 20.68700 42.87700
H  59.08100 18.95200 43.14300
H  59.25500 20.09500 44.51000
H  59.35400 24.74200 43.85200
H  58.49000 26.43100 46.16900
H  59.33900 24.06400 46.77100
H  60.48400 25.07300 46.07200
H  60.41200 23.35400 45.46100
H  58.70700 27.61500 43.64200
H  60.22100 26.74100 44.03900
H  60.92000 28.49200 45.37500
H  59.45400 28.27900 46.33000
H  59.46600 29.36500 44.89200
H  53.84200 31.07800 44.81300
H  55.47100 30.54200 44.94400
H  54.43200 30.28300 46.26900
H  49.82200 27.54200 43.49500
H  48.93700 29.27300 39.91100
H  48.31400 27.62900 39.44600
H  50.06900 28.15200 39.16400
Mg 35.30800 48.41400 24.45800
C  35.67900 46.89200 27.68400
C  33.58000 50.96200 26.11400
C  34.67400 49.70400 21.41600
C  36.64700 45.54700 23.07600
N  34.89400 48.97600 26.65000
C  35.13400 48.20300 27.73400
C  34.87100 48.98400 29.02800
C  34.03900 50.23000 28.52000
C  34.12800 50.02900 27.00100
C  32.61600 50.47400 29.16600
C  36.25400 49.27900 29.78600
C  36.21000 49.03600 31.26700
H  34.90800 48.99300 32.01900
N  34.24500 50.06000 23.83400
C  33.61200 51.03100 24.65400
C  33.13900 52.12400 23.85600
C  33.38100 51.67900 22.51500
C  34.19600 50.45800 22.51500
C  32.60000 53.41100 24.40000
C  33.03600 52.46900 21.26500
O  33.29800 52.10800 20.10700
C  32.19100 53.75300 21.25900
N  35.55700 47.67100 22.55700
C  35.26500 48.39500 21.48000
C  35.73500 47.72300 20.19700
C  36.53600 46.54000 20.72700
C  36.19000 46.56800 22.24700
C  34.70500 47.41000 19.06800
C  38.03300 46.44900 20.35800
C  38.24500 45.72700 19.03000
N  36.08300 46.55000 25.23000
C  36.53000 45.46000 24.46300
C  36.89500 44.35200 25.36000
C  36.68300 44.89500 26.67800
C  36.09000 46.22100 26.51700
C  37.32400 42.92800 24.90500
C  36.79000 44.70800 28.16000
O  37.35800 43.83100 28.78100
C  36.13700 45.98400 28.85700
C  35.02200 45.59200 29.75400
O  33.82300 45.64800 29.50200
O  35.53600 45.23300 31.04300
C  34.43900 44.93000 32.02100
H  33.27400 51.83900 26.68900
H  34.50500 50.10500 20.41400
H  37.17700 44.71200 22.61200
H  34.24700 48.35600 29.66400
H  34.63700 51.14000 28.57000
H  32.42300 49.83300 30.02700
H  31.83300 50.46600 28.40800
H  32.64100 51.48500 29.57200
H  36.68100 50.25600 29.55600
H  37.03400 48.64700 29.36100
H  36.90200 49.75400 31.70700
H  36.75500 48.14000 31.56400
H  32.66000 54.30800 23.78300
H  33.06300 53.61100 25.36600
H  31.52900 53.22700 24.49200
H  31.33600 53.70300 21.93400
H  31.89700 53.98300 20.23500
H  32.86400 54.51300 21.65500
H  36.42900 48.37900 19.67100
H  36.03900 45.61800 20.42600
H  33.70200 47.73800 19.34200
H  34.66300 46.32500 18.98000
H  34.94000 47.79300 18.07500
H  38.63300 45.86400 21.05400
H  38.38300 47.48200 20.33100
H  38.84100 46.45900 18.48500
H  37.28400 45.47900 18.58000
H  38.81100 44.80600 19.16700
H  37.95100 43.02400 24.01900
H  36.47900 42.29700 24.62900
H  37.91100 42.51600 25.72600
H  36.88800 46.52000 29.43600
H  34.15600 43.87800 31.98600
H  33.55200 45.55500 31.90900
H  34.82600 44.96400 33.03900

