158

Mg 45.05200 4.48900 48.04200
C  43.02000 7.11700 47.05200
C  42.44900 2.16100 47.09200
C  47.18200 1.90500 48.15200
C  47.72200 6.75000 47.73000
N  42.91800 4.62700 47.30600
C  42.31200 5.82200 46.98700
C  40.93400 5.57200 46.35600
C  40.72900 4.00800 46.64600
C  42.17300 3.58000 47.03200
C  39.50600 3.64900 47.60800
C  40.87500 5.94400 44.77900
C  39.63900 6.79300 44.35500
H  39.94900 7.66800 43.12100
N  44.80600 2.33200 47.93600
C  43.64900 1.60500 47.56300
C  43.97300 0.17100 47.74200
C  45.32000 0.10300 48.14900
C  45.84700 1.47700 48.10600
C  42.94900 -0.93000 47.55700
C  46.09500 -1.16400 48.52600
O  45.56600 -2.25900 48.36200
C  47.48300 -1.07600 49.10900
N  47.12300 4.29200 47.87900
C  47.78900 3.16100 48.11900
C  49.31600 3.33100 48.22600
C  49.46300 4.89900 48.03500
C  48.03200 5.36500 47.86700
C  50.08600 2.73100 49.34900
C  50.33900 5.30100 46.82500
C  51.68800 5.94400 46.99700
N  45.36500 6.56100 47.71500
C  46.47700 7.33600 47.67800
C  46.07300 8.74700 47.73300
C  44.71100 8.75200 47.51200
C  44.32400 7.37700 47.43100
C  46.97200 9.90100 47.76800
C  43.53100 9.55800 47.33700
O  43.41300 10.76100 47.26900
C  42.42100 8.53900 46.97700
C  41.32500 8.72000 47.92500
O  41.37300 8.54400 49.13200
O  40.22600 9.17200 47.21100
C  38.95500 9.44200 47.95300
H  41.59600 1.50500 46.90900
H  47.99900 1.18200 48.09200
H  48.58400 7.42100 47.74900
H  40.24100 6.24600 46.86000
H  40.28100 3.62600 45.72900
H  39.96500 3.13900 48.45500
H  38.78800 2.96600 47.15300
H  38.90900 4.52200 47.87100
H  40.79000 5.02900 44.19200
H  41.76300 6.51800 44.51500
H  39.32100 7.46100 45.15500
H  38.68900 6.26400 44.28800
H  43.25200 -1.68800 46.83500
H  41.98100 -0.60900 47.17300
H  42.74700 -1.36100 48.53800
H  47.86600 -1.96300 49.61300
H  47.57300 -0.25000 49.81300
H  48.08200 -0.97800 48.20300
H  49.74200 2.83100 47.35600
H  49.87000 5.36600 48.93200
H  49.48400 2.37700 50.18600
H  50.67900 3.53500 49.78500
H  50.71200 1.90300 49.01900
H  49.66500 5.83500 46.15500
H  50.67600 4.40300 46.30700
H  52.57900 5.32700 46.88100
H  51.66700 6.29400 48.02900
H  51.77900 6.83000 46.36900
H  47.75200 9.80100 48.52300
H  46.35200 10.77100 47.98100
H  47.45500 10.00500 46.79600
H  42.20200 8.75200 45.93100
H  39.07500 9.87800 48.94500
H  38.40900 8.50600 48.06700
H  38.44900 10.21400 47.37400
Mg 5.73200 52.75700 41.88700
C  5.23900 49.30100 41.23100
C  9.05700 52.28400 40.73400
C  6.27400 56.09600 42.04400
C  2.40800 53.08200 42.64700
N  6.91000 51.02300 40.89000
C  6.52700 49.71300 40.84400
C  7.68200 48.85500 40.27400
C  8.92300 49.73600 40.75300
C  8.30100 51.14300 40.79400
C  9.50000 49.28900 42.16900
C  7.61600 48.44500 38.79000
C  6.45400 49.07500 37.98400
H  5.76900 48.26100 36.84800
N  7.41400 54.02200 41.61900
C  8.62400 53.65700 41.03800
C  9.45600 54.83000 40.79700
C  8.71500 55.96200 41.16900
C  7.37800 55.41500 41.65500
C  10.80800 54.76800 40.07700
C  9.24200 57.38400 41.05100
O  10.39800 57.64300 40.65900
C  8.36200 58.51700 41.48200
N  4.45400 54.32600 42.22400
C  4.97300 55.62400 42.37200
C  3.67100 56.48900 42.74000
C  2.46300 55.52800 42.87600
C  3.17100 54.25900 42.61500
C  3.90100 57.65300 43.73200
C  1.29600 55.85800 41.98800
C  -0.11000 55.94900 42.65800
N  4.05100 51.45700 41.87700
C  2.77300 51.72100 42.33200
C  2.00500 50.42100 42.54000
C  2.97400 49.45100 42.20300
C  4.20100 50.12100 41.67500
C  0.65300 50.30400 43.06700
C  3.19700 48.03500 42.10300
O  2.40600 47.12100 42.35200
C  4.71600 47.91500 41.50100
C  4.59200 47.07800 40.29200
O  3.92100 47.37000 39.32700
O  5.34900 45.95900 40.38000
C  5.03100 44.93500 39.44200
H  10.13600 52.14800 40.64600
H  6.33200 57.17900 42.17800
H  1.41100 53.29800 43.03700
H  7.68600 47.91700 40.82800
H  9.63700 49.61100 39.93900
H  9.12200 48.31900 42.49200
H  9.19000 49.89200 43.02300
H  10.59000 49.29500 42.17500
H  7.39200 47.37800 38.75700
H  8.59700 48.45900 38.31500
H  7.07800 49.80000 37.46300
H  5.69800 49.72300 38.42900
H  11.23500 53.77100 39.97200
H  11.56500 55.39300 40.55000
H  10.73600 55.13800 39.05400
H  8.98500 59.41100 41.46400
H  8.06200 58.46900 42.52900
H  7.54900 58.61900 40.76300
H  3.58900 57.06500 41.81800
H  2.10800 55.43400 43.90200
H  3.78200 58.66200 43.33600
H  4.91700 57.59500 44.12300
H  3.18500 57.58000 44.55000
H  1.28600 55.13800 41.16900
H  1.50800 56.89000 41.70900
H  -0.56400 56.93600 42.56800
H  0.04800 55.82000 43.72900
H  -0.86300 55.20200 42.40600
H  0.56700 49.30000 43.48300
H  -0.02000 50.54400 42.24400
H  0.49000 51.05300 43.84200
H  5.51400 47.45900 42.08600
H  5.50100 44.03600 39.84100
H  5.42100 45.18000 38.45400
H  3.95000 44.78900 39.44500

