158

Mg 47.83500 15.13100 28.14400
C  45.80300 14.80500 30.99800
C  50.00100 17.09700 30.19900
C  49.63900 15.83000 25.47500
C  45.39200 13.51900 26.22600
N  47.91400 15.75200 30.37000
C  46.95900 15.55600 31.27300
C  47.38500 15.99900 32.61200
C  48.47000 17.09200 32.22300
C  48.82500 16.62900 30.86100
C  48.01700 18.56000 32.33700
C  47.96600 14.82500 33.46800
C  48.40500 15.19200 34.94900
H  48.09000 16.60300 35.46100
N  49.71400 16.20100 27.93200
C  50.42400 16.82700 28.91300
C  51.53400 17.43900 28.22600
C  51.41900 17.15800 26.88300
C  50.29200 16.32000 26.68800
C  52.49200 18.30100 28.99200
C  52.31000 17.72900 25.76000
O  52.12200 17.37400 24.60800
C  53.67300 18.48600 25.93800
N  47.50000 14.75100 26.17300
C  48.48700 15.04200 25.24800
C  48.10700 14.49700 23.85000
C  46.76300 13.74500 24.08300
C  46.47800 13.98700 25.58600
C  48.14600 15.55400 22.66800
C  46.64800 12.24900 23.71300
C  45.63600 11.86800 22.63300
N  45.95300 14.36100 28.51600
C  45.02200 13.78700 27.64000
C  43.81200 13.47600 28.38800
C  44.07100 13.94600 29.66900
C  45.38900 14.37600 29.76600
C  42.62600 12.70300 27.79300
C  43.49100 14.08200 30.93700
O  42.41000 13.79000 31.45100
C  44.60900 14.64000 31.88300
C  44.07700 15.89200 32.48500
O  43.90300 16.94200 31.87300
O  43.92200 15.75900 33.87700
C  43.44700 16.84800 34.73700
H  50.52800 17.84300 30.79800
H  50.21400 16.14900 24.60300
H  44.62100 13.06500 25.60000
H  46.60200 16.41800 33.24300
H  49.30800 16.83400 32.87100
H  46.93500 18.62700 32.45700
H  48.28000 19.10400 31.43000
H  48.69000 19.02300 33.05900
H  48.82400 14.41100 32.93800
H  47.30200 13.96100 33.48600
H  49.48700 15.06000 34.95900
H  47.94100 14.60700 35.74300
H  53.49800 17.98800 28.71400
H  52.52300 18.21800 30.07900
H  52.24500 19.33300 28.74200
H  53.51600 19.37200 26.55200
H  54.07100 18.89800 25.01000
H  54.39700 17.82200 26.41000
H  48.84200 13.71500 23.66000
H  45.96200 14.22400 23.51900
H  48.24900 16.57500 23.03600
H  47.27400 15.63000 22.01800
H  48.97600 15.39300 21.98000
H  46.20000 11.80200 24.60100
H  47.62300 11.85700 23.42500
H  46.08300 11.07400 22.03500
H  45.35400 12.76900 22.08900
H  44.77800 11.43800 23.15000
H  42.57800 12.94000 26.73000
H  41.77400 13.10500 28.34200
H  42.80700 11.66900 28.08600
H  44.80700 13.94100 32.69600
H  42.40400 16.59500 34.92300
H  43.40600 17.77900 34.17000
H  43.94700 16.81900 35.70500
Mg 9.12800 48.89500 26.48100
C  6.95500 49.41800 29.19000
C  11.71900 50.17100 28.24600
C  11.06800 48.20500 23.86700
C  6.18600 48.43400 24.46300
N  9.28300 49.62100 28.52900
C  8.31700 49.58400 29.55300
C  8.86000 50.16700 30.90800
C  10.20800 50.79200 30.31800
C  10.43000 50.19200 28.91600
C  10.15600 52.31800 30.22800
C  9.09700 48.99300 31.94500
C  8.94500 49.50600 33.36700
H  8.46900 48.44800 34.38600
N  11.14300 49.12900 26.09600
C  12.08300 49.61400 26.97200
C  13.41400 49.42700 26.49300
C  13.23500 48.87100 25.16700
C  11.74800 48.70600 25.01300
C  14.66200 49.70800 27.28600
C  14.41500 48.28700 24.18400
O  14.12900 47.82300 23.13900
C  15.82300 48.28200 24.55800
N  8.72200 48.49400 24.40500
C  9.70100 48.01500 23.62800
C  9.13000 47.41600 22.37200
C  7.59700 47.78700 22.38200
C  7.42500 48.24300 23.87500
C  9.86600 47.99400 21.19200
C  6.69300 46.49900 22.08100
C  5.54100 46.67400 21.09000
N  7.05200 48.90300 26.68000
C  5.97600 48.75200 25.79300
C  4.75500 48.74400 26.52500
C  5.13000 49.09800 27.83200
C  6.50400 49.12200 27.90500
C  3.40800 48.29400 26.01800
C  4.55700 49.40800 29.11100
O  3.38000 49.31600 29.44500
C  5.76200 49.73300 30.00700
C  5.59000 48.82000 31.16800
O  5.94200 47.65600 31.21200
O  4.98400 49.50500 32.10100
C  4.54200 48.76600 33.22600
H  12.60800 50.59000 28.72300
H  11.75000 48.00400 23.03800
H  5.21200 48.31900 23.98200
H  8.19900 50.97400 31.22400
H  10.92900 50.50800 31.08400
H  9.92000 52.61700 29.20700
H  11.13500 52.70300 30.51300
H  9.41100 52.73100 30.91000
H  10.11000 48.59100 31.94100
H  8.41100 48.17700 31.71600
H  8.26800 50.36100 33.35300
H  9.94900 49.81200 33.65900
H  15.39900 50.45300 26.98400
H  15.26200 48.80000 27.33800
H  14.45800 49.96000 28.32600
H  16.48000 47.90100 23.77600
H  15.88700 47.64200 25.43800
H  16.14400 49.32000 24.47200
H  9.34700 46.35100 22.29700
H  7.33200 48.66400 21.79300
H  10.73600 48.62500 21.37500
H  9.30100 48.69100 20.57300
H  10.23500 47.22600 20.51200
H  6.31900 46.13000 23.03600
H  7.30600 45.71300 21.63900
H  5.32900 47.74100 21.01200
H  4.67400 46.07300 21.36500
H  5.84300 46.21200 20.15000
H  3.46400 47.32100 25.52900
H  2.98600 49.06200 25.36900
H  2.80900 48.16500 26.91900
H  5.71500 50.78700 30.28200
H  5.38600 48.61400 33.89800
H  4.07000 47.81000 33.00000
H  3.81600 49.39100 33.74600

