158

Mg 46.89800 25.34100 27.90300
C  47.42600 27.44400 30.65400
C  46.40800 22.71400 30.13700
C  46.88100 23.22800 25.28500
C  47.94800 27.95600 25.86000
N  46.88000 25.11700 30.16500
C  46.99100 26.16300 31.05900
C  46.79800 25.65800 32.43000
C  46.77000 24.07700 32.28000
C  46.65200 23.95600 30.80000
C  48.05100 23.30900 32.75900
C  45.59100 26.36200 33.09900
C  44.92600 25.57000 34.20800
H  44.70600 26.19000 35.59800
N  46.49800 23.28500 27.71400
C  46.26400 22.39700 28.77200
C  45.93600 21.12100 28.17900
C  46.15900 21.20800 26.78600
C  46.49300 22.64400 26.53000
C  45.36600 19.90700 29.00100
C  46.06800 20.08900 25.75500
O  46.40800 20.27300 24.56900
C  45.68500 18.63000 26.07300
N  47.17000 25.64300 25.82800
C  47.20200 24.56200 24.98900
C  47.36400 25.06100 23.53300
C  47.36300 26.59900 23.75400
C  47.45300 26.81000 25.21700
C  48.74800 24.46100 23.02700
C  46.09700 27.33000 23.28000
C  44.77800 26.68400 23.71500
N  47.58300 27.26000 28.14200
C  48.00200 28.22100 27.25200
C  48.35200 29.44200 27.94200
C  48.10200 29.16900 29.30900
C  47.73300 27.82500 29.32900
C  48.99700 30.64600 27.31800
C  48.22000 29.71700 30.59200
O  48.67800 30.76500 30.92200
C  47.80000 28.64600 31.53400
C  48.85000 28.32500 32.59700
O  50.02600 28.13500 32.34300
O  48.23500 28.39000 33.81000
C  49.08200 28.14700 34.99800
H  46.21600 21.94100 30.88400
H  46.84100 22.54100 24.43800
H  48.18800 28.75300 25.15300
H  47.72700 25.90900 32.94100
H  45.87800 23.55300 32.62500
H  47.68000 22.43900 33.30200
H  48.67600 23.88100 33.44500
H  48.74100 22.89700 32.02400
H  44.88900 26.63300 32.31000
H  45.89900 27.24300 33.66000
H  45.46600 24.63600 34.36200
H  43.91700 25.32200 33.87800
H  44.35700 19.67700 28.66000
H  45.34600 20.22900 30.04200
H  46.01900 19.03600 28.93000
H  44.71800 18.73900 26.56400
H  46.40500 18.27200 26.80900
H  45.65000 17.91300 25.25200
H  46.60100 24.86300 22.78000
H  48.29800 27.03600 23.40400
H  48.79900 23.41900 23.34500
H  49.65000 25.03900 23.22800
H  48.57800 24.46200 21.95100
H  46.18400 27.50500 22.20800
H  46.07200 28.32800 23.71800
H  44.30000 26.33100 22.80100
H  44.08100 27.38200 24.18000
H  44.72300 25.88700 24.45600
H  48.34700 30.98000 26.50900
H  49.96800 30.57100 26.82800
H  49.02200 31.48300 28.01600
H  46.92200 28.95100 32.10400
H  49.51900 27.15500 34.87900
H  48.53500 28.19200 35.94000
H  49.92500 28.83500 35.05200
Mg -1.13800 33.87300 27.67900
C  -2.58200 32.18800 30.51600
C  0.66200 35.83100 29.89800
C  -0.43500 35.80300 25.11900
C  -3.48000 32.18000 25.58700
N  -0.95100 33.88500 29.98500
C  -1.65000 33.18900 30.98800
C  -1.24100 33.55000 32.43400
C  -0.14700 34.63500 32.09200
C  -0.12500 34.83600 30.56700
C  -0.39400 35.96700 32.88900
C  -0.68300 32.29200 33.12200
C  -1.16100 31.95600 34.50600
H  -0.23200 32.41700 35.67500
N  -0.03200 35.62200 27.53000
C  0.74800 36.26500 28.53900
C  1.51600 37.31400 27.82200
C  1.24200 37.31900 26.42500
C  0.21400 36.24100 26.33100
C  2.49400 38.16400 28.57800
C  1.81100 38.09100 25.26100
O  1.57700 37.95100 24.07400
C  2.93900 39.04300 25.52800
N  -2.07800 34.09400 25.71000
C  -1.48000 34.87900 24.82800
C  -1.73900 34.47300 23.37800
C  -2.61900 33.22900 23.44500
C  -2.75000 33.16900 25.00500
C  -2.29300 35.62200 22.58300
C  -2.09600 31.90900 22.87100
C  -1.15500 30.98200 23.73800
N  -2.62900 32.47600 27.93800
C  -3.50500 31.84900 26.96700
C  -4.36900 30.89700 27.72000
C  -4.02600 31.08100 29.05300
C  -2.96500 31.98400 29.18900
C  -5.49600 30.13500 27.16000
C  -4.38300 30.62100 30.38500
O  -5.15000 29.74400 30.72700
C  -3.43800 31.29000 31.34000
C  -4.26900 31.99700 32.31400
O  -4.48100 33.21900 32.29700
O  -4.66400 31.16800 33.33000
C  -5.43600 31.75300 34.39300
H  1.29700 36.45300 30.53300
H  -0.03000 36.14600 24.16500
H  -4.05100 31.57300 24.88100
H  -2.04800 33.98400 33.02400
H  0.85200 34.31600 32.39000
H  0.50200 36.42100 33.31200
H  -1.05100 35.70100 33.71700
H  -0.87900 36.61400 32.15800
H  0.39900 32.38900 33.21600
H  -0.75500 31.45700 32.42500
H  -1.13900 30.87300 34.63000
H  -2.09100 32.47900 34.73000
H  3.49600 37.93400 28.21500
H  2.49300 37.88100 29.63000
H  2.15600 39.19000 28.72000
H  3.21700 39.52500 24.59100
H  3.78100 38.43900 25.86600
H  2.56400 39.69200 26.32000
H  -0.81600 34.07000 22.96100
H  -3.58500 33.41300 22.97500
H  -1.63900 35.61600 21.71100
H  -2.29000 36.59500 23.07300
H  -3.30400 35.42200 22.22600
H  -1.43500 32.17700 22.04700
H  -2.85100 31.29900 22.37600
H  -0.97800 31.32600 24.75700
H  -0.17200 30.96700 23.26700
H  -1.61200 29.99400 23.79300
H  -6.41500 30.39200 27.68800
H  -5.39900 29.05000 27.16500
H  -5.65400 30.31800 26.09800
H  -2.81100 30.61100 31.91800
H  -6.28100 32.36600 34.08100
H  -4.77700 32.34500 35.02800
H  -5.94900 30.93900 34.90500

