158

Mg -1.73300 33.38200 26.95200
C  -3.21900 31.66700 29.61800
C  -0.15800 35.58900 29.00900
C  -0.90600 35.33800 24.29400
C  -3.46100 31.18100 24.67300
N  -1.82900 33.70600 29.06300
C  -2.45100 32.89100 29.98900
C  -2.04200 33.33000 31.41300
C  -1.12100 34.56100 31.17700
C  -1.03700 34.60500 29.61600
C  -1.67400 35.91400 31.83300
C  -1.41400 32.20300 32.29500
C  -0.45200 32.60100 33.41000
H  -0.62300 32.06100 34.84200
N  -0.66900 35.18300 26.69000
C  -0.07900 35.94400 27.61000
C  0.74100 37.00000 27.00400
C  0.54000 36.90600 25.60300
C  -0.42200 35.81500 25.45200
C  1.71700 37.80200 27.90700
C  1.08500 37.80800 24.55900
O  0.82100 37.67800 23.36300
C  2.06500 38.88100 24.86800
N  -2.28700 33.41300 24.72100
C  -1.77500 34.32500 23.90300
C  -1.94400 33.86600 22.43500
C  -2.54600 32.37400 22.60700
C  -2.79500 32.30600 24.07400
C  -2.87100 34.71300 21.61800
C  -1.55500 31.20900 22.09600
C  -0.11400 31.11500 22.64400
N  -3.04500 31.75200 27.10000
C  -3.61800 30.98300 26.09600
C  -4.40200 29.91100 26.77700
C  -4.27000 30.15800 28.14100
C  -3.45500 31.27300 28.28500
C  -5.36200 28.94800 26.13800
C  -4.76900 29.73700 29.47800
O  -5.47700 28.77200 29.77400
C  -4.00900 30.70200 30.45200
C  -4.98900 31.45200 31.34000
O  -5.36900 32.61100 31.20700
O  -5.27600 30.59400 32.41200
C  -5.78800 31.30700 33.65300
H  0.46200 36.17100 29.69400
H  -0.50700 35.89300 23.44200
H  -3.97000 30.44600 24.04500
H  -2.99600 33.64500 31.83700
H  -0.07200 34.47000 31.45800
H  -2.52000 35.63100 32.45900
H  -2.07600 36.58600 31.07600
H  -0.87700 36.44300 32.35400
H  -1.02300 31.40400 31.66500
H  -2.29000 31.83000 32.82500
H  -0.14700 33.64700 33.42200
H  0.45400 32.11100 33.05400
H  2.73100 37.40600 27.86000
H  1.25700 37.85500 28.89400
H  1.75100 38.86600 27.67100
H  1.60100 39.73000 25.37100
H  2.46400 39.27100 23.93200
H  2.92200 38.57900 25.47000
H  -0.99900 33.78200 21.89800
H  -3.46000 32.29500 22.01900
H  -2.86000 35.69400 22.09300
H  -3.92200 34.42700 21.58500
H  -2.59100 34.93700 20.58900
H  -1.49700 31.35900 21.01800
H  -2.03500 30.23900 22.23200
H  -0.07200 31.84000 23.45600
H  0.73500 31.36900 22.00800
H  -0.04100 30.12200 23.08700
H  -5.05300 28.77900 25.10600
H  -6.39700 29.29000 26.17100
H  -5.35400 27.96400 26.60600
H  -3.50900 29.96900 31.08600
H  -4.96900 31.76700 34.20500
H  -6.09300 30.54100 34.36500
H  -6.61700 31.99200 33.47300
Mg -5.15200 23.72700 26.39300
C  -3.50600 25.55100 28.92300
C  -6.46200 21.76100 28.88200
C  -6.99800 22.27000 24.09000
C  -3.75500 25.83500 23.96800
N  -5.00000 23.64400 28.53400
C  -4.32500 24.58000 29.39300
C  -4.69500 24.34400 30.85200
C  -5.43500 22.95400 30.83800
C  -5.59600 22.77000 29.31400
C  -4.71300 21.74400 31.48200
C  -5.70400 25.48000 31.35600
C  -5.78600 25.81200 32.81300
H  -5.30100 24.72000 33.80400
N  -6.43200 22.10600 26.45700
C  -6.93100 21.38100 27.59200
C  -7.88400 20.36600 27.19700
C  -7.97500 20.47000 25.72200
C  -7.12500 21.63900 25.37300
C  -8.49900 19.26800 28.08200
C  -8.89500 19.74400 24.70800
O  -8.90600 19.94600 23.48700
C  -9.89600 18.78200 25.22400
N  -5.22200 23.93100 24.26800
C  -6.10800 23.18900 23.57900
C  -6.02300 23.52500 22.06400
C  -4.89500 24.67600 22.03000
C  -4.51300 24.79200 23.45600
C  -5.86700 22.20600 21.07200
C  -5.40200 25.95600 21.30900
C  -4.72000 26.51900 20.10800
N  -3.71400 25.22200 26.40300
C  -3.30200 26.01800 25.33100
C  -2.44400 27.07300 25.87700
C  -2.51000 26.91700 27.26600
C  -3.28600 25.80800 27.53700
C  -1.70800 28.06100 25.08000
C  -1.94800 27.42300 28.51700
O  -1.17400 28.33800 28.65000
C  -2.68000 26.64800 29.60300
C  -1.74600 26.09200 30.55300
O  -0.72900 25.44100 30.29900
O  -2.15600 26.41700 31.82000
C  -1.41200 25.70900 32.84900
H  -6.95400 21.17400 29.66000
H  -7.63200 21.92100 23.27200
H  -3.35300 26.53900 23.23700
H  -3.81400 24.36900 31.49400
H  -6.40700 23.02500 31.32600
H  -4.46400 21.03700 30.69000
H  -5.29200 21.27300 32.27600
H  -3.86700 22.10800 32.06400
H  -6.69400 25.20000 30.99500
H  -5.43500 26.43800 30.91200
H  -6.84100 25.76000 33.08300
H  -5.37100 26.80200 32.99900
H  -9.57100 19.46400 28.05100
H  -8.10400 19.41100 29.08800
H  -8.39400 18.24500 27.72100
H  -10.48100 19.38000 25.92200
H  -9.32000 17.98200 25.69000
H  -10.44700 18.28100 24.42800
H  -7.03000 23.86500 21.82300
H  -4.08900 24.32200 21.38800
H  -5.20000 21.53800 21.61700
H  -5.47600 22.47500 20.09100
H  -6.84000 21.73400 20.93800
H  -5.56200 26.75900 22.02800
H  -6.44000 25.80900 21.01100
H  -5.20200 26.35100 19.14500
H  -3.71900 26.08800 20.10700
H  -4.54100 27.56300 20.36700
H  -0.74400 27.69500 24.72600
H  -1.58000 28.93400 25.72000
H  -2.30100 28.39200 24.22800
H  -3.31800 27.39400 30.07700
H  -0.33000 25.75900 32.73500
H  -1.66400 24.66100 32.68600
H  -1.62000 26.11000 33.84100

