158

Mg 8.60200 2.98800 27.35400
C  9.66200 1.12200 30.18500
C  6.60400 4.92700 29.40200
C  7.43900 4.37600 24.55000
C  10.29300 0.47900 25.31500
N  8.17100 2.85900 29.49400
C  8.80800 2.16600 30.53100
C  8.45700 2.71500 31.92300
C  7.45400 3.92200 31.52700
C  7.36900 3.89100 30.03100
C  5.98300 3.66800 32.02900
C  9.82300 3.11000 32.70200
C  9.63400 4.04100 33.87600
H  10.45200 3.72700 35.21100
N  7.16900 4.40100 27.06700
C  6.50500 5.13800 28.01400
C  5.69200 6.12900 27.31000
C  5.93900 5.94700 25.86000
C  6.90800 4.85700 25.79300
C  4.76000 7.08500 28.05900
C  5.34800 6.67000 24.72000
O  5.50500 6.44000 23.51300
C  4.38100 7.85900 25.07200
N  8.84900 2.53000 25.23800
C  8.27600 3.29400 24.26700
C  8.64500 2.78000 22.79300
C  9.41200 1.44800 23.09300
C  9.50500 1.43000 24.64400
C  7.41800 2.63300 21.85200
C  10.81900 1.26500 22.32300
C  10.96600 -0.01000 21.46600
N  9.87200 1.22400 27.61000
C  10.46700 0.31000 26.73600
C  11.18600 -0.74300 27.47500
C  10.92900 -0.40900 28.83400
C  10.13200 0.76700 28.88300
C  11.97400 -1.90000 26.84200
C  11.18200 -0.88900 30.20500
O  11.77300 -1.82700 30.71600
C  10.41000 0.17100 31.09900
C  9.44600 -0.56000 31.99600
O  8.59500 -1.33200 31.60800
O  9.67700 -0.24500 33.35000
C  8.67400 -0.69300 34.31200
H  6.04900 5.57200 30.08600
H  7.32400 4.98100 23.64800
H  10.81900 -0.31100 24.77600
H  8.00700 1.95400 32.56000
H  7.85000 4.90100 31.80000
H  6.01100 2.95700 32.85500
H  5.34800 3.46600 31.16700
H  5.91500 4.68600 32.41400
H  10.38800 3.59300 31.90500
H  10.34600 2.29300 33.20000
H  8.56200 4.19100 34.00600
H  9.98400 5.03500 33.59700
H  4.83500 6.92900 29.13500
H  3.85500 6.70500 27.58400
H  4.91600 8.11200 27.72800
H  3.41700 7.58100 25.49800
H  4.19000 8.30900 24.09800
H  4.89500 8.56400 25.72500
H  9.31500 3.46600 22.27400
H  8.71400 0.63200 22.90700
H  6.48500 2.79200 22.39200
H  7.45400 1.61800 21.45800
H  7.41600 3.32700 21.01100
H  11.70600 1.13300 22.94400
H  11.05800 2.13600 21.71300
H  10.74500 0.35700 20.46400
H  10.19500 -0.74700 21.69100
H  11.98000 -0.39600 21.35700
H  12.53600 -1.59200 25.96000
H  11.39900 -2.77500 26.54000
H  12.76200 -2.14400 27.55500
H  11.16300 0.71100 31.67200
H  8.18700 -1.66700 34.25300
H  7.96500 0.09300 34.57300
H  9.24500 -0.89500 35.21800
Mg -9.86100 40.96000 42.02900
C  -9.21500 37.70700 40.80800
C  -7.09100 42.00400 40.21100
C  -10.89900 44.20200 42.32600
C  -13.10100 39.85900 42.71200
N  -8.34600 39.88800 40.66100
C  -8.20100 38.60600 40.47700
C  -6.87600 38.35500 39.69400
C  -6.15500 39.75300 39.74100
C  -7.23400 40.61500 40.25900
C  -4.86200 39.69800 40.54600
C  -6.99900 37.74000 38.26700
C  -6.42700 36.31300 38.09100
H  -5.30900 36.16200 37.06300
N  -9.09500 42.89800 41.43700
C  -7.91400 43.04400 40.75400
C  -7.69900 44.51600 40.53200
C  -8.79000 45.16600 41.11100
C  -9.62400 44.10400 41.69200
C  -6.43800 45.06100 39.93600
C  -9.07200 46.63100 41.17700
O  -8.44600 47.41000 40.47400
C  -10.18100 47.32600 41.91500
N  -11.69400 41.92500 42.38900
C  -11.88000 43.22900 42.59400
C  -13.34300 43.62600 42.93100
C  -14.07700 42.22000 42.97500
C  -12.85900 41.28300 42.69100
C  -13.65200 44.51100 44.23100
C  -15.26200 42.04800 42.00000
C  -16.33500 40.99700 42.49900
N  -10.93200 39.08400 42.05900
C  -12.21400 38.77600 42.33300
C  -12.48900 37.36400 42.13800
C  -11.27200 36.87300 41.56900
C  -10.42600 37.99400 41.45500
C  -13.75500 36.58200 42.46800
C  -10.55000 35.75500 41.06600
O  -10.87600 34.59300 41.02000
C  -9.21500 36.18700 40.49000
C  -8.12400 35.44200 41.07900
O  -7.67300 35.62900 42.20200
O  -7.71200 34.44900 40.23300
C  -7.01800 33.34900 41.05400
H  -6.17500 42.36000 39.73500
H  -11.38100 45.15800 42.53700
H  -14.14000 39.54400 42.83100
H  -6.22500 37.63900 40.19700
H  -5.85700 39.92200 38.70600
H  -3.97900 39.38300 39.99000
H  -4.99900 39.00600 41.37700
H  -4.71400 40.69600 40.95800
H  -6.52700 38.33300 37.48400
H  -8.08300 37.74300 38.15200
H  -7.25100 35.65400 37.81700
H  -5.98900 35.91900 39.00800
H  -6.59200 44.80400 38.88800
H  -5.58700 44.59800 40.43500
H  -6.30100 46.14100 39.98100
H  -10.21000 47.07000 42.97400
H  -11.02200 46.79200 41.47100
H  -10.21600 48.38000 41.64100
H  -13.72500 44.21600 42.09700
H  -14.47900 42.16700 43.98700
H  -14.07200 43.89300 45.02500
H  -14.36900 45.29400 43.98600
H  -12.82600 45.10700 44.61900
H  -14.89600 41.66000 41.05000
H  -15.69200 43.04600 41.91500
H  -17.30600 41.48300 42.59300
H  -15.98300 40.52700 43.41700
H  -16.53400 40.26600 41.71500
H  -13.53900 35.66600 43.01900
H  -14.23600 36.28500 41.53600
H  -14.38200 37.15900 43.14800
H  -9.25500 35.92800 39.43100
H  -6.07700 33.74300 41.43800
H  -6.77700 32.56100 40.34100
H  -7.72000 32.99600 41.81000

