158

Mg 25.55000 1.99900 29.18800
C  27.43500 1.55700 32.17400
C  22.82400 2.57600 31.08500
C  23.87200 2.24300 26.32200
C  28.41900 0.86000 27.39000
N  25.19900 2.00600 31.39500
C  26.10700 2.01500 32.35900
C  25.46800 2.32000 33.75500
C  23.96900 2.46200 33.40700
C  23.98100 2.34000 31.87400
C  23.10800 1.41200 34.15900
C  26.23300 3.51000 34.44100
C  26.48600 3.14500 35.92900
H  26.28700 4.13500 37.05600
N  23.64100 2.28000 28.74900
C  22.60000 2.51900 29.67200
C  21.33100 2.59400 29.05500
C  21.61500 2.40600 27.65500
C  23.08300 2.28300 27.53700
C  20.07400 2.52200 29.88900
C  20.62400 2.39100 26.48600
O  20.93300 2.31300 25.31500
C  19.21000 2.37900 26.81400
N  26.05600 1.73400 27.14500
C  25.21300 2.00300 26.15300
C  25.96900 2.28200 24.78400
C  27.34900 1.72100 25.20100
C  27.32600 1.42100 26.67000
C  25.37800 1.60800 23.54500
C  28.64600 2.57700 24.83200
C  28.75700 4.05100 25.40300
N  27.47700 1.16400 29.63400
C  28.50700 0.79100 28.80700
C  29.69200 0.63700 29.53400
C  29.29700 0.87800 30.86900
C  27.98300 1.23200 30.90400
C  31.07400 0.21000 28.97800
C  29.73800 0.90900 32.32200
O  30.82600 0.64300 32.78800
C  28.53900 1.30100 33.16800
C  28.25100 0.22300 34.14800
O  27.76300 -0.80700 33.78100
O  28.55100 0.45700 35.48600
C  28.28200 -0.64600 36.39800
H  21.95900 2.94400 31.64100
H  23.27100 2.22200 25.41000
H  29.30000 0.50500 26.85100
H  25.68600 1.39100 34.28100
H  23.64800 3.44100 33.76200
H  22.74500 0.66400 33.45400
H  22.23700 1.76300 34.71200
H  23.71300 0.93800 34.93300
H  25.49000 4.30600 34.40800
H  27.20300 3.84000 34.07000
H  27.50900 2.77300 35.88700
H  26.05300 2.17800 36.18700
H  20.02900 1.53400 30.34600
H  19.12800 2.69400 29.37600
H  20.09800 3.26200 30.69000
H  19.02600 3.38200 27.19700
H  18.94100 1.58200 27.50700
H  18.65000 2.26000 25.88600
H  25.91200 3.36500 24.67800
H  27.38400 0.69000 24.85000
H  24.83600 0.69000 23.76900
H  26.17400 1.43300 22.82100
H  24.63200 2.25900 23.08900
H  28.62500 2.66200 23.74600
H  29.56100 2.03400 25.06900
H  27.91600 4.28400 26.05500
H  28.89700 4.81000 24.63300
H  29.65500 4.03900 26.02100
H  31.81400 0.22900 29.77800
H  31.45400 0.83900 28.17200
H  30.99000 -0.80100 28.57900
H  28.96800 2.20700 33.59600
H  29.02500 -1.38200 36.09200
H  27.25200 -1.00200 36.37300
H  28.59600 -0.42700 37.41900
Mg 50.42000 46.03800 41.47700
C  47.41500 47.44800 40.52200
C  49.43600 43.04400 40.27300
C  53.62300 44.81000 42.00400
C  51.65400 49.20800 42.08500
N  48.69900 45.38200 40.31900
C  47.47300 46.06500 40.23400
C  46.27000 45.08500 39.87500
C  46.98000 43.72900 39.99700
C  48.49100 44.05600 40.25300
C  46.42800 42.65000 41.01100
C  45.70200 45.44700 38.50800
C  44.18700 45.01700 38.30400
H  44.00500 43.98900 37.14300
N  51.36100 44.15200 41.15300
C  50.72800 43.05700 40.72100
C  51.70900 42.00200 40.79100
C  52.98700 42.55700 41.03000
C  52.67400 43.89900 41.43100
C  51.33900 40.57700 40.19400
C  54.32900 41.85200 40.89400
O  54.38900 40.66100 40.61900
C  55.64300 42.56800 41.11100
N  52.40000 46.92700 42.04200
C  53.46400 46.14300 42.25500
C  54.66000 47.02800 42.61900
C  53.97800 48.39700 42.79800
C  52.56700 48.19400 42.25200
C  55.60800 46.53100 43.75400
C  54.80500 49.58800 42.21800
C  55.58300 50.53800 43.20400
N  49.76000 47.88700 41.27900
C  50.31200 49.07300 41.63700
C  49.38800 50.18000 41.56200
C  48.16700 49.58400 41.13100
C  48.47900 48.20900 41.02700
C  49.57100 51.59300 42.11700
C  46.76100 49.78000 40.89900
O  46.02500 50.73500 41.09300
C  46.28700 48.40800 40.38300
C  45.03600 47.89800 41.18600
O  44.96700 47.55600 42.35000
O  43.95900 48.00600 40.36500
C  42.72300 47.36100 40.92700
H  49.01700 42.04800 40.11500
H  54.62600 44.44700 42.23600
H  51.90900 50.22400 42.39200
H  45.50800 45.20200 40.64600
H  47.13600 43.21800 39.04700
H  46.34600 41.63500 40.62100
H  45.49600 43.00100 41.45300
H  47.20300 42.46800 41.75600
H  46.30600 44.99000 37.72400
H  45.91100 46.50100 38.32300
H  43.64700 45.93500 38.07200
H  43.84200 44.53100 39.21600
H  51.36700 40.70500 39.11200
H  50.33600 40.30100 40.52200
H  51.99400 39.76200 40.50400
H  56.04100 42.37300 42.10700
H  55.75800 43.63600 40.92700
H  56.38500 42.01700 40.53300
H  55.28200 47.01400 41.72400
H  53.90100 48.53100 43.87700
H  55.64500 47.13100 44.66300
H  56.63300 46.65500 43.40500
H  55.42700 45.52500 44.13400
H  54.13000 50.24600 41.67200
H  55.57300 49.21800 41.53900
H  55.44900 51.58700 42.94000
H  56.61700 50.20800 43.29500
H  55.12100 50.33700 44.17100
H  49.63700 52.25300 41.25100
H  50.49900 51.74400 42.66700
H  48.73200 51.97000 42.70300
H  46.02600 48.44800 39.32500
H  43.06600 46.40100 41.31400
H  42.11100 47.16400 40.04800
H  42.15700 47.93200 41.66300

