158

Mg 1.18200 -1.23400 44.15200
C  4.44800 -0.65600 43.59000
C  0.32500 1.48300 42.21400
C  -2.10100 -2.20100 44.20200
C  2.08500 -4.41300 45.48200
N  2.26500 0.25300 42.99200
C  3.62900 0.30000 42.92900
C  4.05800 1.55600 42.13000
C  2.67700 2.30500 41.93700
C  1.67200 1.30100 42.36000
C  2.51100 3.67100 42.75600
C  4.81600 1.12400 40.79600
C  6.06500 1.92300 40.35500
H  5.86100 2.98500 39.28300
N  -0.61700 -0.37600 43.45500
C  -0.74700 0.73700 42.71300
C  -2.15700 1.08700 42.62700
C  -2.99200 0.08400 43.30800
C  -1.90000 -0.87600 43.74200
C  -2.61700 2.40600 41.92600
C  -4.49100 0.02300 43.38900
O  -5.19100 0.91400 42.97400
C  -5.14400 -1.02000 44.18300
N  0.10600 -3.08300 44.64200
C  -1.21500 -3.22900 44.63600
C  -1.68500 -4.66500 44.90300
C  -0.42800 -5.17100 45.70800
C  0.68100 -4.22500 45.21500
C  -3.04000 -4.95300 45.67400
C  -0.27800 -6.73000 45.65800
C  -0.41400 -7.50200 47.01700
N  2.89400 -2.33600 44.54400
C  3.14800 -3.56000 45.14700
C  4.55400 -3.75900 45.26000
C  5.11200 -2.61000 44.69600
C  4.00800 -1.82600 44.24100
C  5.27500 -4.91100 45.94800
C  6.37800 -1.91900 44.32800
O  7.54700 -2.14600 44.43000
C  5.96700 -0.57900 43.65200
C  6.37100 0.46800 44.52100
O  6.00400 0.42400 45.67000
O  7.36700 1.35300 44.03300
C  7.88300 2.33100 44.99800
H  0.15800 2.43800 41.71200
H  -3.13700 -2.47300 43.98700
H  2.38100 -5.40600 45.82800
H  4.69300 2.21300 42.72400
H  2.59100 2.60500 40.89200
H  2.23000 4.44300 42.03900
H  3.45400 3.83600 43.27500
H  1.69800 3.61700 43.47900
H  4.03700 1.28900 40.05100
H  5.04100 0.05900 40.83800
H  6.80900 1.19700 40.02800
H  6.39800 2.41000 41.27200
H  -2.67600 2.28200 40.84500
H  -1.95000 3.25200 42.09200
H  -3.57700 2.70600 42.34800
H  -5.99700 -0.66000 44.75900
H  -4.51500 -1.17500 45.06000
H  -5.39800 -1.89800 43.59000
H  -1.71200 -5.12100 43.91300
H  -0.70100 -4.97200 46.74400
H  -3.57400 -5.66800 45.04900
H  -3.77800 -4.15100 45.63900
H  -2.78800 -5.33000 46.66500
H  0.75400 -6.91500 45.35900
H  -1.02200 -7.12500 44.96600
H  -1.04000 -8.34900 46.73600
H  -1.01000 -6.95800 47.75000
H  0.58500 -7.71200 47.39800
H  6.34200 -4.83100 46.15900
H  5.17200 -5.82400 45.36200
H  4.73600 -5.07500 46.88100
H  6.40500 -0.37100 42.67600
H  8.33900 1.76500 45.81000
H  6.98200 2.86600 45.30000
H  8.60200 2.98300 44.50300
Mg -1.62200 34.81200 26.86200
C  -3.31900 32.92900 29.38700
C  -0.78000 36.99100 29.32000
C  -0.60400 36.81900 24.40100
C  -3.16300 32.72000 24.43600
N  -2.05100 34.96200 29.12100
C  -2.65500 34.03600 29.91700
C  -2.51400 34.37200 31.35500
C  -1.92000 35.82100 31.31300
C  -1.56900 35.99700 29.83700
C  -2.83000 36.92000 31.96500
C  -1.55700 33.32700 32.06200
C  -2.06400 32.40500 33.19600
H  -1.04600 32.35000 34.42200
N  -0.69400 36.54700 26.87000
C  -0.39100 37.28600 27.97200
C  0.39900 38.47900 27.53300
C  0.32400 38.47400 26.11800
C  -0.31700 37.27900 25.74600
C  1.18600 39.39700 28.46200
C  1.07800 39.40100 25.14600
O  0.96800 39.32400 23.90900
C  1.92700 40.50400 25.56600
N  -1.92900 34.83000 24.71700
C  -1.25800 35.66900 23.92800
C  -1.43400 35.30100 22.43500
C  -2.04400 33.91500 22.47400
C  -2.44700 33.80600 23.94500
C  -2.30800 36.34500 21.66900
C  -1.05400 32.76400 22.07000
C  0.13800 32.51600 23.01800
N  -2.86000 33.05300 26.85900
C  -3.46600 32.38400 25.78800
C  -4.23800 31.23200 26.32200
C  -4.21600 31.44800 27.71700
C  -3.41000 32.57000 28.00400
C  -5.04800 30.37700 25.51400
C  -4.68300 30.95300 28.98500
O  -5.38800 29.92200 29.15800
C  -4.03400 31.75600 30.08900
C  -5.05400 32.11900 31.11400
O  -5.96500 32.88100 30.91000
O  -5.00700 31.23700 32.15000
C  -6.13300 31.35100 33.08700
H  -0.38400 37.62800 30.11400
H  -0.26000 37.32300 23.49500
H  -3.51200 32.03900 23.65800
H  -3.50300 34.43300 31.80900
H  -1.02300 35.91800 31.92400
H  -2.28500 37.36000 32.80000
H  -3.82700 36.63300 32.29700
H  -2.96700 37.60200 31.12500
H  -0.65400 33.81400 32.42900
H  -0.90800 32.84800 31.32900
H  -2.25900 31.38700 32.86100
H  -2.98600 32.91800 33.47000
H  2.23400 39.47400 28.17000
H  1.13400 38.90800 29.43500
H  0.81300 40.40800 28.62200
H  2.21800 41.04200 24.66400
H  2.90900 40.13400 25.86100
H  1.52100 41.20500 26.29600
H  -0.40500 35.30400 22.07700
H  -2.93500 33.75900 21.86600
H  -3.18700 35.85400 21.25200
H  -1.63900 36.71500 20.89300
H  -2.50900 37.22200 22.28600
H  -0.59600 33.00100 21.11000
H  -1.67700 31.88000 21.93300
H  1.03400 32.65200 22.41200
H  0.21800 31.46300 23.28800
H  0.11800 33.14400 23.90900
H  -4.93900 29.44200 26.06400
H  -4.52600 30.02500 24.62400
H  -6.11300 30.57600 25.39600
H  -3.37400 31.13400 30.69400
H  -5.90100 32.09900 33.84500
H  -6.26300 30.38500 33.57500
H  -7.06500 31.66900 32.62000

