158

Mg 24.02900 -5.07800 44.93000
C  25.60400 -2.33900 43.50600
C  21.14200 -4.16900 43.09100
C  22.76500 -8.19900 45.40300
C  27.27000 -6.27500 46.01900
N  23.51400 -3.43900 43.40500
C  24.29600 -2.39700 43.02700
C  23.56200 -1.40500 42.11600
C  22.12700 -1.74800 42.48400
C  22.22900 -3.25100 42.93700
C  21.50700 -0.87800 43.55500
C  23.98000 -1.57300 40.65300
C  24.35500 -0.28600 39.83400
H  25.22500 -0.57900 38.60100
N  22.16800 -6.00200 44.46800
C  21.09400 -5.50300 43.71500
C  20.00900 -6.48800 43.74200
C  20.47100 -7.67600 44.37400
C  21.80700 -7.30300 44.81800
C  18.70700 -6.12200 43.23100
C  19.68600 -8.90300 44.56000
O  18.47700 -8.95100 44.23500
C  20.29700 -10.15900 45.20000
N  24.90500 -6.96800 45.66900
C  24.13400 -8.04300 45.81500
C  24.96000 -9.16300 46.45100
C  26.42500 -8.55700 46.61100
C  26.22400 -7.20100 45.99900
C  24.23800 -9.75600 47.73200
C  27.58200 -9.30700 45.85600
C  28.84600 -9.57900 46.69100
N  26.07100 -4.47300 44.87900
C  27.23700 -4.95500 45.47900
C  28.25400 -4.06800 45.15600
C  27.71400 -3.04600 44.38000
C  26.36000 -3.32600 44.26500
C  29.67700 -4.27300 45.42300
C  27.98700 -1.73700 43.68600
O  29.06700 -1.24500 43.49400
C  26.59700 -1.26200 43.11600
C  26.33000 0.15000 43.62800
O  25.53600 0.45500 44.52900
O  27.19600 1.01800 43.02300
C  26.99800 2.40500 43.56000
H  20.21400 -3.80700 42.64400
H  22.52900 -9.23700 45.64400
H  28.29100 -6.65500 46.10000
H  23.69300 -0.38000 42.46400
H  21.53200 -1.55000 41.59200
H  22.05300 0.05300 43.70400
H  21.44100 -1.48900 44.45600
H  20.51200 -0.48600 43.34400
H  23.05700 -1.86200 40.15100
H  24.76400 -2.31700 40.51400
H  24.80400 0.41900 40.53400
H  23.47600 0.20600 39.41700
H  17.98300 -6.61900 43.87600
H  18.75600 -6.60800 42.25600
H  18.51400 -5.05200 43.30800
H  19.56700 -10.96500 45.13300
H  20.52600 -9.96800 46.24900
H  21.12500 -10.52500 44.59300
H  25.01300 -9.88400 45.63500
H  26.60400 -8.37200 47.67000
H  23.95400 -10.76900 47.44400
H  23.27500 -9.31700 47.99400
H  24.97100 -9.74700 48.53900
H  27.98000 -8.80100 44.97600
H  27.25200 -10.30700 45.57500
H  28.75900 -10.66500 46.71000
H  28.70100 -9.31600 47.73800
H  29.72900 -9.10400 46.26300
H  29.88300 -4.86900 46.31200
H  30.22400 -3.36700 45.68200
H  30.10800 -4.81300 44.58000
H  26.76500 -1.02100 42.06700
H  27.39800 3.10900 42.83000
H  27.57300 2.40800 44.48600
H  25.98300 2.70500 43.82000
Mg 25.61600 2.02300 30.31000
C  27.74200 1.84200 33.03900
C  23.09600 2.49300 32.62100
C  23.32000 1.77900 27.78400
C  28.13300 1.28600 28.15200
N  25.41300 2.02500 32.69800
C  26.47300 2.13500 33.52200
C  26.00900 2.47000 35.02300
C  24.48600 2.69800 34.80700
C  24.27500 2.40100 33.29400
C  23.56800 1.78000 35.66000
C  26.80300 3.72900 35.57800
C  27.59600 3.60900 36.85400
H  27.32300 4.59700 37.94700
N  23.51800 2.00800 30.31700
C  22.64800 2.30300 31.31200
C  21.25900 2.27000 30.78900
C  21.31200 1.95300 29.45200
C  22.78900 1.84400 29.13400
C  19.98800 2.49000 31.62500
C  20.14900 1.61600 28.48400
O  20.38300 1.35100 27.31200
C  18.70200 1.71300 28.97200
N  25.66900 1.56100 28.22300
C  24.68000 1.73300 27.34900
C  25.19100 1.95800 25.88800
C  26.67200 1.53300 26.03900
C  26.87800 1.51700 27.54600
C  24.33100 1.21000 24.86100
C  27.67000 2.41900 25.33700
C  27.80400 3.87900 25.75100
N  27.53100 1.60500 30.48100
C  28.47900 1.33900 29.57300
C  29.74400 1.13200 30.21700
C  29.48500 1.22900 31.56000
C  28.14600 1.61600 31.70200
C  31.07900 0.66300 29.59800
C  30.09400 1.10800 32.87700
O  31.27000 0.85400 33.13200
C  28.97100 1.51500 33.95000
C  28.70500 0.44100 35.01400
O  27.83700 -0.40400 34.84100
O  29.50500 0.52300 36.10000
C  29.25800 -0.37600 37.19900
H  22.29000 2.79500 33.29200
H  22.55900 2.03000 27.04200
H  29.00100 1.20700 27.49500
H  26.26900 1.54500 35.53700
H  24.17800 3.74300 34.83600
H  23.40100 0.87000 35.08400
H  22.61200 2.30200 35.72100
H  23.89600 1.63600 36.68900
H  26.01800 4.45700 35.78300
H  27.48300 4.04900 34.78800
H  28.66200 3.65200 36.63100
H  27.39200 2.62500 37.27800
H  19.39100 3.31800 31.24300
H  20.11300 2.55700 32.70500
H  19.49700 1.54100 31.41000
H  18.03700 1.61300 28.11500
H  18.65700 2.65200 29.52500
H  18.37700 0.86600 29.57700
H  25.07400 3.02600 25.70600
H  26.69700 0.50200 25.68500
H  24.95200 0.51400 24.29800
H  23.85300 1.90100 24.16600
H  23.57500 0.58400 25.33500
H  27.55700 2.29500 24.26000
H  28.64500 1.95100 25.47600
H  28.80100 4.20400 26.04900
H  27.17400 4.13000 26.60500
H  27.47100 4.57700 24.98300
H  31.37200 1.32500 28.78200
H  31.00200 -0.35200 29.21000
H  31.82100 0.67100 30.39600
H  29.26100 2.45200 34.42500
H  28.77800 -1.26500 36.78800
H  28.66100 0.09200 37.98200
H  30.26300 -0.53500 37.58800

