158

Mg 6.50400 54.32400 40.99500
C  5.57200 50.90100 40.37200
C  9.53900 53.70900 39.93500
C  6.79100 57.69500 40.90700
C  2.87400 54.90400 41.49100
N  7.48600 52.48400 40.38100
C  6.94600 51.22900 40.15500
C  8.04700 50.26900 39.68700
C  9.32600 51.13900 39.82900
C  8.80800 52.56900 40.12900
C  10.39800 50.65900 40.91200
C  7.87900 49.44900 38.33500
C  7.84400 50.20300 37.03600
H  6.62500 50.08900 36.09200
N  7.97400 55.52100 40.46600
C  9.22700 55.08700 40.08200
C  10.10600 56.20400 40.04900
C  9.36400 57.32600 40.35500
C  7.96600 56.90700 40.60700
C  11.58300 56.14600 39.77000
C  9.88500 58.68000 40.52700
O  10.95500 58.88900 40.06200
C  9.17300 59.84700 41.19100
N  4.99700 56.01400 41.16400
C  5.46400 57.29800 41.26600
C  4.35600 58.34100 41.42300
C  3.11100 57.45100 41.38400
C  3.65700 56.01200 41.48000
C  4.53200 59.14600 42.71300
C  2.23700 57.70500 40.11600
C  0.69800 58.06200 40.32200
N  4.59900 53.15800 41.05400
C  3.28000 53.51000 41.29600
C  2.47500 52.31300 41.48200
C  3.31100 51.28900 41.11200
C  4.57100 51.82600 40.73400
C  1.00100 52.16500 41.74500
C  3.40700 49.88700 40.94400
O  2.52100 49.04000 41.15500
C  4.82100 49.55300 40.40400
C  4.57400 49.04900 39.06000
O  4.04500 49.60200 38.10100
O  4.76900 47.68900 39.09900
C  3.85900 46.98100 38.08600
H  10.51500 53.63800 39.45100
H  6.88900 58.77400 41.04200
H  1.81000 55.14300 41.55100
H  8.19600 49.60300 40.53700
H  9.68700 51.17900 38.80100
H  11.30300 50.52400 40.31800
H  10.14500 49.70100 41.36700
H  10.61000 51.39100 41.69100
H  6.96900 48.85300 38.39700
H  8.74300 48.78500 38.30000
H  8.61800 49.74500 36.42000
H  8.14000 51.24600 37.14200
H  11.62600 56.79900 38.89800
H  11.92500 55.23800 39.27300
H  12.20800 56.38000 40.63200
H  8.46100 60.30800 40.50600
H  9.87500 60.59800 41.55500
H  8.69700 59.46200 42.09300
H  4.49100 58.92200 40.51100
H  2.46800 57.53700 42.26100
H  5.42200 58.89600 43.29000
H  3.71000 59.18600 43.42700
H  4.67700 60.18600 42.42200
H  2.29400 56.76400 39.56800
H  2.64800 58.53900 39.54800
H  0.15000 57.17600 40.00000
H  0.33000 58.83500 39.64700
H  0.44600 58.25700 41.36400
H  0.64000 53.02600 42.30800
H  0.81200 51.27600 42.34700
H  0.44600 52.06900 40.81200
H  5.31200 48.77800 40.99200
H  3.59500 46.01200 38.51000
H  4.41700 46.92800 37.15000
H  2.89000 47.47400 38.01500
Mg 7.93600 48.51400 27.88400
C  6.10800 47.79900 30.76500
C  10.65800 49.15100 29.72300
C  9.51700 49.65100 25.05100
C  4.92700 48.75000 26.08900
N  8.35600 48.37000 30.05500
C  7.47600 48.08300 31.08200
C  8.07100 48.20700 32.42000
C  9.52400 48.77900 32.07100
C  9.61200 48.76000 30.52800
C  9.83800 50.20100 32.61100
C  8.06300 46.89200 33.24300
C  9.20100 46.58500 34.19700
H  8.83500 45.60700 35.35500
N  9.87800 49.02500 27.37400
C  10.87300 49.11400 28.32700
C  12.14600 49.32800 27.70100
C  11.83300 49.47200 26.32900
C  10.35300 49.38400 26.19800
C  13.54600 49.45400 28.41400
C  12.72900 49.71400 25.05700
O  12.27500 49.97600 23.94800
C  14.20300 49.80600 25.29100
N  7.27100 49.14700 25.83800
C  8.13500 49.56400 24.93100
C  7.41200 50.02700 23.70400
C  5.97900 49.54000 23.87000
C  6.02600 49.01600 25.29500
C  7.56400 51.46600 23.35800
C  5.42900 48.46200 22.82200
C  6.22900 47.13200 22.50900
N  5.94900 48.17500 28.27400
C  4.86200 48.31300 27.42100
C  3.65800 47.86200 28.23400
C  4.07700 47.62900 29.47700
C  5.40200 47.92600 29.50800
C  2.22300 47.86200 27.75400
C  3.67700 47.32000 30.79500
O  2.59900 46.99700 31.31700
C  4.95100 47.41900 31.67100
C  5.01800 46.08400 32.25800
O  5.46600 45.07200 31.71800
O  4.42800 46.11400 33.53800
C  4.62100 44.92200 34.33700
H  11.56800 49.33100 30.29900
H  9.85000 49.94000 24.05200
H  3.98400 48.79700 25.54000
H  7.51000 48.96900 32.96200
H  10.26100 48.03500 32.37500
H  9.98600 50.96400 31.84700
H  10.74300 50.08000 33.20700
H  9.13200 50.54100 33.36800
H  7.84200 46.07100 32.56100
H  7.19900 46.93600 33.90600
H  9.63000 47.52800 34.53400
H  9.95100 46.22000 33.49600
H  13.79700 50.50600 28.55100
H  14.24600 48.92100 27.77100
H  13.55000 48.95300 29.38200
H  14.61700 50.30700 24.41600
H  14.73500 48.86600 25.43900
H  14.32300 50.49900 26.12400
H  7.92000 49.37100 22.99800
H  5.23700 50.33400 23.78300
H  8.19000 51.93700 24.11600
H  6.66900 52.08300 23.44500
H  8.01400 51.63900 22.38100
H  5.11900 48.90100 21.87300
H  4.42500 48.31000 23.21800
H  5.58500 46.25300 22.54300
H  7.07700 46.84300 23.13000
H  6.63400 47.29800 21.51100
H  1.96400 48.74400 27.17000
H  1.49600 47.67500 28.54500
H  2.19800 47.04600 27.03200
H  4.71200 48.17700 32.41800
H  4.59600 45.31500 35.35300
H  5.64000 44.58600 34.14400
H  3.98900 44.07000 34.09100

