158

Mg -2.03100 16.22900 26.06700
C  -2.48000 14.24400 28.84300
C  -2.76500 19.02100 27.97700
C  -1.60500 18.26900 23.29800
C  -1.89700 13.49500 23.99500
N  -2.48800 16.55700 28.08200
C  -2.67500 15.62000 29.08500
C  -2.96500 16.22200 30.52100
C  -3.34500 17.67100 30.06000
C  -2.77400 17.76300 28.64300
C  -4.91900 17.86700 30.00000
C  -1.78300 16.15400 31.54000
C  -2.08500 15.27400 32.80000
H  -2.74400 15.98600 33.92200
N  -2.10500 18.32900 25.72000
C  -2.45100 19.28700 26.71700
C  -2.24400 20.62700 26.07600
C  -2.00900 20.39900 24.71100
C  -1.85600 18.93200 24.55000
C  -2.38800 21.91100 26.87300
C  -1.91500 21.38000 23.58000
O  -1.86800 21.05300 22.38800
C  -1.79000 22.87700 23.96500
N  -2.11500 15.95200 23.87200
C  -1.72200 16.95100 22.98400
C  -1.49900 16.33000 21.60100
C  -1.34800 14.78100 21.94000
C  -1.72800 14.73900 23.33800
C  -2.65000 16.59600 20.58900
C  0.13900 14.28600 21.70600
C  1.21700 14.99600 22.46500
N  -2.19900 14.25400 26.30500
C  -2.10200 13.23200 25.38300
C  -2.23700 12.05100 26.08200
C  -2.26400 12.33000 27.47400
C  -2.28000 13.70600 27.56000
C  -2.07600 10.68800 25.34700
C  -2.39100 11.77600 28.78400
O  -2.46700 10.62600 29.15400
C  -2.44200 12.99500 29.77800
C  -1.29000 12.94400 30.77900
O  -0.20500 13.48300 30.52800
O  -1.55700 12.17200 31.85600
C  -0.55500 11.83900 32.76400
H  -3.07300 19.85800 28.60800
H  -1.52900 18.86300 22.38400
H  -1.76200 12.66200 23.30200
H  -3.72500 15.62100 31.02100
H  -2.84600 18.43000 30.66200
H  -5.51400 17.01100 30.31800
H  -5.18900 18.21000 29.00100
H  -5.13900 18.74700 30.60400
H  -1.56800 17.17300 31.85900
H  -0.83100 15.89800 31.07400
H  -1.12400 14.86900 33.11700
H  -2.77500 14.47800 32.52100
H  -2.40000 21.75700 27.95200
H  -3.29600 22.50100 26.75300
H  -1.55900 22.58100 26.64700
H  -1.86200 23.60600 23.15800
H  -0.90500 23.08600 24.56600
H  -2.57000 23.19600 24.65600
H  -0.60900 16.83100 21.21900
H  -1.99300 14.29400 21.20700
H  -2.18900 16.99100 19.68400
H  -3.40000 17.20400 21.09400
H  -3.14300 15.71700 20.17400
H  0.37600 14.41400 20.64900
H  0.29600 13.24900 22.00100
H  1.90400 14.25500 22.87400
H  0.76800 15.62300 23.23500
H  1.71200 15.68600 21.78200
H  -1.57000 10.79900 24.38900
H  -3.03500 10.17500 25.27400
H  -1.49900 10.10800 26.06700
H  -3.41500 12.91500 30.26300
H  0.18700 11.29100 32.18400
H  -1.02000 11.16900 33.48800
H  -0.12800 12.67100 33.32500
Mg 41.38800 41.53500 27.25000
C  40.62700 43.92900 29.63400
C  42.00500 39.13400 29.68100
C  42.30900 39.37900 24.76700
C  41.10100 44.00700 24.72200
N  41.36800 41.56100 29.51700
C  40.90400 42.63100 30.19400
C  40.82900 42.22600 31.67800
C  41.57100 40.78300 31.74100
C  41.68000 40.44300 30.20800
C  43.04100 40.65100 32.39300
C  39.43000 42.27000 32.36900
C  39.35900 41.74400 33.81600
H  38.76400 42.66500 34.85800
N  41.99600 39.59600 27.22800
C  42.17300 38.72000 28.33200
C  42.63100 37.45400 27.87500
C  42.59600 37.41200 26.47000
C  42.26200 38.82400 26.04600
C  43.19300 36.42900 28.86200
C  42.91700 36.26200 25.58900
O  42.88700 36.36900 24.37800
C  43.23500 34.86400 26.09600
N  41.61500 41.64800 25.05700
C  41.97800 40.64300 24.27800
C  41.99000 41.00600 22.77300
C  41.24300 42.39800 22.71300
C  41.36600 42.75700 24.21600
C  43.45500 40.99800 22.17100
C  39.79100 42.29400 22.24900
C  38.86000 41.33700 22.93100
N  41.16000 43.59600 27.17900
C  41.00300 44.45900 26.08800
C  40.69100 45.74800 26.64300
C  40.54600 45.57700 28.02100
C  40.78100 44.24000 28.27100
C  40.51100 46.99300 25.86300
C  40.27700 46.34600 29.24700
O  40.01200 47.53300 29.51700
C  40.33900 45.23800 30.36300
C  41.37700 45.61900 31.42800
O  42.58500 45.85000 31.29200
O  40.73000 45.50600 32.65900
C  41.57300 45.59300 33.77000
H  42.21300 38.41200 30.47300
H  42.53400 38.78000 23.88200
H  40.98000 44.82300 24.00700
H  41.48300 42.89500 32.23900
H  40.88900 40.03900 32.15400
H  43.90400 40.72300 31.73100
H  43.19400 39.70800 32.91800
H  43.16500 41.47600 33.09500
H  38.78100 41.60700 31.79500
H  38.97900 43.25800 32.27300
H  40.30200 41.31100 34.15100
H  38.76200 40.83600 33.90900
H  43.33600 36.76800 29.88800
H  44.16000 36.09300 28.48700
H  42.46600 35.63200 29.01300
H  44.12300 34.77400 26.72200
H  43.38700 34.29300 25.17900
H  42.51100 34.46500 26.80700
H  41.46500 40.20300 22.25700
H  41.79200 43.04700 22.03000
H  43.98500 41.89600 22.48900
H  43.38400 40.89600 21.08800
H  43.96400 40.18400 22.68600
H  39.85700 41.92200 21.22700
H  39.30900 43.26400 22.12400
H  39.31600 40.35300 23.04300
H  37.98000 41.18300 22.30600
H  38.63400 41.65600 23.94800
H  39.66900 46.89900 25.17600
H  41.43300 47.16300 25.30700
H  40.33200 47.85800 26.50200
H  39.36800 45.31700 30.85400
H  42.30100 44.78400 33.70700
H  40.96300 45.55200 34.67200
H  42.13000 46.53000 33.81000

