158

Mg 24.15800 -5.34500 45.63200
C  26.34400 -3.07400 44.31100
C  21.66000 -4.25900 43.48700
C  22.13900 -7.86000 46.68500
C  26.72300 -6.82700 47.44100
N  24.10100 -3.83000 44.13800
C  25.10900 -3.00900 43.74600
C  24.75200 -2.25800 42.40800
C  23.11500 -2.41000 42.36200
C  22.92100 -3.57600 43.37200
C  22.28800 -1.15000 42.71200
C  25.51600 -2.85900 41.21100
C  26.26700 -1.89200 40.24700
H  25.71000 -1.66300 38.84000
N  22.12500 -5.94600 45.24100
C  21.28500 -5.36000 44.30600
C  19.99000 -6.02800 44.33500
C  20.04500 -7.01400 45.39100
C  21.48500 -6.94300 45.84400
C  18.88400 -5.71900 43.37000
C  18.91800 -7.93600 45.71400
O  17.84100 -7.73000 45.18800
C  19.14000 -9.07000 46.68700
N  24.54200 -7.16900 46.71000
C  23.43300 -7.93400 47.11800
C  23.92600 -9.21200 47.91500
C  25.49100 -8.84900 48.15500
C  25.58100 -7.52100 47.42800
C  23.10100 -9.57700 49.19400
C  26.57100 -9.90300 47.63900
C  27.72800 -10.21700 48.54700
N  26.13100 -4.98000 45.96500
C  27.01000 -5.61100 46.79700
C  28.31700 -4.89900 46.74900
C  28.09700 -3.93500 45.73800
C  26.71000 -3.99300 45.33600
C  29.51800 -5.10800 47.63500
C  28.73500 -2.89700 44.90900
O  29.91600 -2.59200 44.78900
C  27.69300 -2.24400 44.01900
C  27.40500 -0.84300 44.51600
O  26.91500 -0.65500 45.59100
O  28.04800 0.07800 43.77700
C  28.42900 1.33800 44.43700
H  20.97000 -3.79100 42.78200
H  21.53700 -8.60400 47.21000
H  27.47000 -7.19200 48.14900
H  25.00600 -1.22500 42.64600
H  22.73500 -2.72900 41.39200
H  22.02600 -1.08000 43.76800
H  21.36200 -1.17300 42.13800
H  22.88100 -0.27600 42.44300
H  24.69600 -3.30200 40.64700
H  26.23500 -3.61300 41.53000
H  27.28000 -2.28600 40.16600
H  26.48200 -0.94700 40.74500
H  18.34900 -6.63400 43.11400
H  19.22800 -5.25500 42.44600
H  18.18300 -5.07000 43.89400
H  18.19700 -9.59100 46.85200
H  19.53600 -8.67600 47.62300
H  19.87400 -9.77600 46.29700
H  23.95600 -10.10300 47.28900
H  25.60300 -8.70500 49.22900
H  23.74800 -9.43400 50.05900
H  22.60800 -10.54900 49.18100
H  22.32500 -8.81600 49.28400
H  26.98300 -9.69200 46.65300
H  26.08000 -10.82900 47.34000
H  27.33200 -10.34400 49.55400
H  28.55500 -9.51500 48.44200
H  28.00900 -11.20300 48.17700
H  29.67200 -6.12300 47.99900
H  29.33100 -4.59700 48.58000
H  30.49500 -4.85700 47.22100
H  27.93400 -2.33200 42.95900
H  28.86600 1.25500 45.43200
H  27.63700 2.08600 44.39100
H  29.17900 1.81500 43.80700
Mg 40.86100 41.25300 26.75900
C  40.68600 43.78100 29.12000
C  42.25300 39.17300 29.14000
C  41.50600 38.95900 24.31000
C  40.01400 43.69400 24.34600
N  41.41300 41.49300 28.83900
C  41.02500 42.54100 29.64900
C  41.24100 42.19400 31.13500
C  41.99700 40.87300 31.06900
C  41.88500 40.45400 29.59200
C  43.50400 40.91100 31.67000
C  39.86200 42.14600 31.87900
C  39.97300 41.63900 33.28600
H  39.11800 42.28000 34.40600
N  41.84000 39.29400 26.67500
C  42.28100 38.64300 27.78200
C  42.65000 37.32400 27.35100
C  42.45100 37.17500 25.95100
C  41.88900 38.52600 25.56800
C  43.14800 36.28900 28.38700
C  42.66800 36.01200 25.01800
O  42.46000 36.05200 23.77600
C  43.22600 34.67900 25.50700
N  40.78500 41.30100 24.61200
C  40.94000 40.16800 23.84300
C  40.51500 40.43700 22.33800
C  39.91800 41.88600 22.48300
C  40.25800 42.34700 23.91700
C  41.74300 40.29200 21.26900
C  38.45100 41.88200 22.16500
C  37.53700 40.80400 22.77500
N  40.57300 43.36400 26.67500
C  40.12900 44.18500 25.65000
C  39.92600 45.49100 26.11800
C  40.12100 45.36300 27.53500
C  40.55300 44.10000 27.76900
C  39.49500 46.77500 25.23500
C  39.96900 46.05700 28.75600
O  39.51500 47.16800 29.02700
C  40.45500 45.09000 29.87700
C  41.74400 45.64600 30.43100
O  42.83600 45.57600 29.87400
O  41.53000 46.18700 31.64800
C  42.73300 46.36100 32.44300
H  42.66700 38.57500 29.95500
H  41.65800 38.17200 23.56800
H  39.68300 44.36200 23.54800
H  41.83700 43.02800 31.50500
H  41.39000 40.07700 31.50100
H  44.30700 40.98600 30.93600
H  43.63800 39.92900 32.12500
H  43.53100 41.64300 32.47700
H  39.15400 41.48800 31.37500
H  39.38300 43.12500 31.88300
H  40.99800 41.81000 33.61600
H  39.81200 40.56400 33.20700
H  44.21400 36.06200 28.43700
H  42.66900 35.33800 28.15200
H  42.72300 36.58400 29.34600
H  42.50900 33.88000 25.69600
H  43.94800 34.75200 26.32000
H  43.86000 34.47500 24.64400
H  39.84000 39.64600 22.01000
H  40.45300 42.62600 21.88900
H  42.67800 40.20100 21.82200
H  41.78000 41.16300 20.61500
H  41.62700 39.47100 20.56100
H  38.45600 41.82600 21.07700
H  37.95600 42.80800 22.46000
H  36.62600 41.34500 23.03200
H  37.95300 40.10100 23.49800
H  37.05600 40.22200 21.99000
H  40.21500 46.75700 24.41600
H  39.58800 47.69400 25.81400
H  38.49000 46.71800 24.81700
H  39.71900 44.87600 30.65200
H  43.56700 46.90100 31.99700
H  42.97600 45.44700 32.98600
H  42.34300 46.98000 33.25100

