158

Mg 55.29000 23.59400 44.66600
C  53.14400 26.19200 43.71700
C  52.93300 21.23200 43.67400
C  57.65600 21.23200 44.73400
C  57.75900 26.14300 45.32500
N  53.32900 23.76500 43.73200
C  52.61700 24.94100 43.45400
C  51.25200 24.57800 42.82100
C  51.11600 23.02800 43.19900
C  52.55300 22.60600 43.59700
C  50.03800 22.72700 44.32600
C  51.04900 24.82400 41.29100
C  49.73300 25.37500 40.90200
H  49.00900 24.61600 39.86000
N  55.25300 21.47600 44.31500
C  54.21200 20.70400 43.96200
C  54.59700 19.28200 43.95600
C  55.98100 19.23900 44.31200
C  56.34200 20.67900 44.51900
C  53.69000 18.15300 43.57400
C  56.71900 18.01200 44.53300
O  56.19700 16.96000 44.35400
C  58.20300 17.98600 45.00100
N  57.42500 23.68900 44.93400
C  58.13800 22.58400 44.86200
C  59.64600 22.87200 45.10800
C  59.63100 24.40700 45.51900
C  58.18300 24.78900 45.15300
C  60.46200 21.95800 46.15900
C  60.84800 25.25500 44.95700
C  61.70700 26.00800 46.00000
N  55.38400 25.71200 44.73800
C  56.42100 26.60600 45.05100
C  55.88000 27.95400 45.08100
C  54.63100 27.83700 44.48800
C  54.40800 26.47700 44.28600
C  56.57300 29.21800 45.58900
C  53.44100 28.56100 44.18600
O  53.28300 29.75600 44.40000
C  52.47700 27.58200 43.48900
C  52.34400 27.94500 42.05000
O  53.06300 27.70700 41.14400
O  51.19700 28.68600 41.90500
C  50.89200 29.04700 40.53600
H  52.13100 20.53200 43.43200
H  58.34500 20.40600 44.55100
H  58.51600 26.86900 45.63000
H  50.49500 25.14800 43.36000
H  50.82200 22.39400 42.36200
H  49.16300 22.27000 43.86400
H  49.57700 23.62700 44.73200
H  50.55200 22.08900 45.04500
H  50.99300 23.82400 40.86100
H  51.94100 25.29100 40.87500
H  49.89200 26.43800 40.71900
H  49.07400 25.53600 41.75400
H  54.24600 17.40800 43.00500
H  52.98700 18.49400 42.81400
H  53.30900 17.72700 44.50200
H  58.85300 18.42500 44.24300
H  58.57700 17.01400 45.32000
H  58.26800 18.64100 45.87000
H  60.09500 22.61600 44.14800
H  59.58100 24.51500 46.60200
H  59.85900 21.19200 46.64600
H  60.91400 22.61400 46.90300
H  61.22700 21.58600 45.47700
H  60.58100 25.91500 44.13200
H  61.44100 24.56200 44.36000
H  62.70500 25.57000 45.98300
H  61.22900 25.92900 46.97700
H  61.74200 27.06300 45.72800
H  56.77500 29.83500 44.71300
H  57.51000 29.01900 46.11100
H  55.78000 29.72200 46.14200
H  51.48000 27.56400 43.92800
H  50.22200 29.90300 40.60800
H  50.50900 28.23500 39.91700
H  51.78500 29.44200 40.05100
Mg 34.57700 48.98600 26.25700
C  35.02000 46.62200 28.85000
C  33.85600 51.25300 28.62300
C  33.86600 50.96500 23.80000
C  34.89000 46.23500 24.01200
N  34.65500 48.99000 28.52700
C  34.78700 47.90700 29.31400
C  34.76800 48.36400 30.81200
C  34.20400 49.79100 30.77300
C  34.25900 50.05200 29.19900
C  32.78800 49.93700 31.27100
C  36.17700 48.27200 31.43100
C  36.15000 47.78800 32.89000
H  36.06800 48.87300 33.94300
N  34.00500 50.89700 26.18200
C  33.83000 51.71900 27.24000
C  33.61800 53.09500 26.83400
C  33.58000 53.02800 25.36900
C  33.83500 51.59100 25.06000
C  33.36400 54.28600 27.74400
C  33.20400 54.08800 24.40800
O  33.22100 53.85800 23.21100
C  32.81500 55.45000 24.82000
N  34.27100 48.57600 24.24500
C  34.09300 49.62400 23.42200
C  33.89600 49.16100 21.97800
C  34.31000 47.65900 22.04500
C  34.59000 47.50500 23.52000
C  32.43800 49.27600 21.38100
C  35.55500 47.41500 21.18000
C  36.98100 48.09300 21.41500
N  34.93200 46.89500 26.36000
C  35.00800 45.94200 25.34000
C  35.39200 44.66700 25.90500
C  35.40300 44.90500 27.34500
C  35.10300 46.25400 27.58400
C  35.59100 43.49300 25.03800
C  35.57500 44.24100 28.57500
O  35.77600 43.04700 28.91400
C  35.40900 45.41300 29.63000
C  34.37600 45.07100 30.65600
O  33.16900 45.01300 30.49700
O  35.00000 44.68000 31.84800
C  34.01300 44.28200 32.84300
H  33.78000 52.10100 29.30600
H  33.70200 51.63900 22.95700
H  34.95500 45.36900 23.35100
H  34.04700 47.73100 31.33000
H  34.97800 50.37900 31.26600
H  32.47600 49.06800 31.84900
H  31.97500 50.05800 30.55500
H  32.63800 50.81800 31.89600
H  36.60000 49.27500 31.38100
H  36.86000 47.61900 30.88900
H  37.10700 47.28700 33.03900
H  35.35100 47.07600 33.09800
H  32.38000 54.68900 27.50100
H  34.03600 55.11300 27.51000
H  33.26900 54.12900 28.81800
H  31.91200 55.58700 25.41500
H  32.65200 56.03700 23.91600
H  33.67100 55.84200 25.36900
H  34.64800 49.76500 21.47100
H  33.46100 47.00200 21.85500
H  32.07500 48.27500 21.14600
H  32.52400 49.87300 20.47400
H  31.79700 49.73900 22.13100
H  35.32400 47.60100 20.13100
H  35.76900 46.35300 21.29200
H  37.36700 48.46700 20.46700
H  37.62500 47.27600 21.74200
H  36.96100 48.82500 22.22200
H  34.74500 43.22700 24.40500
H  35.75100 42.69700 25.76500
H  36.56300 43.60800 24.55700
H  36.40800 45.49600 30.05900
H  33.62700 45.13900 33.39500
H  34.35600 43.61200 33.63100
H  33.21500 43.67200 32.41800

