158

Mg 35.99400 1.00800 30.24100
C  33.40000 1.86600 32.43600
C  38.21300 1.02900 32.98700
C  38.37600 0.02300 28.08700
C  33.77100 1.40200 27.60800
N  35.77400 1.44400 32.42200
C  34.66800 1.64100 33.10000
C  34.95300 1.66100 34.57800
C  36.45200 1.77000 34.71900
C  36.86100 1.34300 33.30900
C  36.97600 3.19000 35.17100
C  34.21400 0.45600 35.24000
C  33.63600 0.66800 36.69800
H  34.04400 1.89300 37.48500
N  37.96300 0.61100 30.47900
C  38.73200 0.73700 31.64200
C  40.10800 0.24000 31.31800
C  40.17600 -0.00600 29.93600
C  38.77900 0.08900 29.46900
C  41.23200 0.20300 32.39000
C  41.39600 -0.38500 29.10300
O  41.32800 -0.62000 27.89300
C  42.79200 -0.45600 29.67800
N  36.09400 0.80300 28.17800
C  37.17400 0.40100 27.49700
C  36.98900 0.45900 25.95700
C  35.52400 0.97200 25.90300
C  35.05900 1.06000 27.32100
C  38.05300 1.41900 25.22600
C  34.62700 -0.02500 25.04800
C  34.16400 -1.45400 25.48900
N  34.00100 1.60700 30.00200
C  33.16500 1.65700 28.88500
C  31.87900 2.27000 29.25500
C  31.95800 2.39800 30.69600
C  33.22900 1.88600 31.08900
C  30.66200 2.56700 28.39500
C  31.23800 2.75600 31.83000
O  30.05400 3.17100 31.88000
C  32.08900 2.34200 33.03300
C  32.19000 3.40800 34.08700
O  33.05900 4.25200 33.99300
O  31.17200 3.36400 34.95200
C  31.02000 4.50200 35.83100
H  38.88700 1.08300 33.84400
H  39.13100 -0.16900 27.32200
H  33.05700 1.51700 26.79000
H  34.53800 2.63000 34.85300
H  36.77800 1.10300 35.51800
H  36.17700 3.57900 35.80300
H  37.11400 3.89300 34.35000
H  37.84300 3.07700 35.82200
H  34.89600 -0.39300 35.29400
H  33.39900 0.15600 34.58100
H  34.01200 -0.18800 37.25800
H  32.55100 0.65900 36.59100
H  41.87300 -0.67600 32.44700
H  40.92900 0.48100 33.39900
H  41.86600 1.02600 32.06000
H  42.77300 -1.33800 30.31800
H  43.15600 0.45500 30.15300
H  43.48700 -0.63100 28.85700
H  37.01500 -0.52700 25.49200
H  35.37400 1.94400 25.43200
H  37.53800 2.30400 24.85000
H  38.50100 0.96900 24.34000
H  38.81400 1.75700 25.92800
H  35.29700 -0.18600 24.20300
H  33.81700 0.53600 24.58200
H  34.40100 -1.70200 26.52300
H  34.57500 -2.22300 24.83400
H  33.07800 -1.54300 25.51900
H  30.95100 2.71000 27.35400
H  30.11400 3.45100 28.72200
H  30.08400 1.64500 28.47000
H  31.66100 1.53200 33.62300
H  30.81000 5.35900 35.19100
H  31.93100 4.65600 36.41100
H  30.26600 4.28000 36.58600
Mg -9.16800 41.51800 42.47800
C  -8.20600 38.15600 41.61800
C  -6.43200 42.61900 40.66800
C  -10.41900 44.50600 42.72000
C  -12.18800 39.99100 43.50800
N  -7.69000 40.53300 41.21900
C  -7.45400 39.19200 41.03800
C  -6.21600 38.99600 40.12600
C  -5.55300 40.29800 39.94900
C  -6.60900 41.23600 40.63500
C  -4.15200 40.42800 40.64900
C  -6.57800 38.41400 38.72100
C  -5.73000 37.24700 38.29100
H  -4.77400 37.57200 37.17600
N  -8.39500 43.41400 41.90700
C  -7.20700 43.64200 41.29500
C  -7.10700 45.11800 41.18900
C  -8.28300 45.72700 41.66700
C  -9.07600 44.56400 42.17600
C  -5.93500 45.71400 40.55700
C  -8.59900 47.23700 41.63100
O  -7.83400 47.98400 41.09700
C  -9.80700 47.85800 42.39300
N  -11.03800 42.11700 43.14000
C  -11.27900 43.43800 43.14900
C  -12.67700 43.66700 43.59700
C  -13.33400 42.29900 43.79200
C  -12.12000 41.39700 43.41500
C  -12.82500 44.69900 44.74800
C  -14.62900 41.98900 42.92000
C  -15.85000 41.43200 43.66800
N  -9.96300 39.53200 42.79500
C  -11.15600 39.05200 43.23800
C  -11.19000 37.67600 43.31500
C  -10.06600 37.24000 42.59600
C  -9.34800 38.41600 42.35000
C  -12.38000 36.84500 43.69100
C  -9.39900 36.06700 42.13800
O  -9.75900 34.92800 42.18800
C  -8.11000 36.62100 41.44500
C  -7.00700 36.04600 42.11900
O  -6.69200 36.30600 43.26600
O  -6.23900 35.25100 41.25500
C  -5.16000 34.44300 41.98100
H  -5.63700 43.02000 40.03500
H  -10.85700 45.49800 42.84500
H  -13.09500 39.48300 43.84400
H  -5.48900 38.40600 40.68600
H  -5.44700 40.46600 38.87700
H  -4.21300 40.82900 41.66000
H  -3.40600 41.02900 40.12900
H  -3.70500 39.44100 40.76200
H  -6.54000 39.17800 37.94400
H  -7.61700 38.09200 38.79300
H  -6.42800 36.47700 37.96200
H  -5.07700 36.79400 39.03700
H  -6.20000 46.56900 39.93500
H  -5.48300 45.04200 39.82900
H  -5.16700 45.85100 41.31800
H  -9.69600 47.38000 43.36600
H  -10.79200 47.63100 41.98500
H  -9.71100 48.94400 42.39600
H  -13.06600 44.15300 42.70200
H  -13.47900 42.20700 44.86900
H  -11.95000 45.33500 44.88200
H  -13.23100 44.22800 45.64400
H  -13.69800 45.27100 44.43600
H  -14.37800 41.27100 42.13900
H  -14.95400 42.93400 42.48500
H  -15.52900 41.48000 44.70800
H  -16.12300 40.41000 43.40600
H  -16.68600 42.10700 43.48400
H  -12.97600 37.26400 44.50100
H  -11.95500 35.89400 44.01400
H  -13.01900 36.60700 42.84000
H  -7.99300 36.48200 40.37100
H  -5.58900 33.86900 42.80200
H  -4.35800 35.11300 42.29200
H  -4.84800 33.77800 41.17600

