158

Mg 42.22200 41.77800 26.56300
C  41.42300 44.34500 28.92900
C  43.13200 39.79600 29.20600
C  43.10400 39.42800 24.33000
C  41.67600 44.03900 24.06800
N  42.35300 42.06800 28.81800
C  41.92700 43.14400 29.58900
C  42.08100 42.84500 31.11000
C  42.78000 41.42700 31.09800
C  42.73200 41.05700 29.63600
C  44.17800 41.43000 31.80400
C  40.73900 42.83900 31.90200
C  40.80700 43.56700 33.28200
H  40.12100 42.84100 34.39300
N  43.05100 39.87700 26.72600
C  43.26800 39.20800 27.88600
C  43.77300 37.85100 27.59100
C  43.91600 37.78600 26.16000
C  43.40100 39.10900 25.70200
C  44.24900 36.91700 28.65000
C  44.46100 36.76300 25.25700
O  44.55200 36.78200 23.99900
C  44.74100 35.44800 25.82100
N  42.59700 41.76200 24.45100
C  42.71700 40.63600 23.80900
C  42.36300 40.82300 22.27700
C  41.73700 42.26600 22.22900
C  41.90700 42.70800 23.70000
C  43.62000 40.49100 21.40100
C  40.26200 42.39300 21.78700
C  39.16600 41.38000 22.25800
N  41.68800 43.76400 26.44600
C  41.59500 44.60000 25.32400
C  41.27800 45.87900 25.76600
C  41.23200 45.87800 27.13900
C  41.47000 44.52400 27.53700
C  41.15400 47.00400 24.74900
C  41.00800 46.66500 28.28500
O  40.74500 47.84800 28.45500
C  41.09700 45.75300 29.50200
C  42.09100 46.28500 30.51200
O  43.26200 46.37700 30.21200
O  41.54800 46.66000 31.71600
C  42.54000 46.77900 32.77900
H  43.29200 39.11500 30.04500
H  43.26200 38.63100 23.60000
H  41.31500 44.73800 23.31100
H  42.76500 43.52600 31.61500
H  42.12400 40.74200 31.63500
H  44.10900 40.81700 32.70300
H  44.39200 42.43900 32.15700
H  44.83300 41.11400 30.99200
H  40.36900 41.84400 32.14900
H  39.96000 43.36500 31.35000
H  40.41000 44.57900 33.21000
H  41.82500 43.70800 33.64800
H  43.79100 35.94900 28.44700
H  43.88500 37.28800 29.60800
H  45.33400 36.82500 28.70800
H  45.40400 35.55000 26.68000
H  45.09400 34.83300 24.99200
H  43.83500 35.04200 26.27100
H  41.52700 40.17700 22.00800
H  42.40200 42.91700 21.66200
H  43.92500 41.45200 20.98900
H  43.43700 39.74200 20.63100
H  44.49700 40.12900 21.93700
H  40.30300 42.22800 20.71000
H  40.03200 43.42500 22.05100
H  38.75800 41.85000 23.15300
H  39.59000 40.43600 22.59900
H  38.51900 41.32200 21.38200
H  40.22300 46.83400 24.21000
H  42.04800 47.10300 24.13300
H  41.07000 47.85400 25.42600
H  40.11300 45.61400 29.94900
H  43.04900 45.83700 32.98500
H  42.02500 47.18000 33.65200
H  43.31400 47.50300 32.52600
Mg 9.86900 49.22000 26.67300
C  8.25800 49.00200 29.58100
C  12.77500 50.00200 28.22200
C  11.45100 48.95300 23.73100
C  6.94000 48.50700 24.85500
N  10.46300 49.63100 28.66900
C  9.57000 49.36400 29.70900
C  10.32000 49.56000 31.06100
C  11.77100 49.99500 30.61500
C  11.72200 49.86000 29.09400
C  12.10700 51.48400 30.98400
C  10.42700 48.37800 32.01800
C  9.81300 48.50400 33.48400
H  10.76300 48.87300 34.57400
N  11.79200 49.65700 25.94000
C  12.86800 49.87300 26.80400
C  14.08900 49.81300 26.01700
C  13.76600 49.50600 24.64900
C  12.28100 49.32100 24.72600
C  15.44300 50.03200 26.64400
C  14.71400 49.24700 23.40600
O  14.28300 49.03900 22.28700
C  16.17900 49.32500 23.61600
N  9.18600 49.13600 24.43100
C  10.10700 48.86400 23.53200
C  9.56300 48.38300 22.23200
C  8.10200 48.09800 22.61800
C  8.03400 48.68700 24.00100
C  9.67600 49.34500 21.06400
C  7.76500 46.66900 22.70200
C  8.49300 45.79800 23.66500
N  8.00500 48.80300 27.14000
C  6.86000 48.57700 26.32100
C  5.69600 48.35000 27.17700
C  6.20100 48.57800 28.44300
C  7.62200 48.64700 28.37600
C  4.33000 48.04900 26.82700
C  5.80200 48.73800 29.83100
O  4.76500 48.70300 30.42000
C  7.16100 48.85500 30.66500
C  7.32300 47.76400 31.59500
O  7.81800 46.70100 31.29600
O  6.67200 48.11600 32.71500
C  6.44100 47.04600 33.70800
H  13.63400 50.20900 28.86400
H  12.06300 48.56600 22.91400
H  5.99800 48.18000 24.41000
H  9.81300 50.36300 31.59600
H  12.51300 49.31900 31.03900
H  11.28600 52.19100 31.10000
H  12.67200 51.91700 30.15900
H  12.69800 51.56700 31.89500
H  11.48600 48.24700 32.23800
H  10.13900 47.45200 31.52000
H  9.31000 47.56600 33.72100
H  9.03300 49.22400 33.23700
H  15.45700 49.91300 27.72800
H  15.89700 51.02000 26.56500
H  16.09300 49.23500 26.28400
H  16.68500 49.38800 22.65300
H  16.50100 48.42400 24.13900
H  16.37900 50.23400 24.18300
H  10.06100 47.50500 21.82100
H  7.39100 48.70000 22.05100
H  10.56500 49.97600 21.06300
H  8.96900 50.17400 21.10000
H  9.65500 48.78700 20.12800
H  7.92800 46.20100 21.73100
H  6.72700 46.59200 23.02400
H  8.99600 46.37100 24.44400
H  9.26500 45.25400 23.12000
H  7.79000 45.10700 24.13100
H  3.56300 48.59700 27.37500
H  4.24400 46.98000 27.02100
H  4.18000 48.23500 25.76400
H  7.08500 49.71800 31.32600
H  5.35700 46.96000 33.78700
H  6.83500 47.28400 34.69500
H  6.70700 46.03600 33.39400

