158

Mg 53.66700 24.55500 44.51500
C  51.17700 26.93400 43.73300
C  51.85800 22.18500 42.85000
C  56.42200 22.62800 44.60100
C  55.68500 27.33600 45.66400
N  51.70800 24.64800 43.23800
C  50.95300 25.68300 43.05200
C  49.65900 25.28400 42.31800
C  49.65600 23.63600 42.44000
C  51.16900 23.45100 42.84600
C  48.81600 23.00700 43.52700
C  49.51400 25.56900 40.79200
C  50.80400 26.00500 40.03000
H  50.52900 26.65200 38.68600
N  54.02100 22.67500 43.96500
C  53.17600 21.81400 43.32500
C  53.83000 20.52200 43.22500
C  55.06100 20.61800 43.81400
C  55.23600 22.03200 44.17600
C  53.09100 19.33700 42.56300
C  56.02200 19.44800 44.04300
O  55.75000 18.30100 43.77100
C  57.34000 19.71800 44.68100
N  55.73800 25.00300 44.96600
C  56.70200 23.96300 45.02500
C  58.09000 24.57400 45.35700
C  57.77400 26.05900 45.56900
C  56.28500 26.08600 45.39300
C  58.80600 23.78000 46.49300
C  58.49400 26.99800 44.48700
C  59.35800 27.99000 45.28300
N  53.44500 26.63600 44.79700
C  54.31300 27.60000 45.33500
C  53.57400 28.85500 45.51800
C  52.35300 28.69600 44.84700
C  52.32500 27.31000 44.46700
C  54.12700 29.98900 46.30300
C  51.07900 29.27400 44.45000
O  50.67400 30.35100 44.54900
C  50.21400 28.21600 43.77100
C  49.84000 28.70700 42.45300
O  50.57800 29.04400 41.51800
O  48.45200 28.75900 42.52400
C  47.90300 29.22200 41.22000
H  51.23000 21.38600 42.45100
H  57.36500 22.07700 44.59000
H  56.18600 28.15100 46.19100
H  48.83200 25.81800 42.78700
H  49.32000 23.12500 41.53800
H  48.24700 23.80000 44.01200
H  49.51000 22.58900 44.25600
H  48.16500 22.26100 43.06900
H  48.82900 26.41600 40.75400
H  49.00700 24.82800 40.17400
H  51.27100 25.02000 39.99700
H  51.31400 26.72800 40.66700
H  53.85500 18.98000 41.87300
H  52.17900 19.67300 42.06900
H  52.92600 18.59400 43.34300
H  57.95600 18.82300 44.76100
H  57.24900 20.05300 45.71500
H  57.86100 20.44800 44.06200
H  58.81800 24.51800 44.54800
H  58.08100 26.30500 46.58600
H  59.70200 23.38100 46.01600
H  58.11900 22.98500 46.78400
H  59.12800 24.30200 47.39400
H  57.83700 27.60200 43.86200
H  59.22100 26.55200 43.80800
H  59.80100 27.65800 46.22200
H  58.77500 28.84800 45.61700
H  60.20400 28.26400 44.65300
H  54.57400 30.78800 45.71100
H  54.82400 29.60500 47.04800
H  53.39100 30.56900 46.86000
H  49.27700 27.96400 44.26600
H  48.12500 30.28600 41.13700
H  46.82600 29.31300 41.36300
H  48.18800 28.48700 40.46700
Mg 7.05200 52.79500 41.33000
C  6.61700 49.35700 41.15100
C  10.39900 52.39100 40.54400
C  7.26300 56.17900 41.13300
C  3.45200 53.10600 41.74000
N  8.34900 51.07900 40.88300
C  7.96000 49.72900 40.91900
C  9.27600 48.83100 40.96000
C  10.45500 49.84600 40.93000
C  9.65100 51.20400 40.77700
C  11.42900 49.85700 42.13700
C  9.39100 47.73500 39.81600
C  9.50500 48.21700 38.34700
H  8.25900 48.14100 37.38200
N  8.58300 54.17100 40.92100
C  9.89100 53.74400 40.69100
C  10.67700 54.93500 40.49300
C  9.90300 56.06200 40.67000
C  8.50700 55.53700 40.96200
C  12.13300 54.89800 40.10300
C  10.31400 57.45100 40.58400
O  11.43400 57.71400 40.18900
C  9.42100 58.62500 40.83000
N  5.48700 54.48700 41.33600
C  5.93100 55.74500 41.36700
C  4.70400 56.63200 41.62700
C  3.44800 55.69000 41.53400
C  4.15700 54.32700 41.53200
C  4.76400 57.47000 42.91600
C  2.66900 55.93900 40.26000
C  1.14400 56.07500 40.52900
N  5.31300 51.56400 41.35800
C  4.00000 51.76400 41.66000
C  3.36500 50.56100 41.80200
C  4.37300 49.59700 41.70000
C  5.50500 50.27400 41.35300
C  1.93100 50.28500 42.01600
C  4.50500 48.19000 41.87400
O  3.63900 47.30900 42.07800
C  6.00800 47.92900 41.46400
C  5.87300 47.05100 40.24500
O  5.41100 47.44800 39.20100
O  6.16100 45.69600 40.54000
C  5.65300 44.73500 39.55400
H  11.47300 52.30100 40.37200
H  7.27500 57.26600 41.23600
H  2.36900 53.21200 41.82900
H  9.37700 48.24500 41.87300
H  11.00700 50.03200 40.00900
H  11.17300 48.98300 42.73600
H  11.33200 50.72100 42.79400
H  12.44500 49.81100 41.74400
H  8.66300 46.92800 39.90100
H  10.25400 47.10900 40.04500
H  10.34100 47.64500 37.94700
H  9.76600 49.27000 38.45400
H  12.23700 55.48300 39.19000
H  12.62900 53.92900 40.04400
H  12.71100 55.38600 40.88800
H  8.55900 58.69100 40.16600
H  10.00200 59.53900 40.95100
H  9.00400 58.50200 41.83000
H  4.93700 57.34000 40.83200
H  2.79000 55.70500 42.40400
H  5.63900 57.27600 43.53600
H  3.86000 57.49000 43.52500
H  4.88900 58.54600 42.79400
H  2.70000 55.10800 39.55400
H  2.86200 56.93900 39.87100
H  0.71900 55.80200 41.49500
H  0.67700 55.26500 39.96800
H  0.83400 57.07100 40.21300
H  1.53700 50.31300 41.00000
H  1.32300 50.91600 42.66400
H  1.82200 49.27100 42.40200
H  6.52300 47.33900 42.22200
H  5.77400 43.74100 39.98500
H  6.45000 44.65500 38.81500
H  4.76900 45.02300 38.98700

