158

Mg -0.41800 7.56600 26.16200
C  0.48900 9.53500 28.87900
C  -0.22000 4.78300 28.17900
C  -0.66000 5.56300 23.39500
C  0.07000 10.34100 24.07200
N  0.04400 7.24200 28.31700
C  0.30500 8.20500 29.18900
C  0.35400 7.60700 30.68000
C  0.35000 6.00800 30.39400
C  -0.04300 6.00200 28.83300
C  1.73100 5.34100 30.65400
C  -0.89200 8.19900 31.41400
C  -1.04200 7.80300 32.87300
H  0.25800 7.62700 33.79100
N  -0.40500 5.40900 25.84000
C  -0.27800 4.50400 26.80900
C  -0.38300 3.17600 26.26900
C  -0.57700 3.32800 24.81800
C  -0.61400 4.81800 24.61600
C  -0.29300 1.88400 27.12300
C  -0.78200 2.17900 23.74200
O  -1.03800 2.42800 22.55600
C  -0.74500 0.77900 24.19500
N  -0.43900 7.85400 24.10600
C  -0.60200 6.90600 23.14800
C  -0.60100 7.45800 21.73500
C  -0.74400 9.05300 21.99800
C  -0.32600 9.14700 23.49400
C  0.77300 7.09400 20.97000
C  -2.15800 9.56100 21.64300
C  -2.33800 10.30600 20.38000
N  -0.00100 9.54300 26.39000
C  0.22000 10.57500 25.46800
C  0.70700 11.78100 26.18900
C  0.68400 11.32400 27.48600
C  0.42700 9.96500 27.59700
C  0.94300 13.13500 25.58400
C  0.96600 11.87100 28.82900
O  1.38800 12.99600 29.11600
C  0.69400 10.74100 29.80400
C  1.96700 10.57700 30.61400
O  2.90700 9.86100 30.31500
O  1.88700 11.35200 31.75200
C  3.18500 11.51700 32.42200
H  -0.15100 3.94800 28.88000
H  -0.72500 4.83500 22.58300
H  0.30000 11.23200 23.48400
H  1.25700 7.85900 31.23600
H  -0.40400 5.52600 31.01600
H  2.56300 6.03700 30.55100
H  2.02000 4.62300 29.88600
H  1.75900 4.93600 31.66500
H  -1.78800 7.80300 30.93600
H  -0.98200 9.27800 31.28700
H  -1.71800 6.94800 32.84900
H  -1.63300 8.50700 33.45900
H  0.63900 1.38600 26.85600
H  -1.10400 1.18300 26.92800
H  -0.41000 2.11700 28.18200
H  -0.69500 0.08800 23.35300
H  -1.69300 0.65000 24.71700
H  0.17100 0.63800 24.76900
H  -1.53500 7.19700 21.23900
H  0.12600 9.30600 21.39200
H  1.61100 7.06100 21.66600
H  1.02900 7.90300 20.28400
H  0.45300 6.12600 20.58400
H  -2.28400 10.27400 22.45800
H  -2.91400 8.78800 21.78400
H  -1.41000 10.31000 19.80700
H  -2.57100 11.35000 20.59000
H  -3.08400 9.81700 19.75400
H  1.84300 13.44500 26.11600
H  0.10800 13.75400 25.91100
H  1.10200 13.11000 24.50600
H  -0.14700 11.05600 30.42200
H  4.03000 11.68300 31.75500
H  3.38600 10.60300 32.98100
H  3.20700 12.36200 33.11000
Mg 24.52400 2.10600 29.77300
C  26.53000 2.18800 32.61500
C  21.75000 2.02300 31.83200
C  22.48600 2.06500 26.99700
C  27.27500 1.63900 27.85400
N  24.19800 2.17300 32.04000
C  25.19700 2.24200 32.99700
C  24.57100 2.31500 34.38600
C  23.04200 2.17400 34.12200
C  22.94300 2.09300 32.57700
C  22.42200 1.07000 34.96000
C  25.06100 3.67100 35.04500
C  25.65600 3.62900 36.46300
H  25.27500 4.57400 37.59900
N  22.42000 2.03900 29.44000
C  21.49300 2.09900 30.45500
C  20.18100 2.01900 29.88000
C  20.35200 1.86700 28.48300
C  21.81300 2.05000 28.25300
C  18.85000 1.96800 30.67800
C  19.39400 1.50300 27.32700
O  19.75200 1.36200 26.18500
C  17.93200 1.21100 27.61600
N  24.80100 1.93600 27.68400
C  23.79800 1.97700 26.73500
C  24.37000 1.91100 25.29800
C  25.95700 1.96900 25.62700
C  26.07700 1.81600 27.16800
C  23.94900 0.63500 24.46700
C  26.80400 3.26300 25.16700
C  26.05600 4.61400 25.30800
N  26.53200 1.94400 30.08800
C  27.56100 1.75800 29.15900
C  28.77900 1.66800 29.88100
C  28.40200 1.78400 31.21700
C  27.02100 1.98400 31.33300
C  30.11000 1.56200 29.27300
C  28.97100 1.77300 32.59300
O  30.13500 1.66000 32.98800
C  27.79900 2.07900 33.54900
C  27.72900 1.06000 34.56100
O  27.53200 -0.16500 34.41600
O  28.32300 1.49300 35.66500
C  28.44100 0.51700 36.79700
H  20.93300 2.06500 32.55600
H  21.88200 2.10500 26.08800
H  28.16900 1.39200 27.27700
H  24.88800 1.44700 34.96400
H  22.40400 3.04700 34.25900
H  21.38600 1.33200 35.17600
H  22.99300 0.90700 35.87400
H  22.55800 0.16300 34.37100
H  24.17500 4.30400 35.09600
H  25.71900 4.27000 34.41600
H  26.72100 3.73500 36.25500
H  25.54500 2.57800 36.72900
H  18.96300 2.58800 31.56800
H  18.74400 1.00300 31.17500
H  17.92900 2.27600 30.18300
H  17.35300 1.87400 28.25900
H  17.75300 0.31900 28.21600
H  17.40000 1.02600 26.68200
H  23.92100 2.74400 24.75700
H  26.36500 1.06600 25.17100
H  23.22100 0.18000 25.13900
H  24.70900 -0.12400 24.28600
H  23.47800 0.94800 23.53500
H  27.11500 3.21400 24.12300
H  27.66900 3.24600 25.82900
H  25.67100 4.74500 26.32000
H  25.21400 4.64900 24.61600
H  26.75100 5.41400 25.05500
H  30.09500 1.93000 28.24800
H  30.36900 0.50300 29.26300
H  30.78600 2.07000 29.96100
H  28.05700 3.05900 33.95200
H  29.40100 0.03100 36.62200
H  27.65200 -0.23000 36.87500
H  28.45000 1.02600 37.76100

