158

Mg 41.38000 7.44500 29.89600
C  42.94000 9.05400 32.46700
C  38.88900 6.55400 32.08900
C  39.89100 5.74000 27.36400
C  44.18100 8.10700 27.74200
N  41.03100 7.80000 32.04700
C  41.74800 8.56100 32.87800
C  41.10000 8.64300 34.22100
C  39.93000 7.59100 34.15300
C  39.87800 7.30700 32.67500
C  40.01900 6.26700 35.11000
C  40.57300 10.08000 34.74200
C  39.98100 9.99700 36.18500
H  40.50700 10.93300 37.28600
N  39.54800 6.51800 29.72000
C  38.66500 6.19300 30.77000
C  37.50900 5.55900 30.20100
C  37.72600 5.39200 28.77100
C  39.09600 5.88500 28.54200
C  36.36600 5.24000 31.11100
C  36.76700 4.85700 27.71100
O  37.01500 4.72100 26.53500
C  35.32600 4.49500 28.20600
N  41.94900 7.03400 27.77800
C  41.18100 6.26100 27.00400
C  41.71800 6.10800 25.59600
C  43.13200 6.83700 25.67900
C  43.09200 7.38100 27.13200
C  41.76100 4.65500 25.10000
C  43.35200 8.00300 24.64800
C  42.79800 9.38600 25.13700
N  43.11200 8.39900 30.02000
C  44.12100 8.64000 29.02400
C  45.18100 9.43300 29.61100
C  44.74400 9.64500 30.98700
C  43.52400 8.97200 31.16200
C  46.46600 9.84200 29.02000
C  45.10000 10.25100 32.24300
O  46.04800 10.96900 32.50400
C  43.96600 9.87400 33.27200
C  44.58500 9.19200 34.40500
O  45.22100 8.11600 34.34000
O  44.28900 9.77800 35.58500
C  44.81000 9.16400 36.81100
H  38.22700 6.17900 32.87300
H  39.37600 5.11400 26.63100
H  45.02200 8.41600 27.11800
H  41.75800 8.27900 35.01000
H  38.94700 8.05700 34.20900
H  40.65100 6.49100 35.97000
H  40.36500 5.40900 34.53400
H  39.04200 6.10600 35.56500
H  39.67500 10.39700 34.21200
H  41.32900 10.86300 34.69100
H  40.20700 9.01500 36.60100
H  38.89200 10.04000 36.14400
H  35.81700 6.18000 31.18000
H  36.70300 4.87300 32.08100
H  35.69300 4.50000 30.67800
H  34.82000 5.27600 28.77300
H  35.60400 3.63200 28.81000
H  34.72700 4.10000 27.38500
H  41.12300 6.76500 24.96000
H  43.84900 6.02000 25.61000
H  42.73000 4.20000 24.89500
H  41.10400 4.51900 24.24100
H  41.49000 3.93200 25.86900
H  42.90100 7.78100 23.68100
H  44.42200 8.16500 24.51500
H  42.43000 9.82900 24.21200
H  43.64000 10.04300 25.35300
H  41.99300 9.49300 25.86400
H  46.34200 10.67600 28.33000
H  47.03500 8.98500 28.65900
H  46.99500 10.34700 29.82900
H  43.53300 10.81100 33.62200
H  43.90100 9.01900 37.39500
H  45.52800 9.85500 37.25400
H  45.24100 8.17300 36.67200
Mg 46.96800 44.75700 41.72600
C  43.63500 43.83100 42.49400
C  47.66200 41.35300 41.53800
C  49.85000 45.48300 40.28500
C  45.92300 48.18700 41.51600
N  45.79600 42.85200 42.09000
C  44.45900 42.78300 42.27700
C  43.93700 41.37400 42.24200
C  45.28500 40.50800 42.24200
C  46.35200 41.62900 41.94700
C  45.52100 39.78600 43.58700
C  43.03800 40.88800 41.04900
C  43.00800 41.71100 39.71700
H  42.89200 40.91700 38.43200
N  48.55600 43.54500 40.95800
C  48.67400 42.22400 41.04000
C  50.03600 41.85900 40.71500
C  50.61100 43.03900 40.19200
C  49.62200 44.07300 40.40900
C  50.62800 40.54700 40.75000
C  51.96400 43.14300 39.50400
O  52.71900 42.17000 39.29000
C  52.41500 44.38200 38.81400
N  47.71700 46.50900 40.93500
C  49.00100 46.58700 40.55300
C  49.56800 47.97800 40.52800
C  48.22900 48.87800 40.62200
C  47.23300 47.83300 41.12900
C  50.64100 48.20400 41.63800
C  47.85800 49.57000 39.34500
C  48.43000 50.96900 38.98000
N  45.17600 45.88200 42.11600
C  44.92000 47.21800 41.93600
C  43.47700 47.43200 42.35500
C  42.92900 46.13200 42.50700
C  43.97400 45.22600 42.46300
C  42.79400 48.73800 42.43800
C  41.66200 45.39000 42.65900
O  40.47300 45.83400 42.72200
C  42.09100 43.81900 42.81300
C  41.75400 43.35600 44.18600
O  42.13400 43.79800 45.23800
O  40.91100 42.24300 44.02300
C  40.48400 41.72100 45.29300
H  47.95200 40.30000 41.54100
H  50.83100 45.86900 40.00300
H  45.65000 49.24300 41.44800
H  43.48400 41.20900 43.22000
H  45.43900 39.79700 41.43000
H  46.37300 39.12300 43.43300
H  44.63600 39.22800 43.89200
H  45.90800 40.41500 44.38900
H  42.03300 40.71700 41.43300
H  43.28700 39.93300 40.58700
H  43.84100 42.40600 39.61300
H  42.09600 42.30900 39.74000
H  50.57300 40.03700 39.78900
H  50.16100 39.85900 41.45500
H  51.64700 40.64000 41.12800
H  51.67500 44.90900 38.21200
H  53.17300 44.19800 38.05300
H  52.73700 45.01500 39.64200
H  49.95600 48.13100 39.52200
H  48.24500 49.63500 41.40700
H  50.89200 47.23800 42.07700
H  50.24100 48.85800 42.41200
H  51.57800 48.67000 41.33400
H  46.77200 49.66200 39.34200
H  48.06000 48.92100 38.49300
H  49.02800 51.29600 39.83100
H  47.54200 51.59600 39.06000
H  49.04300 50.90000 38.08200
H  41.99500 48.81900 41.70100
H  43.46300 49.55200 42.15700
H  42.41800 48.89400 43.44900
H  41.46400 43.26300 42.11600
H  40.13800 42.50500 45.96600
H  41.29800 41.09700 45.66200
H  39.61700 41.06400 45.23500

