158

Mg 47.86700 34.26100 25.47200
C  46.23200 32.75100 28.26200
C  48.24200 37.13000 27.21000
C  49.39000 35.45000 22.77600
C  47.21200 31.18600 23.73600
N  47.26900 34.84300 27.57000
C  46.71900 34.08200 28.50700
C  46.86400 34.81000 29.89700
C  47.28400 36.29500 29.51000
C  47.60600 36.12300 27.95600
C  46.35100 37.45300 29.93400
C  48.11500 34.19400 30.75200
C  47.81900 34.15800 32.30700
H  47.01700 35.29900 32.94800
N  48.69700 36.05100 25.04200
C  48.71200 37.14400 25.87300
C  49.45700 38.20600 25.20700
C  49.78100 37.79000 23.92900
C  49.30800 36.35700 23.85700
C  49.69800 39.59400 25.78200
C  50.50900 38.47300 22.87600
O  50.72400 37.93500 21.77400
C  50.78300 39.96100 22.87200
N  48.32600 33.36200 23.52300
C  48.98500 34.12400 22.64500
C  49.17100 33.31600 21.33100
C  48.59900 31.93300 21.69700
C  47.97800 32.11800 23.04600
C  48.54000 33.88500 20.06000
C  49.61200 30.74400 21.49800
C  50.59800 30.57200 22.68900
N  46.88600 32.41500 25.86900
C  46.66300 31.21900 25.06500
C  45.89800 30.24700 25.79700
C  45.66500 30.82400 27.05500
C  46.34700 32.09800 27.00700
C  45.47700 28.93600 25.35900
C  45.18300 30.57600 28.40700
O  44.72000 29.63600 29.01400
C  45.40000 31.92300 29.10900
C  45.79000 31.65500 30.54000
O  46.87500 31.30600 30.98800
O  44.65300 31.92800 31.29800
C  44.70100 31.78300 32.73700
H  48.29600 38.02200 27.83700
H  50.05500 35.72500 21.95500
H  46.84300 30.30600 23.20400
H  45.92300 34.90100 30.43900
H  48.22000 36.59300 29.98200
H  46.92400 38.28500 30.34200
H  45.54700 37.11500 30.58800
H  45.76300 37.82600 29.09500
H  49.04300 34.74100 30.58700
H  48.17700 33.14000 30.47900
H  48.84000 34.16200 32.69000
H  47.32800 33.20600 32.50800
H  49.43900 39.53600 26.83900
H  48.94900 40.29100 25.40600
H  50.71100 39.99300 25.83300
H  51.29100 40.17900 21.93200
H  51.45000 40.19900 23.70000
H  49.80900 40.43900 22.97400
H  50.25000 33.29000 21.18200
H  47.75900 31.61000 21.08200
H  47.96700 34.79000 20.26000
H  47.84400 33.16800 19.62400
H  49.34600 34.18200 19.39000
H  50.25800 30.93100 20.64100
H  48.98400 29.86900 21.32600
H  50.69600 29.51200 22.92600
H  50.33800 31.12600 23.59100
H  51.58600 30.92500 22.39300
H  46.16600 28.51700 24.62600
H  44.44000 28.94900 25.02500
H  45.52100 28.25300 26.20700
H  44.41200 32.37600 29.18400
H  45.28500 30.90500 33.01200
H  43.69700 31.65600 33.14300
H  45.05300 32.71400 33.18000
Mg 42.17600 40.83900 27.10900
C  41.59700 43.09000 29.63200
C  42.77500 38.48600 29.48500
C  42.72000 38.60900 24.57500
C  41.98200 43.31900 24.71100
N  42.31800 40.87400 29.32700
C  41.92100 41.83700 30.16400
C  41.98100 41.41400 31.62200
C  42.76000 40.08500 31.52300
C  42.56000 39.73200 30.01200
C  44.23100 39.95100 32.12600
C  40.58200 41.34500 32.24700
C  40.27200 42.36000 33.40700
H  39.81000 41.85900 34.79100
N  42.56900 38.80700 27.05500
C  42.78100 38.00600 28.15700
C  43.10700 36.65000 27.67300
C  42.97700 36.61200 26.27200
C  42.68200 38.04900 25.91300
C  43.34000 35.42200 28.67300
C  43.11700 35.47800 25.30500
O  43.00800 35.70500 24.09900
C  43.40300 34.05700 25.81900
N  42.24500 40.93000 24.85400
C  42.56700 39.84500 24.10100
C  42.66900 40.28000 22.64100
C  42.55100 41.82000 22.67900
C  42.17400 42.05300 24.16800
C  43.86400 39.67700 21.85200
C  41.52000 42.43300 21.66400
C  40.09000 42.65000 22.18100
N  41.95700 42.84300 27.10000
C  41.81000 43.72200 26.06800
C  41.45900 45.02200 26.61200
C  41.24100 44.74600 27.97300
C  41.63800 43.47100 28.19800
C  41.22800 46.24900 25.85000
C  40.92700 45.46400 29.23700
O  40.59300 46.64600 29.51800
C  40.94000 44.32200 30.34700
C  41.97500 44.76800 31.30000
O  43.18400 44.67200 31.18100
O  41.41300 45.38700 32.35500
C  42.22500 46.00300 33.38800
H  43.02900 37.77500 30.27400
H  43.02400 37.95500 23.75500
H  42.01500 44.10500 23.95300
H  42.60000 42.01600 32.28700
H  42.16500 39.38000 32.10400
H  44.85600 39.60200 31.30400
H  44.11100 39.27400 32.97200
H  44.71000 40.86100 32.48900
H  40.42000 40.34500 32.65000
H  39.86300 41.46200 31.43700
H  39.40600 42.94400 33.09500
H  41.10300 43.05900 33.49000
H  43.42100 35.77800 29.70000
H  44.29500 34.91100 28.55800
H  42.52400 34.71600 28.51500
H  42.49000 33.71800 26.30800
H  44.25700 34.01200 26.49400
H  43.55300 33.40100 24.96100
H  41.77700 40.01700 22.07300
H  43.49700 42.34400 22.54700
H  44.42900 40.48200 21.38300
H  43.65700 38.99400 21.02800
H  44.60000 39.20600 22.50400
H  41.55300 41.69100 20.86600
H  42.03000 43.32500 21.30000
H  39.49900 42.24200 21.36100
H  39.94800 43.71400 22.37100
H  39.76000 42.10700 23.06700
H  41.97400 46.99300 26.12900
H  40.29400 46.70600 26.17600
H  41.22700 46.05800 24.77700
H  39.93600 44.10600 30.71300
H  42.30800 45.19400 34.11400
H  41.71600 46.84900 33.84900
H  43.19800 46.25300 32.96400

