158

Mg 40.37500 9.05800 29.83600
C  42.12600 10.13600 32.52300
C  38.08400 7.65300 31.72600
C  38.74900 7.91100 26.99900
C  42.93700 10.29700 27.70600
N  40.32000 8.78000 31.89900
C  41.05500 9.36900 32.88600
C  40.34900 9.29100 34.24900
C  39.16500 8.41800 33.95400
C  39.19600 8.26200 32.40300
C  39.17200 7.07500 34.81900
C  39.85900 10.71400 34.77000
C  39.55900 10.74700 36.31300
H  40.09400 11.76700 37.30800
N  38.61400 7.88900 29.42500
C  37.78300 7.47100 30.38900
C  36.59900 6.90900 29.82700
C  36.81200 6.86900 28.39200
C  38.10400 7.60000 28.24800
C  35.57100 6.24400 30.68600
C  36.01500 6.22900 27.25400
O  36.40500 6.30200 26.09600
C  34.78200 5.45400 27.56800
N  40.75200 9.16900 27.57700
C  39.94500 8.52300 26.68200
C  40.37200 8.96900 25.27100
C  41.84500 9.53600 25.48500
C  41.86800 9.72700 27.01800
C  40.32200 7.87000 24.12700
C  42.04200 10.83400 24.66700
C  41.14800 12.02900 25.06700
N  42.16200 9.98500 30.04200
C  43.08900 10.46800 29.11300
C  44.26200 11.05400 29.79300
C  43.80300 10.98500 31.12100
C  42.58300 10.35300 31.22400
C  45.42600 11.79700 29.27600
C  44.25400 11.42100 32.45400
O  45.28500 11.97300 32.84600
C  43.15700 10.91400 33.41300
C  43.83100 10.05200 34.44100
O  44.43600 8.99600 34.20600
O  43.71300 10.63900 35.66400
C  44.41000 9.96900 36.76800
H  37.29600 7.34400 32.41700
H  38.23800 7.70200 26.05700
H  43.78100 10.69400 27.13600
H  41.07200 8.84500 34.93300
H  38.25600 8.98000 34.16600
H  39.40200 6.22800 34.17300
H  38.15800 6.96400 35.20300
H  39.85400 7.02100 35.66800
H  38.94900 11.05000 34.27300
H  40.59300 11.52000 34.78600
H  39.69000 9.75100 36.73400
H  38.47500 10.81700 36.22800
H  34.59700 6.22600 30.19500
H  35.61900 6.76800 31.64000
H  35.82300 5.19100 30.81700
H  34.84800 4.63800 28.28800
H  34.32900 5.19400 26.61200
H  34.16800 6.20600 28.06500
H  39.67900 9.74300 24.94100
H  42.62700 8.78800 25.35400
H  40.27400 6.91800 24.65500
H  41.21100 7.95800 23.50100
H  39.42400 7.90400 23.51000
H  41.81600 10.54800 23.64000
H  43.09000 11.12700 24.72500
H  40.50800 12.21800 24.20600
H  41.77400 12.87200 25.35900
H  40.48000 11.74900 25.88200
H  46.11700 11.10100 28.80000
H  46.00800 12.26700 30.06800
H  45.13000 12.58500 28.58300
H  42.61800 11.66500 33.99100
H  43.79500 9.96400 37.66800
H  45.34100 10.49200 36.98400
H  44.63300 8.92400 36.55300
Mg 46.64800 16.58600 28.34100
C  45.22700 16.03200 31.50000
C  49.11100 18.56700 29.89400
C  47.77400 17.48900 25.35000
C  44.05000 14.95200 26.90700
N  47.07900 17.26000 30.50700
C  46.37800 16.86400 31.63200
C  47.17500 17.39300 32.87000
C  48.28400 18.26800 32.37700
C  48.12600 18.06100 30.81100
C  48.20100 19.74000 32.77800
C  47.65500 16.19000 33.83100
C  47.61400 16.27700 35.36800
H  47.71500 17.69500 35.95800
N  48.36700 17.69100 27.73400
C  49.23800 18.35800 28.48700
C  50.20800 18.95400 27.62500
C  49.81000 18.77100 26.28800
C  48.61700 17.90100 26.37900
C  51.52400 19.63500 28.09200
C  50.49000 19.33600 25.01900
O  49.99200 19.13900 23.89800
C  51.79400 20.10000 25.01400
N  45.81900 16.44200 26.41800
C  46.59000 16.82500 25.31700
C  45.97300 16.40700 23.96600
C  44.84500 15.41300 24.48600
C  44.89700 15.54900 26.00900
C  45.41000 17.66300 23.16000
C  44.94400 13.94000 23.90400
C  45.70200 12.90800 24.78100
N  44.91600 15.79500 28.99500
C  43.95700 15.05600 28.31500
C  42.99700 14.50900 29.22100
C  43.45800 14.85100 30.50400
C  44.67600 15.64500 30.27900
C  41.73800 13.70500 28.79400
C  43.17300 14.78900 31.89900
O  42.22500 14.26400 32.47400
C  44.30400 15.56800 32.62000
C  43.59600 16.70600 33.28800
O  43.23300 17.69600 32.74900
O  43.52300 16.43700 34.64600
C  42.95300 17.50500 35.37600
H  49.80500 19.21700 30.43100
H  47.93300 17.86900 24.33900
H  43.39800 14.29100 26.33300
H  46.39300 17.91500 33.42100
H  49.29500 17.95500 32.64100
H  47.23300 19.81900 33.27400
H  48.09100 20.44400 31.95300
H  49.10300 19.88600 33.37100
H  48.73700 16.15700 33.70300
H  47.17900 15.27200 33.49000
H  48.34700 15.65800 35.88500
H  46.61100 15.87800 35.52000
H  52.46200 19.13000 27.86300
H  51.46400 19.58500 29.17900
H  51.64900 20.61800 27.63700
H  51.59600 21.12400 25.32800
H  52.10700 20.25800 23.98200
H  52.45200 19.49200 25.63500
H  46.70000 15.88000 23.34800
H  43.85200 15.75700 24.19700
H  44.34400 17.69300 22.93700
H  45.92400 17.86900 22.22000
H  45.77100 18.56800 23.64800
H  45.46200 14.08800 22.95700
H  43.98800 13.45000 23.71700
H  45.85200 12.00400 24.19100
H  45.02800 12.55600 25.56200
H  46.65200 13.21900 25.21500
H  41.79700 12.62800 28.95200
H  41.57900 13.79900 27.72000
H  40.95300 13.99700 29.49200
H  44.84400 14.95600 33.34300
H  43.70500 18.29400 35.37100
H  42.75600 17.30300 36.42900
H  41.99100 17.85200 34.99800

