158

Mg -8.96800 39.87900 42.39900
C  -7.71400 36.77000 41.12900
C  -6.15500 41.39900 41.07000
C  -10.35300 42.78200 42.83600
C  -11.80100 38.12000 43.37600
N  -7.30500 39.19200 40.96100
C  -6.99300 37.87500 40.70400
C  -5.57400 37.78300 40.10300
C  -5.00500 39.15500 40.46800
C  -6.22000 40.03100 40.87100
C  -3.91900 38.92200 41.62100
C  -5.65300 37.41600 38.57700
C  -4.79500 36.20600 38.02100
H  -3.69600 36.53700 37.00500
N  -8.35700 41.86300 41.99400
C  -7.15500 42.25300 41.42900
C  -7.09200 43.64600 41.37700
C  -8.30100 44.18200 41.89300
C  -9.05300 42.90900 42.32100
C  -5.91400 44.41500 40.66000
C  -8.63800 45.57300 42.03800
O  -7.87200 46.49200 41.60100
C  -9.95900 45.96100 42.61300
N  -10.84400 40.36100 42.81400
C  -11.15900 41.67200 43.15800
C  -12.61000 41.75400 43.71800
C  -13.06300 40.32800 43.71000
C  -11.80900 39.51200 43.32700
C  -12.88800 42.42500 45.13000
C  -14.10300 39.98900 42.60900
C  -15.28700 39.04600 42.97500
N  -9.60800 37.84300 42.50500
C  -10.78300 37.30600 42.87500
C  -10.77700 35.91000 42.75400
C  -9.57600 35.65700 42.07400
C  -8.89400 36.86500 41.94100
C  -11.82700 34.93600 43.17000
C  -8.73400 34.63800 41.47500
O  -8.94000 33.40100 41.49000
C  -7.44500 35.31700 40.83200
C  -6.29000 34.72300 41.56900
O  -6.01100 35.02100 42.74500
O  -5.45700 33.96300 40.73300
C  -4.14200 33.51500 41.42700
H  -5.16100 41.78400 40.83200
H  -10.83200 43.73400 43.07300
H  -12.74900 37.70700 43.72600
H  -4.92000 36.98900 40.46300
H  -4.55400 39.48100 39.53100
H  -4.18700 39.42300 42.55100
H  -3.03000 39.40000 41.20800
H  -3.54100 37.90600 41.73500
H  -5.28400 38.22500 37.94700
H  -6.67900 37.18900 38.28700
H  -5.40200 35.44800 37.52600
H  -4.26900 35.76900 38.87000
H  -5.36000 43.68700 40.06800
H  -5.41000 45.00600 41.42600
H  -6.44700 45.06100 39.96300
H  -10.02400 47.04700 42.68800
H  -10.03300 45.46900 43.58300
H  -10.78400 45.69900 41.95100
H  -13.10200 42.20400 42.85500
H  -13.43900 40.06800 44.70000
H  -13.69500 42.00000 45.72600
H  -13.27300 43.42900 44.95400
H  -11.96300 42.47000 45.70400
H  -13.71500 39.56700 41.68200
H  -14.58500 40.94300 42.39400
H  -16.28100 39.45600 42.79900
H  -15.40200 38.83200 44.03700
H  -15.25600 38.05900 42.51200
H  -11.91500 34.94200 44.25600
H  -11.57100 33.92700 42.84700
H  -12.81500 35.16800 42.77300
H  -7.44200 35.21300 39.74700
H  -4.42600 32.89600 42.27700
H  -3.54900 34.32700 41.84900
H  -3.44600 32.96100 40.79700
Mg 1.61600 42.56000 25.86500
C  4.07100 42.41800 28.43700
C  -0.72900 41.74800 28.17000
C  -0.64400 42.72400 23.30400
C  4.20300 42.91500 23.52400
N  1.72600 41.90900 27.97100
C  2.76500 42.16900 28.87700
C  2.37600 41.90700 30.29900
C  0.88400 41.48500 30.15900
C  0.57900 41.68400 28.64700
C  0.43700 40.11400 30.76300
C  2.72700 43.11700 31.28500
C  1.70500 43.47300 32.36400
H  1.30800 42.30700 33.38100
N  -0.42100 42.32100 25.76100
C  -1.24400 41.96100 26.78100
C  -2.65800 42.03600 26.38400
C  -2.65200 42.35600 24.95100
C  -1.18300 42.43400 24.61100
C  -3.80300 41.83600 27.34900
C  -3.81200 42.50000 23.97900
O  -3.59400 42.80000 22.80800
C  -5.30200 42.55600 24.53500
N  1.75400 42.63400 23.67600
C  0.72000 42.76700 22.87300
C  1.15600 42.97800 21.41000
C  2.67300 43.27000 21.56200
C  2.91100 42.84000 22.99600
C  0.72300 41.86100 20.43700
C  3.06900 44.75700 21.14300
C  2.90600 45.81900 22.26600
N  3.71700 42.56400 25.92100
C  4.62600 42.72400 24.91600
C  5.99200 42.79200 25.44000
C  5.82000 42.71700 26.83600
C  4.41000 42.53200 27.09600
C  7.25900 43.06800 24.67200
C  6.49400 42.74500 28.07200
O  7.68400 42.99500 28.13000
C  5.41000 42.48300 29.11700
C  5.74200 41.32200 30.03300
O  5.64800 40.10900 29.70400
O  6.08100 41.83500 31.28700
C  6.34600 40.82200 32.26100
H  -1.55000 41.57100 28.86800
H  -1.31600 42.86900 22.45500
H  4.97400 43.13400 22.78200
H  2.94300 41.03800 30.63300
H  0.36900 42.26000 30.72800
H  -0.19400 39.56100 30.06800
H  -0.09700 40.41200 31.66600
H  1.29000 39.45700 30.93000
H  3.06000 44.04700 30.82300
H  3.64900 42.86600 31.80900
H  0.76300 43.81200 31.93300
H  2.22500 44.20700 32.98000
H  -4.58300 41.18200 26.95900
H  -4.14200 42.83400 27.62900
H  -3.49000 41.62000 28.37100
H  -5.54200 41.56800 24.92600
H  -5.96100 42.82900 23.71100
H  -5.38800 43.29300 25.33400
H  0.68600 43.88800 21.03600
H  3.15200 42.52400 20.92800
H  -0.23300 41.41500 20.70800
H  1.39500 41.00400 20.39300
H  0.74400 42.36700 19.47200
H  2.43400 45.08000 20.31800
H  4.07300 44.73100 20.71900
H  3.84300 46.37500 22.29500
H  2.66900 45.54200 23.29300
H  2.18400 46.53200 21.86900
H  6.98300 43.69400 23.82300
H  7.75400 42.14900 24.35800
H  8.01700 43.55500 25.28500
H  5.50300 43.37400 29.73900
H  5.59400 40.03400 32.22300
H  6.10000 41.29600 33.21100
H  7.39900 40.56300 32.37800

