158

Mg 8.21400 3.33000 28.75300
C  9.94900 1.92900 31.63700
C  6.55400 5.23400 30.80100
C  6.55700 4.39100 26.07100
C  9.46400 0.52500 26.88800
N  8.13200 3.30900 31.00600
C  8.98300 2.84600 31.95800
C  8.69100 3.51600 33.30200
C  7.42300 4.36600 33.02900
C  7.36600 4.30400 31.47500
C  6.16700 3.90200 33.86800
C  9.98400 4.08600 33.94600
C  9.72800 4.96100 35.18400
H  10.59200 4.49800 36.40900
N  6.73400 4.64200 28.48000
C  6.21500 5.34200 29.49000
C  5.14700 6.15100 28.89200
C  5.09700 5.85900 27.46300
C  6.19600 4.93300 27.27500
C  4.21000 7.03300 29.69100
C  4.14200 6.30300 26.41700
O  4.22600 5.94400 25.27900
C  2.97900 7.14100 26.84600
N  8.01400 2.61400 26.79700
C  7.35100 3.28800 25.81900
C  7.55900 2.60600 24.43200
C  8.36900 1.34300 24.76200
C  8.56200 1.41900 26.28100
C  6.44600 2.26500 23.41600
C  9.72600 1.25000 24.03700
C  10.07600 -0.11200 23.39100
N  9.47000 1.64800 29.11900
C  9.96900 0.69100 28.21800
C  10.88700 -0.18400 28.88300
C  10.98100 0.39300 30.18400
C  10.05200 1.40000 30.32200
C  11.69500 -1.28700 28.33100
C  11.58800 0.15600 31.45300
O  12.42900 -0.69500 31.73400
C  11.00700 1.23900 32.52400
C  10.45600 0.37700 33.54200
O  9.74600 -0.62900 33.39800
O  10.92100 0.79300 34.73400
C  10.50500 -0.05600 35.82500
H  6.13100 5.95000 31.50800
H  6.01500 4.76200 25.19800
H  9.87000 -0.29600 26.29300
H  8.47100 2.64300 33.91800
H  7.79300 5.35300 33.30900
H  5.50400 3.47800 33.11300
H  5.73000 4.83900 34.21400
H  6.56000 3.23100 34.63200
H  10.63800 4.63000 33.26400
H  10.66100 3.30000 34.27900
H  8.70600 4.94000 35.56200
H  9.91000 5.98800 34.86600
H  3.20300 6.63600 29.56300
H  4.14100 8.02500 29.24500
H  4.44200 7.21400 30.74000
H  2.24100 6.53100 27.36700
H  2.58200 7.60300 25.94200
H  3.34900 8.01700 27.37900
H  8.20500 3.34500 23.95800
H  7.71400 0.49000 24.58500
H  5.56100 2.70000 23.88000
H  6.31700 1.24900 23.04100
H  6.61000 2.86300 22.52000
H  10.53600 1.55400 24.70000
H  9.89600 2.10400 23.38100
H  9.36700 -0.90100 23.64200
H  11.04700 -0.47000 23.73300
H  10.19200 0.06900 22.32200
H  12.70900 -1.27800 28.73300
H  11.55400 -1.41100 27.25700
H  11.32200 -2.21500 28.76300
H  11.84100 1.90400 32.74900
H  10.88700 -1.07500 35.75100
H  9.42100 -0.16300 35.85900
H  10.66900 0.41200 36.79600
Mg 50.11800 46.11100 42.85700
C  46.96300 46.53100 41.18300
C  50.42500 43.09500 41.25900
C  53.27300 46.09600 43.88800
C  49.71300 49.39200 43.88200
N  48.91100 45.05900 41.18500
C  47.63000 45.38100 40.83100
C  47.16300 44.26600 39.83600
C  48.13700 43.04900 40.06900
C  49.22000 43.76800 40.98000
C  47.52200 41.82200 40.92800
C  47.11000 44.78300 38.40600
C  46.04000 44.03500 37.60100
H  45.72600 44.41600 36.12600
N  51.64600 44.69300 42.64600
C  51.56700 43.48900 41.96200
C  52.86300 42.84600 42.09300
C  53.60400 43.64000 43.05300
C  52.88200 44.88100 43.26800
C  53.18200 41.45800 41.48600
C  54.93800 43.40400 43.67700
O  55.48000 42.40900 43.27600
C  55.60300 44.22600 44.76500
N  51.41100 47.52100 43.77100
C  52.69300 47.34600 44.05600
C  53.31700 48.58300 44.72800
C  52.19100 49.68700 44.59400
C  50.99000 48.78300 44.07700
C  53.80700 48.37200 46.18900
C  52.62900 50.88600 43.65500
C  53.17900 52.11500 44.42600
N  48.67600 47.63400 42.73500
C  48.63900 48.86300 43.26400
C  47.35400 49.51500 43.01000
C  46.69800 48.67000 42.15600
C  47.50600 47.50500 42.06400
C  47.05300 50.93700 43.41700
C  45.51200 48.56700 41.35500
O  44.55000 49.29300 41.18200
C  45.60800 47.09800 40.66600
C  44.41700 46.25700 41.08400
O  44.31200 45.63500 42.10600
O  43.49400 46.26400 40.05900
C  42.22200 45.68000 40.32400
H  50.42600 42.08600 40.84200
H  54.25600 46.05700 44.36400
H  49.50800 50.39600 44.26100
H  46.18100 43.92300 40.16400
H  48.46100 42.59400 39.13300
H  46.54100 42.21000 41.20300
H  48.03600 41.77000 41.88800
H  47.54800 40.91000 40.33200
H  48.01800 44.58400 37.83800
H  47.00200 45.84700 38.19700
H  45.08100 44.13300 38.11100
H  46.29100 42.97500 37.55600
H  53.47800 40.74300 42.25400
H  54.10800 41.51900 40.91600
H  52.42000 41.00100 40.85300
H  56.16800 45.13700 44.56700
H  56.34500 43.58400 45.24100
H  54.90500 44.47500 45.56300
H  54.23500 48.81000 44.18600
H  51.99300 50.01500 45.61400
H  53.73800 49.38000 46.59800
H  54.81700 47.96900 46.11000
H  53.14000 47.67500 46.69500
H  51.82000 51.25900 43.02700
H  53.38000 50.64400 42.90400
H  54.11100 52.49500 44.00700
H  53.29400 51.80600 45.46500
H  52.44100 52.91100 44.32600
H  47.89100 51.60100 43.62900
H  46.54100 51.03100 44.37400
H  46.56000 51.47900 42.61000
H  45.60200 47.14500 39.57700
H  42.31600 44.60100 40.19900
H  41.50900 46.07700 39.60200
H  41.87500 46.10400 41.26600

