158

Mg 24.26500 -5.95900 45.88700
C  26.38300 -3.48600 44.35000
C  21.68700 -4.73300 43.92900
C  22.48400 -8.55000 46.86000
C  26.99700 -7.08300 47.72900
N  24.07400 -4.25600 44.38400
C  25.07400 -3.37800 43.89800
C  24.46700 -2.40200 42.87400
C  22.92000 -2.67200 42.98100
C  22.87300 -3.98200 43.76100
C  22.09900 -1.62000 43.73700
C  25.02200 -2.64000 41.45100
C  25.51300 -1.41200 40.66200
H  25.36400 -1.41000 39.08600
N  22.33100 -6.63500 45.31600
C  21.47900 -5.96700 44.52300
C  20.24300 -6.75800 44.59900
C  20.34700 -7.73500 45.58400
C  21.74500 -7.71300 45.95200
C  19.00600 -6.31400 43.72100
C  19.22000 -8.66200 46.09300
O  18.14300 -8.57300 45.50800
C  19.31000 -9.59500 47.29400
N  24.77700 -7.73100 46.89900
C  23.81300 -8.61800 47.24500
C  24.45500 -9.70300 48.19000
C  25.69500 -8.91600 48.83700
C  25.84400 -7.90900 47.76800
C  23.58300 -10.35900 49.26000
C  26.94100 -9.74200 49.13200
C  27.76300 -9.27300 50.33300
N  26.31500 -5.38700 46.13800
C  27.31600 -5.96900 46.86900
C  28.55200 -5.17800 46.65800
C  28.19100 -4.26600 45.70500
C  26.83500 -4.42300 45.34200
C  29.80200 -5.46400 47.39700
C  28.72500 -3.21300 44.87000
O  29.89900 -2.89300 44.76900
C  27.58000 -2.71600 43.94600
C  27.40300 -1.27600 44.18800
O  26.92600 -0.80100 45.24200
O  27.68800 -0.50100 43.07400
C  27.42900 0.95800 43.08200
H  20.87000 -4.18800 43.45100
H  21.83600 -9.33800 47.25000
H  27.81400 -7.28900 48.42400
H  24.69700 -1.42100 43.29200
H  22.41200 -2.91700 42.04800
H  22.79100 -0.80000 43.92900
H  21.63100 -1.92400 44.67300
H  21.23400 -1.28700 43.16400
H  24.18300 -2.98800 40.84700
H  25.89000 -3.29600 41.38400
H  26.52400 -1.06000 40.87100
H  24.84100 -0.70400 41.14700
H  18.58500 -7.04100 43.02600
H  19.28600 -5.45900 43.10600
H  18.20500 -5.96700 44.37400
H  19.70000 -10.52200 46.87300
H  18.30800 -9.62000 47.72200
H  19.91100 -9.10900 48.06200
H  24.83700 -10.49700 47.54800
H  25.29900 -8.37200 49.69400
H  24.06400 -10.68500 50.18200
H  23.20100 -11.33300 48.95300
H  22.83700 -9.63000 49.57500
H  27.50600 -9.93700 48.22000
H  26.45100 -10.67000 49.42900
H  28.33400 -10.12400 50.70400
H  27.03100 -8.83900 51.01300
H  28.43500 -8.47300 50.02100
H  30.57900 -4.76100 47.09800
H  30.15700 -6.48800 47.28200
H  29.72200 -5.17100 48.44400
H  27.66900 -2.87600 42.87100
H  28.04400 1.45300 42.33000
H  27.78400 1.37300 44.02600
H  26.35800 1.03000 42.89500
Mg 16.98200 -1.34300 27.79400
C  15.81900 0.70700 30.26200
C  18.85700 -3.08000 30.22300
C  18.43400 -3.17300 25.33600
C  15.16400 0.49500 25.37500
N  17.43100 -1.00300 29.93300
C  16.67500 -0.25400 30.79900
C  16.94400 -0.58400 32.31900
C  18.15500 -1.57100 32.21000
C  18.22300 -1.95000 30.68100
C  19.50200 -1.04200 32.75200
C  15.75100 -1.29600 33.00900
C  15.71900 -1.33900 34.48400
H  16.96400 -0.84500 35.23500
N  18.33000 -2.99300 27.85000
C  18.95500 -3.54900 28.94700
C  19.72900 -4.70300 28.49200
C  19.57900 -4.75500 27.08700
C  18.74400 -3.62000 26.67500
C  20.31000 -5.64800 29.47800
C  20.29600 -5.74400 26.12900
O  20.13300 -5.69300 24.93800
C  21.09900 -6.94900 26.64800
N  16.73800 -1.42800 25.76000
C  17.52900 -2.19800 24.92200
C  17.30200 -1.81000 23.38300
C  16.12700 -0.79900 23.48800
C  15.96700 -0.52500 24.93100
C  18.55700 -1.29900 22.57700
C  14.77200 -1.25200 22.86700
C  14.11600 -0.30900 21.85600
N  15.81000 0.31800 27.77300
C  15.09700 0.92600 26.72600
C  14.33800 2.00900 27.29300
C  14.56900 1.95100 28.65200
C  15.55100 0.94500 28.86200
C  13.50000 3.04000 26.56000
C  14.17600 2.53100 29.90300
O  13.42200 3.46600 30.12800
C  14.93000 1.70600 31.03000
C  15.70900 2.43100 32.00700
O  16.71600 3.07400 31.79100
O  15.10600 2.31200 33.22100
C  15.43900 3.28700 34.25700
H  19.49800 -3.55900 30.96600
H  18.93200 -3.68000 24.50600
H  14.50000 1.00200 24.67200
H  17.24600 0.29900 32.88200
H  17.95300 -2.50900 32.72800
H  20.28700 -1.17600 32.00800
H  19.85200 -1.64200 33.59300
H  19.39800 0.02200 32.96200
H  15.75800 -2.35400 32.74300
H  14.81200 -0.86900 32.65700
H  15.50600 -2.34000 34.85800
H  14.84300 -0.78200 34.81700
H  19.99400 -6.63600 29.14200
H  20.01800 -5.57700 30.52600
H  21.39400 -5.54200 29.44700
H  21.50500 -7.61700 25.88900
H  20.37800 -7.63200 27.09600
H  21.92000 -6.75300 27.33800
H  16.94300 -2.66600 22.81100
H  16.46800 0.13500 23.04200
H  19.40600 -1.00800 23.19600
H  18.32700 -0.41200 21.98600
H  18.85300 -2.09900 21.89900
H  14.01800 -1.36600 23.64600
H  14.85700 -2.23800 22.41200
H  14.97000 0.26600 21.49900
H  13.37000 0.30200 22.36400
H  13.79200 -0.87000 20.97900
H  13.27000 2.61100 25.58500
H  14.07700 3.93300 26.31900
H  12.66500 3.39700 27.16300
H  14.15100 1.06400 31.44200
H  15.96400 4.16700 33.88500
H  16.07100 2.76300 34.97300
H  14.50600 3.51600 34.77200

