158

Mg -2.15600 17.04600 26.64000
C  -2.60000 14.83800 29.36300
C  -2.56500 19.63000 28.83800
C  -2.39100 19.14800 23.98600
C  -2.56500 14.42200 24.45500
N  -2.41300 17.12800 28.88400
C  -2.58800 16.17800 29.75200
C  -2.81700 16.68800 31.08900
C  -3.03700 18.21700 30.98200
C  -2.69100 18.35500 29.44300
C  -4.49100 18.80900 31.27100
C  -1.75700 16.24100 32.18300
C  -1.05600 17.17700 33.09400
H  -0.38300 16.59700 34.26500
N  -2.33700 19.12800 26.46800
C  -2.41600 20.02800 27.48100
C  -2.50000 21.40900 26.94600
C  -2.33000 21.33100 25.49200
C  -2.31600 19.85900 25.25300
C  -2.73700 22.57300 27.91200
C  -2.13500 22.45200 24.47100
O  -1.90100 22.12800 23.28000
C  -2.19800 23.88500 24.80300
N  -2.45000 16.83300 24.45900
C  -2.51000 17.84100 23.59500
C  -2.96700 17.35700 22.19600
C  -2.77200 15.83100 22.29200
C  -2.59700 15.64200 23.78000
C  -4.40900 17.87000 21.89700
C  -1.54300 15.28600 21.50900
C  -1.72500 13.99600 20.71700
N  -2.43700 15.02100 26.85200
C  -2.54500 14.06900 25.84900
C  -2.73600 12.78700 26.36400
C  -2.73500 13.08000 27.82300
C  -2.53800 14.43500 28.02000
C  -3.01300 11.44900 25.62100
C  -3.01400 12.41100 29.05200
O  -3.32900 11.25100 29.34700
C  -2.86000 13.54200 30.14000
C  -1.97600 13.28800 31.27200
O  -0.77900 13.25000 31.14400
O  -2.72800 12.99700 32.43900
C  -1.98500 12.62900 33.63700
H  -2.86200 20.47100 29.46700
H  -2.45600 19.79900 23.11200
H  -2.77700 13.52200 23.87500
H  -3.75300 16.27500 31.46500
H  -2.41800 18.78000 31.68100
H  -5.14000 18.15300 31.85000
H  -5.07000 18.97200 30.36200
H  -4.30100 19.73300 31.81800
H  -0.99900 15.70100 31.61600
H  -2.22900 15.55600 32.88800
H  -1.76000 17.97800 33.32000
H  -0.22900 17.58500 32.51300
H  -2.52900 23.52700 27.42700
H  -2.25000 22.53200 28.88700
H  -3.82100 22.46900 27.96300
H  -2.44800 24.37800 23.86300
H  -1.31700 24.23900 25.33900
H  -3.16000 23.97500 25.30800
H  -2.23400 17.77400 21.50500
H  -3.71000 15.41500 21.92400
H  -4.72400 18.63400 22.60700
H  -5.09700 17.02800 21.97500
H  -4.52800 18.32500 20.91300
H  -0.67100 15.19000 22.15700
H  -1.19300 15.99100 20.75600
H  -0.80800 13.43500 20.89800
H  -1.84700 14.22900 19.65900
H  -2.59200 13.39500 20.99300
H  -2.08300 10.89000 25.73200
H  -3.18500 11.66000 24.56500
H  -3.80600 10.90100 26.13000
H  -3.86200 13.48200 30.56500
H  -2.70500 12.86900 34.42000
H  -1.04500 13.16300 33.77800
H  -1.86600 11.55200 33.51900
Mg 40.85300 9.48200 29.96700
C  42.65200 10.88900 32.60500
C  38.72500 8.03500 32.26200
C  39.45100 7.81200 27.45500
C  43.45200 10.50800 27.69000
N  40.77000 9.55100 32.20600
C  41.57600 10.12300 33.11500
C  41.24800 9.82700 34.56800
C  39.99400 8.81800 34.48000
C  39.80800 8.72600 32.88400
C  40.25800 7.39300 35.11000
C  40.92000 11.11700 35.31000
C  41.55500 11.38600 36.68800
H  40.73500 12.06200 37.66100
N  39.19200 8.35500 29.87000
C  38.42700 7.82900 30.88800
C  37.27300 7.30700 30.31500
C  37.37500 7.36200 28.88300
C  38.72800 7.87000 28.67600
C  36.20100 6.70700 31.20300
C  36.45500 7.02000 27.84900
O  36.63500 7.20600 26.63900
C  35.17200 6.49200 28.32200
N  41.44600 9.12900 27.87200
C  40.61600 8.38200 27.07300
C  41.21200 8.36400 25.63800
C  42.36500 9.47900 25.66900
C  42.43800 9.71700 27.12600
C  41.54400 6.93300 25.08600
C  42.09000 10.72100 24.78400
C  41.68300 12.08400 25.42400
N  42.69300 10.34200 30.06000
C  43.62200 10.75100 29.11500
C  44.69100 11.40100 29.77200
C  44.26000 11.58100 31.06200
C  43.12300 10.91500 31.28200
C  45.87700 11.98600 29.07800
C  44.62800 12.22600 32.28800
O  45.57300 12.97300 32.58700
C  43.58700 11.67300 33.38500
C  44.32300 10.97300 34.41900
O  44.75000 9.82300 34.54100
O  44.62000 11.97100 35.37100
C  45.34000 11.46300 36.60600
H  38.11600 7.49800 32.99200
H  38.92200 7.34700 26.62100
H  44.25300 10.76600 26.99400
H  42.16600 9.46700 35.03100
H  39.10600 9.26400 34.92800
H  41.13200 7.23700 35.74200
H  40.24800 6.76000 34.22300
H  39.34100 7.30100 35.69200
H  39.85500 11.27100 35.48100
H  41.33700 11.92100 34.70400
H  42.34700 12.11000 36.49900
H  41.97100 10.46600 37.09700
H  36.24600 7.23000 32.15800
H  36.40300 5.63900 31.28100
H  35.18200 6.92000 30.87900
H  34.73500 5.87800 27.53400
H  34.56700 7.37500 28.53000
H  35.21600 5.86100 29.21000
H  40.42900 8.84100 25.04800
H  43.26800 8.96100 25.34400
H  41.13800 6.23800 25.82000
H  42.60600 6.69700 25.03000
H  40.89100 6.85300 24.21700
H  41.40200 10.48600 23.97200
H  42.96100 11.07900 24.23500
H  41.44600 11.91400 26.47400
H  40.85400 12.69200 25.06200
H  42.43000 12.86500 25.28400
H  45.46700 12.91600 28.68600
H  46.28500 11.27300 28.36100
H  46.68800 12.17900 29.78000
H  43.15700 12.53600 33.89500
H  44.78900 10.76300 37.23500
H  45.57400 12.37700 37.15300
H  46.30200 11.05300 36.29800

