158

Mg 2.40600 -1.98800 44.83800
C  5.62200 -1.30100 44.46100
C  1.55100 0.74600 42.89700
C  -0.90800 -3.08100 44.73600
C  3.23700 -4.92100 46.55400
N  3.46400 -0.61200 43.69100
C  4.82300 -0.53400 43.63200
C  5.29400 0.62500 42.76100
C  4.00500 1.51100 42.70300
C  2.89600 0.51200 43.15000
C  4.02200 2.86300 43.51700
C  5.99500 0.14300 41.47500
C  7.37300 0.88100 41.18700
H  7.49000 1.94300 40.08400
N  0.61000 -1.34200 43.75900
C  0.47400 -0.11400 43.10800
C  -0.88700 0.05400 42.72300
C  -1.63300 -1.02100 43.24800
C  -0.65800 -1.91100 43.96700
C  -1.28500 1.26200 41.86900
C  -3.14000 -1.15700 43.17400
O  -3.82500 -0.36100 42.55900
C  -3.95300 -2.23400 43.89700
N  1.32500 -3.77000 45.53800
C  0.00300 -3.97800 45.37900
C  -0.47700 -5.28400 46.09000
C  0.80800 -5.77300 46.79700
C  1.84800 -4.78700 46.22400
C  -1.65900 -5.15000 47.01500
C  1.15200 -7.30500 46.59300
C  1.74400 -8.16800 47.77200
N  4.14800 -2.96700 45.45800
C  4.35100 -4.11300 46.17000
C  5.77900 -4.20600 46.50000
C  6.35300 -3.06400 45.91100
C  5.27900 -2.40400 45.19600
C  6.51500 -5.35900 47.13700
C  7.54900 -2.26400 45.77000
O  8.64200 -2.43700 46.26000
C  7.13400 -1.07300 44.76800
C  7.38800 0.24600 45.42800
O  6.77700 0.74600 46.42700
O  8.40400 0.95700 44.76600
C  8.49100 2.44400 45.07200
H  1.39600 1.71600 42.42000
H  -1.92400 -3.47800 44.70000
H  3.56700 -5.81400 47.08900
H  5.99100 1.15800 43.40800
H  3.89000 1.77300 41.65100
H  4.33100 3.56200 42.74100
H  4.69800 2.66000 44.34800
H  3.04900 3.13900 43.92400
H  5.24500 0.35300 40.71300
H  6.26200 -0.91400 41.50300
H  7.98200 0.13600 40.67400
H  7.87600 1.24200 42.08500
H  -0.51500 2.03000 41.80900
H  -2.27000 1.59200 42.19800
H  -1.43700 0.77700 40.90500
H  -4.96300 -1.94000 43.61100
H  -3.86100 -2.20000 44.98200
H  -3.76100 -3.23500 43.50900
H  -0.69000 -6.09900 45.39900
H  0.62200 -5.54100 47.84600
H  -2.13700 -4.18900 46.82300
H  -1.51600 -5.30800 48.08400
H  -2.40900 -5.88500 46.72300
H  1.96500 -7.19300 45.87600
H  0.22800 -7.81300 46.31300
H  0.92500 -8.69700 48.25900
H  2.34800 -7.59700 48.47700
H  2.35900 -8.93800 47.30500
H  6.32300 -6.26500 46.56300
H  6.11300 -5.52900 48.13600
H  7.58900 -5.17500 47.11500
H  7.55100 -1.02200 43.76200
H  7.68900 2.85200 45.68700
H  8.52700 2.88600 44.07600
H  9.44300 2.71000 45.53100
Mg 41.60100 41.20800 26.44200
C  40.91000 43.59700 28.83200
C  42.48800 39.07200 29.09900
C  42.11500 38.86200 24.19200
C  40.85700 43.51300 23.90200
N  41.87600 41.44300 28.70100
C  41.36500 42.41900 29.44700
C  41.48500 42.15100 30.93100
C  42.39000 40.87200 30.94000
C  42.28900 40.42800 29.49200
C  43.88300 41.07900 31.47100
C  40.19700 41.99800 31.77600
C  40.19200 42.75600 33.07200
H  39.47100 42.11300 34.34000
N  42.36500 39.32400 26.60800
C  42.51700 38.58600 27.77200
C  42.97200 37.29400 27.33800
C  43.02300 37.25500 25.91800
C  42.42000 38.51100 25.50300
C  43.31600 36.21200 28.35000
C  43.55000 36.15900 24.96200
O  43.70000 36.27500 23.75000
C  43.86700 34.79200 25.50600
N  41.60200 41.18100 24.32800
C  41.76800 40.01800 23.63400
C  41.46300 40.22400 22.11500
C  41.09000 41.77300 22.08600
C  41.24800 42.23600 23.52400
C  42.68700 39.76900 21.19200
C  39.70600 41.93500 21.53400
C  38.52700 41.91000 22.48700
N  41.03000 43.13700 26.33200
C  40.73100 43.97000 25.24700
C  40.35000 45.28100 25.69400
C  40.34300 45.22100 27.14200
C  40.76000 43.88400 27.45300
C  40.02400 46.56400 24.85800
C  39.93700 45.86100 28.36500
O  39.30600 46.90300 28.57400
C  40.33000 44.82200 29.55400
C  41.31600 45.52500 30.43200
O  42.39400 46.01700 30.14800
O  40.77000 45.68800 31.63300
C  41.50500 46.52700 32.57000
H  42.64700 38.32700 29.88100
H  42.01500 38.13400 23.38400
H  40.52300 44.25500 23.17400
H  42.07700 42.98800 31.30300
H  41.84900 40.13000 31.52700
H  44.00000 42.16200 31.44900
H  44.50400 40.54000 30.75600
H  44.01700 40.79500 32.51500
H  39.82900 40.97300 31.82500
H  39.40200 42.46000 31.19100
H  39.77400 43.75300 32.93600
H  41.21200 42.95400 33.40000
H  42.77000 36.33600 29.28600
H  44.37700 36.14900 28.58900
H  42.94600 35.22900 28.06000
H  44.83900 34.92600 25.98000
H  43.93600 34.09600 24.67100
H  43.03500 34.39600 26.08900
H  40.58600 39.60700 21.92200
H  41.82100 42.27500 21.45200
H  42.55900 38.74100 20.85300
H  43.61000 39.74000 21.77100
H  42.79600 40.49900 20.39000
H  39.47700 41.10400 20.86600
H  39.68500 42.89900 21.02500
H  38.90200 41.64900 23.47700
H  37.84500 41.07800 22.31200
H  38.07100 42.89900 22.52600
H  40.24100 47.46700 25.42800
H  38.96200 46.78100 24.74100
H  40.77200 46.60300 24.06600
H  39.40300 44.57000 30.06800
H  41.90800 47.45000 32.15200
H  42.36700 45.89400 32.78000
H  40.99300 46.70800 33.51500

