158

Mg 23.95400 -5.55400 45.19000
C  25.92000 -3.04000 43.61700
C  21.27300 -4.24900 43.38500
C  22.42600 -8.50300 45.72100
C  27.00000 -6.68200 46.58600
N  23.70500 -3.96600 43.53600
C  24.60600 -2.97200 43.18200
C  24.01700 -2.03800 42.18900
C  22.48400 -2.14000 42.49700
C  22.49000 -3.55900 43.16800
C  21.84200 -1.08700 43.44200
C  24.46500 -2.45400 40.72300
C  25.21300 -1.43900 39.75500
H  24.86500 -1.44100 38.25800
N  22.12700 -6.25300 44.73200
C  21.09100 -5.51900 44.01200
C  19.89800 -6.38100 43.91900
C  20.15300 -7.61900 44.60900
C  21.65100 -7.52300 45.02600
C  18.68900 -5.96600 43.21100
C  19.25200 -8.76200 44.89100
O  18.07300 -8.68900 44.52200
C  19.72000 -10.05700 45.45600
N  24.63400 -7.28700 46.15800
C  23.81400 -8.40900 46.17500
C  24.49700 -9.48600 47.05800
C  25.86200 -8.79100 47.50200
C  25.90700 -7.57900 46.64300
C  23.65100 -9.96700 48.23500
C  27.10700 -9.79600 47.47400
C  27.73300 -10.07600 48.87100
N  25.96900 -4.92700 45.29300
C  27.04200 -5.46400 45.84500
C  28.21700 -4.57400 45.76400
C  27.82500 -3.64900 44.85000
C  26.42900 -3.92300 44.59300
C  29.45700 -4.61400 46.53100
C  28.33200 -2.50500 44.07500
O  29.44800 -2.02100 44.01900
C  27.08900 -2.09100 43.13100
C  26.76500 -0.59500 43.33900
O  26.06200 -0.15000 44.22600
O  27.30900 0.07000 42.23400
C  27.11700 1.54500 42.08200
H  20.36900 -3.72800 43.06000
H  22.05400 -9.50800 45.93200
H  27.83300 -6.99000 47.22100
H  24.32000 -1.01100 42.39000
H  21.87600 -2.21500 41.59500
H  22.63100 -0.37300 43.67900
H  21.44600 -1.53400 44.35300
H  21.03000 -0.64800 42.86100
H  23.64100 -2.88200 40.15100
H  25.01600 -3.37800 40.90000
H  26.27600 -1.63400 39.89500
H  25.13600 -0.43900 40.18100
H  17.97000 -5.52700 43.90300
H  18.15100 -6.83600 42.83400
H  18.83200 -5.35800 42.31900
H  18.89200 -10.74500 45.62200
H  20.00800 -9.91500 46.49700
H  20.33000 -10.64000 44.76400
H  24.74700 -10.21000 46.28300
H  25.71200 -8.46800 48.53300
H  22.87000 -9.20900 48.29600
H  24.01100 -10.05200 49.26000
H  23.06300 -10.85000 47.98800
H  27.83100 -9.37600 46.77600
H  26.80900 -10.75100 47.03900
H  28.75900 -9.73100 48.73800
H  27.56200 -11.13600 49.06200
H  27.30800 -9.46400 49.66600
H  29.79700 -5.64800 46.59400
H  29.34800 -4.33900 47.58000
H  30.12700 -3.93200 46.00700
H  27.30900 -2.32200 42.08900
H  26.10300 1.78200 42.40200
H  27.05200 1.76500 41.01600
H  27.72300 2.16500 42.74300
Mg 48.40400 45.48500 42.71800
C  44.91600 45.01300 42.62800
C  48.82100 41.99700 42.21700
C  51.60800 46.00500 42.26000
C  47.72900 49.00200 42.59600
N  47.04500 43.76600 42.39100
C  45.62800 43.76300 42.36400
C  45.02000 42.34800 42.23400
C  46.27700 41.42300 42.27200
C  47.49500 42.45100 42.28200
C  46.27700 40.43200 43.46500
C  44.26100 42.26900 40.85900
C  44.87100 42.94600 39.62400
H  45.19300 42.08600 38.47400
N  50.08900 44.12800 42.38200
C  50.01500 42.80500 42.17900
C  51.34300 42.35100 41.96500
C  52.21100 43.45800 42.02200
C  51.35100 44.61700 42.28400
C  51.64500 40.90300 41.51600
C  53.67000 43.44600 41.92700
O  54.29100 42.40800 41.64500
C  54.41600 44.71900 42.32400
N  49.47300 47.25900 42.43700
C  50.82600 47.19200 42.33000
C  51.38500 48.53700 41.99200
C  50.21700 49.52700 42.23300
C  49.02400 48.56600 42.45100
C  52.63500 48.92300 42.93100
C  50.01000 50.49100 40.98000
C  50.21000 52.00400 41.26800
N  46.67600 46.80100 42.59000
C  46.58800 48.19900 42.58300
C  45.20600 48.62000 42.76900
C  44.57500 47.42300 42.78200
C  45.49300 46.35000 42.71700
C  44.77000 49.99800 42.88200
C  43.25700 46.79000 42.88000
O  42.14400 47.32000 43.05100
C  43.39700 45.31200 42.71000
C  42.91700 44.66200 43.94500
O  43.41300 44.66300 45.03200
O  41.84600 43.81700 43.64400
C  41.24200 43.10600 44.79800
H  48.95400 40.96200 41.89400
H  52.59100 46.38600 41.97800
H  47.56800 50.07900 42.67200
H  44.25000 42.27700 43.00200
H  46.35200 40.89000 41.32300
H  46.83000 40.91200 44.27200
H  46.62300 39.45000 43.14300
H  45.29600 40.40700 43.94000
H  43.26100 42.69600 40.93700
H  44.11400 41.23800 40.53900
H  45.83500 43.37000 39.90900
H  44.27600 43.80600 39.31800
H  50.80100 40.24200 41.71400
H  52.47100 40.45100 42.06300
H  51.82400 40.77900 40.44800
H  53.97600 45.23800 43.17600
H  54.50900 45.33800 41.43200
H  55.42300 44.42200 42.61700
H  51.67800 48.49400 40.94300
H  50.34400 50.12800 43.13300
H  52.97500 48.04800 43.48500
H  52.40600 49.59800 43.75500
H  53.42200 49.48600 42.42900
H  48.98200 50.30400 40.67100
H  50.73700 50.17600 40.23100
H  50.43600 52.39500 42.26000
H  49.31800 52.51200 40.90100
H  51.00400 52.25400 40.56400
H  43.96200 50.24200 42.19200
H  45.59700 50.69900 42.77100
H  44.29500 50.12600 43.85400
H  42.89700 44.95300 41.81000
H  41.99300 42.57900 45.38600
H  40.35200 42.50300 44.61700
H  40.93000 43.85300 45.52800

