158

Mg 46.03300 17.38100 29.14600
C  43.83700 16.80300 31.94300
C  48.19900 19.04100 31.08200
C  47.56700 18.17400 26.33300
C  43.33800 15.90900 27.15500
N  45.99600 17.88600 31.19200
C  45.03200 17.54700 32.17500
C  45.67900 17.80900 33.53000
C  46.77600 18.84800 33.19100
C  47.01800 18.61000 31.74100
C  46.31700 20.27900 33.61800
C  46.09300 16.50000 34.28700
C  45.54300 16.37200 35.77000
H  45.70400 17.71300 36.45500
N  47.72000 18.31600 28.75600
C  48.58100 18.89300 29.69500
C  49.76900 19.30500 29.05200
C  49.61700 19.19600 27.65000
C  48.29200 18.50900 27.51800
C  50.86600 19.77600 29.84600
C  50.53400 19.49700 26.56100
O  50.41800 19.01400 25.43600
C  51.59700 20.42300 26.78600
N  45.55500 16.98700 27.10300
C  46.30600 17.57000 26.14500
C  45.80700 17.25100 24.70500
C  44.58900 16.34700 25.04200
C  44.45900 16.45200 26.54200
C  45.37100 18.53900 23.87700
C  44.70400 14.83000 24.50000
C  43.72300 14.47700 23.37900
N  44.00300 16.38100 29.45800
C  43.07400 15.79600 28.55100
C  42.00000 15.26100 29.32500
C  42.30100 15.61100 30.67500
C  43.47900 16.31400 30.66100
C  40.75300 14.57400 28.81800
C  41.77100 15.58400 32.06800
O  40.72700 15.10600 32.50200
C  42.86500 16.25800 32.98100
C  42.30800 17.33400 33.71200
O  41.93400 18.41700 33.23200
O  42.16500 16.97700 35.02900
C  41.57600 17.99300 35.92600
H  48.91800 19.56900 31.71300
H  48.06000 18.47000 25.40400
H  42.54200 15.45400 26.56100
H  44.86000 18.22800 34.11400
H  47.68200 18.62500 33.75300
H  46.15400 20.83500 32.69500
H  47.12200 20.77000 34.16500
H  45.36100 20.20100 34.13600
H  47.16600 16.30400 34.27700
H  45.59200 15.72000 33.71300
H  46.25400 15.78700 36.35400
H  44.53000 16.00400 35.93300
H  51.78900 19.29300 29.52600
H  50.73700 19.47700 30.88600
H  50.95000 20.86300 29.86700
H  52.03300 20.79800 25.86000
H  52.36400 19.94900 27.39900
H  51.09500 21.24300 27.29800
H  46.51000 16.69900 24.08200
H  43.70400 16.84400 24.64300
H  45.47100 19.45800 24.45500
H  44.39400 18.59300 23.39700
H  46.09300 18.63400 23.06600
H  44.53900 14.14600 25.33200
H  45.72400 14.72900 24.12900
H  42.98300 13.80900 23.81900
H  44.30900 14.08300 22.54900
H  43.16800 15.36400 23.07000
H  39.88500 14.87500 29.40400
H  40.86300 13.49100 28.87300
H  40.64500 14.75300 27.74800
H  43.21900 15.42300 33.58500
H  42.04900 17.73300 36.87200
H  40.50400 17.88400 36.08800
H  41.69200 19.04700 35.67100
Mg 49.01100 36.26100 28.14100
C  46.61500 34.86400 30.39600
C  49.58900 38.67400 30.37000
C  51.00500 37.51800 25.83200
C  48.03000 33.71800 25.88800
N  48.18100 36.59200 30.17200
C  47.26100 35.90500 30.88900
C  47.06700 36.55300 32.32000
C  47.79200 38.01100 32.11300
C  48.60000 37.73200 30.81600
C  46.78100 39.17500 31.82500
C  47.77600 35.85900 33.52300
C  49.02100 34.94700 33.25300
H  50.40800 35.38000 33.77500
N  50.21100 37.80000 28.13200
C  50.37800 38.67500 29.13600
C  51.31900 39.64100 28.75100
C  51.93200 39.25500 27.53900
C  51.07400 38.14900 27.14600
C  51.63700 40.80300 29.76100
C  53.04400 39.86800 26.70500
O  53.45000 39.39500 25.62100
C  53.80400 41.06700 27.19500
N  49.44300 35.69300 26.14400
C  50.24700 36.47200 25.40000
C  50.35000 35.99900 23.91500
C  49.70300 34.55100 24.00000
C  49.02000 34.59400 25.41400
C  49.52100 36.96500 22.97400
C  50.76000 33.38900 23.95000
C  50.97000 32.74700 22.56800
N  47.64800 34.62300 28.04700
C  47.34200 33.71000 27.12100
C  46.34500 32.73200 27.56600
C  46.00000 33.27600 28.80200
C  46.82300 34.33000 29.10500
C  45.85500 31.57200 26.81400
C  45.02900 33.12000 29.84900
O  44.02300 32.39100 29.92500
C  45.48400 34.05900 31.02800
C  45.84600 33.21000 32.12300
O  46.51100 32.14500 32.05400
O  45.30600 33.66100 33.34200
C  45.03600 32.59700 34.34600
H  49.70400 39.44400 31.13600
H  51.55500 37.96700 25.00100
H  47.79000 32.96200 25.13700
H  45.99100 36.58900 32.49200
H  48.45200 38.33100 32.91900
H  47.04500 40.12900 32.28200
H  45.77400 38.85000 32.08700
H  46.74200 39.33900 30.74800
H  47.09900 35.28500 34.15600
H  48.10200 36.65700 34.19000
H  49.18400 34.89300 32.17700
H  48.84000 33.91600 33.55700
H  52.34700 41.52500 29.35800
H  52.14300 40.33300 30.60400
H  50.79000 41.39500 30.10700
H  53.12200 41.90800 27.31900
H  54.62100 41.26400 26.50100
H  54.23700 40.70700 28.12900
H  51.37200 35.77300 23.60900
H  48.91300 34.44400 23.25600
H  48.87800 37.58300 23.60100
H  49.04200 36.38900 22.18300
H  50.22200 37.62900 22.46900
H  50.39900 32.63600 24.65100
H  51.61800 33.88300 24.40500
H  50.16100 33.09600 21.92700
H  50.81600 31.66900 22.61100
H  51.96900 32.89600 22.15700
H  46.62100 30.79800 26.77400
H  45.40300 31.99600 25.91700
H  45.09500 31.11500 27.44800
H  44.59600 34.59500 31.36200
H  45.86400 32.44800 35.04000
H  44.75100 31.65700 33.87300
H  44.13900 32.71100 34.95400

