158

Mg 27.03900 49.32700 26.11900
C  25.01900 50.52300 28.78700
C  29.28800 48.16800 28.41600
C  28.93700 48.44400 23.53600
C  24.78300 50.82600 23.87900
N  27.11000 49.33600 28.41500
C  26.14200 49.77100 29.24400
C  26.52600 49.52500 30.71800
C  27.97300 48.84500 30.57800
C  28.16000 48.74300 29.04300
C  29.14400 49.57300 31.27900
C  25.31400 48.75600 31.49200
C  25.00100 49.03400 33.00200
H  25.96800 49.73000 33.99000
N  28.86300 48.44200 26.01300
C  29.66200 47.99600 27.02300
C  30.88200 47.48300 26.47100
C  30.84700 47.65100 25.07100
C  29.49100 48.19500 24.80200
C  31.98500 46.89700 27.44500
C  31.92400 47.26900 24.07800
O  31.74100 47.41200 22.84800
C  33.31300 46.70800 24.55800
N  27.04200 49.81200 24.00700
C  27.82900 49.18700 23.14200
C  27.41400 49.33100 21.66400
C  26.17400 50.21700 21.75500
C  25.96200 50.24200 23.29700
C  28.52000 49.98500 20.74400
C  25.02200 49.65400 20.86000
C  23.95800 48.81800 21.59600
N  25.26600 50.34800 26.16000
C  24.49100 51.03700 25.21900
C  23.35500 51.74300 25.86700
C  23.64700 51.60200 27.22000
C  24.77000 50.72400 27.36200
C  22.35000 52.44000 25.15200
C  23.14000 52.05500 28.56100
O  22.23500 52.79400 28.83900
C  23.93500 51.19600 29.60100
C  24.26100 52.08900 30.70300
O  25.22800 52.84800 30.64300
O  23.25200 52.15000 31.66700
C  23.43400 53.03500 32.80200
H  29.94900 47.79500 29.20100
H  29.42400 47.93500 22.70100
H  23.97500 51.21200 23.25400
H  26.74200 50.52500 31.09300
H  27.88400 47.83800 30.98600
H  29.91500 49.92400 30.59400
H  29.64700 48.96400 32.03100
H  28.70100 50.40800 31.82200
H  25.38800 47.69200 31.27100
H  24.42400 49.02500 30.92300
H  24.68700 48.10900 33.48600
H  24.13500 49.68800 32.90600
H  31.58500 46.65500 28.43000
H  32.73500 47.68700 27.48700
H  32.32700 45.97400 26.97900
H  33.23800 45.65100 24.81400
H  33.60600 47.30600 25.42100
H  34.02000 46.70300 23.72800
H  27.22600 48.32600 21.28700
H  26.43300 51.22800 21.44200
H  29.34700 50.48200 21.25000
H  28.08700 50.67400 20.01900
H  28.76200 49.13600 20.10500
H  25.37700 49.07600 20.00700
H  24.55400 50.54400 20.44100
H  23.03100 49.37900 21.71900
H  24.17700 48.52400 22.62200
H  23.77500 47.86300 21.10300
H  22.50700 53.47300 25.46300
H  21.34200 52.10900 25.40300
H  22.47300 52.27600 24.08100
H  23.27500 50.43200 30.01000
H  24.40100 53.03500 33.30600
H  22.63900 52.82500 33.51700
H  23.16800 54.07100 32.59300
Mg 10.43300 47.42200 26.29100
C  8.63700 47.62200 29.19100
C  13.11800 49.03300 27.96200
C  12.19700 47.34300 23.51400
C  7.48300 46.89000 24.43600
N  10.77000 48.27700 28.32800
C  9.89800 48.14500 29.34100
C  10.42200 48.80700 30.66500
C  11.73300 49.56800 30.19400
C  11.91200 48.95400 28.75900
C  11.54800 51.06600 30.01500
C  10.63000 47.70500 31.81100
C  10.12800 47.95100 33.21800
H  9.79700 46.77100 34.08000
N  12.40300 47.91600 25.85100
C  13.35800 48.57400 26.62900
C  14.60700 48.54900 25.83800
C  14.44000 47.90900 24.60900
C  12.96200 47.77600 24.57600
C  15.80500 49.16100 26.42100
C  15.42800 47.51700 23.50300
O  15.16500 47.15500 22.32100
C  16.86800 47.51400 23.97400
N  9.90900 47.31800 24.20200
C  10.80100 47.10300 23.26600
C  10.31100 46.74600 21.86900
C  8.79600 46.58500 22.21100
C  8.68500 46.89700 23.73200
C  10.54300 47.73000 20.66000
C  8.19900 45.21900 21.93300
C  8.84200 44.02200 22.64400
N  8.45600 47.18300 26.69700
C  7.36300 46.97600 25.87500
C  6.18600 46.99300 26.74400
C  6.55400 47.25400 28.03000
C  7.97700 47.26700 27.92000
C  4.83400 46.91500 26.12900
C  6.11800 47.48800 29.38900
O  5.03900 47.54800 29.92200
C  7.50000 47.60400 30.19600
C  7.56600 46.38400 30.96900
O  8.16800 45.35600 30.64000
O  6.83800 46.62800 32.10400
C  6.56100 45.38300 32.88500
H  13.99500 49.54800 28.36100
H  12.76900 47.02500 22.64100
H  6.62500 46.57200 23.84000
H  9.64100 49.44500 31.07800
H  12.55200 49.32500 30.87200
H  10.51300 51.31200 30.25200
H  11.59800 51.41600 28.98400
H  12.26100 51.55600 30.67800
H  11.69800 47.52300 31.92400
H  10.23200 46.78200 31.39000
H  9.28200 48.63900 33.23000
H  10.91500 48.54900 33.67600
H  16.58200 48.40000 26.49300
H  15.78900 49.47300 27.46500
H  16.16500 50.03100 25.87200
H  16.87100 46.90100 24.87500
H  17.20700 48.48100 24.34400
H  17.53200 47.12000 23.20400
H  10.65700 45.74600 21.60600
H  8.14600 47.21400 21.60300
H  11.16300 47.19900 19.93800
H  11.08400 48.63300 20.94300
H  9.57400 47.92900 20.20200
H  8.14000 45.09000 20.85200
H  7.16600 45.18500 22.27900
H  9.70100 44.23800 23.27900
H  9.20200 43.45700 21.78400
H  8.08100 43.40100 23.11800
H  4.68600 45.87900 25.82500
H  4.60700 47.68700 25.39300
H  4.17400 47.17100 26.95800
H  7.38600 48.44100 30.88600
H  6.83100 45.52300 33.93200
H  7.03900 44.44700 32.59500
H  5.51300 45.13500 32.71700

