158

Mg 1.60300 8.27800 25.17400
C  2.15600 10.04200 28.24500
C  1.84200 5.28100 27.05100
C  1.46000 6.47000 22.47800
C  1.71400 11.19700 23.38100
N  2.02500 7.68900 27.48400
C  2.05700 8.64600 28.49800
C  1.99500 7.90100 29.86000
C  1.94100 6.43500 29.42900
C  1.92600 6.39900 27.87400
C  2.96400 5.58300 30.10600
C  0.95000 8.45600 30.90000
C  1.36500 8.71200 32.38200
H  2.59300 7.97500 33.08100
N  1.58300 6.16800 24.86500
C  1.67900 5.11300 25.71200
C  1.37300 3.89500 25.04500
C  1.23900 4.20100 23.66900
C  1.45400 5.68200 23.63300
C  1.39400 2.53500 25.76900
C  1.13800 3.24900 22.49500
O  1.00000 3.62900 21.33400
C  1.18700 1.71700 22.73700
N  1.83100 8.81400 23.24700
C  1.56900 7.86600 22.30900
C  1.62700 8.49700 20.94300
C  1.24800 9.99500 21.24600
C  1.60600 9.99300 22.71900
C  2.96700 8.34100 20.10600
C  -0.30500 10.30100 21.12600
C  -0.68200 11.40000 20.04400
N  1.91000 10.21300 25.65800
C  1.84700 11.30800 24.82100
C  2.03700 12.48100 25.60500
C  2.17100 12.08300 26.94800
C  2.06200 10.64100 26.93200
C  2.01600 13.81700 24.97600
C  2.26600 12.52400 28.34100
O  2.20200 13.64400 28.84400
C  2.25800 11.24400 29.18600
C  3.44300 11.19100 30.12000
O  4.49900 10.69400 29.88200
O  3.07800 11.81400 31.31400
C  4.05600 11.71900 32.42100
H  1.82500 4.33600 27.59700
H  1.30400 5.98700 21.51100
H  1.53900 12.15200 22.88100
H  2.95800 8.06100 30.34500
H  1.00700 5.94600 29.70700
H  2.59600 5.21300 31.06300
H  3.91100 6.08300 30.30700
H  3.15400 4.68600 29.51800
H  0.10500 7.77300 30.81900
H  0.69800 9.44500 30.51800
H  0.50600 8.36900 32.95900
H  1.54400 9.76900 32.57900
H  0.57900 1.86600 25.49300
H  1.32800 2.60100 26.85500
H  2.34100 2.02700 25.58800
H  0.38400 1.46400 23.42900
H  2.19900 1.49800 23.07900
H  1.02200 1.24900 21.76700
H  0.85300 8.06000 20.31300
H  1.84500 10.72400 20.69800
H  2.94300 7.46100 19.46400
H  3.79000 8.30800 20.82000
H  3.12300 9.28100 19.57700
H  -0.66300 10.64300 22.09700
H  -0.89400 9.40900 20.91300
H  0.22400 11.78900 19.57900
H  -1.33100 12.11200 20.55500
H  -1.34800 10.93400 19.31800
H  2.69700 13.91200 24.13000
H  2.44600 14.53800 25.67100
H  0.97700 13.94200 24.67300
H  1.33200 11.37100 29.74700
H  5.04100 12.05600 32.09900
H  4.17400 10.66700 32.68200
H  3.79600 12.30300 33.30300
Mg 15.92500 51.21800 25.60700
C  17.57600 50.12500 28.52800
C  13.33400 52.43400 27.53500
C  14.37100 51.89300 22.84100
C  18.63000 49.72700 23.67600
N  15.58600 51.33700 27.83000
C  16.38400 50.83400 28.80200
C  15.80200 51.20700 30.18700
C  14.35400 51.79300 29.82700
C  14.36700 51.81600 28.27600
C  13.24000 50.80500 30.33000
C  16.69600 52.18700 30.92800
C  16.86200 52.05600 32.50800
H  15.98900 51.17900 33.43400
N  14.14500 52.13200 25.26100
C  13.21400 52.63400 26.13400
C  12.13200 53.23800 25.43400
C  12.53500 53.25000 24.03400
C  13.72000 52.35700 24.00700
C  10.93000 53.83200 26.13900
C  11.91000 53.90300 22.85900
O  12.43600 53.77400 21.74200
C  10.85400 54.73800 23.07400
N  16.46800 50.85300 23.56400
C  15.52000 51.11700 22.66400
C  15.93900 50.74900 21.26000
C  17.34400 50.14300 21.45800
C  17.53700 50.28600 22.99200
C  14.89400 49.83900 20.47200
C  18.58300 50.61200 20.64100
C  19.40800 49.50400 19.95200
N  17.67400 50.05500 25.95900
C  18.69500 49.52300 25.06500
C  19.79600 49.05700 25.89100
C  19.38500 49.24500 27.25300
C  18.11200 49.88100 27.25900
C  21.07400 48.42200 25.39500
C  19.74700 48.97100 28.59300
O  20.74100 48.41000 29.05200
C  18.63600 49.60900 29.53100
C  18.13600 48.44300 30.35300
O  17.31400 47.58000 30.05100
O  18.88100 48.42600 31.50800
C  18.52800 47.22800 32.33800
H  12.59400 52.88000 28.20200
H  13.89900 51.98100 21.86000
H  19.48200 49.25300 23.18300
H  15.79200 50.29200 30.77900
H  14.23100 52.80100 30.22300
H  13.54800 50.15100 31.14600
H  12.85000 50.21200 29.50300
H  12.35700 51.37600 30.61900
H  16.43400 53.23300 30.76800
H  17.71700 52.04800 30.57300
H  16.93500 53.06500 32.91300
H  17.90300 51.73900 32.57300
H  10.65200 53.27000 27.03000
H  10.05100 53.85300 25.49500
H  11.21900 54.83300 26.46000
H  10.00500 54.07900 23.25500
H  10.49000 55.31200 22.22200
H  11.14200 55.34300 23.93400
H  16.01400 51.68300 20.70400
H  17.35700 49.05400 21.48000
H  14.90600 48.75000 20.53100
H  14.95300 50.12200 19.42100
H  13.84800 50.01400 20.72500
H  19.28600 51.16500 21.26400
H  18.18300 51.28500 19.88200
H  20.30000 49.41100 20.57000
H  19.61800 49.90000 18.95800
H  18.92600 48.52700 19.91400
H  21.00600 47.33700 25.32300
H  21.82600 48.39900 26.18300
H  21.59200 48.75600 24.49700
H  19.16700 50.38800 30.07900
H  17.49300 47.17500 32.67600
H  19.27600 47.31500 33.12600
H  18.78400 46.30100 31.82500

