158

Mg 8.70200 3.21000 27.47200
C  10.19400 1.72300 30.15500
C  6.76800 5.08300 29.61600
C  7.36600 4.58300 24.81300
C  10.32200 0.82500 25.48600
N  8.41400 3.25800 29.67500
C  9.31600 2.70000 30.61100
C  9.06900 3.28900 32.00600
C  7.85400 4.28200 31.80000
C  7.66200 4.25600 30.24800
C  6.60100 4.08400 32.62300
C  10.32200 3.89100 32.68300
C  10.15500 4.47700 34.09500
H  11.16300 4.11200 35.15600
N  7.29700 4.59200 27.28400
C  6.61200 5.35100 28.22300
C  5.75900 6.27800 27.64900
C  5.80500 6.09900 26.22800
C  6.87000 5.06000 26.05100
C  4.90700 7.23000 28.49800
C  5.02800 6.74200 25.13800
O  5.06500 6.40000 23.96200
C  4.06900 7.88800 25.40400
N  8.91400 2.78100 25.42800
C  8.32800 3.58000 24.54200
C  8.74100 3.24400 23.05900
C  9.66700 1.95200 23.24800
C  9.68600 1.86400 24.79100
C  7.49900 3.11900 22.11000
C  11.16600 2.04500 22.57400
C  11.55300 0.88500 21.54100
N  9.92600 1.50000 27.68300
C  10.52100 0.66200 26.77300
C  11.46600 -0.16700 27.49200
C  11.34600 0.20800 28.82600
C  10.35100 1.20400 28.86800
C  12.43100 -1.22800 26.88700
C  11.75400 -0.11700 30.17600
O  12.56800 -0.86600 30.58700
C  11.13100 0.91500 31.01700
C  10.52600 0.29300 32.22800
O  9.41100 -0.16000 32.34300
O  11.36200 0.44000 33.29200
C  10.84300 0.04500 34.61700
H  6.44000 5.80700 30.36400
H  6.89600 5.02200 23.93000
H  10.80200 0.14000 24.78400
H  8.67700 2.44100 32.56700
H  8.17300 5.30100 32.02100
H  6.42800 4.89400 33.33200
H  6.65500 3.22400 33.29000
H  5.72200 4.06400 31.97900
H  10.65500 4.69200 32.02300
H  11.15200 3.18900 32.59900
H  9.14100 4.44400 34.49300
H  10.32900 5.54400 33.96000
H  5.04500 7.14900 29.57600
H  3.83700 7.05400 28.39000
H  5.24000 8.24000 28.25900
H  4.59400 8.67800 25.94100
H  3.25400 7.58700 26.06300
H  3.54100 8.22200 24.51100
H  9.29300 4.16200 22.85800
H  9.18100 1.04500 22.88900
H  7.16500 2.09800 22.29400
H  7.82400 3.29500 21.08400
H  6.60900 3.67900 22.39900
H  11.92800 2.12200 23.34900
H  11.04700 2.96100 21.99600
H  12.17100 0.14600 22.05300
H  12.02600 1.35900 20.68100
H  10.61700 0.41400 21.24200
H  11.86000 -1.50900 26.00200
H  12.55000 -1.97800 27.66900
H  13.45500 -0.93100 26.65800
H  11.93200 1.51000 31.45600
H  10.69400 0.92100 35.24800
H  11.75700 -0.42900 34.97400
H  9.97800 -0.61400 34.69300
Mg 40.63300 8.57100 29.47500
C  42.26100 10.37200 31.91500
C  38.52200 7.28800 31.85900
C  38.87000 7.31000 27.04800
C  43.00400 9.72200 27.15300
N  40.44900 8.90700 31.73400
C  41.13400 9.72100 32.50200
C  40.71400 9.63700 34.00300
C  39.44700 8.64100 33.84600
C  39.50200 8.23400 32.41100
C  39.37600 7.34900 34.74800
C  40.32200 11.01700 34.66800
C  39.38900 10.95600 35.78200
H  39.66900 11.77100 36.99800
N  38.95100 7.47600 29.40100
C  38.19200 6.97200 30.47100
C  37.16100 6.13900 30.06100
C  37.14400 6.21500 28.62200
C  38.35000 7.04900 28.28800
C  36.37900 5.25600 30.96500
C  36.09300 5.78100 27.53600
O  36.09400 6.05200 26.35200
C  34.84600 5.13600 28.12800
N  41.11400 8.31400 27.42000
C  40.06800 7.86900 26.63500
C  40.36500 8.14100 25.12000
C  41.85200 8.67200 25.17000
C  42.06600 8.92300 26.67400
C  40.11500 7.03500 24.03000
C  42.10900 9.81500 24.17200
C  41.47700 11.18400 24.46100
N  42.35100 9.61800 29.53600
C  43.17200 10.06700 28.51100
C  44.22700 10.86900 29.03100
C  43.88500 11.11400 30.33600
C  42.69500 10.36800 30.56200
C  45.33300 11.31700 28.22300
C  44.24400 11.75200 31.60800
O  45.22600 12.43200 31.83900
C  43.21600 11.35400 32.61800
C  43.95400 10.73000 33.79200
O  44.21200 9.54200 33.95800
O  43.94800 11.67400 34.79400
C  44.33100 11.18300 36.19500
H  37.81100 6.98200 32.62900
H  38.31400 7.04700 26.14600
H  43.58300 10.29500 26.42600
H  41.47800 9.02900 34.48600
H  38.47700 9.09000 34.06000
H  38.36500 7.21500 35.13400
H  40.09800 7.32900 35.56500
H  39.72200 6.47200 34.20200
H  39.98500 11.77200 33.95800
H  41.28300 11.37200 35.04000
H  39.34000 9.91300 36.09300
H  38.36400 11.08500 35.43300
H  36.63500 4.22900 30.70300
H  35.30300 5.28500 30.79900
H  36.48100 5.43200 32.03600
H  34.06800 4.92600 27.39400
H  34.44800 5.90400 28.79200
H  35.12400 4.20200 28.61500
H  39.68000 8.95700 24.89100
H  42.49500 7.82300 24.93400
H  39.97200 6.08000 24.53500
H  40.92100 7.06100 23.29500
H  39.21500 7.32700 23.48900
H  41.66900 9.52100 23.22000
H  43.18700 9.91300 24.03700
H  41.00000 11.39200 25.41900
H  40.74400 11.23500 23.65600
H  42.30000 11.85300 24.21100
H  45.78900 12.20900 28.65200
H  44.94700 11.56500 27.23400
H  46.08800 10.53300 28.16500
H  42.66200 12.21200 33.00000
H  43.64700 11.46200 36.99700
H  45.21200 11.77300 36.44600
H  44.58400 10.13100 36.32600

