158

Mg 8.60300 3.47300 27.73700
C  10.19900 1.96900 30.50100
C  6.44800 5.17400 29.87500
C  6.93400 4.79700 25.05800
C  10.27900 1.33000 25.57400
N  8.20500 3.31900 30.00800
C  9.12400 2.86700 30.94900
C  8.72700 3.44300 32.39300
C  7.51600 4.40800 32.08100
C  7.33200 4.29900 30.56200
C  6.20100 4.22000 32.82300
C  9.81000 4.03700 33.30400
C  9.44700 5.24000 34.29100
H  10.23900 5.13100 35.60700
N  6.86500 4.82900 27.52400
C  6.15900 5.38100 28.49600
C  5.15800 6.32400 27.93700
C  5.32100 6.27200 26.56000
C  6.45600 5.30400 26.29600
C  4.26000 7.14700 28.78700
C  4.65500 6.95000 25.41900
O  4.92600 6.76400 24.26400
C  3.69800 8.08300 25.73900
N  8.64800 3.16400 25.75900
C  7.88300 3.79900 24.78700
C  8.37000 3.62400 23.40500
C  9.46200 2.60100 23.58500
C  9.46700 2.31300 25.09800
C  7.21800 3.29000 22.32500
C  10.86800 3.06000 22.91600
C  11.24600 2.51200 21.53600
N  9.96300 1.92000 27.91100
C  10.59400 1.15600 26.96500
C  11.43700 0.23500 27.65800
C  11.38200 0.62900 28.97300
C  10.43000 1.65000 29.08200
C  12.24600 -0.80900 27.00000
C  11.94300 0.31800 30.27300
O  12.82000 -0.46000 30.53100
C  11.24600 1.26000 31.39400
C  10.60900 0.41300 32.39300
O  9.69200 -0.34500 32.20800
O  11.22200 0.64800 33.57200
C  10.57900 0.18900 34.76900
H  5.86500 5.74500 30.60100
H  6.41200 5.06400 24.13700
H  10.84300 0.80000 24.80300
H  8.19200 2.69500 32.97900
H  7.80500 5.45600 32.15800
H  5.83200 5.21500 33.07600
H  6.44200 3.71200 33.75700
H  5.51500 3.60500 32.24100
H  10.69400 4.23500 32.69700
H  10.13000 3.14000 33.83400
H  8.39600 5.15400 34.56600
H  9.69400 6.16800 33.77600
H  4.44100 8.19200 28.53600
H  4.29400 7.03700 29.87100
H  3.22900 6.98700 28.46900
H  3.27800 8.42900 24.79400
H  4.25300 8.87100 26.24700
H  2.93800 7.58200 26.33800
H  8.82000 4.55300 23.05200
H  9.22900 1.63200 23.14300
H  7.70100 2.87000 21.44200
H  6.68100 4.14500 21.91400
H  6.58100 2.50300 22.72800
H  11.69000 2.65900 23.50800
H  10.90900 4.13500 23.09300
H  11.40000 3.27200 20.77000
H  10.38600 1.90400 21.25600
H  12.18700 1.97500 21.42100
H  13.11000 -1.06500 27.61200
H  12.61100 -0.39800 26.05900
H  11.73000 -1.76400 26.89700
H  12.02600 1.84900 31.87700
H  11.36400 0.34600 35.50900
H  10.31600 -0.85700 34.61300
H  9.72700 0.72700 35.18400
Mg -5.93800 24.98400 26.10800
C  -4.30300 26.28300 29.06800
C  -7.80600 22.95200 28.19400
C  -6.74400 23.28800 23.43500
C  -3.53200 26.76200 24.25300
N  -5.93400 24.63200 28.38900
C  -5.18000 25.24300 29.35700
C  -5.62800 24.92400 30.71300
C  -6.61100 23.70400 30.43100
C  -6.87200 23.78000 28.86500
C  -5.93700 22.27800 30.73600
C  -6.43500 26.14300 31.23900
C  -6.30100 26.45000 32.74600
H  -5.65300 25.34800 33.64200
N  -7.23500 23.47400 25.85700
C  -7.97400 22.84800 26.79000
C  -8.82000 21.91300 26.09500
C  -8.60100 21.99400 24.74700
C  -7.49300 22.89400 24.59900
C  -9.73300 21.02800 26.88100
C  -9.24200 21.19200 23.55000
O  -8.88800 21.34600 22.42200
C  -10.35400 20.25000 23.81200
N  -5.35600 25.17800 24.06900
C  -5.85500 24.31000 23.16100
C  -5.12600 24.49200 21.73600
C  -4.21000 25.72700 22.01200
C  -4.33000 25.86800 23.53500
C  -4.40300 23.21700 21.31900
C  -4.60700 27.01400 21.23700
C  -5.46300 28.02600 21.89100
N  -4.40800 26.33300 26.52100
C  -3.55200 26.95400 25.63900
C  -2.74900 27.90300 26.40800
C  -3.04500 27.69600 27.69400
C  -4.03800 26.68900 27.74900
C  -1.78500 28.87000 25.90900
C  -2.63500 28.04400 28.99000
O  -1.81700 28.86800 29.45300
C  -3.43400 27.17700 29.95700
C  -2.44500 26.46100 30.85200
O  -1.90100 25.35700 30.69200
O  -2.33100 27.16700 32.02400
C  -1.69900 26.68600 33.29200
H  -8.28400 22.25100 28.88200
H  -6.94400 22.65000 22.57200
H  -2.81200 27.34200 23.67200
H  -4.74300 24.63900 31.28100
H  -7.55500 23.89300 30.94300
H  -5.84900 21.58300 29.90100
H  -6.62800 21.86000 31.46800
H  -5.01600 22.34900 31.31400
H  -7.47700 26.04400 30.93500
H  -6.20100 27.07500 30.72300
H  -7.30100 26.57600 33.16100
H  -5.75100 27.38300 32.86800
H  -9.61200 19.96200 26.68400
H  -10.68700 21.27200 26.41400
H  -9.80400 21.23600 27.94800
H  -11.10200 20.55900 24.54300
H  -9.82200 19.36000 24.14600
H  -10.77800 20.02500 22.83300
H  -5.84700 24.82100 20.98700
H  -3.16900 25.50100 21.78100
H  -4.55300 22.39900 22.02400
H  -3.34100 23.41400 21.17100
H  -4.73900 22.90400 20.33100
H  -4.94600 26.80200 20.22300
H  -3.66800 27.50200 20.97600
H  -4.88900 28.92900 22.10100
H  -6.02800 27.73500 22.77700
H  -6.13500 28.40800 21.12200
H  -2.28500 29.83100 25.78100
H  -1.44000 28.60600 24.90900
H  -0.84600 28.87900 26.46200
H  -4.07200 27.85700 30.52100
H  -2.29700 27.11500 34.09700
H  -0.62900 26.88400 33.34800
H  -1.72400 25.59800 33.36000

