158

Mg -1.58000 17.30300 27.07600
C  -2.11300 15.22600 29.90700
C  -2.24800 19.95500 29.04200
C  -1.61100 19.08700 24.27000
C  -1.54700 14.26800 25.03600
N  -2.00600 17.51000 29.30900
C  -2.18900 16.57900 30.30900
C  -2.55000 17.23600 31.60800
C  -2.84100 18.72000 31.26200
C  -2.33300 18.77100 29.76900
C  -4.30300 19.12200 31.41300
C  -1.44100 16.92400 32.69100
C  -1.96400 16.36500 33.97800
H  -0.95400 16.08100 35.09900
N  -1.88500 19.20800 26.70900
C  -2.06000 20.23500 27.65400
C  -2.06800 21.50300 27.01300
C  -1.85800 21.25000 25.66100
C  -1.74000 19.82300 25.49600
C  -2.41200 22.79400 27.73700
C  -1.58000 22.28100 24.52400
O  -1.40300 21.91800 23.33700
C  -1.47600 23.88400 24.72400
N  -1.42000 16.69600 24.91200
C  -1.46500 17.71500 24.01700
C  -1.50900 17.07400 22.56000
C  -1.11800 15.58200 22.79500
C  -1.46400 15.46700 24.30200
C  -2.90000 17.27600 21.81600
C  0.33600 15.18300 22.52700
C  1.48500 16.24400 22.62300
N  -1.76400 15.23800 27.31500
C  -1.63000 14.13600 26.45900
C  -1.95700 12.94000 27.11500
C  -1.98700 13.27300 28.48600
C  -1.92500 14.67400 28.57400
C  -1.87800 11.59500 26.50700
C  -2.08500 12.72300 29.77600
O  -2.16400 11.52400 30.13200
C  -2.09200 13.91900 30.70200
C  -0.80800 13.69400 31.44300
O  0.30700 13.92700 31.00400
O  -1.01100 13.20500 32.73500
C  0.23700 13.17800 33.51100
H  -2.48000 20.83000 29.65400
H  -1.73000 19.60800 23.31700
H  -1.50000 13.29100 24.55000
H  -3.49800 16.80800 31.93200
H  -2.31700 19.37900 31.95300
H  -5.04100 18.45600 31.85800
H  -4.81000 19.21700 30.45300
H  -4.22600 19.99100 32.06700
H  -0.92500 17.86900 32.85700
H  -0.68300 16.30000 32.21800
H  -2.61400 15.50200 33.83400
H  -2.56100 17.18200 34.38100
H  -2.52100 22.66600 28.81400
H  -3.31500 23.23400 27.31400
H  -1.51200 23.38600 27.57600
H  -0.44800 24.17400 24.94200
H  -2.10900 24.28200 25.51600
H  -1.73200 24.27100 23.73800
H  -0.82400 17.64800 21.93700
H  -1.63400 15.05700 21.99100
H  -3.21500 16.38500 21.27300
H  -2.73400 18.00500 21.02300
H  -3.70500 17.74100 22.38600
H  0.31400 14.87300 21.48200
H  0.62400 14.34900 23.16700
H  1.00300 17.17200 22.93300
H  1.73300 16.51800 21.59800
H  2.35100 15.87400 23.17300
H  -0.84200 11.59200 26.16900
H  -2.55300 11.40900 25.67200
H  -2.12000 10.85600 27.27100
H  -2.91500 13.97000 31.41400
H  0.88100 14.02100 33.25900
H  0.81900 12.26100 33.41800
H  -0.10200 13.13600 34.54600
Mg -1.89100 33.88700 27.13800
C  -3.73000 31.90900 29.32600
C  -0.42700 35.52100 29.71800
C  -0.60100 36.22300 24.90100
C  -3.71400 32.55000 24.53500
N  -2.37900 33.98400 29.24300
C  -3.00300 32.95300 29.93400
C  -2.64800 33.01100 31.38600
C  -1.74700 34.29400 31.51400
C  -1.50800 34.69700 30.04800
C  -2.38800 35.36300 32.40700
C  -2.00100 31.67300 31.91200
C  -2.82800 31.00300 33.00700
H  -2.08300 30.83800 34.32400
N  -0.57200 35.55300 27.29800
C  -0.02700 36.06400 28.49900
C  0.97800 37.01200 28.14300
C  0.94000 37.26900 26.68200
C  -0.09800 36.31000 26.20500
C  1.70600 37.72200 29.19800
C  1.74100 38.18300 25.82700
O  1.46100 38.34900 24.65900
C  2.82600 39.02200 26.40700
N  -2.17200 34.32600 24.98600
C  -1.51300 35.29500 24.33200
C  -1.86500 35.24400 22.84200
C  -2.70600 33.99700 22.65800
C  -2.87600 33.56600 24.13600
C  -2.45100 36.58600 22.20100
C  -1.99300 32.91900 21.84400
C  -0.91800 32.07600 22.52000
N  -3.43600 32.51200 26.91500
C  -3.94400 31.95300 25.78200
C  -4.74300 30.76600 26.15400
C  -4.68600 30.72500 27.50800
C  -3.90900 31.79200 27.91600
C  -5.53800 29.88400 25.25700
C  -5.17300 29.97600 28.63400
O  -5.94800 28.99700 28.69300
C  -4.51600 30.71400 29.91300
C  -5.55300 31.06500 30.94900
O  -6.30600 32.02200 30.92700
O  -5.69300 30.06100 31.90700
C  -6.84400 29.98800 32.77000
H  0.20700 35.82100 30.55500
H  -0.30200 36.96500 24.15800
H  -4.27800 32.10300 23.71400
H  -3.58500 33.13900 31.92800
H  -0.72300 34.06900 31.81300
H  -3.11700 35.86200 31.76800
H  -1.65800 36.12600 32.67900
H  -2.87800 35.03000 33.32200
H  -1.04300 31.99300 32.32300
H  -1.66000 31.06200 31.07700
H  -3.00800 29.98500 32.66300
H  -3.73600 31.52400 33.31100
H  1.37600 38.75900 29.25300
H  2.76400 37.70500 28.93300
H  1.54100 37.37300 30.21700
H  2.54800 39.74000 27.17800
H  3.24300 39.67900 25.64400
H  3.52500 38.33300 26.88300
H  -0.91600 35.18200 22.30900
H  -3.68500 34.24300 22.24600
H  -2.44700 37.37500 22.95300
H  -3.50800 36.52800 21.94100
H  -1.80000 36.74700 21.34200
H  -1.49100 33.38000 20.99300
H  -2.78200 32.29200 21.43000
H  0.08100 32.35700 22.18500
H  -1.19900 31.04500 22.30500
H  -0.92200 32.25800 23.59500
H  -5.12800 28.87600 25.32200
H  -5.56200 30.27100 24.23800
H  -6.59700 29.72500 25.46100
H  -3.79200 30.02600 30.34800
H  -6.78500 29.03000 33.28800
H  -7.79600 30.07600 32.24800
H  -6.86300 30.81600 33.47800

