158

Mg 46.95500 24.84500 28.00800
C  47.75900 26.93300 30.71000
C  46.17800 22.27400 30.34600
C  47.09000 22.52300 25.58800
C  48.19900 27.20700 25.86600
N  46.89100 24.63800 30.21500
C  47.23500 25.62300 31.11600
C  46.96200 25.15100 32.62400
C  46.70300 23.60300 32.39100
C  46.60200 23.48400 30.85600
C  47.86400 22.66100 32.92200
C  45.78800 25.95800 33.39100
C  46.27100 26.68000 34.67800
H  45.28100 27.00400 35.76600
N  46.51700 22.75800 27.93600
C  46.15000 21.91700 28.97800
C  45.91200 20.52500 28.44300
C  46.27500 20.54800 27.08600
C  46.61800 21.98500 26.78000
C  45.40900 19.35300 29.31800
C  46.45000 19.42800 26.03500
O  46.93700 19.57700 24.92300
C  46.12000 18.00900 26.52500
N  47.39500 24.84900 26.00200
C  47.44700 23.80700 25.19200
C  47.97100 24.24100 23.79700
C  47.84300 25.83100 23.91400
C  47.81200 25.99300 25.35400
C  49.43000 23.66600 23.60500
C  46.50800 26.34600 23.32600
C  46.72600 27.35600 22.09700
N  47.73300 26.76300 28.18000
C  48.28100 27.60500 27.24900
C  48.64500 28.88500 27.80600
C  48.40900 28.64900 29.21700
C  47.97900 27.34400 29.37900
C  49.17000 29.95600 27.05000
C  48.46400 29.24000 30.48300
O  48.79900 30.34700 30.84700
C  48.13100 28.10300 31.53000
C  49.28300 27.76800 32.37700
O  50.33800 27.21800 31.97900
O  49.07500 28.27500 33.59300
C  50.03700 27.88800 34.67300
H  45.87600 21.42900 30.96700
H  47.24800 21.89900 24.70600
H  48.61600 27.94600 25.18000
H  47.89200 25.18500 33.19100
H  45.73200 23.28400 32.76900
H  47.44000 21.83700 33.49600
H  48.62600 23.15500 33.52600
H  48.26900 22.15700 32.04400
H  45.05800 25.22400 33.73200
H  45.35000 26.65600 32.67800
H  46.85300 27.49800 34.25300
H  47.11200 26.07500 35.01700
H  44.67500 18.82700 28.70800
H  45.10200 19.72400 30.29600
H  46.24800 18.69300 29.53700
H  46.63200 17.77700 27.45900
H  46.60000 17.36900 25.78500
H  45.05300 17.83300 26.66600
H  47.32500 23.76400 23.06000
H  48.69000 26.28200 23.39600
H  49.92700 23.52200 24.56400
H  50.12300 24.30700 23.06000
H  49.39700 22.67200 23.16000
H  45.89200 26.90500 24.03100
H  45.84200 25.52200 23.07000
H  47.77000 27.65500 22.00300
H  46.15400 28.21700 22.44200
H  46.28500 26.90800 21.20700
H  48.71300 29.98500 26.06100
H  50.25500 29.90300 26.96200
H  48.98500 30.85300 27.64100
H  47.30100 28.61100 32.02100
H  50.40700 28.75000 35.22900
H  50.84500 27.34800 34.17800
H  49.57100 27.16600 35.34400
Mg 47.54400 34.65100 27.94200
C  45.96000 32.76500 30.41700
C  48.18600 37.12000 30.13200
C  48.66400 36.51100 25.32500
C  46.72200 32.09900 25.62000
N  47.09700 34.90400 30.07400
C  46.34300 34.05100 30.85100
C  46.72800 34.42000 32.27300
C  47.20500 35.95900 32.18100
C  47.51400 35.99500 30.68900
C  46.10200 36.99600 32.63600
C  47.87400 33.50500 32.78100
C  47.93500 33.42000 34.35800
H  46.98800 34.35400 35.14900
N  48.36300 36.57100 27.76400
C  48.64700 37.44500 28.80700
C  49.28000 38.63700 28.31000
C  49.49600 38.45100 26.88400
C  48.84100 37.11200 26.58200
C  49.71300 39.73700 29.24600
C  50.08400 39.42600 25.84300
O  50.45100 39.02600 24.73400
C  50.46500 40.86500 26.30000
N  47.62100 34.34600 25.79000
C  48.27700 35.22800 24.99000
C  48.41900 34.71700 23.51700
C  47.76800 33.22700 23.68600
C  47.42500 33.22700 25.12300
C  47.83400 35.63900 22.41000
C  48.75800 32.13500 23.22600
C  48.23500 31.13100 22.22000
N  46.54800 32.85800 27.96900
C  46.31400 31.89100 26.94900
C  45.69500 30.73000 27.47800
C  45.46500 30.99200 28.84800
C  46.11900 32.27700 29.06000
C  45.32900 29.55100 26.60500
C  44.86700 30.52200 30.07100
O  44.16000 29.50900 30.30900
C  45.03400 31.74600 31.00100
C  45.01900 31.31400 32.39700
O  45.86000 30.68900 33.02500
O  43.82300 31.62600 33.01600
C  43.63600 31.36500 34.43200
H  48.44000 37.84900 30.90500
H  49.14400 37.07700 24.52300
H  46.42700 31.29800 24.93800
H  45.83400 34.34500 32.89300
H  47.98000 36.14800 32.92400
H  45.14400 36.51100 32.82300
H  46.13700 37.79900 31.90000
H  46.46300 37.49100 33.53800
H  48.82100 33.91500 32.43100
H  47.65400 32.48300 32.47300
H  48.97700 33.67400 34.55700
H  47.75000 32.37300 34.59600
H  50.72400 39.65000 29.64500
H  49.04200 39.70200 30.10400
H  49.54000 40.74600 28.87100
H  51.38600 40.79100 26.87800
H  49.62200 41.36800 26.77400
H  50.55200 41.42500 25.36900
H  49.50800 34.70900 23.46100
H  46.89500 33.14300 23.03800
H  48.63200 35.89400 21.71300
H  47.41900 36.53200 22.87600
H  46.99000 35.24600 21.84300
H  49.09200 31.51400 24.05700
H  49.62500 32.54700 22.71000
H  48.93200 30.72700 21.48500
H  47.46000 31.70100 21.70800
H  47.85600 30.36100 22.89200
H  46.21300 29.13700 26.12000
H  44.67400 29.86900 25.79300
H  44.88900 28.81000 27.27300
H  44.14300 32.37300 30.95400
H  42.61200 31.04300 34.62500
H  43.89200 32.22900 35.04500
H  44.34200 30.65200 34.85900

