158

Mg 44.56900 4.13300 46.43800
C  42.31100 6.75100 46.54800
C  41.87600 1.89600 45.89800
C  46.78700 1.60700 45.56800
C  47.14100 6.40400 46.10500
N  42.38800 4.33600 46.24000
C  41.66600 5.52300 46.31300
C  40.17500 5.23700 46.36200
C  40.00700 3.67400 46.13900
C  41.51100 3.26100 46.15000
C  39.12000 2.88500 47.24300
C  39.36900 6.08100 45.39700
C  39.33100 5.85000 43.89500
H  39.51200 7.03700 42.90000
N  44.36200 2.02500 45.98700
C  43.18100 1.35800 45.86400
C  43.43300 -0.02000 45.44400
C  44.85200 -0.15800 45.47000
C  45.46400 1.18000 45.65900
C  42.34100 -1.02000 45.11800
C  45.60200 -1.43500 45.19100
O  45.08400 -2.54600 44.98000
C  47.16800 -1.53700 45.14800
N  46.74400 3.99600 45.88800
C  47.39100 2.79500 45.78700
C  48.88800 2.98600 45.53100
C  48.96600 4.58800 45.41500
C  47.58700 5.05000 45.90900
C  49.85700 2.28700 46.55300
C  49.09300 5.17400 43.98500
C  50.54500 5.25400 43.57500
N  44.73100 6.12800 46.31100
C  45.83900 6.89700 46.39500
C  45.55300 8.27600 46.69700
C  44.15900 8.24800 46.79500
C  43.71600 6.96100 46.46200
C  46.45800 9.44100 46.77300
C  42.99100 9.02100 47.25900
O  42.93900 10.18000 47.61000
C  41.71600 8.12200 46.94500
C  40.85000 8.09400 48.07000
O  40.95500 7.41700 49.10700
O  39.76600 8.85200 47.76800
C  38.56900 8.65200 48.66000
H  41.02100 1.21900 45.84700
H  47.45600 0.81800 45.21900
H  47.93200 7.15400 46.17700
H  39.82000 5.53000 47.35000
H  39.47900 3.40700 45.22400
H  38.24000 2.33800 46.90500
H  38.75200 3.69100 47.87800
H  39.81000 2.32400 47.87400
H  39.55900 7.15200 45.46600
H  38.33200 6.20300 45.71100
H  38.34400 5.46500 43.64000
H  40.09500 5.10800 43.66200
H  42.67400 -1.73900 44.37000
H  41.37900 -0.59400 44.83300
H  42.08300 -1.54800 46.03600
H  47.69100 -1.25700 46.06200
H  47.62200 -1.00900 44.31000
H  47.50100 -2.57200 45.06300
H  49.06300 2.59500 44.52900
H  49.81600 4.83000 46.05300
H  50.62300 1.90000 45.88000
H  49.39700 1.48400 47.12900
H  50.40100 3.05100 47.10700
H  48.67600 6.17600 43.88200
H  48.60000 4.64400 43.17000
H  51.16700 4.95600 44.41900
H  50.78500 6.27200 43.26800
H  50.73400 4.48900 42.82200
H  47.25200 9.44800 46.02600
H  46.83100 9.37200 47.79500
H  45.96600 10.38900 46.55500
H  41.19800 8.61300 46.12100
H  37.71200 8.68000 47.98800
H  38.40200 9.47900 49.35000
H  38.52600 7.72200 49.22700
Mg 39.64700 9.87500 29.89700
C  41.74500 11.19300 32.48000
C  37.52400 8.91700 32.56300
C  37.82200 8.23800 27.61300
C  41.90800 10.97800 27.55100
N  39.75100 9.90600 32.34400
C  40.66300 10.57100 33.09700
C  40.22600 10.58100 34.55400
C  38.89000 9.73700 34.51800
C  38.71300 9.56600 33.01200
C  38.85700 8.34600 35.23300
C  40.01900 11.99900 35.16400
C  40.92600 12.32900 36.37000
H  40.25300 12.72800 37.69700
N  37.86700 8.71400 30.08500
C  37.07800 8.53500 31.26400
C  35.90300 7.84100 30.76000
C  36.09200 7.53900 29.35500
C  37.28200 8.17700 28.93900
C  34.79300 7.48000 31.75400
C  35.14900 6.70800 28.50700
O  35.43600 6.35200 27.35700
C  33.87100 6.37500 29.02500
N  39.78000 9.84800 27.78000
C  38.89700 8.99800 27.08700
C  39.30500 8.98100 25.58700
C  40.54100 10.02400 25.57900
C  40.79500 10.24700 27.03900
C  39.61300 7.60400 25.03400
C  40.22900 11.25800 24.71000
C  41.39500 12.19600 24.44000
N  41.47900 10.80800 29.96600
C  42.26400 11.22100 28.89100
C  43.47100 11.94800 29.38600
C  43.25800 11.99700 30.78900
C  42.01300 11.26900 31.07600
C  44.57600 12.45500 28.49700
C  43.83300 12.48300 32.00900
O  44.86100 13.17300 32.17200
C  42.84800 12.03800 33.18100
C  43.59500 11.13600 34.07300
O  43.80200 9.92400 33.97600
O  43.96300 11.80300 35.23500
C  44.72200 11.11300 36.23500
H  36.75000 8.85300 33.33000
H  37.16900 7.83300 26.83800
H  42.58500 11.20900 26.72600
H  41.00400 9.98000 35.02400
H  38.03300 10.29800 34.88800
H  39.85900 7.93500 35.36200
H  38.46200 7.51300 34.65300
H  38.30700 8.35500 36.17400
H  38.98700 12.11900 35.49400
H  40.12400 12.76800 34.39900
H  41.30500 13.31200 36.09100
H  41.65300 11.53700 36.54800
H  34.80100 8.18000 32.58900
H  34.96100 6.44800 32.05900
H  33.83600 7.58900 31.24300
H  33.41100 7.31500 29.33100
H  34.02200 5.63000 29.80600
H  33.26100 5.85400 28.28800
H  38.39300 9.34400 25.11400
H  41.38200 9.51000 25.11400
H  39.71600 6.86100 25.82500
H  40.41400 7.56700 24.29500
H  38.70000 7.29000 24.53000
H  39.40100 11.86000 25.08300
H  39.89300 10.83300 23.76400
H  41.16700 12.68500 23.49300
H  42.36500 11.70100 24.39400
H  41.41200 13.03700 25.13200
H  45.52600 11.99000 28.76300
H  44.57200 13.48300 28.85900
H  44.48500 12.35300 27.41500
H  42.41400 12.94400 33.60500
H  45.56200 10.62200 35.74300
H  44.15100 10.27500 36.63500
H  45.06600 11.74300 37.05500

