158

Mg 43.15500 41.88200 25.67700
C  42.35500 44.41900 28.00000
C  44.32700 39.97500 28.26100
C  44.27500 39.69300 23.42900
C  42.68800 44.27800 23.20700
N  43.18700 42.14600 27.90500
C  42.84000 43.24900 28.63500
C  43.00100 43.11000 30.05900
C  43.81900 41.76900 30.12400
C  43.80200 41.23300 28.67600
C  45.25600 41.93600 30.60700
C  41.75500 43.21900 31.02200
C  41.70000 42.27100 32.23500
H  40.74200 42.74100 33.37700
N  43.95100 39.94300 25.87300
C  44.41400 39.37500 27.02900
C  44.95200 38.06900 26.70500
C  44.85100 37.90200 25.27100
C  44.33800 39.21400 24.81800
C  45.59500 37.14100 27.69800
C  45.25500 36.69400 24.33700
O  45.10900 36.84900 23.12500
C  45.77800 35.47200 24.80600
N  43.43400 41.99900 23.59200
C  43.88800 40.95100 22.90000
C  44.01400 41.30900 21.36200
C  43.42400 42.76500 21.32400
C  43.04100 42.98300 22.83900
C  45.46800 41.08000 20.79300
C  42.23900 42.82200 20.30700
C  40.87300 42.39700 20.87600
N  42.59900 43.91900 25.57000
C  42.41100 44.75200 24.46000
C  41.96200 46.06400 24.90400
C  41.82900 45.91200 26.25500
C  42.24700 44.60300 26.62300
C  41.84000 47.25900 24.05100
C  41.41600 46.60500 27.44800
O  41.06700 47.79400 27.63900
C  41.65000 45.60500 28.64000
C  42.45400 46.34800 29.66200
O  43.64100 46.58200 29.50000
O  41.72000 46.61600 30.78000
C  42.55600 47.03200 31.88300
H  44.81600 39.39500 29.04600
H  44.63700 39.09000 22.59400
H  42.52700 44.95400 22.36400
H  43.55500 44.00300 30.34600
H  43.38500 41.09200 30.85900
H  45.61000 42.92600 30.89500
H  45.92900 41.62000 29.81000
H  45.45700 41.23500 31.41800
H  40.83700 42.99800 30.47800
H  41.75800 44.28000 31.27100
H  42.66400 41.93400 32.61600
H  41.24100 41.38800 31.79000
H  46.55100 36.88400 27.24100
H  45.01200 36.23300 27.85300
H  45.80000 37.50500 28.70500
H  45.63300 34.67800 24.07400
H  45.17000 35.25200 25.68400
H  46.81100 35.58700 25.13600
H  43.30900 40.69900 20.79700
H  44.07200 43.55200 20.93700
H  46.06700 40.31900 21.29200
H  46.05000 42.00200 20.82600
H  45.44700 40.74000 19.75800
H  42.42100 42.18300 19.44300
H  42.11600 43.85800 19.99300
H  40.29300 43.31600 20.96300
H  40.92600 41.84300 21.81300
H  40.46900 41.64400 20.20100
H  41.56900 46.94800 23.04200
H  42.80500 47.75700 24.13800
H  40.94600 47.78000 24.39300
H  40.68500 45.38200 29.09400
H  42.07700 47.88400 32.36800
H  43.55000 47.42500 31.66900
H  42.63500 46.20600 32.59000
Mg -12.84200 38.16200 43.13600
C  -10.80400 35.39400 42.47200
C  -10.42900 40.17200 41.55600
C  -14.97400 40.69100 43.11400
C  -15.35700 35.86400 44.05300
N  -10.97200 37.77000 41.84700
C  -10.32000 36.60300 41.90600
C  -9.00000 36.67500 41.17600
C  -8.69700 38.24000 41.20400
C  -10.06600 38.76900 41.58100
C  -7.72100 38.62300 42.30700
C  -8.94000 36.12300 39.72700
C  -7.57500 35.54400 39.39400
H  -6.84500 36.09300 38.17800
N  -12.70900 40.18400 42.49300
C  -11.61300 40.79200 41.89300
C  -11.90100 42.12200 41.61000
C  -13.29700 42.27500 41.99300
C  -13.77200 41.04500 42.53000
C  -10.95000 43.08800 41.01700
C  -14.10300 43.57200 41.78300
O  -13.58600 44.59800 41.32500
C  -15.57000 43.77200 42.17900
N  -14.88700 38.27000 43.56200
C  -15.46200 39.47900 43.68500
C  -16.82600 39.27500 44.36900
C  -17.01700 37.73300 44.51300
C  -15.72100 37.21300 43.97600
C  -17.00300 40.01000 45.72300
C  -18.23200 37.16400 43.75400
C  -19.20100 36.20300 44.46900
N  -13.10200 36.11300 43.36300
C  -14.14200 35.31300 43.72200
C  -13.81100 33.90800 43.80000
C  -12.41700 33.92600 43.44800
C  -12.07800 35.24900 43.02700
C  -14.63200 32.67100 44.16600
C  -11.19600 33.12500 43.33600
O  -10.96900 31.95600 43.54700
C  -10.06700 34.10300 42.70700
C  -8.93200 34.18100 43.64000
O  -8.99700 34.70500 44.74900
O  -7.83400 33.61400 43.14600
C  -6.67700 33.90500 43.91600
H  -9.51100 40.67000 41.23600
H  -15.70300 41.44200 43.42700
H  -16.04100 35.13700 44.49600
H  -8.28600 36.10200 41.76800
H  -8.42700 38.75300 40.28200
H  -6.91500 37.90900 42.47700
H  -8.38200 38.64700 43.17300
H  -7.30600 39.57600 41.97900
H  -9.24300 36.86400 38.98700
H  -9.63300 35.31400 39.49700
H  -7.70700 34.46300 39.43000
H  -6.88900 35.84600 40.18600
H  -10.87900 42.86100 39.95300
H  -9.94300 43.04100 41.43200
H  -11.43200 44.04300 41.22300
H  -16.11000 42.90300 41.80300
H  -15.94000 44.72200 41.79300
H  -15.52000 43.87500 43.26300
H  -17.59600 39.56400 43.65300
H  -17.09200 37.45600 45.56500
H  -16.04500 40.35200 46.11500
H  -17.64700 39.36300 46.31900
H  -17.48500 40.97600 45.57700
H  -17.85200 36.56800 42.92500
H  -18.84600 37.92800 43.27600
H  -20.21500 36.56900 44.31300
H  -18.98500 36.22000 45.53800
H  -19.08700 35.16600 44.15100
H  -15.35700 32.57600 43.35800
H  -15.16800 32.77400 45.10900
H  -14.03200 31.76500 44.08700
H  -9.69700 33.73900 41.74800
H  -6.94400 33.81900 44.96900
H  -6.20600 34.85900 43.68000
H  -5.97500 33.07100 43.89700

