158

Mg 25.63300 0.05700 28.85600
C  27.37000 0.24100 31.83200
C  22.78300 0.28600 30.58600
C  24.09900 0.14600 25.81600
C  28.63900 -0.67000 27.29400
N  25.21100 0.24200 31.03400
C  26.02000 0.41200 32.02900
C  25.25700 0.66300 33.34200
C  23.78800 0.64000 32.91100
C  23.92400 0.36000 31.44100
C  22.92300 -0.42600 33.56300
C  25.69100 1.92900 34.13500
C  26.22500 1.71800 35.55200
H  25.39500 2.39700 36.64400
N  23.74600 0.15300 28.28900
C  22.70500 0.20000 29.17600
C  21.45300 0.21500 28.36400
C  21.84300 0.26300 26.99400
C  23.33200 0.20000 26.98200
C  20.09200 0.23800 29.01000
C  20.95400 0.47700 25.76500
O  21.36400 0.43600 24.62000
C  19.45100 0.87500 25.90400
N  26.31500 -0.13300 26.76300
C  25.47600 -0.06100 25.71200
C  26.24700 -0.02900 24.41800
C  27.64400 -0.49200 24.85400
C  27.54000 -0.49700 26.40000
C  25.53900 -0.95400 23.37800
C  28.80900 0.37800 24.31500
C  28.69500 1.87600 24.43200
N  27.54300 -0.29600 29.41000
C  28.68500 -0.63400 28.68500
C  29.82300 -0.87800 29.54600
C  29.30500 -0.49600 30.78700
C  27.95200 -0.11900 30.62600
C  31.07500 -1.48700 29.08400
C  29.75900 -0.42900 32.17600
O  30.83500 -0.73800 32.61100
C  28.44100 0.09700 32.90200
C  28.11900 -1.05400 33.83000
O  27.65100 -2.15000 33.44400
O  28.49700 -0.71500 35.06700
C  28.58900 -1.82700 36.07800
H  21.80400 0.53900 31.00000
H  23.70600 0.35300 24.81800
H  29.58300 -0.88400 26.78900
H  25.36500 -0.27400 33.88800
H  23.41700 1.65500 33.05400
H  23.01800 -0.25000 34.63500
H  23.27000 -1.44600 33.39800
H  21.84900 -0.43700 33.37700
H  24.94500 2.72400 34.13900
H  26.50100 2.40900 33.58600
H  27.22800 2.14100 35.61700
H  26.45100 0.67400 35.77300
H  19.60000 1.16000 28.70100
H  20.02800 0.20600 30.09700
H  19.50300 -0.60400 28.64600
H  18.96800 0.01700 26.37100
H  19.11500 1.16700 24.90900
H  19.36500 1.72100 26.58700
H  26.23300 0.98100 24.00800
H  27.86800 -1.54900 24.71500
H  25.25300 -1.84500 23.93700
H  26.18100 -1.33100 22.58100
H  24.71600 -0.48200 22.84100
H  28.91000 -0.02300 23.30700
H  29.59900 0.06200 24.99600
H  27.84200 2.28100 24.97600
H  28.76100 2.41800 23.48900
H  29.62400 2.18200 24.91300
H  31.82700 -1.38100 29.86600
H  31.45200 -1.01300 28.17800
H  30.76000 -2.52100 28.94200
H  28.59000 0.97700 33.52800
H  28.50400 -2.83900 35.68000
H  27.76900 -1.55800 36.74300
H  29.44400 -1.86100 36.75300
Mg -10.90600 38.62800 42.30100
C  -9.28800 35.50700 41.72400
C  -8.31500 40.20600 40.45600
C  -12.78700 41.48600 42.19000
C  -13.74700 36.87900 43.19700
N  -8.97400 37.93700 41.22900
C  -8.57100 36.62400 41.13400
C  -7.28300 36.50700 40.25500
C  -6.87000 38.02900 40.00300
C  -8.14500 38.76800 40.58000
C  -5.57900 38.47700 40.68700
C  -7.43900 35.63400 38.94600
C  -6.15100 34.88900 38.56000
H  -5.18800 35.53700 37.51000
N  -10.50400 40.60600 41.54400
C  -9.45000 41.01200 40.81700
C  -9.67400 42.33900 40.41800
C  -10.98900 42.74500 40.86100
C  -11.50000 41.62900 41.62200
C  -8.60900 43.07100 39.60800
C  -11.61100 44.09800 40.60100
O  -11.05200 44.85100 39.85000
C  -12.80700 44.57800 41.20500
N  -12.98900 39.15900 42.68700
C  -13.52900 40.36900 42.59300
C  -14.93000 40.35700 43.19700
C  -15.25700 38.81300 43.35400
C  -13.89800 38.20600 43.07300
C  -15.31700 41.16100 44.46700
C  -16.41600 38.24900 42.49200
C  -17.26800 37.25000 43.21800
N  -11.44200 36.61800 42.55200
C  -12.63300 36.08800 42.97400
C  -12.45600 34.63500 43.03900
C  -11.07200 34.35900 42.64300
C  -10.55900 35.60100 42.30400
C  -13.50800 33.70500 43.50200
C  -10.03400 33.35200 42.47400
O  -10.08600 32.15200 42.76900
C  -8.87300 34.04100 41.74200
C  -7.68800 33.64700 42.59800
O  -7.58300 33.94300 43.78300
O  -6.74800 32.93900 41.85900
C  -5.51200 32.65200 42.63200
H  -7.45900 40.66000 39.95300
H  -13.39500 42.38900 42.28300
H  -14.61800 36.25800 43.41700
H  -6.53400 36.07500 40.91900
H  -6.89100 38.21400 38.92900
H  -5.95300 39.07900 41.51500
H  -5.15400 39.20600 39.99700
H  -4.82400 37.71600 40.88500
H  -7.60900 36.46100 38.25700
H  -8.31800 34.98900 38.95300
H  -6.43600 33.96400 38.05800
H  -5.56900 34.58600 39.43000
H  -9.03400 43.60500 38.75900
H  -7.74300 42.54600 39.20600
H  -8.24800 43.78800 40.34600
H  -12.72800 44.26300 42.24600
H  -13.66500 44.17600 40.66800
H  -12.88400 45.66500 41.18100
H  -15.62600 40.69800 42.43000
H  -15.36800 38.59600 44.41700
H  -16.19400 41.76600 44.23900
H  -14.63100 41.99200 44.62600
H  -15.32000 40.57000 45.38300
H  -15.99800 37.74200 41.62300
H  -17.03400 39.03600 42.05900
H  -18.23900 37.73900 43.29700
H  -16.92500 36.93300 44.20300
H  -17.37700 36.33500 42.63600
H  -13.58200 33.88300 44.57500
H  -13.30100 32.64700 43.34400
H  -14.46900 33.94800 43.04900
H  -8.74800 33.64200 40.73500
H  -5.70000 32.51000 43.69600
H  -4.74500 33.41500 42.50300
H  -5.01900 31.80200 42.15900

