158

Mg 1.09600 6.84800 26.21600
C  1.32900 8.99900 29.08400
C  1.47300 4.17400 28.39400
C  0.78200 4.84400 23.61200
C  1.20100 9.70600 24.19500
N  1.39600 6.63200 28.49700
C  1.26400 7.61700 29.38500
C  1.31000 7.08300 30.82500
C  1.54600 5.55500 30.63300
C  1.53200 5.43200 29.07100
C  2.86100 5.01700 31.28100
C  -0.01200 7.38500 31.61200
C  -0.04900 7.46000 33.17000
H  1.25200 7.19800 33.92800
N  1.06400 4.79600 26.00800
C  1.28900 3.82200 27.02900
C  1.15700 2.50300 26.45700
C  0.89500 2.68500 25.08100
C  0.92200 4.15200 24.82400
C  1.29800 1.17500 27.22400
C  0.57300 1.61400 24.04900
O  0.34000 1.86300 22.88300
C  0.55500 0.12300 24.44100
N  1.02800 7.23400 24.21500
C  0.79600 6.23200 23.36300
C  0.62300 6.80900 21.89900
C  0.47200 8.35800 22.05100
C  0.89100 8.44500 23.60400
C  1.72500 6.31500 20.98700
C  -0.99100 8.82200 21.88200
C  -1.17300 10.00000 20.84200
N  1.32500 8.93600 26.47800
C  1.32700 9.93900 25.54000
C  1.57300 11.21500 26.18100
C  1.55700 10.86700 27.55000
C  1.43000 9.50200 27.71100
C  1.61200 12.61100 25.52600
C  1.56200 11.46700 28.92400
O  1.63700 12.67000 29.28500
C  1.38600 10.32500 29.86000
C  2.55300 10.32200 30.80900
O  3.68500 9.92000 30.68200
O  2.15900 11.04800 31.91200
C  3.16800 11.22500 32.98300
H  1.43400 3.35700 29.11700
H  0.64100 4.30000 22.67600
H  1.07300 10.55600 23.52100
H  2.14600 7.53000 31.36200
H  0.68100 5.05000 31.06300
H  3.44100 5.79300 31.78000
H  3.57500 4.42900 30.70400
H  2.42700 4.30700 31.98500
H  -0.77500 6.67200 31.30100
H  -0.35700 8.36000 31.26900
H  -0.68200 6.63500 33.49700
H  -0.33900 8.48600 33.40000
H  0.31100 0.72300 27.12700
H  1.39000 1.39500 28.28700
H  2.20800 0.67600 26.89000
H  -0.30900 -0.04800 25.08400
H  1.46000 -0.24100 24.92700
H  0.45600 -0.44100 23.51300
H  -0.34600 6.43100 21.57300
H  1.25200 8.89400 21.51000
H  2.53000 5.81200 21.52300
H  2.19100 7.13300 20.43900
H  1.28600 5.60300 20.28800
H  -1.41800 9.18900 22.81600
H  -1.64800 8.02500 21.53400
H  -0.15200 10.32400 20.64000
H  -1.68700 10.88200 21.22600
H  -1.76700 9.74200 19.96500
H  1.13400 13.27700 26.24500
H  0.93400 12.64300 24.67300
H  2.60900 13.01100 25.34200
H  0.42500 10.31000 30.37400
H  3.98500 11.89500 32.71600
H  3.62500 10.26000 33.20500
H  2.78100 11.63100 33.91800
Mg 7.71100 53.85700 40.03300
C  7.25500 50.46600 40.15400
C  11.00500 53.50600 39.05400
C  7.84900 57.17600 39.36500
C  4.12800 54.19900 40.68300
N  8.97200 52.14400 39.60500
C  8.54700 50.82000 39.65800
C  9.76000 49.88700 39.36700
C  10.98700 50.85000 39.37700
C  10.29600 52.26100 39.34600
C  12.04100 50.61800 40.42000
C  9.54300 49.13600 37.99900
C  9.36000 49.99100 36.71300
H  8.31400 49.50200 35.66900
N  9.26400 55.19000 39.33600
C  10.49000 54.83400 38.91100
C  11.18000 55.98700 38.58500
C  10.35100 57.10000 38.66700
C  9.11400 56.54200 39.15700
C  12.66400 55.84800 38.15800
C  10.71100 58.51500 38.20400
O  11.85000 58.72100 37.78300
C  9.77600 59.66300 38.30900
N  6.20100 55.45100 40.06400
C  6.59000 56.73900 39.84000
C  5.37200 57.73200 40.00400
C  4.25500 56.71400 40.50700
C  4.87600 55.36200 40.36100
C  5.57800 59.08900 40.78600
C  2.79400 56.91300 39.92600
C  1.62200 56.98100 40.98500
N  5.96300 52.58500 40.44600
C  4.64700 52.85900 40.68400
C  3.99700 51.54300 40.95900
C  5.00200 50.63100 40.80500
C  6.15000 51.25600 40.38300
C  2.58400 51.39600 41.53100
C  5.26000 49.21700 40.95600
O  4.57000 48.28300 41.33200
C  6.73000 49.03600 40.48600
C  6.64100 48.14000 39.30600
O  6.12000 48.31300 38.22700
O  7.19900 46.94900 39.62300
C  6.77900 45.77200 38.84000
H  12.07300 53.37200 38.86700
H  8.00900 58.25600 39.31800
H  3.12600 54.49600 40.99800
H  9.78600 49.14900 40.16800
H  11.50300 50.81700 38.41700
H  12.91800 50.40500 39.80800
H  11.76200 49.68400 40.90700
H  12.26100 51.40200 41.14400
H  8.83900 48.31100 38.10600
H  10.48600 48.59900 37.89100
H  10.33200 49.95300 36.22200
H  9.10100 51.03500 36.89200
H  12.68800 56.06000 37.08900
H  13.12600 54.91500 38.48100
H  13.12700 56.64300 38.74200
H  9.60200 59.82500 39.37200
H  8.88200 59.51400 37.70300
H  10.29500 60.49500 37.83300
H  5.05700 58.03800 39.00700
H  4.28000 56.79400 41.59300
H  4.76300 59.22800 41.49700
H  5.49100 59.93700 40.10600
H  6.50900 59.09000 41.35400
H  2.60200 56.08400 39.24400
H  2.75500 57.80400 39.29900
H  1.03200 57.85600 40.71600
H  1.99700 57.11200 42.00000
H  0.91600 56.15300 41.05000
H  2.17100 52.38800 41.71800
H  2.78500 50.94600 42.50300
H  1.94300 50.77600 40.90500
H  7.31700 48.55900 41.27100
H  6.69300 44.95700 39.55800
H  7.57900 45.37500 38.21500
H  5.88400 45.95000 38.24400

