158

Mg -2.31900 17.09100 25.67800
C  -2.93300 14.83400 28.26100
C  -2.63400 19.70400 27.87300
C  -2.18500 19.22900 23.07000
C  -2.02200 14.34900 23.53800
N  -2.91400 17.25100 27.80100
C  -2.91100 16.20500 28.68400
C  -3.05700 16.66800 30.11400
C  -3.15800 18.23700 29.93000
C  -2.88300 18.47500 28.47000
C  -4.47100 18.99600 30.33700
C  -1.77700 16.26800 30.96800
C  -1.44200 17.21100 32.16900
H  -1.09500 16.64800 33.58100
N  -2.48000 19.15700 25.48100
C  -2.47500 20.06700 26.50300
C  -2.65200 21.40500 25.94200
C  -2.50400 21.30700 24.59000
C  -2.31400 19.84600 24.31100
C  -2.87700 22.64000 26.76000
C  -2.60400 22.41100 23.55400
O  -2.43100 22.23000 22.31700
C  -2.73400 23.91600 24.00200
N  -2.20900 16.90200 23.60100
C  -2.13000 17.85900 22.66300
C  -2.18200 17.34200 21.23400
C  -1.69900 15.91100 21.43400
C  -1.98300 15.70200 22.97300
C  -3.57500 17.40700 20.50500
C  -0.29400 15.72900 20.93400
C  0.81700 16.25400 21.84500
N  -2.59300 14.97200 25.72700
C  -2.31500 13.95600 24.85700
C  -2.32400 12.63400 25.46300
C  -2.75900 12.98400 26.81600
C  -2.77600 14.35200 26.92300
C  -2.29400 11.32200 24.77900
C  -3.03400 12.41600 28.08200
O  -3.00600 11.21800 28.42400
C  -3.12500 13.60300 29.01900
C  -2.05800 13.30000 30.02000
O  -0.85700 13.58900 29.85100
O  -2.53600 12.63700 31.12200
C  -1.56600 12.13600 32.14600
H  -2.70000 20.45300 28.66500
H  -2.19600 19.94400 22.24500
H  -1.71400 13.42300 23.05000
H  -3.98700 16.40000 30.61500
H  -2.34800 18.78400 30.41300
H  -4.94900 19.60100 29.56600
H  -4.24800 19.70700 31.13300
H  -5.22600 18.26400 30.62200
H  -0.90500 16.00300 30.37000
H  -2.08800 15.35700 31.47900
H  -2.27600 17.88400 32.37100
H  -0.68700 17.85400 31.71800
H  -3.63900 23.26500 26.29500
H  -1.99000 23.23400 26.98000
H  -3.29000 22.27500 27.70100
H  -3.74300 23.94900 24.41400
H  -2.65600 24.47400 23.06900
H  -1.93000 24.19100 24.68400
H  -1.54800 18.04100 20.68900
H  -2.33800 15.19500 20.91700
H  -4.09700 18.26400 20.93000
H  -4.18900 16.51100 20.58900
H  -3.39000 17.79100 19.50200
H  -0.20700 16.11200 19.91700
H  -0.24900 14.65600 20.75300
H  1.65200 16.57200 21.22200
H  1.10000 15.40100 22.46200
H  0.53100 17.04600 22.53600
H  -3.25300 11.16100 24.28700
H  -2.26200 10.59300 25.58900
H  -1.42600 11.23500 24.12500
H  -4.03600 13.50800 29.60900
H  -1.15200 11.15300 31.92000
H  -1.93300 12.07800 33.17100
H  -0.64900 12.72400 32.13400
Mg 30.33100 58.26800 39.56000
C  27.76300 55.86700 38.78100
C  32.48900 55.49800 39.23900
C  32.83500 60.46100 39.43800
C  28.02400 60.70500 39.69100
N  30.09300 55.92000 38.99200
C  29.02500 55.14700 38.87300
C  29.23100 53.66500 38.83300
C  30.81000 53.63200 38.97200
C  31.17200 55.11900 39.12800
C  31.37600 52.80700 40.14200
C  28.77900 53.01400 37.48500
C  29.17900 53.70800 36.15400
H  28.13400 54.17500 35.12400
N  32.41700 58.06900 39.55700
C  33.08400 56.86900 39.31900
C  34.48900 57.15900 39.29400
C  34.68300 58.58100 39.44600
C  33.27300 59.09900 39.54400
C  35.64200 56.11900 39.05900
C  36.00300 59.27300 39.54300
O  37.02700 58.61600 39.50200
C  36.16700 60.72800 39.80200
N  30.46400 60.31200 39.49900
C  31.55600 61.08300 39.45300
C  31.22900 62.58300 39.44300
C  29.75900 62.59900 39.78500
C  29.35300 61.11500 39.64600
C  32.09700 63.41500 40.43100
C  28.89800 63.63600 38.92700
C  28.51800 64.95300 39.58200
N  28.26900 58.39700 39.31500
C  27.43400 59.45700 39.51200
C  26.01900 58.94600 39.48700
C  26.18800 57.58700 39.20900
C  27.54900 57.26500 38.97600
C  24.73800 59.70300 39.71800
C  25.45700 56.37700 38.90400
O  24.23800 56.13900 39.07100
C  26.41600 55.25300 38.59300
C  26.18600 54.19600 39.56600
O  26.68500 54.25200 40.68300
O  25.47600 53.11800 39.09700
C  25.66200 51.82900 39.63000
H  33.21300 54.68100 39.26600
H  33.68600 61.14100 39.36200
H  27.29100 61.48200 39.91800
H  28.78900 53.18000 39.70400
H  31.25100 53.21000 38.06800
H  30.58600 52.25800 40.65400
H  31.80400 53.54500 40.82100
H  32.10400 52.09600 39.75100
H  27.69200 52.96400 37.54600
H  29.18500 52.00300 37.44800
H  29.88800 53.05100 35.65000
H  29.72100 54.56300 36.56000
H  36.45600 56.44900 38.41300
H  35.22900 55.23500 38.57300
H  35.99100 55.78900 40.03700
H  35.50100 61.06600 40.59600
H  35.97900 61.10700 38.79700
H  37.18100 60.93400 40.14500
H  31.40400 62.90900 38.41800
H  29.55300 62.75900 40.84400
H  31.50300 64.04800 41.09000
H  32.64400 64.16800 39.86400
H  32.72100 62.84400 41.11900
H  27.98800 63.15100 38.57400
H  29.33200 63.80700 37.94200
H  27.43100 65.00400 39.64600
H  28.90500 65.70100 38.89000
H  28.91900 65.06900 40.58900
H  23.93100 59.13900 39.25000
H  24.87500 60.69900 39.29600
H  24.53300 59.71000 40.78900
H  26.24100 54.83700 37.60100
H  25.82700 51.04400 38.89300
H  24.80800 51.54400 40.24500
H  26.55700 51.83900 40.25200

