158

Mg 1.06600 -3.08600 44.18700
C  4.25000 -2.13900 43.30700
C  -0.23800 -0.65000 42.12600
C  -2.12300 -4.28200 44.77900
C  2.32200 -6.03800 45.60900
N  1.88400 -1.60900 42.78400
C  3.27800 -1.41300 42.60000
C  3.54000 -0.11100 41.65100
C  2.05200 0.33200 41.44400
C  1.14900 -0.66400 42.14000
C  1.70400 1.83700 41.72900
C  4.19300 -0.49900 40.25800
C  5.49800 0.31100 39.98100
H  5.91500 0.50200 38.51200
N  -0.95300 -2.51600 43.58700
C  -1.21900 -1.37800 42.87800
C  -2.66600 -1.26200 42.76500
C  -3.25100 -2.37100 43.38800
C  -2.08000 -3.08200 43.97900
C  -3.26100 -0.21600 41.85000
C  -4.76400 -2.62900 43.41000
O  -5.54800 -1.94000 42.85100
C  -5.25300 -3.77500 44.02300
N  0.22700 -5.09000 44.81600
C  -1.11600 -5.18600 45.23400
C  -1.39400 -6.48600 45.95900
C  0.05500 -7.13100 46.03500
C  0.97400 -5.96800 45.57100
C  -2.12300 -6.40200 47.33100
C  0.11200 -8.38600 45.25800
C  -0.59600 -9.62300 45.79600
N  2.87600 -3.85100 44.66100
C  3.26600 -5.11500 45.16400
C  4.71800 -5.13500 45.23000
C  5.06800 -3.99100 44.55400
C  3.93800 -3.28000 44.19900
C  5.56800 -6.15700 45.91700
C  6.24000 -3.28000 44.10800
O  7.43500 -3.57400 44.14000
C  5.76700 -2.01200 43.32300
C  6.27200 -0.70700 43.81900
O  6.84600 0.10200 43.11300
O  5.79500 -0.53300 45.07600
C  6.13700 0.81100 45.58300
H  -0.63600 0.17600 41.53200
H  -3.12000 -4.60000 45.09100
H  2.83300 -6.80100 46.20000
H  4.20800 0.57500 42.17300
H  1.85700 0.21500 40.37800
H  0.77700 1.81000 42.30000
H  1.51500 2.30900 40.76500
H  2.43900 2.35600 42.34500
H  3.51900 -0.49900 39.40200
H  4.44800 -1.53600 40.47300
H  6.28900 -0.36000 40.31600
H  5.48000 1.15100 40.67500
H  -4.24700 0.08100 42.20700
H  -3.33400 -0.33300 40.76900
H  -2.72100 0.71500 42.02600
H  -4.78800 -3.63200 44.99900
H  -4.89100 -4.69600 43.56600
H  -6.33700 -3.87200 44.07700
H  -2.06800 -7.05700 45.32000
H  0.31900 -7.28900 47.08100
H  -1.70600 -7.16500 47.98900
H  -3.15900 -6.63400 47.08500
H  -2.11800 -5.38200 47.71500
H  1.16800 -8.65800 45.27200
H  -0.27200 -8.21900 44.25100
H  -1.31900 -10.02600 45.08600
H  -1.15000 -9.51600 46.72800
H  0.21600 -10.33300 45.95400
H  5.30100 -6.40300 46.94500
H  6.58700 -5.77200 45.95800
H  5.71000 -7.01300 45.25800
H  6.13800 -2.19700 42.31500
H  5.89800 0.85700 46.64600
H  5.55000 1.56800 45.06300
H  7.20000 0.97200 45.40100
Mg 7.81400 3.44400 27.71800
C  9.20100 1.99000 30.60600
C  5.76500 5.32300 29.76300
C  5.97800 4.46700 25.05700
C  9.12900 0.76700 25.90100
N  7.46100 3.55300 29.89100
C  8.23300 2.95400 30.87400
C  7.94600 3.49200 32.26800
C  6.69500 4.34100 31.99000
C  6.57200 4.41300 30.43600
C  5.33800 3.84500 32.48200
C  9.17000 4.23900 32.91400
C  9.87600 3.87200 34.20000
H  9.98900 4.82700 35.37300
N  6.20000 4.85100 27.45900
C  5.61000 5.54100 28.40300
C  4.75300 6.58200 27.81800
C  4.75500 6.38200 26.43100
C  5.65700 5.14300 26.28900
C  3.99200 7.62500 28.63000
C  4.10500 7.11200 25.35100
O  4.31700 6.88700 24.15600
C  3.10800 8.19100 25.73100
N  7.47100 2.61500 25.80100
C  6.74900 3.31700 24.76700
C  6.96700 2.65200 23.39600
C  8.16100 1.66600 23.67400
C  8.14700 1.61500 25.25300
C  5.66200 2.00000 22.77300
C  9.61900 2.15100 23.13300
C  10.42800 1.01600 22.56000
N  9.14500 1.81900 28.04500
C  9.64200 0.89200 27.20300
C  10.55000 0.07400 27.91700
C  10.47200 0.52400 29.26100
C  9.56100 1.57700 29.28900
C  11.25300 -1.07800 27.39200
C  10.91400 0.24000 30.55900
O  11.65300 -0.63700 30.98400
C  10.02500 1.20600 31.61100
C  9.20100 0.25000 32.37900
O  8.22200 -0.38000 31.88500
O  9.68400 0.28800 33.67700
C  8.72400 -0.21500 34.66400
H  5.39100 6.04200 30.49400
H  5.47500 4.82900 24.15700
H  9.55500 0.02300 25.22600
H  7.60200 2.59300 32.78000
H  6.71100 5.37900 32.31900
H  4.72200 4.64500 32.89400
H  5.53000 3.12900 33.28100
H  4.77100 3.20300 31.80800
H  8.81600 5.26900 32.94300
H  9.93600 4.34400 32.14600
H  10.89100 3.55700 33.96000
H  9.28200 3.01700 34.52200
H  4.23500 8.66000 28.38900
H  4.14500 7.47400 29.69900
H  2.92600 7.54000 28.42200
H  2.23900 7.76400 26.23300
H  2.70100 8.65400 24.83200
H  3.53900 9.03400 26.27100
H  7.22100 3.52200 22.79000
H  7.91900 0.64300 23.38400
H  4.78500 2.04200 23.41900
H  5.80600 0.97500 22.43000
H  5.46700 2.62600 21.90300
H  10.07700 2.50200 24.05800
H  9.55300 2.97400 22.42100
H  9.77300 0.19500 22.26600
H  11.21500 0.73200 23.25800
H  10.82400 1.40900 21.62400
H  12.18700 -0.74300 26.94100
H  10.63100 -1.50000 26.60200
H  11.53100 -1.83200 28.12800
H  10.66600 1.79300 32.26800
H  9.32000 -0.78300 35.37900
H  7.87800 -0.77400 34.26500
H  8.31400 0.64800 35.18800

