158

Mg 0.42800 7.90300 25.42400
C  0.81200 9.83100 28.39100
C  0.68200 5.27600 27.31300
C  -0.04500 6.13400 22.63800
C  0.41900 10.90700 23.58100
N  0.93000 7.62400 27.60000
C  0.80400 8.49300 28.63000
C  0.91700 7.87700 29.95500
C  1.08600 6.36800 29.54200
C  0.86900 6.42200 28.01900
C  2.52500 5.80700 29.95000
C  -0.36800 8.07000 30.75400
C  -0.30600 7.95000 32.31400
H  1.05200 7.68700 32.98200
N  0.31800 5.92800 25.06100
C  0.41000 4.97800 25.98700
C  0.13000 3.64400 25.35700
C  -0.20200 3.89900 23.97900
C  0.10400 5.36200 23.83000
C  0.30300 2.29200 25.99200
C  -0.71300 2.95800 22.99600
O  -0.85400 3.31900 21.80800
C  -1.03000 1.50200 23.28800
N  0.36400 8.40400 23.39400
C  0.11200 7.48600 22.41000
C  0.09900 8.16400 20.98100
C  -0.15400 9.66700 21.40000
C  0.22300 9.72300 22.90200
C  1.32500 7.97500 20.13800
C  -1.59000 10.24900 21.17300
C  -1.74400 11.22600 20.02500
N  0.80200 9.90100 25.79400
C  0.59800 11.06900 24.97700
C  0.86400 12.26200 25.72900
C  0.98200 11.81200 27.05500
C  0.88500 10.41600 27.07500
C  0.98700 13.68800 25.27500
C  1.24800 12.16700 28.41200
O  1.61300 13.22600 28.80700
C  1.04200 10.92600 29.34800
C  2.35500 10.76400 30.01700
O  3.32100 10.16300 29.55300
O  2.36200 11.49300 31.19400
C  3.51100 11.25300 32.04000
H  0.85300 4.40800 27.95200
H  -0.30100 5.62600 21.70600
H  0.24900 11.82700 23.01700
H  1.74500 8.28200 30.53800
H  0.24500 5.81700 29.96400
H  3.17700 6.48400 30.50200
H  3.11000 5.52000 29.07600
H  2.36200 4.88300 30.50400
H  -1.17100 7.42700 30.39500
H  -0.71400 9.08800 30.57200
H  -1.00300 7.12700 32.47000
H  -0.73900 8.91300 32.58300
H  0.88300 2.41200 26.90700
H  0.91300 1.69800 25.31100
H  -0.63900 1.80500 26.24600
H  -1.86000 1.47800 23.99400
H  -0.15300 1.03600 23.73800
H  -1.35800 0.94500 22.41100
H  -0.74500 7.84000 20.37300
H  0.53500 10.30500 20.84700
H  1.27000 8.71300 19.33800
H  1.42600 6.97700 19.71200
H  2.17500 8.24400 20.76500
H  -2.05600 10.58400 22.09900
H  -2.21600 9.42100 20.83900
H  -1.37000 10.59900 19.21600
H  -0.98400 12.00300 20.10900
H  -2.77300 11.50500 19.79600
H  0.43100 14.40600 25.87800
H  0.97500 13.78800 24.19000
H  2.01700 13.94700 25.52000
H  0.17900 11.04700 30.00300
H  3.36900 11.64300 33.04800
H  4.28500 11.93100 31.68000
H  3.78300 10.19900 32.10100
Mg 30.12200 58.97000 40.89100
C  27.16300 57.36300 39.76000
C  31.79100 56.22300 39.88300
C  32.99000 60.85100 40.94300
C  28.13700 61.82600 41.49200
N  29.51000 57.09100 39.63700
C  28.24500 56.62300 39.43800
C  28.22600 55.20900 38.90800
C  29.64100 54.74600 39.39800
C  30.42600 56.09300 39.66900
C  29.56000 53.77400 40.68800
C  27.97400 55.14200 37.37500
C  26.69400 54.38200 36.96000
H  25.98900 54.83000 35.67500
N  32.16200 58.55500 40.57300
C  32.70300 57.31500 40.15400
C  34.06400 57.39200 40.23200
C  34.45300 58.67600 40.60800
C  33.17600 59.48300 40.65100
C  34.92500 56.20100 39.96700
C  35.87500 59.02700 40.97400
O  36.74100 58.18700 40.99400
C  36.23400 60.44700 41.40900
N  30.50900 60.97900 41.24300
C  31.75000 61.51100 41.20900
C  31.74100 62.98000 41.75800
C  30.24300 63.21400 42.09900
C  29.59400 61.91700 41.59400
C  32.82100 63.46300 42.80200
C  29.59800 64.53600 41.51600
C  28.46500 65.14400 42.35100
N  28.03800 59.53200 40.90400
C  27.40000 60.70000 41.12600
C  25.94400 60.59400 40.87000
C  25.83700 59.27400 40.35300
C  27.14000 58.70000 40.42500
C  24.88300 61.74300 41.05400
C  24.91800 58.23700 39.95000
O  23.69700 58.27100 39.82000
C  25.67100 56.86000 39.74100
C  25.16700 55.93600 40.85600
O  25.78400 55.57800 41.87300
O  23.91100 55.59900 40.50300
C  23.06700 55.00000 41.58000
H  32.18200 55.22800 39.66100
H  33.87100 61.46700 41.13600
H  27.46400 62.63100 41.79500
H  27.44200 54.62500 39.39000
H  30.26400 54.21800 38.67600
H  28.57100 53.52500 41.07300
H  30.17600 54.24300 41.45500
H  30.02400 52.86500 40.30600
H  28.91900 54.78000 36.96900
H  27.78500 56.16700 37.05800
H  26.02700 54.25600 37.81300
H  27.07700 53.38200 36.75600
H  35.56400 56.25800 39.08500
H  34.35200 55.28300 40.09500
H  35.70200 56.05200 40.71700
H  35.81200 61.08200 40.63100
H  37.30200 60.36900 41.20600
H  35.92800 60.67000 42.43100
H  31.99700 63.57100 40.87900
H  30.07900 63.23500 43.17600
H  32.14600 63.65300 43.63700
H  33.30000 64.37200 42.43800
H  33.50000 62.62700 42.97100
H  29.26200 64.29900 40.50600
H  30.49400 65.15400 41.47600
H  28.55000 66.22500 42.46300
H  28.41000 64.72800 43.35700
H  27.51500 64.97500 41.84400
H  25.07800 62.33400 41.94900
H  23.90400 61.26700 41.12400
H  24.92700 62.31300 40.12600
H  25.54400 56.40500 38.75900
H  23.39800 55.19500 42.60000
H  23.13200 53.91300 41.63500
H  22.05600 55.29700 41.30000

