158

Mg 40.53000 9.71500 28.88600
C  42.40300 10.80500 31.78000
C  38.38300 8.22400 30.89400
C  38.91200 8.74300 26.19000
C  43.24200 10.79800 26.86100
N  40.44400 9.38400 30.99600
C  41.23400 10.02300 31.97500
C  40.51300 10.00600 33.33800
C  39.47400 8.83500 33.13800
C  39.45700 8.70700 31.59900
C  39.91200 7.46000 33.85300
C  39.89100 11.29500 33.82000
C  39.83300 11.48200 35.37400
H  40.49800 12.64300 36.06500
N  38.87200 8.59700 28.58500
C  38.01800 8.10800 29.55500
C  36.87500 7.38800 28.96400
C  36.95700 7.58500 27.50300
C  38.29200 8.32900 27.39200
C  35.85400 6.53800 29.75500
C  36.10400 6.99300 26.32700
O  36.33100 7.25300 25.18300
C  34.82300 6.28300 26.63100
N  41.16300 9.60800 26.81400
C  40.23800 9.26700 25.91100
C  40.83600 9.23300 24.51800
C  42.26200 9.91200 24.67800
C  42.25300 10.13300 26.13100
C  40.77400 7.88500 23.78000
C  42.40900 11.17000 23.88100
C  41.40600 12.29800 24.09700
N  42.41700 10.74900 29.21500
C  43.36700 11.09800 28.25100
C  44.48900 11.76500 28.96500
C  44.09800 11.76400 30.33600
C  42.86400 11.06600 30.44600
C  45.85200 12.16300 28.40800
C  44.41200 12.14600 31.68500
O  45.44500 12.67200 32.06000
C  43.28200 11.53200 32.66900
C  43.91300 10.49700 33.56200
O  44.61800 9.57400 33.18300
O  43.41600 10.65400 34.78500
C  43.85800 9.79500 35.92000
H  37.51900 7.87500 31.46200
H  38.35300 8.52900 25.27700
H  44.04900 11.21200 26.25300
H  41.17300 9.62900 34.11900
H  38.45000 8.98700 33.48100
H  40.86600 7.45900 34.38100
H  40.13500 6.73000 33.07500
H  39.04300 7.14000 34.42700
H  38.89000 11.52100 33.45300
H  40.49500 12.10600 33.41400
H  40.17800 10.60800 35.92800
H  38.80700 11.73700 35.63700
H  36.17500 6.44500 30.79300
H  35.94000 5.53100 29.34700
H  34.84000 6.91100 29.60900
H  34.22000 6.14900 25.73200
H  34.27200 6.82500 27.39900
H  35.22300 5.31100 26.92200
H  40.07800 9.80500 23.98200
H  43.06200 9.18400 24.55000
H  41.64200 7.25000 23.95800
H  40.69800 8.13400 22.72200
H  39.86200 7.32200 23.98000
H  42.34500 10.95200 22.81500
H  43.39400 11.57500 24.10900
H  40.66400 12.06300 24.85900
H  40.92700 12.42300 23.12600
H  41.84300 13.25800 24.37200
H  46.14000 11.70600 27.46100
H  46.52800 11.95500 29.23800
H  45.95500 13.24800 28.43800
H  43.04000 12.39300 33.29200
H  44.57900 9.11700 35.46200
H  42.94500 9.55500 36.46500
H  44.35900 10.55800 36.51600
Mg 48.74200 44.80900 43.89100
C  45.21900 45.33700 42.94300
C  48.54100 41.72100 42.27300
C  52.02900 44.83600 43.73100
C  48.71700 48.33800 44.53000
N  47.01200 43.61800 42.91900
C  45.75300 44.01200 42.64600
C  44.98200 42.84900 41.89400
C  46.00200 41.67400 41.90600
C  47.29000 42.39600 42.39100
C  45.62200 40.41300 42.76000
C  44.49000 43.24300 40.43900
C  45.58000 43.60500 39.42900
H  45.74400 42.71400 38.13800
N  50.03500 43.33300 43.42700
C  49.82400 42.10000 42.79300
C  51.06100 41.35500 42.74800
C  52.07300 42.27500 43.14600
C  51.42300 43.55700 43.46700
C  51.06100 39.99200 42.24600
C  53.63500 41.95100 43.26500
O  54.11500 40.81200 43.13700
C  54.73900 43.02000 43.59700
N  50.22300 46.43700 43.92000
C  51.51000 46.10500 43.95900
C  52.36600 47.37900 44.21900
C  51.36300 48.47500 44.56400
C  49.97200 47.77600 44.25100
C  53.52700 47.15800 45.25900
C  51.46800 49.79300 43.62700
C  52.17700 51.01500 44.38700
N  47.22900 46.49000 44.10000
C  47.45400 47.85300 44.29300
C  46.21800 48.59100 44.14900
C  45.33300 47.60400 43.66100
C  45.99200 46.39000 43.54600
C  46.01600 50.07900 44.38600
C  43.95700 47.39700 43.18800
O  42.99000 48.13100 43.07200
C  43.86300 45.93100 42.64900
C  42.61400 45.26500 43.21500
O  41.63200 45.04600 42.50100
O  42.73100 44.94200 44.51300
C  41.45400 44.33700 45.06000
H  48.43800 40.77500 41.73800
H  53.11100 44.94600 43.63400
H  48.90000 49.30700 44.99800
H  44.09700 42.58200 42.47100
H  46.10800 41.22500 40.91800
H  46.47700 40.12800 43.37400
H  45.52200 39.53100 42.12800
H  44.66500 40.53900 43.26700
H  43.88500 44.12300 40.65600
H  43.79800 42.50600 40.03300
H  46.57500 43.55200 39.87200
H  45.33100 44.63600 39.17500
H  51.78300 39.99200 41.42900
H  50.15600 39.54000 41.84200
H  51.51100 39.25400 42.91100
H  55.73400 42.57900 43.53100
H  54.55200 43.51100 44.55200
H  54.79800 43.79700 42.83500
H  52.89400 47.53800 43.27900
H  51.42300 48.67300 45.63400
H  53.37500 46.32900 45.95000
H  53.92400 47.97400 45.86400
H  54.37000 46.82400 44.65300
H  50.47500 50.20600 43.45000
H  51.88700 49.46000 42.67800
H  53.07100 51.09700 43.76900
H  52.53800 50.77200 45.38600
H  51.55200 51.90800 44.38800
H  46.65000 50.65000 43.70900
H  46.13400 50.45200 45.40400
H  44.95600 50.27100 44.22200
H  43.71900 45.94000 41.56800
H  41.34600 43.29300 44.76600
H  40.51100 44.83400 44.82900
H  41.45800 44.41100 46.14700

