158

Mg 47.13900 34.47900 28.18000
C  45.63000 32.62200 30.79300
C  47.49600 37.19200 30.28700
C  48.14800 36.28600 25.48000
C  46.42200 31.84000 26.00300
N  46.63100 34.84300 30.30200
C  46.16300 33.86100 31.20300
C  46.34700 34.46800 32.64200
C  46.53300 36.04200 32.37600
C  46.97400 36.05200 30.94100
C  45.30800 36.99900 32.63000
C  47.56500 33.89400 33.36900
C  47.50900 33.57500 34.82000
H  46.51900 34.36700 35.71200
N  47.85800 36.39200 27.91300
C  47.95300 37.35600 28.94800
C  48.58200 38.52700 28.39400
C  48.73300 38.33900 26.96700
C  48.22200 37.01600 26.71100
C  48.97800 39.75400 29.26100
C  49.21800 39.30100 25.91800
O  49.34500 38.92600 24.77400
C  49.51300 40.74400 26.23900
N  47.13900 34.14700 26.03700
C  47.66600 35.01900 25.18400
C  47.89100 34.45400 23.77100
C  47.14300 33.12600 23.83000
C  46.92800 33.01500 25.39600
C  47.51500 35.29400 22.55600
C  48.00100 31.97100 23.22700
C  47.21600 30.96900 22.50400
N  46.29900 32.61900 28.32700
C  46.06300 31.67400 27.34400
C  45.54000 30.44700 27.91600
C  45.41100 30.82000 29.26000
C  45.84600 32.07200 29.46300
C  45.03200 29.11500 27.26600
C  44.90100 30.30300 30.53900
O  44.54200 29.19600 30.81200
C  44.82800 31.56200 31.49500
C  45.31800 31.09800 32.85500
O  46.35600 30.49400 33.03000
O  44.32200 31.34500 33.73300
C  44.39900 30.45900 34.89800
H  47.65900 38.02900 30.96900
H  48.50600 36.77800 24.57300
H  46.29900 31.00600 25.30800
H  45.39800 34.43000 33.17700
H  47.27200 36.38000 33.10200
H  45.64500 37.67000 33.42000
H  44.37900 36.47200 32.84900
H  45.10300 37.54000 31.70700
H  48.46100 34.46000 33.11500
H  47.62400 32.92100 32.88100
H  48.51900 33.80100 35.16300
H  47.35000 32.49900 34.88300
H  49.98400 40.10500 29.03200
H  48.97900 39.56300 30.33400
H  48.23100 40.51100 29.02500
H  49.57600 41.49900 25.45500
H  50.52100 40.71800 26.65300
H  48.79300 41.16200 26.94300
H  48.97100 34.33200 23.69600
H  46.14400 33.29800 23.42900
H  47.12200 36.21200 22.99200
H  46.73600 34.87800 21.91700
H  48.33700 35.55800 21.89000
H  48.50600 31.56300 24.10300
H  48.79400 32.29500 22.55300
H  47.31900 31.13900 21.43300
H  46.16200 31.05400 22.77000
H  47.54000 29.95100 22.72000
H  45.95200 28.62100 26.95500
H  44.40100 29.33800 26.40600
H  44.52900 28.62200 28.09800
H  43.81400 31.94100 31.62400
H  44.69900 29.43200 34.68900
H  43.34900 30.49600 35.18800
H  45.13600 30.90300 35.56700
Mg -0.41400 43.23400 25.24200
C  1.95900 42.81600 27.93500
C  -2.90200 42.11900 27.31100
C  -2.29900 43.08600 22.59700
C  2.47100 43.78500 23.22500
N  -0.41900 42.69500 27.30700
C  0.60300 42.66300 28.26300
C  0.08800 42.47900 29.72000
C  -1.38200 42.09300 29.46300
C  -1.60900 42.26300 27.89600
C  -1.96800 40.66800 29.93600
C  0.46900 43.68600 30.66600
C  0.59100 43.50600 32.19600
H  0.36800 42.03800 32.77800
N  -2.44900 42.84600 24.99700
C  -3.31600 42.32300 25.94200
C  -4.57900 42.04100 25.36000
C  -4.44000 42.29300 23.92900
C  -3.02700 42.73500 23.76600
C  -5.76100 41.66300 26.17100
C  -5.44200 42.23200 22.82700
O  -5.19600 42.62500 21.67200
C  -6.85000 41.75500 23.00900
N  0.08800 43.53100 23.25000
C  -0.90000 43.31400 22.34600
C  -0.40300 43.77000 20.89600
C  1.07600 44.03900 21.14300
C  1.27100 43.72900 22.60600
C  -0.73900 42.83800 19.75100
C  1.49900 45.41600 20.68200
C  1.04300 46.58600 21.56200
N  1.78800 43.20100 25.45300
C  2.80300 43.52700 24.54700
C  4.12500 43.37000 25.09800
C  3.87100 43.12500 26.44400
C  2.43000 43.07400 26.62000
C  5.46000 43.54600 24.48800
C  4.50200 42.91600 27.74500
O  5.69400 42.85200 28.05800
C  3.24500 42.85600 28.80800
C  3.42600 41.61000 29.62600
O  2.88700 40.49100 29.53300
O  4.34000 41.85300 30.58300
C  4.47100 40.81300 31.60600
H  -3.78100 41.84900 27.90100
H  -2.83400 43.14900 21.64700
H  3.32800 43.97600 22.57600
H  0.65900 41.65900 30.15600
H  -1.96500 42.83700 30.00400
H  -1.23000 40.13000 30.53100
H  -2.24600 40.03600 29.09200
H  -2.75300 40.89600 30.65700
H  -0.16900 44.52600 30.39400
H  1.47200 43.96000 30.33700
H  -0.21800 44.14400 32.55300
H  1.57900 43.68300 32.62100
H  -6.24900 40.78400 25.75000
H  -6.40100 42.50900 26.42400
H  -5.40700 41.19700 27.09100
H  -7.17200 41.50700 21.99800
H  -7.33000 42.63400 23.44100
H  -6.90400 40.89800 23.68000
H  -0.90200 44.71500 20.68300
H  1.69200 43.32200 20.60100
H  -1.64100 43.24800 19.29500
H  -0.89700 41.85900 20.20300
H  0.06000 42.97800 19.02300
H  1.04000 45.44900 19.69400
H  2.58500 45.47800 20.62200
H  0.57500 46.27100 22.49400
H  0.32700 47.24700 21.07300
H  1.91300 47.23100 21.68600
H  5.72700 44.53400 24.11400
H  5.56300 42.94100 23.58700
H  6.20100 43.14900 25.18300
H  3.26900 43.70700 29.48800
H  4.95600 39.95100 31.14800
H  3.45900 40.50200 31.86400
H  4.97900 41.05700 32.53900

