158

Mg 53.24900 23.72300 44.39100
C  50.49200 25.70300 43.44800
C  51.33600 20.98000 43.07200
C  56.03900 21.83200 44.30700
C  54.92600 26.52600 45.14600
N  51.24200 23.42300 43.09000
C  50.30500 24.41100 42.90700
C  49.01100 23.84100 42.18900
C  49.14200 22.36900 42.45100
C  50.64800 22.20900 42.83800
C  48.20200 21.86700 43.51700
C  49.08800 24.31500 40.67200
C  47.74800 24.66000 39.98500
H  47.12900 23.72400 38.92200
N  53.62800 21.62700 43.91800
C  52.69200 20.69000 43.45100
C  53.31400 19.42500 43.44800
C  54.69100 19.58300 43.80200
C  54.84500 21.03300 44.07800
C  52.66700 18.18200 43.14700
C  55.70600 18.46200 43.93400
O  55.37000 17.36500 43.50700
C  57.13000 18.73600 44.39300
N  55.26600 24.16600 44.45700
C  56.25300 23.20400 44.52400
C  57.58400 23.82400 44.96800
C  57.22200 25.34500 45.30500
C  55.72100 25.38200 44.96200
C  58.42100 23.12900 46.04600
C  57.98000 26.35500 44.47500
C  58.40100 27.64000 45.19300
N  52.84500 25.66500 44.38400
C  53.60900 26.74000 44.81600
C  52.80200 27.92200 44.95400
C  51.57000 27.58600 44.44800
C  51.65700 26.17100 44.06900
C  53.16700 29.28700 45.41700
C  50.21300 28.09500 44.19000
O  49.72500 29.20400 44.31800
C  49.42200 26.79800 43.64700
C  48.84600 27.28200 42.37900
O  49.45900 27.60500 41.35800
O  47.50500 27.51500 42.49200
C  46.80000 28.29600 41.43400
H  50.68800 20.11400 42.92100
H  57.00100 21.31600 44.32700
H  55.41800 27.40500 45.56800
H  48.13400 24.27300 42.67100
H  48.96800 21.92500 41.47100
H  47.35900 21.35500 43.05400
H  47.85500 22.67500 44.16200
H  48.70900 21.06900 44.05800
H  49.51700 23.57300 39.99800
H  49.72500 25.18700 40.52100
H  47.96700 25.55400 39.40200
H  47.02600 24.94700 40.74900
H  52.44000 17.56400 44.01600
H  53.27700 17.64300 42.42300
H  51.72900 18.37200 42.62500
H  57.68000 19.25800 43.60900
H  57.54000 17.73100 44.49100
H  57.13500 19.19900 45.38000
H  58.18100 23.89500 44.06000
H  57.43300 25.57800 46.34900
H  58.04500 22.12000 46.21800
H  58.38300 23.66200 46.99700
H  59.42600 22.96300 45.66000
H  57.31900 26.70000 43.68000
H  58.82900 25.86800 43.99600
H  59.47300 27.79900 45.07800
H  58.26000 27.69400 46.27300
H  57.88400 28.51200 44.79100
H  54.23400 29.45400 45.27500
H  52.92200 29.40400 46.47200
H  52.57900 30.05000 44.90500
H  48.62700 26.46700 44.31500
H  46.07500 28.86900 42.01200
H  46.28000 27.72300 40.66700
H  47.45200 29.06100 41.01200
Mg 47.39200 44.96200 43.28800
C  43.90800 44.30500 43.47200
C  47.91900 41.70500 42.78100
C  50.62200 45.71600 42.94100
C  46.50900 48.36500 43.01300
N  46.03800 43.14300 43.26000
C  44.66300 43.08900 43.37300
C  44.16200 41.59400 43.21100
C  45.60300 40.81900 43.25100
C  46.61700 41.96300 43.10700
C  45.88700 39.88700 44.52600
C  43.30400 41.17200 41.95100
C  43.64000 41.99400 40.69200
H  43.11700 41.47600 39.31200
N  49.07900 43.84700 42.97300
C  49.07800 42.47800 42.85900
C  50.47000 41.94700 42.71000
C  51.30100 43.13300 42.83300
C  50.38800 44.33000 43.00000
C  50.76500 40.37300 42.66800
C  52.77900 43.17100 42.77800
O  53.40300 42.12100 42.57000
C  53.59700 44.35900 43.01300
N  48.40800 46.70900 42.97900
C  49.76800 46.81500 43.03100
C  50.20400 48.31500 43.03900
C  48.90900 49.13600 42.80300
C  47.87300 48.02100 42.87300
C  51.01600 48.67500 44.28600
C  48.67700 49.87200 41.38700
C  48.40700 51.36800 41.60200
N  45.62600 46.18200 43.20800
C  45.42900 47.55200 43.09500
C  44.02200 47.86200 43.07300
C  43.41700 46.62700 43.27400
C  44.39000 45.64800 43.33900
C  43.35400 49.18900 42.81500
C  42.09400 45.99300 43.49200
O  40.96400 46.43300 43.56800
C  42.41300 44.42300 43.55600
C  41.96800 44.04500 44.87900
O  42.47100 44.40000 45.90100
O  41.01700 42.97800 44.80200
C  40.70000 42.38400 46.11000
H  48.08200 40.64000 42.60300
H  51.63300 46.12300 42.88600
H  46.27700 49.43100 42.99500
H  43.67000 41.42500 44.16900
H  45.73000 40.13000 42.41600
H  44.90500 39.82600 44.99500
H  46.62700 40.38800 45.15000
H  46.25400 38.88700 44.29400
H  42.24600 41.29300 42.18300
H  43.41000 40.09400 41.82300
H  44.71900 42.14400 40.66300
H  43.13800 42.95100 40.83300
H  51.80100 40.12900 42.90500
H  50.74400 39.87200 41.70000
H  50.00600 39.90600 43.29500
H  53.33900 45.28500 42.49900
H  54.61800 44.07500 42.75900
H  53.66200 44.50300 44.09100
H  50.91900 48.43100 42.22500
H  48.72800 49.74900 43.68600
H  51.62500 49.54300 44.03000
H  51.69900 47.89300 44.61800
H  50.34600 48.94300 45.10300
H  47.89400 49.37200 40.81700
H  49.61100 49.76800 40.83400
H  49.18000 51.93400 41.08200
H  48.35100 51.66800 42.64800
H  47.38500 51.48200 41.24300
H  42.36500 49.13400 43.27000
H  43.22200 49.35000 41.74500
H  43.91300 50.05600 43.16800
H  41.94100 43.91500 42.71500
H  41.56200 42.13700 46.73100
H  40.24100 41.43100 45.84700
H  40.03800 42.95300 46.76200

