158

Mg 40.56700 9.05400 30.51000
C  42.50100 10.36900 32.97200
C  38.36200 7.84300 32.99800
C  38.68900 7.60400 28.16100
C  43.12100 9.48300 28.20800
N  40.48300 9.03100 32.78200
C  41.30000 9.82400 33.52000
C  40.87300 9.90400 34.96600
C  39.59200 8.92200 34.96300
C  39.43300 8.56900 33.50900
C  39.74700 7.64800 35.93200
C  40.74700 11.30800 35.56300
C  39.94300 11.49000 36.86400
H  40.60100 12.11300 38.08400
N  38.76800 8.00000 30.57300
C  38.07900 7.56000 31.69300
C  36.82700 6.99400 31.23400
C  36.82900 6.95800 29.84500
C  38.18400 7.52100 29.45200
C  35.76600 6.46800 32.15000
C  35.82000 6.41800 28.87900
O  36.00900 6.40800 27.65500
C  34.58200 5.76900 29.34400
N  40.93400 8.42600 28.47600
C  39.94200 8.07400 27.70200
C  40.34900 7.93100 26.25000
C  41.80500 8.55200 26.19800
C  42.01200 8.78700 27.71400
C  40.21500 6.48300 25.72700
C  42.04000 9.82600 25.35900
C  43.19200 9.69800 24.38700
N  42.42100 9.72200 30.49100
C  43.34300 9.96200 29.47700
C  44.43800 10.66600 29.98700
C  44.14300 10.88100 31.31700
C  42.90300 10.26000 31.59500
C  45.54900 11.23500 29.19300
C  44.67600 11.38000 32.52600
O  45.75200 11.90000 32.78700
C  43.60500 11.18600 33.61300
C  44.17600 10.58200 34.86300
O  44.27300 9.35400 35.21100
O  44.58800 11.53400 35.76500
C  45.04900 11.24700 37.10600
H  37.71600 7.54400 33.82600
H  38.06000 7.20500 27.36300
H  43.88900 9.62600 27.44500
H  41.69900 9.41700 35.48500
H  38.69600 9.42200 35.33000
H  40.70500 7.52900 36.43800
H  39.68600 6.75600 35.30800
H  38.89700 7.63400 36.61500
H  40.32400 11.90900 34.75800
H  41.72900 11.68900 35.84000
H  39.78100 10.45400 37.16500
H  39.03400 12.06100 36.67200
H  35.70900 5.41100 31.89000
H  34.82500 6.99200 31.98200
H  36.05300 6.44500 33.20100
H  33.89000 5.59100 28.52100
H  33.99500 6.39000 30.02200
H  34.75900 4.76300 29.72400
H  39.79400 8.66300 25.66300
H  42.63000 7.85000 26.08000
H  40.10000 5.69800 26.47500
H  41.02300 6.10600 25.10000
H  39.40300 6.35700 25.01100
H  42.27400 10.58600 26.10400
H  41.13900 10.21000 24.88000
H  44.09700 10.14000 24.80300
H  42.98700 10.17900 23.43000
H  43.52300 8.67700 24.19600
H  45.82000 10.52600 28.41000
H  46.41500 11.25200 29.85400
H  45.31000 12.20100 28.74800
H  43.29700 12.17400 33.95400
H  44.18900 10.92200 37.69200
H  45.53300 12.14600 37.48900
H  45.80300 10.46500 37.19700
Mg -5.07000 25.30700 25.93000
C  -3.94100 26.79500 28.91500
C  -7.09800 23.22900 27.83800
C  -5.71000 23.70800 23.16100
C  -2.66000 27.24600 24.24600
N  -5.44000 25.00000 28.18600
C  -4.97300 25.83100 29.21000
C  -5.66000 25.39500 30.51800
C  -6.32900 24.02700 30.15900
C  -6.28800 24.04900 28.67500
C  -5.66100 22.79600 30.70400
C  -6.73600 26.38600 31.14000
C  -6.83300 26.40900 32.67700
H  -6.18800 25.32800 33.52500
N  -6.23600 23.62800 25.60600
C  -7.07600 22.98900 26.47100
C  -7.76400 21.96900 25.77700
C  -7.34000 22.01900 24.39100
C  -6.36100 23.11500 24.35500
C  -8.76800 21.11500 26.46200
C  -7.78000 21.13900 23.18200
O  -7.31700 21.42800 22.08900
C  -8.82200 20.06900 23.34600
N  -4.54300 25.70300 23.98100
C  -4.85500 24.79400 23.06000
C  -4.12100 25.00600 21.67800
C  -3.40300 26.29500 21.95900
C  -3.47700 26.40900 23.45000
C  -3.27900 23.78700 21.25100
C  -3.86300 27.59500 21.18100
C  -2.80200 28.09500 20.15700
N  -3.65100 26.82500 26.42900
C  -2.74800 27.49300 25.61000
C  -1.97100 28.47500 26.45300
C  -2.45700 28.24000 27.73400
C  -3.42000 27.24700 27.68200
C  -1.04200 29.56900 26.04800
C  -2.43300 28.64500 29.05400
O  -1.79000 29.65800 29.52000
C  -3.40500 27.75700 29.90600
C  -2.48800 27.06400 30.84900
O  -1.64900 26.21100 30.63900
O  -2.83300 27.50400 32.08200
C  -2.25600 26.83600 33.26000
H  -7.79400 22.55100 28.33700
H  -5.81700 23.13700 22.23600
H  -1.96600 27.87100 23.68000
H  -4.96000 25.29300 31.34600
H  -7.35000 23.94700 30.53100
H  -5.04300 22.24500 29.99500
H  -6.44700 22.11400 31.02700
H  -5.07000 22.99300 31.59900
H  -7.72600 26.17700 30.73400
H  -6.54900 27.37200 30.71400
H  -7.89600 26.37800 32.91600
H  -6.52000 27.41200 32.96600
H  -9.01200 21.28000 27.51200
H  -8.58000 20.04200 26.41700
H  -9.62300 21.23300 25.79700
H  -8.87900 19.34500 22.53200
H  -9.82700 20.46100 23.50100
H  -8.47900 19.45900 24.18200
H  -5.02500 25.02600 21.06900
H  -2.34700 26.13000 21.74400
H  -2.25500 23.98800 20.93700
H  -3.87400 23.21200 20.54200
H  -3.09200 23.13700 22.10600
H  -3.91400 28.37400 21.94100
H  -4.89900 27.46900 20.86600
H  -3.28400 28.30000 19.20100
H  -2.04400 27.35600 19.89700
H  -2.35300 29.03800 20.46800
H  -0.81500 29.46200 24.98800
H  -0.19200 29.60700 26.73000
H  -1.49600 30.56000 26.06800
H  -4.26500 28.25600 30.35300
H  -1.43800 27.51700 33.49700
H  -1.78000 25.85800 33.18900
H  -2.98000 26.82700 34.07400

