158

Mg 9.68900 48.09100 25.51800
C  7.89800 48.22800 28.57800
C  12.48500 49.29000 27.23900
C  11.40300 47.73500 22.74500
C  6.70000 47.08200 23.82200
N  10.01900 48.91200 27.62500
C  9.24000 48.69000 28.71000
C  9.96700 49.18100 29.98300
C  11.23300 49.92900 29.45700
C  11.29200 49.26200 28.01900
C  11.16400 51.49500 29.35100
C  10.32000 48.00400 30.97400
C  9.76000 48.13800 32.40000
H  10.14700 46.91100 33.34000
N  11.70100 48.44600 25.03800
C  12.69500 48.83200 25.90800
C  13.98200 48.84900 25.26700
C  13.65300 48.47800 23.89400
C  12.16500 48.15600 23.77700
C  15.31700 49.12300 25.83800
C  14.57900 48.29400 22.76300
O  14.26200 47.96100 21.63800
C  16.00100 48.83100 22.90400
N  9.11400 47.56800 23.55300
C  10.03200 47.48300 22.54000
C  9.40200 46.89300 21.27600
C  7.96600 46.50000 21.71900
C  7.91300 47.02500 23.14000
C  9.44700 47.75400 20.05100
C  7.62700 44.93500 21.54300
C  8.31500 44.04200 22.52100
N  7.68700 47.85500 25.98700
C  6.57300 47.48200 25.18600
C  5.42000 47.27100 26.09200
C  5.91800 47.55700 27.40800
C  7.28400 47.96500 27.29200
C  4.10900 46.79800 25.69800
C  5.60900 47.51000 28.85500
O  4.54600 47.13400 29.44500
C  6.85800 47.98400 29.60600
C  7.18500 46.77100 30.44300
O  7.83400 45.79400 30.05800
O  6.58100 46.92900 31.65300
C  6.77900 45.82000 32.53400
H  13.30400 49.80200 27.74900
H  11.95100 47.51500 21.82600
H  5.78500 46.73300 23.33900
H  9.32900 49.90700 30.48700
H  12.08500 49.69300 30.09400
H  12.20300 51.82400 29.38600
H  10.58500 51.98200 30.13600
H  10.70200 51.78300 28.40700
H  11.38300 47.84200 31.15200
H  9.84600 47.08400 30.63200
H  8.67200 48.12200 32.46400
H  10.27600 48.96300 32.89000
H  16.01800 48.30100 25.69400
H  15.24100 49.44700 26.87600
H  15.69000 49.98600 25.28600
H  16.07900 49.91500 22.98900
H  16.54000 48.53300 22.00500
H  16.55300 48.40600 23.74200
H  10.02700 46.00300 21.20500
H  7.17100 47.04100 21.20500
H  9.19500 48.74700 20.42300
H  8.86200 47.37700 19.21200
H  10.47500 47.77600 19.69000
H  7.99400 44.72400 20.53800
H  6.54100 44.88000 21.60800
H  9.32700 44.36800 22.76100
H  8.49800 43.13300 21.94700
H  7.71400 43.90800 23.42100
H  3.89300 47.16300 24.69300
H  3.45000 47.29900 26.40800
H  4.03500 45.71600 25.80100
H  6.62300 48.91400 30.12400
H  7.83700 45.57200 32.44600
H  6.13400 44.97000 32.30900
H  6.63200 46.18500 33.55000
Mg -5.15900 25.23100 26.87500
C  -4.15300 26.88000 29.87900
C  -7.05900 23.06300 28.89900
C  -5.58100 23.32600 24.11600
C  -2.92400 27.24800 25.19200
N  -5.64700 25.14400 29.08500
C  -5.07900 25.83200 30.13200
C  -5.54300 25.38300 31.53600
C  -6.24900 24.03200 31.16800
C  -6.44900 24.11600 29.63600
C  -5.44700 22.75200 31.55800
C  -6.51200 26.33800 32.17600
C  -6.55500 26.32500 33.71400
H  -5.84500 25.17700 34.53700
N  -6.31300 23.68800 26.59400
C  -7.06200 22.93600 27.45900
C  -7.98500 22.07500 26.66000
C  -7.52500 22.08300 25.32300
C  -6.30900 22.96900 25.32300
C  -9.15500 21.29100 27.26200
C  -8.17200 21.46700 24.09300
O  -7.72200 21.57200 22.91700
C  -9.44400 20.58500 24.18100
N  -4.36900 25.28500 24.95300
C  -4.63700 24.34200 23.99100
C  -4.08800 24.80500 22.60400
C  -3.39000 26.15100 22.94300
C  -3.62000 26.28700 24.42600
C  -3.14800 23.75100 21.98500
C  -3.75400 27.38800 22.02200
C  -2.79600 27.61100 20.77700
N  -3.83300 26.77900 27.37200
C  -3.06600 27.56400 26.54700
C  -2.45000 28.63000 27.31800
C  -2.82800 28.40600 28.67800
C  -3.62200 27.27900 28.65900
C  -1.65200 29.70500 26.78300
C  -2.71100 28.80700 30.10100
O  -2.07900 29.74300 30.58900
C  -3.52000 27.77900 30.89600
C  -2.53000 27.03500 31.71100
O  -1.62400 26.29500 31.34500
O  -2.72000 27.40900 33.01300
C  -1.89000 26.74300 33.95100
H  -7.69700 22.37700 29.46000
H  -5.73700 22.70400 23.23200
H  -2.32900 28.05200 24.75400
H  -4.70900 25.10400 32.18000
H  -7.25400 23.86700 31.55800
H  -5.97900 22.17800 32.31700
H  -4.43000 23.08800 31.76100
H  -5.39300 22.05100 30.72500
H  -7.46200 25.91900 31.84200
H  -6.35600 27.30300 31.69200
H  -7.56200 26.28600 34.12800
H  -6.23000 27.25900 34.17300
H  -8.99600 20.21300 27.26600
H  -10.07200 21.33400 26.67400
H  -9.32000 21.65900 28.27500
H  -9.51100 19.85700 24.99000
H  -9.52400 19.96400 23.28900
H  -10.33800 21.19600 24.30200
H  -4.98000 25.01200 22.01200
H  -2.30500 26.04500 22.94900
H  -2.10300 23.92700 21.73300
H  -3.55300 23.54100 20.99500
H  -3.20700 22.88600 22.64600
H  -3.82300 28.21700 22.72600
H  -4.77400 27.39500 21.63900
H  -2.31500 26.69400 20.43800
H  -2.04100 28.34100 21.06800
H  -3.29700 28.18300 19.99500
H  -1.90800 30.21200 25.85300
H  -0.64000 29.32000 26.65300
H  -1.79100 30.36800 27.63700
H  -4.30400 28.21700 31.51400
H  -0.82500 26.97000 33.89100
H  -2.07000 25.67000 33.89400
H  -2.18900 26.89000 34.98800

