158

Mg 36.29600 49.29700 24.85400
C  36.39300 47.45900 27.80300
C  34.87800 51.93400 26.72800
C  35.83700 51.00600 22.00700
C  37.30200 46.53900 23.11900
N  35.66100 49.63700 26.95100
C  36.02600 48.81600 27.97600
C  35.82800 49.41900 29.37000
C  35.06400 50.79000 29.02100
C  35.22500 50.81100 27.45300
C  33.57800 50.81600 29.45700
C  37.18500 49.71200 30.04500
C  37.27800 49.60800 31.57300
H  35.95900 49.66400 32.43500
N  35.49400 51.27100 24.43200
C  35.04200 52.16200 25.31400
C  34.86800 53.41400 24.61900
C  35.18000 53.27500 23.27300
C  35.53800 51.80700 23.15900
C  34.49900 54.68000 25.38000
C  35.33000 54.27400 22.21000
O  35.70100 53.97200 21.11300
C  34.78600 55.63700 22.43800
N  36.33900 48.71600 22.78900
C  36.23800 49.66900 21.78700
C  36.58300 49.11600 20.37000
C  37.29100 47.82500 20.85800
C  36.98400 47.65100 22.32200
C  35.28400 48.92900 19.50600
C  38.82000 47.74100 20.75900
C  39.57400 48.22700 19.50400
N  36.76600 47.33400 25.29100
C  37.15200 46.32000 24.53600
C  37.51100 45.20700 25.34200
C  37.17700 45.55600 26.64100
C  36.75800 46.90000 26.51800
C  38.18900 44.01900 24.90200
C  37.03100 45.10200 27.96100
O  37.20100 43.98400 28.48900
C  36.68800 46.37500 28.83100
C  35.53500 46.01600 29.70100
O  34.38100 45.63200 29.41800
O  35.89000 46.02900 31.02900
C  34.96200 45.25600 31.87300
H  34.49100 52.73800 27.35700
H  35.78000 51.45000 21.01100
H  37.74200 45.69800 22.57800
H  35.31900 48.73900 30.05300
H  35.61200 51.64500 29.41600
H  32.87400 51.04500 28.65600
H  33.33500 51.54100 30.23300
H  33.36100 49.81100 29.82000
H  37.54300 50.70400 29.77200
H  37.80400 48.95100 29.56900
H  37.91900 50.41300 31.93100
H  37.77400 48.64500 31.70100
H  34.14700 54.45800 26.38700
H  33.67800 55.15900 24.84600
H  35.41500 55.26700 25.30600
H  35.47200 56.02200 23.19200
H  33.73900 55.44900 22.67800
H  34.93600 56.36300 21.63900
H  37.36000 49.72300 19.90500
H  36.87100 46.93600 20.38700
H  34.44700 49.00700 20.20100
H  35.37300 47.98700 18.96500
H  35.34700 49.78400 18.83300
H  38.90900 46.65600 20.71100
H  39.29600 48.04400 21.69200
H  38.99900 48.50500 18.62100
H  40.23400 47.41900 19.18600
H  40.27200 49.03600 19.71900
H  37.96800 43.14400 25.51400
H  39.26100 44.20900 24.95900
H  37.72300 43.86800 23.92900
H  37.56000 46.72600 29.38200
H  35.64900 45.01500 32.68300
H  34.58700 44.33300 31.43000
H  34.21000 45.96200 32.22600
Mg 17.04300 52.47900 26.28900
C  18.97000 51.11500 28.82900
C  14.77900 53.50100 28.73000
C  14.93400 53.40700 23.84500
C  19.39000 51.54400 23.95200
N  16.97800 52.34700 28.57000
C  17.85900 51.81000 29.35200
C  17.65300 52.14400 30.75800
C  16.12300 52.60400 30.72600
C  15.96500 52.93000 29.28300
C  15.05100 51.56000 31.21500
C  18.66200 53.16500 31.40400
C  18.74200 53.16800 32.90600
H  17.74100 52.24400 33.66900
N  15.17400 53.36400 26.26300
C  14.44300 53.78600 27.37300
C  13.18900 54.31500 26.90900
C  13.26900 54.33400 25.48900
C  14.46700 53.64600 25.14900
C  12.03700 54.79900 27.79400
C  12.32600 54.92000 24.38400
O  12.44200 54.86500 23.14200
C  11.19300 55.90800 24.75700
N  17.18900 52.39400 24.25300
C  16.12600 52.76700 23.43300
C  16.48700 52.62200 21.94100
C  17.93900 52.08200 22.01000
C  18.21300 52.08000 23.47600
C  15.46200 51.79200 21.28500
C  19.00900 52.93000 21.23600
C  19.58600 54.15600 21.90800
N  18.85800 51.64900 26.31300
C  19.69000 51.25200 25.27900
C  20.73400 50.45600 25.77200
C  20.54600 50.35000 27.13800
C  19.42100 51.17100 27.46700
C  21.69900 49.67500 24.95900
C  21.02600 49.78300 28.34600
O  22.01100 49.11700 28.59500
C  20.11300 50.35700 29.51400
C  19.74700 49.32600 30.53800
O  18.76500 48.57100 30.46400
O  20.52600 49.52200 31.62800
C  20.41900 48.47900 32.65400
H  14.09400 53.92400 29.46800
H  14.30100 53.67500 22.99700
H  20.08600 51.15800 23.20400
H  17.71200 51.25200 31.38200
H  15.97100 53.53700 31.26900
H  14.66700 50.90400 30.43300
H  14.24900 52.06500 31.75400
H  15.54400 50.90800 31.93600
H  18.20300 54.09700 31.07600
H  19.68600 53.09200 31.03800
H  18.80700 54.22400 33.16800
H  19.69700 52.69600 33.13400
H  12.17900 54.44300 28.81500
H  11.14900 54.32100 27.38000
H  11.93900 55.88400 27.82300
H  10.77200 56.40800 23.88400
H  11.41000 56.69400 25.48100
H  10.47300 55.27800 25.27700
H  16.45800 53.59800 21.45700
H  18.00800 51.04900 21.66900
H  14.78600 52.46100 20.75200
H  14.81100 51.24800 21.97000
H  15.87900 51.09500 20.55800
H  18.55300 53.28500 20.31100
H  19.80200 52.27400 20.87800
H  20.65700 53.97000 21.98800
H  19.23900 54.32800 22.92600
H  19.36200 55.09700 21.40600
H  21.27600 49.31200 24.02200
H  22.00500 48.79000 25.51600
H  22.62900 50.22600 24.82500
H  20.63700 51.20700 29.95000
H  20.07600 47.51400 32.28100
H  19.75200 48.84800 33.43300
H  21.38200 48.38800 33.15600

