158

Mg 27.20900 50.51800 26.41900
C  25.09800 51.82500 29.13400
C  29.39900 49.33400 28.87900
C  29.38000 49.81900 23.95300
C  25.21400 52.40500 24.27900
N  27.27300 50.68900 28.69500
C  26.24200 51.05200 29.54600
C  26.54100 50.71300 31.02500
C  28.03700 50.02900 30.87800
C  28.25700 49.94500 29.38300
C  29.21500 50.71000 31.71800
C  25.49300 49.87800 31.77000
C  24.99000 50.55600 33.09000
H  26.07800 50.85600 34.17300
N  29.05300 49.50000 26.36800
C  29.82900 49.17200 27.47000
C  31.03600 48.60300 27.03800
C  31.01100 48.71400 25.56800
C  29.77000 49.36400 25.25900
C  31.88600 47.82200 27.92400
C  32.06500 48.27800 24.56900
O  32.00700 48.45800 23.37500
C  33.34700 47.64700 25.14400
N  27.31500 51.06300 24.50600
C  28.26500 50.65100 23.61500
C  27.97700 51.05300 22.17500
C  26.54200 51.58600 22.28400
C  26.33500 51.68800 23.78000
C  29.08100 51.92200 21.50200
C  25.38100 50.64400 21.75300
C  24.16300 51.34900 21.01400
N  25.44700 51.81900 26.59800
C  24.76500 52.50400 25.63400
C  23.57500 53.12600 26.17700
C  23.67500 52.89200 27.55900
C  24.85800 52.13700 27.77400
C  22.56600 53.82700 25.41900
C  23.00100 53.03000 28.79300
O  21.96400 53.62500 29.02000
C  23.97200 52.47700 29.86900
C  24.46700 53.60400 30.65500
O  25.48400 54.24200 30.53100
O  23.59100 53.62800 31.72900
C  24.10800 54.67200 32.67400
H  30.06800 48.99800 29.67400
H  30.03900 49.69700 23.09100
H  24.50500 52.87500 23.59500
H  26.54200 51.62000 31.62900
H  27.90800 48.98100 31.14900
H  29.63000 49.83100 32.21200
H  28.90400 51.49900 32.40200
H  29.86300 51.08200 30.92500
H  25.89600 48.92700 32.11800
H  24.62800 49.72300 31.12600
H  24.31700 49.79500 33.48600
H  24.37600 51.41200 32.81000
H  32.95800 48.00100 27.84600
H  31.83800 46.74300 27.77300
H  31.63900 47.94500 28.97800
H  33.03000 46.70700 25.59700
H  33.85100 48.25500 25.89500
H  33.96700 47.51900 24.25700
H  27.94900 50.15000 21.56500
H  26.42700 52.54500 21.77800
H  30.04500 51.88200 22.00900
H  28.60600 52.90100 21.44800
H  29.12900 51.59900 20.46200
H  24.94600 49.98900 22.50800
H  25.84900 49.96500 21.04000
H  24.29200 51.20900 19.94100
H  24.10700 52.42100 21.20000
H  23.18300 50.95200 21.27800
H  21.82400 54.34900 26.02300
H  22.12300 53.24100 24.61300
H  23.14800 54.65600 25.01700
H  23.37400 51.80600 30.48500
H  25.06700 54.42300 33.12600
H  23.60100 54.75400 33.63600
H  24.09400 55.67000 32.23700
Mg 17.16000 52.75000 26.65300
C  19.07400 51.33700 29.16200
C  14.80400 53.63000 29.07200
C  15.41000 54.11500 24.08500
C  19.53900 51.53900 24.26700
N  16.93300 52.30400 28.84200
C  17.93500 51.94600 29.63300
C  17.65300 52.09800 31.10300
C  16.11500 52.56800 31.08900
C  15.90900 52.87900 29.56800
C  15.00500 51.51400 31.66700
C  18.60600 53.02500 31.81800
C  19.07800 52.63700 33.22100
H  18.01400 51.89600 34.02900
N  15.27600 53.65500 26.57300
C  14.53500 53.97300 27.70100
C  13.41000 54.82900 27.19600
C  13.46200 54.79800 25.72200
C  14.76100 54.18600 25.40100
C  12.32900 55.51100 28.09900
C  12.49000 55.24800 24.68700
O  12.73300 55.03800 23.48100
C  11.26800 55.89900 25.08000
N  17.38300 52.71500 24.53800
C  16.56100 53.45100 23.66400
C  17.03300 53.45700 22.17400
C  18.49900 52.87000 22.40200
C  18.41500 52.23700 23.79800
C  16.08200 52.49700 21.39000
C  19.59600 53.97800 22.23500
C  19.98900 54.72700 23.53200
N  18.88900 51.65700 26.65400
C  19.81100 51.28600 25.59600
C  20.93500 50.61300 26.22800
C  20.61400 50.49800 27.55400
C  19.35200 51.18500 27.79900
C  22.10900 50.02200 25.47800
C  21.15200 50.03700 28.85700
O  22.18100 49.45300 29.11800
C  20.22400 50.57800 29.91000
C  19.58100 49.44400 30.63900
O  18.92900 48.61000 30.14800
O  19.98800 49.41300 31.90300
C  19.51300 48.29400 32.82000
H  14.17000 54.02400 29.86900
H  14.95900 54.68100 23.26700
H  20.32100 51.10800 23.63800
H  17.62300 51.14000 31.62200
H  15.98200 53.52800 31.58700
H  14.40800 51.14400 30.83300
H  14.29700 52.03500 32.31100
H  15.48200 50.83100 32.37000
H  18.21800 54.04000 31.74000
H  19.54100 53.10800 31.26400
H  19.19200 53.54300 33.81500
H  19.97000 52.02700 33.07200
H  12.30800 55.06800 29.09400
H  11.33500 55.37800 27.67200
H  12.36000 56.60100 28.09600
H  10.66500 55.15600 25.60200
H  10.83300 56.24900 24.14300
H  11.49000 56.76700 25.70000
H  17.12000 54.50200 21.87700
H  18.76700 52.07100 21.71100
H  15.26200 52.18600 22.03800
H  16.67800 51.65800 21.03000
H  15.76500 53.10400 20.54300
H  19.29200 54.75700 21.53600
H  20.57700 53.61800 21.92400
H  19.51800 55.70800 23.47400
H  21.07000 54.86500 23.55100
H  19.81500 54.24100 24.49200
H  22.48400 50.73600 24.74400
H  21.93200 49.06400 24.99000
H  22.82900 49.87500 26.28300
H  20.70700 51.34000 30.52200
H  19.98600 47.35000 32.54900
H  18.45200 48.23500 32.57900
H  19.69700 48.62600 33.84200

