158

Mg 30.15100 58.60100 41.67600
C  27.39200 56.68600 40.69600
C  32.20300 56.30800 40.11100
C  32.82900 60.65400 42.08100
C  28.00500 61.10800 42.66600
N  29.85700 56.71800 40.59000
C  28.62500 56.16200 40.24700
C  28.80300 54.96700 39.33800
C  30.34700 54.79700 39.38100
C  30.83600 55.95900 40.12100
C  30.94400 53.39200 39.80900
C  28.16100 55.17900 37.94600
C  27.26700 54.04500 37.41600
H  27.41900 53.68700 35.94200
N  32.21800 58.49400 41.23400
C  32.84600 57.39800 40.71200
C  34.20900 57.63100 40.58600
C  34.50600 58.84100 41.26600
C  33.18600 59.37800 41.54600
C  35.21400 56.57100 40.07300
C  35.82900 59.36200 41.71100
O  36.88300 58.81700 41.41900
C  35.90000 60.49600 42.59200
N  30.45400 60.63200 42.30400
C  31.60200 61.29100 42.34500
C  31.39900 62.65400 42.78700
C  29.95200 62.85600 43.11800
C  29.36800 61.44300 42.63100
C  32.37400 63.21600 43.86900
C  29.28100 64.12300 42.42900
C  28.91000 64.01700 40.99100
N  28.07300 58.88300 41.67000
C  27.36900 59.99300 42.15100
C  25.96300 59.66700 41.90800
C  25.91900 58.39000 41.37600
C  27.22600 57.93200 41.29600
C  24.78300 60.68900 42.09100
C  25.04600 57.39000 40.82900
O  23.81300 57.43300 40.68500
C  25.97700 56.23900 40.32100
C  25.55800 55.06800 40.99800
O  25.66700 54.88800 42.19800
O  24.97800 54.22500 40.12800
C  24.21100 53.20500 40.77600
H  32.88500 55.55600 39.71000
H  33.68700 61.31900 42.20700
H  27.32600 61.90600 42.97300
H  28.27600 54.17100 39.86300
H  30.82100 54.86400 38.40100
H  30.17100 52.64000 39.64700
H  31.25700 53.44400 40.85200
H  31.78800 53.15100 39.16300
H  28.92000 55.47200 37.22000
H  27.62700 56.13000 37.95800
H  26.31900 54.58300 37.46000
H  27.24600 53.13000 38.00700
H  36.09400 57.11300 39.72600
H  34.81400 55.90200 39.31200
H  35.41300 55.86000 40.87500
H  35.93400 61.47300 42.11000
H  36.86200 60.43300 43.10000
H  35.13100 60.33500 43.34700
H  31.65900 63.27000 41.92600
H  29.78900 62.92900 44.19400
H  32.76000 62.34600 44.40000
H  31.73700 63.84200 44.49600
H  33.15700 63.86200 43.47200
H  30.00500 64.93600 42.45700
H  28.43400 64.37400 43.06700
H  27.87300 64.33100 40.86600
H  29.11800 63.04100 40.55200
H  29.49400 64.75000 40.43600
H  24.92800 61.55000 41.43900
H  24.89400 61.24400 43.02300
H  23.82900 60.18100 41.94900
H  25.81900 56.16600 39.24500
H  23.67700 53.72500 41.57200
H  24.90300 52.46300 41.17300
H  23.51500 52.79500 40.04500
Mg 9.92400 46.89000 25.71100
C  7.18400 47.16200 28.13900
C  12.03100 48.12400 27.89400
C  12.14600 46.92700 23.17900
C  7.36700 46.42600 23.30700
N  9.64900 47.42500 27.86500
C  8.49000 47.41800 28.67200
C  8.89000 47.88800 30.10000
C  10.42600 48.29600 30.01000
C  10.71700 48.00500 28.51300
C  10.79900 49.77200 30.40500
C  8.60300 46.84900 31.33400
C  9.28400 46.88300 32.69500
H  8.38500 46.57600 33.88600
N  11.77300 47.32400 25.62700
C  12.52900 47.78600 26.64500
C  13.85300 47.83700 26.32600
C  13.97100 47.41800 24.95100
C  12.58300 47.26000 24.42700
C  15.00800 48.27200 27.20500
C  15.21000 47.13800 24.03800
O  15.07600 46.78600 22.87700
C  16.58500 47.15900 24.56400
N  9.75500 46.65500 23.52200
C  10.82200 46.69300 22.73900
C  10.48800 46.31800 21.24500
C  8.92100 46.22000 21.38800
C  8.65700 46.41200 22.84200
C  11.12400 47.26900 20.13900
C  8.38000 44.78200 20.83400
C  7.01800 44.91100 20.00000
N  7.71100 46.83100 25.72800
C  6.91800 46.58600 24.60900
C  5.54800 46.53900 25.08300
C  5.58800 46.78300 26.51400
C  6.92700 46.87000 26.79600
C  4.36700 46.44700 24.17700
C  4.77000 46.91700 27.72700
O  3.57300 46.75200 27.92100
C  5.78000 47.30300 28.75800
C  5.64600 46.34600 29.87300
O  5.88300 45.15300 29.80600
O  5.19500 47.00600 30.98900
C  4.72200 46.15800 32.07000
H  12.65200 48.47500 28.72100
H  12.90300 46.92500 22.39200
H  6.58400 46.46000 22.54700
H  8.30200 48.78900 30.27800
H  11.01200 47.56300 30.56500
H  9.90700 50.35900 30.62900
H  11.16900 50.33600 29.54800
H  11.41500 49.87300 31.29800
H  8.83000 45.85500 30.94800
H  7.52300 46.96100 31.43200
H  9.85900 47.78800 32.89400
H  9.95600 46.02600 32.73100
H  14.60500 48.77800 28.08100
H  15.53500 49.05500 26.65900
H  15.61400 47.49200 27.66800
H  16.55100 48.00200 25.25400
H  17.26300 47.41900 23.75100
H  16.87100 46.17700 24.94200
H  11.04700 45.38300 21.22100
H  8.53800 47.05500 20.80100
H  10.33000 47.94500 19.82300
H  11.38100 46.57400 19.33900
H  11.99100 47.81700 20.50900
H  8.23300 44.09200 21.66600
H  9.05400 44.31200 20.11800
H  6.94600 44.27100 19.12000
H  6.83900 45.92800 19.65200
H  6.25300 44.67900 20.74200
H  4.68600 45.89500 23.29300
H  3.88000 47.38100 23.89700
H  3.65700 45.86400 24.76400
H  5.67500 48.26600 29.25800
H  4.13800 46.78100 32.74800
H  5.43500 45.59100 32.66700
H  4.02700 45.48700 31.56500

