158

Mg 17.67200 -1.30300 27.29400
C  16.60200 0.71200 30.03000
C  19.86400 -3.01700 29.33900
C  19.14300 -2.55700 24.46700
C  15.81900 0.90400 25.21900
N  18.28800 -1.02800 29.37200
C  17.55700 -0.29700 30.35600
C  17.98100 -0.85600 31.78600
C  19.11100 -1.85100 31.49500
C  19.13700 -1.93100 30.00600
C  20.49200 -1.50000 32.06000
C  16.86500 -1.46700 32.65500
C  16.53000 -0.76900 33.96400
H  17.68800 -0.29200 34.91000
N  19.12400 -2.72000 26.95800
C  19.85600 -3.34100 27.91900
C  20.49900 -4.49600 27.32700
C  20.35000 -4.39500 25.90400
C  19.49600 -3.18700 25.68700
C  20.98100 -5.72100 28.12800
C  20.99900 -5.14000 24.80900
O  20.79700 -4.94000 23.60000
C  21.95200 -6.21600 25.23100
N  17.47200 -0.90000 25.16000
C  18.28000 -1.49000 24.22100
C  18.05000 -0.89400 22.77500
C  16.73800 0.04700 23.02500
C  16.66900 0.00400 24.55500
C  19.32800 -0.14700 22.24400
C  15.42800 -0.39500 22.31400
C  14.89800 0.32700 21.10500
N  16.44100 0.51200 27.51000
C  15.79200 1.20700 26.61000
C  15.03200 2.29600 27.20300
C  15.26300 2.10100 28.57000
C  16.12700 1.01100 28.67200
C  14.14000 3.32700 26.56700
C  14.97400 2.57900 29.95200
O  14.28500 3.54800 30.32400
C  15.88500 1.74200 30.92300
C  16.89500 2.65400 31.71600
O  18.06800 2.78300 31.41400
O  16.46100 3.16400 32.90600
C  17.18500 4.26700 33.45800
H  20.53200 -3.60300 29.97300
H  19.49600 -3.03400 23.55000
H  15.14900 1.41900 24.52800
H  18.19300 0.11200 32.24000
H  18.78600 -2.87800 31.66300
H  20.96600 -2.37300 32.50900
H  20.30600 -0.92600 32.96700
H  21.07500 -0.85400 31.40300
H  17.06900 -2.45800 33.06100
H  15.96700 -1.52800 32.04100
H  15.79000 -1.31400 34.55000
H  15.97400 0.13900 33.73200
H  22.06300 -5.84300 28.16300
H  20.42100 -6.53400 27.66600
H  20.59800 -5.72700 29.14800
H  21.41500 -7.04700 25.68900
H  22.72500 -5.76300 25.85200
H  22.49200 -6.47900 24.32200
H  17.80000 -1.72900 22.12100
H  16.88700 1.08400 22.72500
H  19.50400 -0.53700 21.24100
H  20.11700 -0.33900 22.97000
H  19.08500 0.91300 22.16500
H  14.65400 -0.21000 23.05900
H  15.35600 -1.46500 22.12000
H  14.28000 1.18500 21.37000
H  14.17400 -0.35200 20.65400
H  15.66800 0.64800 20.40400
H  13.08000 3.14900 26.75100
H  14.32100 3.30000 25.49300
H  14.28900 4.33300 26.95800
H  15.22200 1.25600 31.63900
H  16.72300 4.47600 34.42300
H  17.04500 5.14700 32.83000
H  18.24700 4.04900 33.57000
Mg 47.95600 15.82000 28.56500
C  45.96400 15.40400 31.57500
C  50.05000 17.67500 30.43000
C  49.23900 16.78400 25.74800
C  45.40300 13.96700 26.90400
N  48.08700 16.28900 30.81400
C  47.22800 15.91900 31.82200
C  47.79300 16.51800 33.15900
C  49.12200 17.24100 32.75000
C  49.13500 16.98200 31.26200
C  49.43200 18.66700 33.37700
C  48.13400 15.45200 34.29300
C  47.68900 15.64700 35.77900
H  47.82800 17.09500 36.48700
N  49.44200 16.98300 28.12600
C  50.21600 17.66500 29.05000
C  51.20200 18.43700 28.31700
C  50.96300 18.24500 26.93900
C  49.84700 17.29900 26.89100
C  52.33900 19.16500 28.96000
C  51.75700 18.68900 25.67800
O  51.67800 18.25400 24.51200
C  52.82000 19.71100 25.89100
N  47.45000 15.38100 26.64600
C  48.17800 15.91900 25.60300
C  47.86000 15.31200 24.22800
C  46.63000 14.33400 24.66100
C  46.47100 14.53400 26.17000
C  47.52900 16.38600 23.11500
C  46.98200 12.89100 24.33800
C  45.92100 12.19800 23.48100
N  46.10000 14.87200 29.04700
C  45.23100 14.12400 28.28800
C  44.01700 13.69500 29.10800
C  44.33000 14.16900 30.34000
C  45.56700 14.86900 30.30600
C  42.81500 12.94900 28.79900
C  43.84200 14.18700 31.71900
O  42.82100 13.64200 32.20400
C  44.91700 14.97000 32.57200
C  44.17300 16.06800 33.26300
O  43.82100 17.06200 32.63600
O  44.06800 15.76200 34.61300
C  43.55700 16.81000 35.37700
H  50.80400 18.23700 30.98600
H  49.77900 17.05000 24.83700
H  44.63000 13.44400 26.33600
H  47.07600 17.23500 33.55900
H  49.94800 16.63300 33.11900
H  49.14200 19.39200 32.61700
H  50.51000 18.75400 33.50800
H  48.95400 18.89100 34.33100
H  49.20300 15.24600 34.34900
H  47.60700 14.54000 34.01200
H  48.24000 15.07600 36.52600
H  46.67400 15.32200 36.00800
H  53.07300 18.36200 28.90000
H  52.20000 19.36800 30.02200
H  52.64200 20.13000 28.55500
H  52.29600 20.52500 26.39200
H  53.25200 20.00700 24.93500
H  53.54100 19.26600 26.57700
H  48.68400 14.71400 23.83900
H  45.74100 14.72300 24.16400
H  47.57400 15.87200 22.15500
H  48.17900 17.25900 23.05300
H  46.48700 16.69300 23.20400
H  47.10200 12.25300 25.21400
H  47.91100 12.78600 23.77900
H  45.29300 11.61100 24.15200
H  46.50900 11.53700 22.84400
H  45.24800 12.86800 22.94600
H  42.91200 12.49500 27.81300
H  42.02900 13.70300 28.75300
H  42.69500 12.24700 29.62400
H  45.39400 14.29600 33.28400
H  42.53900 17.06300 35.08300
H  44.30100 17.60400 35.30100
H  43.44900 16.43300 36.39400

