158

Mg 42.23400 40.87100 26.50400
C  41.39300 43.39800 28.87200
C  43.00400 38.94100 29.06900
C  42.79400 38.58900 24.21800
C  41.79300 43.35400 23.98700
N  42.11200 41.12500 28.67000
C  41.69600 42.18800 29.44200
C  41.73300 41.89300 30.93800
C  42.66300 40.59300 30.92000
C  42.60400 40.15400 29.44400
C  44.09200 40.84200 31.49100
C  40.28600 41.69100 31.55600
C  39.88300 42.57900 32.74400
H  39.49100 41.76300 33.96000
N  42.82600 39.00100 26.65000
C  43.05600 38.32500 27.79500
C  43.55800 37.02900 27.42300
C  43.47400 36.94100 25.96500
C  42.94300 38.19900 25.55400
C  43.80300 36.00400 28.41000
C  43.83500 35.76700 25.11200
O  43.79600 35.76900 23.89100
C  44.46100 34.58400 25.57100
N  42.34800 41.06600 24.35500
C  42.54100 39.89800 23.62300
C  42.39200 40.16400 22.15200
C  42.20100 41.68800 22.08500
C  42.10200 42.08900 23.54300
C  43.45000 39.55600 21.15700
C  40.96000 42.11500 21.16000
C  41.27500 43.08600 19.99200
N  41.68400 42.94500 26.37800
C  41.53900 43.78400 25.29800
C  41.14000 45.11100 25.77000
C  40.97900 44.94800 27.19800
C  41.38800 43.65500 27.49800
C  40.84200 46.30700 24.92100
C  40.41700 45.58200 28.37100
O  39.72900 46.63100 28.45000
C  40.77700 44.63100 29.54100
C  41.71000 45.24900 30.50900
O  42.88200 45.46900 30.41300
O  41.01600 45.58700 31.57300
C  41.74900 46.25900 32.69500
H  43.25800 38.35000 29.95100
H  42.86800 37.86200 23.40600
H  41.54000 44.12800 23.25800
H  42.21500 42.67900 31.51900
H  42.27000 39.77000 31.51700
H  44.84900 41.08800 30.74600
H  44.43700 39.97900 32.06000
H  44.07900 41.73500 32.11600
H  40.00200 40.65300 31.72700
H  39.63600 41.95400 30.72100
H  38.94700 43.01400 32.39600
H  40.52300 43.43400 32.96200
H  44.87700 35.83700 28.32500
H  43.46800 34.97600 28.27200
H  43.44500 36.41100 29.35500
H  43.73300 33.91300 26.02600
H  45.10700 34.95100 26.36900
H  45.03900 34.11000 24.77800
H  41.41800 39.70700 21.97400
H  43.06200 42.16100 21.61400
H  44.09900 40.25400 20.62700
H  42.92100 38.97800 20.40000
H  44.11400 38.90000 21.71900
H  40.09100 42.50200 21.69200
H  40.57900 41.23600 20.63900
H  42.34100 43.20600 19.79800
H  40.86700 44.07000 20.22300
H  40.79700 42.81800 19.05000
H  41.26900 46.35200 23.91900
H  41.09100 47.13300 25.58600
H  39.75400 46.24700 24.90700
H  39.83500 44.28600 29.96700
H  42.59600 46.87100 32.38600
H  42.09600 45.49600 33.39200
H  41.08300 46.92800 33.24000
Mg 30.23000 57.68600 39.06200
C  27.46400 55.65600 38.20500
C  32.28600 55.16300 38.11900
C  32.68900 59.77600 39.52700
C  27.91500 60.40100 39.43700
N  29.90100 55.57100 38.11500
C  28.67100 54.93300 37.97500
C  28.92900 53.43500 37.68300
C  30.48500 53.29600 37.73400
C  30.93100 54.70100 38.05200
C  31.00400 52.20800 38.74300
C  28.42500 53.00000 36.23700
C  29.04500 53.71500 34.96500
H  28.07900 54.45500 34.12200
N  32.23800 57.50500 38.80200
C  32.93100 56.41400 38.48500
C  34.23700 56.68500 38.51800
C  34.42100 57.98700 39.00800
C  33.04500 58.52100 39.08600
C  35.25000 55.63100 38.27300
C  35.73800 58.63800 39.48400
O  36.80700 58.06400 39.58000
C  35.79300 60.12400 39.84500
N  30.30100 59.81600 39.41900
C  31.47800 60.38800 39.74400
C  31.33000 61.86200 40.27300
C  29.82300 62.00600 40.11900
C  29.29400 60.71700 39.58000
C  32.00700 62.03800 41.67500
C  29.47000 63.26500 39.18400
C  28.32600 64.18700 39.76900
N  28.16900 58.04700 38.85600
C  27.38200 59.14100 39.12900
C  26.01300 58.74200 39.01800
C  26.04300 57.42400 38.62200
C  27.37800 57.02900 38.50100
C  24.87500 59.62400 39.33500
C  25.19300 56.21600 38.40500
O  24.01600 56.07900 38.49000
C  26.09500 55.06100 37.99600
C  25.83500 53.90400 38.76800
O  26.15000 53.65500 39.92400
O  24.93100 53.11700 38.04500
C  24.33900 51.92700 38.78200
H  32.90700 54.28000 37.95400
H  33.46000 60.50300 39.79200
H  27.23000 61.23200 39.62000
H  28.37300 52.90100 38.45300
H  30.86000 53.02200 36.74800
H  31.33500 52.69500 39.66100
H  31.85000 51.67300 38.31200
H  30.23300 51.45400 38.89800
H  27.34000 53.04900 36.15400
H  28.67200 51.94200 36.14000
H  29.46100 52.96100 34.29700
H  29.89700 54.36800 35.15600
H  35.40800 55.02200 39.16300
H  36.26600 55.91300 37.99600
H  34.97200 54.88900 37.52400
H  36.85000 60.30400 40.04100
H  35.39800 60.17700 40.85900
H  35.30300 60.79800 39.14200
H  31.86000 62.56300 39.62800
H  29.35500 62.13100 41.09600
H  31.29500 62.61900 42.26100
H  32.99200 62.50100 41.63100
H  32.03800 61.08200 42.19900
H  29.04500 62.94300 38.23400
H  30.39500 63.77800 38.91900
H  27.46300 63.98700 39.13400
H  28.67100 65.21300 39.63800
H  27.94900 63.92500 40.75700
H  24.50700 59.19900 40.26900
H  24.10700 59.51500 38.56900
H  25.13700 60.67400 39.46100
H  26.03900 54.80400 36.93800
H  24.70100 51.84400 39.80700
H  24.61300 51.00500 38.26900
H  23.25100 51.97300 38.82900

