158

Mg 41.24700 8.89700 29.96700
C  43.01200 10.34400 32.62100
C  38.82400 7.89100 32.12700
C  39.73500 7.34000 27.27800
C  43.87100 9.89100 27.81500
N  41.00200 9.06400 32.14700
C  41.78200 9.78900 33.01400
C  41.15600 9.91700 34.40000
C  39.74700 9.22100 34.18800
C  39.79000 8.72200 32.70400
C  39.33900 8.17100 35.26700
C  40.99400 11.37100 34.85400
C  40.17200 11.56500 36.18400
H  40.89300 12.29600 37.31300
N  39.63600 7.72900 29.77100
C  38.67400 7.47700 30.76400
C  37.49800 6.83800 30.18100
C  37.71000 6.82800 28.78300
C  39.10800 7.30900 28.55600
C  36.25100 6.44300 30.93100
C  36.71000 6.41400 27.60600
O  36.96600 6.69800 26.41500
C  35.26000 6.02600 27.99800
N  41.72000 8.57800 27.79900
C  40.91900 7.96600 26.92300
C  41.46000 8.02700 25.44800
C  42.74600 8.87500 25.68100
C  42.80500 9.17600 27.19000
C  41.67800 6.67200 24.68600
C  42.79500 10.05100 24.81700
C  42.30400 11.43700 25.33500
N  43.10000 9.90900 30.16800
C  44.00000 10.25300 29.19400
C  45.11500 10.92100 29.80500
C  44.81200 10.92600 31.21100
C  43.52400 10.39900 31.34700
C  46.40700 11.35700 29.11700
C  45.30100 11.20700 32.50000
O  46.43500 11.47900 32.93800
C  44.08900 10.96300 33.44000
C  44.51500 10.21700 34.70100
O  44.95300 9.05000 34.65900
O  44.49700 11.11900 35.78000
C  44.94800 10.57300 37.07900
H  37.94400 7.77000 32.76200
H  39.21400 6.92500 26.41200
H  44.72800 10.02300 27.15100
H  41.67800 9.29900 35.13000
H  39.00700 10.01800 34.26400
H  39.91100 8.42600 36.15900
H  39.58300 7.18000 34.88400
H  38.28000 8.18500 35.52600
H  40.68900 12.00500 34.02200
H  42.01800 11.64600 35.11000
H  39.70500 10.64700 36.54200
H  39.23200 12.09100 36.01400
H  36.10400 5.36300 30.90400
H  35.33300 6.78700 30.45500
H  36.21700 6.80800 31.95700
H  35.20700 5.20000 28.70800
H  34.90500 5.58000 27.06900
H  34.72600 6.94800 28.22900
H  40.70300 8.71400 25.06900
H  43.63100 8.28500 25.44000
H  41.82900 5.78900 25.30600
H  42.54400 6.64600 24.02500
H  40.76800 6.52800 24.10400
H  42.22300 9.79300 23.92600
H  43.80300 10.17800 24.42200
H  41.64800 11.80400 24.54600
H  43.10300 12.16800 25.45400
H  41.60000 11.39000 26.16600
H  46.49400 12.38500 29.46700
H  46.19400 11.19800 28.05900
H  47.25800 10.75800 29.44300
H  43.72800 11.94300 33.75100
H  44.17200 10.78800 37.81400
H  45.84300 11.12300 37.37000
H  45.22500 9.52000 37.12600
Mg -1.92900 34.22800 27.42600
C  -3.72400 32.41000 29.76200
C  -1.03600 36.34900 30.01800
C  -0.63000 36.32600 25.15600
C  -3.57700 32.37600 24.94300
N  -2.64800 34.53500 29.58500
C  -3.21900 33.55800 30.31300
C  -2.96600 33.80700 31.77500
C  -2.38100 35.30800 31.80100
C  -1.97400 35.43800 30.38700
C  -3.29500 36.39800 32.34200
C  -1.99000 32.74200 32.39500
C  -2.46700 31.74100 33.55900
H  -1.66700 31.92000 34.90100
N  -0.91100 35.98500 27.59500
C  -0.50900 36.56000 28.76400
C  0.51400 37.50800 28.37700
C  0.63900 37.61000 26.95900
C  -0.28500 36.59100 26.47200
C  1.26800 38.21200 29.49400
C  1.46800 38.51200 26.05700
O  1.43300 38.50000 24.80500
C  2.49900 39.33100 26.65500
N  -1.97200 34.23000 25.35000
C  -1.49800 35.31100 24.63500
C  -2.17000 35.39900 23.24700
C  -2.91800 33.98100 23.12400
C  -2.77100 33.49300 24.55600
C  -3.17000 36.63000 23.06300
C  -2.42300 32.89200 22.14300
C  -1.39700 31.86200 22.47700
N  -3.21700 32.51800 27.35900
C  -3.80000 31.90900 26.26800
C  -4.67300 30.80900 26.66700
C  -4.71200 30.90100 28.08200
C  -3.79700 31.98200 28.38800
C  -5.45000 29.99600 25.66000
C  -5.19300 30.38800 29.31400
O  -5.94500 29.40400 29.56900
C  -4.50500 31.27700 30.46500
C  -5.64100 31.66200 31.21400
O  -6.34800 32.60400 30.93200
O  -5.79700 30.95700 32.33600
C  -7.08800 31.21200 33.09400
H  -0.69700 36.99100 30.83300
H  -0.22500 37.03100 24.42800
H  -4.14100 31.88100 24.14900
H  -3.94400 33.80100 32.25700
H  -1.47600 35.35900 32.40700
H  -2.90500 36.71400 33.31000
H  -4.32300 36.03900 32.40400
H  -3.30500 37.17300 31.57600
H  -1.11700 33.23000 32.83100
H  -1.62800 32.00100 31.68300
H  -2.25400 30.74900 33.16200
H  -3.53400 31.84600 33.75600
H  1.41300 37.60200 30.38600
H  0.72600 39.13800 29.68100
H  2.30000 38.34300 29.16700
H  1.88000 39.95000 27.30500
H  3.02700 39.99100 25.96700
H  3.23600 38.85400 27.30100
H  -1.38300 35.49900 22.50000
H  -3.97800 34.07100 22.88800
H  -2.95000 37.36600 23.83700
H  -4.20600 36.37400 23.28300
H  -3.19700 37.19200 22.12900
H  -2.00100 33.38500 21.26600
H  -3.31200 32.34700 21.82500
H  -1.04200 32.09100 23.48200
H  -0.55000 31.86300 21.79100
H  -1.83500 30.86400 22.47600
H  -5.98500 29.25800 26.25800
H  -4.74700 29.44200 25.03900
H  -6.24500 30.45000 25.06800
H  -3.98300 30.60800 31.14900
H  -7.96200 31.24600 32.44300
H  -6.97900 32.05400 33.77800
H  -7.18300 30.30100 33.68500

