158

Mg 42.63500 42.27500 25.84300
C  41.58100 44.34900 28.43300
C  44.01000 40.17400 28.11300
C  43.63300 40.20100 23.34700
C  41.76300 44.77700 23.63100
N  42.80000 42.26800 27.97300
C  42.13300 43.19300 28.82700
C  42.24200 42.74500 30.30300
C  43.02200 41.44200 30.15600
C  43.33300 41.24900 28.66300
C  44.40200 41.51100 30.93000
C  40.80500 42.46600 30.84400
C  40.76200 41.52700 32.08600
H  40.31200 42.10500 33.41900
N  43.62100 40.40900 25.75100
C  44.13000 39.71900 26.81000
C  44.79900 38.54000 26.35500
C  44.64000 38.49500 24.99000
C  43.88100 39.71500 24.62300
C  45.58300 37.65100 27.19100
C  45.20000 37.50100 23.89100
O  45.00800 37.60700 22.69200
C  45.95300 36.25100 24.29500
N  42.75400 42.42400 23.79100
C  43.18400 41.44600 22.97200
C  43.04500 41.94300 21.55300
C  42.32900 43.37800 21.60800
C  42.38900 43.56100 23.09600
C  44.38300 41.95100 20.73400
C  40.97200 43.44300 20.95400
C  41.03100 44.09200 19.55300
N  41.91300 44.23900 25.94800
C  41.66000 45.09300 24.98800
C  41.01100 46.28800 25.48500
C  41.00600 46.10100 26.86700
C  41.54600 44.84100 27.13100
C  40.47400 47.47600 24.62600
C  40.61200 46.57900 28.22900
O  40.02000 47.61000 28.61000
C  40.95500 45.45600 29.29200
C  41.85100 46.08500 30.30200
O  43.07300 46.25700 30.15500
O  41.17600 46.34300 31.45700
C  41.99600 47.04100 32.50200
H  44.55600 39.63900 28.89300
H  43.96300 39.60000 22.49700
H  41.56800 45.55300 22.88800
H  42.86000 43.38600 30.93200
H  42.54100 40.50700 30.44300
H  44.44500 40.50900 31.35800
H  44.59800 42.31800 31.63600
H  45.15300 41.51100 30.14000
H  40.12800 42.17900 30.03900
H  40.57200 43.45400 31.24200
H  41.66300 40.93300 32.23700
H  39.93100 40.87800 31.80900
H  45.18000 37.75600 28.19900
H  46.65700 37.71400 27.02100
H  45.29500 36.61000 27.04700
H  46.33400 35.73600 23.41300
H  45.41200 35.52600 24.90300
H  46.78800 36.60800 24.89800
H  42.37100 41.23600 21.07100
H  43.01700 44.14300 21.24700
H  45.18400 41.84400 21.46600
H  44.51000 42.83800 20.11400
H  44.44400 41.07000 20.09500
H  40.32700 44.02700 21.61100
H  40.63400 42.41400 20.83900
H  40.14300 44.70400 19.39100
H  41.06900 43.29400 18.81100
H  41.86600 44.78000 19.42700
H  41.08400 47.48900 23.72300
H  40.58400 48.42400 25.15200
H  39.45900 47.14900 24.39800
H  40.04300 45.15100 29.80400
H  42.54800 47.90600 32.13300
H  42.61700 46.26300 32.94500
H  41.27500 47.50300 33.17700
Mg 1.42600 42.53700 26.04500
C  2.62100 42.58500 29.17400
C  -1.36600 40.84500 27.26800
C  0.30600 42.16900 22.86800
C  4.32900 43.92900 24.72900
N  0.59800 41.98000 28.06400
C  1.29000 42.13400 29.17800
C  0.40600 41.86700 30.46300
C  -0.87300 41.28100 29.79000
C  -0.55200 41.33300 28.27000
C  -1.32100 39.85100 30.21900
C  0.21200 43.11600 31.39500
C  0.84700 43.17700 32.80400
H  0.72500 41.93800 33.74100
N  -0.30400 41.61400 25.22300
C  -1.26000 40.92700 25.87700
C  -2.26400 40.47500 25.01400
C  -1.85700 40.87100 23.71300
C  -0.57900 41.68000 23.88300
C  -3.57500 39.63500 25.40000
C  -2.49800 40.70600 22.34500
O  -2.09600 41.13700 21.25500
C  -3.81300 39.89000 22.18800
N  2.21500 42.95800 24.08000
C  1.50400 42.75400 22.98300
C  2.35400 42.95900 21.74200
C  3.39800 43.93200 22.31100
C  3.34400 43.66800 23.80400
C  2.84700 41.52400 21.11800
C  3.46700 45.41400 21.86100
C  2.21400 46.28700 21.88800
N  3.15600 43.00800 26.77300
C  4.22200 43.64200 26.10800
C  5.32000 43.86600 27.10200
C  4.73700 43.43500 28.34800
C  3.44600 42.91000 28.09900
C  6.64000 44.47500 26.97700
C  4.96300 43.30200 29.75100
O  6.00300 43.41400 30.39900
C  3.56900 42.75000 30.35100
C  3.84800 41.45700 31.13000
O  3.78500 40.28300 30.83600
O  4.33400 41.90100 32.36100
C  5.07700 40.86500 33.09500
H  -2.32000 40.46600 27.64100
H  0.09300 41.90600 21.83000
H  5.29000 44.26100 24.33100
H  0.94400 41.09900 31.02000
H  -1.73700 41.91800 29.97700
H  -0.60500 39.56100 30.98900
H  -1.32100 39.08800 29.44100
H  -2.29000 40.01600 30.68800
H  -0.87200 43.19800 31.48000
H  0.54400 43.99600 30.84400
H  0.40100 43.96000 33.41700
H  1.89700 43.45700 32.71200
H  -3.82400 38.95900 24.58300
H  -4.40900 40.31900 25.55400
H  -3.28000 39.17000 26.34000
H  -3.74300 38.81100 22.32500
H  -4.22100 40.13100 21.20700
H  -4.51900 40.40200 22.84200
H  1.83900 43.48100 20.93500
H  4.38500 43.60100 21.99000
H  2.10100 40.74900 21.29500
H  3.80200 41.29900 21.59300
H  2.86400 41.66000 20.03700
H  3.92000 45.38200 20.87000
H  4.16600 45.98800 22.46900
H  2.12800 46.97200 22.73100
H  1.28800 45.72200 21.77900
H  2.33800 46.88100 20.98200
H  6.47100 45.24700 26.22600
H  7.33000 43.70300 26.63600
H  6.98700 44.86500 27.93300
H  3.23400 43.41300 31.14900
H  5.74800 40.35600 32.40300
H  4.50800 40.02800 33.50000
H  5.60000 41.42700 33.86900

