158

Mg 26.18200 -0.90500 29.00500
C  28.29700 -1.13900 31.78900
C  23.55500 -0.37400 31.00900
C  24.16400 -1.25200 26.30500
C  29.01700 -1.55000 27.05100
N  26.04400 -0.80800 31.11800
C  26.96000 -0.81900 32.13200
C  26.47700 -0.34000 33.47600
C  24.95900 -0.24200 33.15100
C  24.77100 -0.52600 31.67200
C  24.06600 -0.99700 34.19700
C  27.17600 0.93200 34.09400
C  27.91800 0.84400 35.42600
H  27.66200 1.77200 36.58700
N  24.20900 -0.80900 28.67100
C  23.25500 -0.57700 29.64700
C  21.94500 -0.66700 29.09700
C  22.07600 -0.90400 27.67700
C  23.50000 -0.99700 27.46900
C  20.67800 -0.61100 29.98000
C  20.89000 -1.00800 26.60300
O  21.06400 -1.31500 25.41700
C  19.39200 -0.90400 27.02600
N  26.54700 -1.53800 26.98000
C  25.53300 -1.52700 26.09800
C  26.14000 -1.40500 24.70800
C  27.70900 -1.41300 24.88900
C  27.79100 -1.43300 26.37600
C  25.65600 -2.50900 23.72500
C  28.49400 -0.22100 24.19700
C  28.68200 1.09200 24.92300
N  28.16700 -1.45500 29.31800
C  29.19000 -1.63300 28.43300
C  30.37700 -1.95500 29.13600
C  30.10400 -1.75500 30.48800
C  28.69000 -1.43900 30.48900
C  31.69700 -2.34500 28.51700
C  30.66300 -1.72800 31.80600
O  31.82000 -1.84200 32.21600
C  29.49400 -1.25900 32.68000
C  29.46500 -2.09200 33.96700
O  28.87400 -3.13900 34.13800
O  30.33400 -1.50100 34.84000
C  30.41500 -2.04900 36.16200
H  22.75000 -0.16800 31.71800
H  23.62700 -1.25300 25.35400
H  29.97200 -1.48600 26.52700
H  26.68700 -1.11000 34.22000
H  24.69100 0.78800 33.38500
H  23.47700 -1.70000 33.60800
H  23.38100 -0.16400 34.35500
H  24.53800 -1.37200 35.10500
H  26.50400 1.77800 34.23600
H  27.95700 1.33900 33.45100
H  28.99000 0.97200 35.27900
H  27.90700 -0.16200 35.84500
H  19.99500 0.18500 29.68000
H  20.84700 -0.49900 31.05100
H  20.20800 -1.58700 29.86400
H  19.15800 -1.69700 27.73600
H  18.77600 -0.99200 26.13100
H  19.17500 0.03100 27.54300
H  25.83900 -0.49600 24.18700
H  28.13000 -2.39900 24.69500
H  25.74100 -3.37900 24.37600
H  26.36800 -2.67300 22.91600
H  24.67000 -2.36800 23.28000
H  27.94000 -0.01500 23.28100
H  29.46500 -0.60900 23.88700
H  28.09000 1.29100 25.81600
H  28.34200 1.80400 24.17100
H  29.75800 1.20300 25.06000
H  32.24900 -1.57200 27.98100
H  31.59900 -3.23500 27.89600
H  32.28600 -2.72800 29.35000
H  29.72200 -0.24400 33.00600
H  30.64600 -3.11000 36.06900
H  29.50200 -1.76400 36.68500
H  31.28000 -1.62100 36.66800
Mg 25.91200 50.27600 26.41900
C  23.59300 51.52400 28.70600
C  28.04700 49.54900 29.04500
C  28.14800 49.52000 24.11700
C  23.70100 51.53500 23.79400
N  25.79000 50.55300 28.67200
C  24.72000 51.07800 29.39600
C  24.94800 50.84900 30.89700
C  26.37900 50.47600 30.88600
C  26.81600 50.18600 29.42100
C  27.40800 51.32300 31.72000
C  23.96600 49.82200 31.56900
C  24.16400 49.37100 33.03800
H  24.68700 50.36100 34.08100
N  27.83400 49.52000 26.51500
C  28.53700 49.22400 27.69000
C  29.83800 48.64300 27.29900
C  29.82800 48.64700 25.86800
C  28.57600 49.27200 25.41200
C  30.88500 48.21500 28.36000
C  30.94800 48.09300 24.92900
O  30.77700 48.01500 23.66500
C  32.29700 47.49900 25.45200
N  25.78600 50.24400 24.22000
C  26.90100 49.98000 23.53200
C  26.60000 50.22400 22.02300
C  25.12200 50.70700 21.98800
C  24.85800 50.83500 23.43700
C  27.55500 51.06800 21.33400
C  23.99500 49.82400 21.40000
C  23.05100 50.62500 20.35200
N  23.91200 51.31500 26.22200
C  23.18800 51.68000 25.12700
C  21.99000 52.27800 25.56300
C  22.11000 52.25300 26.94300
C  23.28900 51.67000 27.30800
C  20.87100 52.83200 24.74900
C  21.40000 52.58800 28.19200
O  20.36200 53.15200 28.41600
C  22.32300 52.14500 29.34900
C  22.72500 53.20500 30.19800
O  23.48100 54.10500 29.90700
O  22.27600 52.95900 31.44300
C  22.35600 54.17600 32.41200
H  28.66100 49.28800 29.90900
H  28.79100 49.23800 23.28100
H  23.05600 51.93400 23.00900
H  24.99000 51.80400 31.42100
H  26.42100 49.50800 31.38600
H  27.82700 52.09700 31.07700
H  28.23900 50.81100 32.20500
H  26.88400 51.88700 32.49200
H  24.05800 48.92200 30.96100
H  22.97700 50.22100 31.34000
H  24.67800 48.41100 33.01600
H  23.10800 49.36000 33.31100
H  31.11300 47.16300 28.18900
H  30.48700 48.34300 29.36700
H  31.73900 48.89000 28.41700
H  32.97900 48.26900 25.81200
H  32.57100 46.84200 24.62700
H  32.09200 46.78100 26.24600
H  26.79000 49.25600 21.56100
H  25.07100 51.69400 21.52900
H  28.44700 51.27500 21.92600
H  27.17400 52.08500 21.24400
H  27.95000 50.66500 20.40100
H  23.29100 49.33600 22.07400
H  24.46700 48.97700 20.90100
H  22.81900 49.99000 19.49800
H  23.60200 51.52100 20.06600
H  22.15700 50.89000 20.91700
H  20.32600 53.52700 25.38800
H  20.24700 52.01200 24.39400
H  21.34200 53.42100 23.96200
H  21.86100 51.33900 29.91800
H  22.36500 55.08200 31.80600
H  23.24400 54.04700 33.03100
H  21.49500 54.12500 33.07800

