158

Mg 8.93900 47.37000 24.41300
C  6.84800 47.56600 27.19300
C  11.54600 48.49000 26.26700
C  10.72900 47.26200 21.62700
C  5.98200 47.15500 22.40200
N  9.15400 47.78800 26.48200
C  8.21200 47.86800 27.44100
C  8.74200 48.40700 28.78200
C  10.11100 48.97900 28.29800
C  10.29800 48.41100 26.89800
C  10.05500 50.55400 28.24100
C  8.88600 47.33900 29.87100
C  8.03900 47.61100 31.11200
H  8.04100 46.40100 32.12500
N  10.94600 47.78800 24.03300
C  11.87100 48.14300 24.93400
C  13.15400 48.25300 24.25900
C  12.93100 47.82800 22.94100
C  11.48700 47.60400 22.82000
C  14.45700 48.61700 24.90000
C  13.85000 47.65700 21.81100
O  13.49200 47.17200 20.75400
C  15.35200 47.85700 22.08000
N  8.37400 47.39100 22.27000
C  9.30500 47.17100 21.36200
C  8.71800 46.78300 19.99600
C  7.16900 46.68700 20.29400
C  7.17000 47.06700 21.74200
C  9.11500 47.80700 18.82800
C  6.58500 45.27900 19.94300
C  5.24800 45.24000 19.21800
N  6.87200 47.24300 24.71400
C  5.82600 47.24800 23.79300
C  4.52200 47.12600 24.46900
C  4.88700 47.30200 25.86000
C  6.28200 47.41400 25.93600
C  3.23100 46.92400 23.82800
C  4.35100 47.28800 27.21000
O  3.20600 47.28000 27.61400
C  5.63400 47.53600 28.10900
C  5.58600 46.36000 29.02400
O  6.27600 45.38400 29.01600
O  4.65400 46.62300 29.99900
C  4.70200 45.72000 31.21000
H  12.42300 48.85200 26.80800
H  11.24100 46.90900 20.73000
H  5.03600 46.93900 21.90200
H  8.01500 49.17000 29.06100
H  10.86000 48.60900 28.99800
H  10.73100 50.96900 28.98900
H  9.06900 50.96200 28.46000
H  10.32300 50.84400 27.22500
H  9.90000 47.18400 30.24000
H  8.52600 46.40400 29.44100
H  7.00600 47.64600 30.76500
H  8.35200 48.58900 31.47800
H  14.41400 49.04500 25.90100
H  14.86700 49.43500 24.30700
H  15.20600 47.82600 24.95200
H  15.49400 48.91400 22.30600
H  15.82400 47.65800 21.11800
H  15.82600 47.15100 22.76000
H  9.16300 45.82700 19.72100
H  6.63100 47.44500 19.72400
H  9.80300 48.55800 19.21500
H  8.31900 48.32700 18.29400
H  9.70000 47.30600 18.05700
H  6.34900 44.71000 20.84300
H  7.28300 44.67200 19.36600
H  4.55900 44.69600 19.86400
H  5.44600 44.71300 18.28500
H  4.92500 46.21900 18.86400
H  2.37100 47.14000 24.46200
H  3.22300 45.94000 23.35900
H  3.20800 47.61000 22.98100
H  5.57400 48.45300 28.69500
H  5.24400 46.31100 31.94800
H  5.07200 44.71900 30.98600
H  3.70000 45.77400 31.63500
Mg -3.10500 34.52000 26.51500
C  -4.28900 33.17200 29.62300
C  -1.21200 36.69700 28.43100
C  -2.65200 36.28100 23.66200
C  -4.84100 32.08500 24.88000
N  -2.85400 34.92200 28.77600
C  -3.29300 34.14700 29.84700
C  -2.67300 34.58900 31.16500
C  -1.91200 35.86300 30.80900
C  -1.97200 35.84300 29.26800
C  -2.41600 37.17100 31.48100
C  -1.87000 33.45800 31.95600
C  -2.45800 33.12800 33.39300
H  -1.48200 33.02200 34.55500
N  -2.08500 36.29800 26.13900
C  -1.29300 36.92800 27.02800
C  -0.56000 37.92700 26.21400
C  -1.04100 37.84100 24.89700
C  -1.92800 36.70500 24.82000
C  0.39000 38.86200 26.88600
C  -0.68400 38.74100 23.73200
O  -0.84900 38.37300 22.56800
C  -0.07200 40.17600 23.96200
N  -3.74300 34.38200 24.57100
C  -3.39600 35.12100 23.51700
C  -3.93800 34.48700 22.18300
C  -4.23500 33.01000 22.60600
C  -4.26300 33.15400 24.12800
C  -5.17900 35.21900 21.59800
C  -3.22900 31.92000 22.14000
C  -3.98000 30.61300 21.83500
N  -4.43100 33.01500 27.08700
C  -4.88200 31.98600 26.28200
C  -5.55900 30.97000 27.16500
C  -5.37200 31.37800 28.44300
C  -4.70300 32.63600 28.38100
C  -6.36000 29.83500 26.63900
C  -5.56500 31.06900 29.88000
O  -6.16800 30.14700 30.41500
C  -4.88300 32.21400 30.62600
C  -5.86600 32.88900 31.49100
O  -6.63300 33.78000 31.16800
O  -5.74600 32.36300 32.76900
C  -6.48300 32.92300 33.80900
H  -0.55900 37.43200 28.90700
H  -2.63700 36.91700 22.77500
H  -5.29200 31.14400 24.55800
H  -3.50100 34.84900 31.82500
H  -0.89000 35.77900 31.17800
H  -2.18300 37.12700 32.54500
H  -3.50300 37.18300 31.40000
H  -1.92400 38.04300 31.05000
H  -0.86100 33.84400 32.10200
H  -1.74400 32.50700 31.43700
H  -2.96900 32.16600 33.37400
H  -3.14800 33.89300 33.74700
H  1.07300 39.22800 26.11900
H  1.02100 38.33300 27.60000
H  -0.13700 39.59800 27.49400
H  -0.47800 40.77100 23.14300
H  1.00300 40.04500 23.84300
H  -0.26400 40.55400 24.96600
H  -3.11700 34.65300 21.48500
H  -5.29000 32.80300 22.43200
H  -5.01000 35.73300 20.65200
H  -5.47400 36.04900 22.24100
H  -6.02200 34.55000 21.42500
H  -2.58300 31.75200 23.00200
H  -2.84400 32.31800 21.20100
H  -3.39300 30.06900 21.09500
H  -4.92500 30.90200 21.37600
H  -4.10000 29.96400 22.70300
H  -6.31200 28.91000 27.21300
H  -6.15000 29.64100 25.58700
H  -7.38800 30.15900 26.79700
H  -4.03600 31.84400 31.20400
H  -5.81000 33.65100 34.26100
H  -6.79700 32.22100 34.58100
H  -7.36900 33.36000 33.34700

