158

Mg 1.36000 -2.16600 43.90100
C  4.61400 -0.86100 43.58000
C  0.19600 0.78900 42.42100
C  -1.73200 -3.44400 44.05800
C  2.84600 -5.23400 45.04500
N  2.34900 -0.34400 42.95200
C  3.68800 -0.01400 42.92600
C  3.86700 1.42800 42.32600
C  2.41200 2.01300 42.44200
C  1.59200 0.75500 42.53500
C  2.30500 3.07100 43.58800
C  4.53000 1.44400 40.93800
C  5.79600 2.36600 40.82200
H  6.95300 1.49900 40.45800
N  -0.55600 -1.38400 43.35200
C  -0.75500 -0.20100 42.72400
C  -2.17800 -0.11100 42.43500
C  -2.78800 -1.26900 42.86300
C  -1.70000 -2.12600 43.47700
C  -2.61700 1.08000 41.72700
C  -4.27100 -1.56500 42.70200
O  -4.98200 -0.80200 42.07800
C  -4.88100 -2.79000 43.49900
N  0.69200 -4.18600 44.20200
C  -0.69100 -4.32000 44.41100
C  -0.95400 -5.62200 45.09700
C  0.46600 -6.18300 45.48800
C  1.41700 -5.17500 44.85800
C  -1.75300 -5.44700 46.36600
C  0.66900 -7.65700 45.12100
C  1.23600 -8.63800 46.18600
N  3.32000 -2.92800 44.30000
C  3.69500 -4.10600 44.85700
C  5.09700 -4.07500 45.03300
C  5.53000 -2.79300 44.57800
C  4.38700 -2.14800 44.13900
C  6.02500 -5.19900 45.41100
C  6.66800 -1.89900 44.41400
O  7.81200 -2.07400 44.71600
C  6.13400 -0.60800 43.76000
C  6.33500 0.59700 44.66500
O  6.07600 0.63400 45.86700
O  6.89700 1.63200 44.01000
C  7.46000 2.73600 44.71900
H  -0.09900 1.77900 42.06800
H  -2.72200 -3.82700 44.31600
H  3.23500 -6.12500 45.54100
H  4.53100 1.95600 43.01000
H  2.13500 2.52700 41.52200
H  1.44100 2.74700 44.16700
H  1.96100 4.01500 43.16400
H  3.15600 3.23900 44.24900
H  3.77400 1.83300 40.25700
H  4.67600 0.42000 40.59200
H  6.11600 2.74900 41.79100
H  5.48500 3.10200 40.08100
H  -2.16200 1.17500 40.74100
H  -2.44600 2.08600 42.11000
H  -3.63400 0.94100 41.36100
H  -4.35700 -3.66600 43.11600
H  -5.92900 -2.83600 43.20300
H  -4.84100 -2.70900 44.58500
H  -1.46200 -6.28200 44.39500
H  0.70800 -6.09100 46.54600
H  -2.81900 -5.36200 46.15400
H  -1.46600 -4.58900 46.97300
H  -1.53300 -6.31300 46.99000
H  1.25600 -7.59200 44.20400
H  -0.23600 -8.06100 44.66900
H  0.78400 -9.61500 46.01600
H  1.02400 -8.32200 47.20800
H  2.31100 -8.78500 46.07300
H  6.85000 -4.75200 45.96600
H  6.35500 -5.68700 44.49300
H  5.52900 -5.91000 46.07000
H  6.69800 -0.42400 42.84600
H  7.71900 2.43800 45.73500
H  6.74700 3.55300 44.82600
H  8.33200 2.98300 44.11300
Mg 46.78200 17.10400 29.05100
C  45.23500 16.40900 32.11500
C  49.07000 18.95900 30.61000
C  47.90600 17.87300 26.05500
C  43.82200 15.65600 27.49800
N  46.99700 17.73800 31.12000
C  46.33600 17.29900 32.24500
C  47.06700 17.66900 33.47100
C  48.32100 18.48500 32.98400
C  48.14000 18.37100 31.47400
C  48.35300 19.98700 33.33800
C  47.54400 16.49500 34.40200
C  46.85200 16.52500 35.83700
H  46.99800 17.73900 36.70500
N  48.35400 18.21400 28.36100
C  49.16500 18.89100 29.19700
C  50.14400 19.57900 28.37800
C  49.88800 19.27900 26.95300
C  48.69400 18.42900 27.04800
C  51.34100 20.46000 28.83700
C  50.73700 19.60200 25.69600
O  50.36900 19.07300 24.63800
C  51.88200 20.67000 25.71500
N  46.09700 16.52200 27.06400
C  46.76700 17.08800 26.02400
C  46.07100 16.80800 24.59100
C  44.74500 16.15700 25.08800
C  44.89500 16.17100 26.70900
C  45.94400 18.05800 23.60900
C  44.50800 14.71400 24.53400
C  45.32500 13.56400 25.32200
N  44.95700 16.14900 29.59900
C  43.88300 15.64100 28.84300
C  42.87900 15.23700 29.78900
C  43.42300 15.39200 31.04800
C  44.64200 15.99100 30.86400
C  41.51700 14.74900 29.50900
C  43.09000 15.21200 32.39800
O  42.02400 14.82400 32.91300
C  44.23100 15.94500 33.20600
C  43.62700 17.10300 33.93700
O  43.50300 18.20500 33.47700
O  43.23700 16.64200 35.15100
C  42.54300 17.51700 35.97500
H  49.83900 19.57400 31.08100
H  48.38300 18.02300 25.08400
H  42.86100 15.43200 27.03100
H  46.46900 18.38700 34.03200
H  49.26800 17.97800 33.16800
H  49.38300 20.28300 33.53400
H  47.66300 20.23500 34.14400
H  48.07900 20.58100 32.46600
H  48.62500 16.55300 34.53500
H  47.31000 15.60100 33.82300
H  47.44000 15.77300 36.36200
H  45.80500 16.22300 35.82700
H  52.26700 20.07600 28.41000
H  51.35800 20.21100 29.89800
H  51.10800 21.50600 28.63900
H  51.62900 21.52100 26.34700
H  51.74800 20.91400 24.66100
H  52.87600 20.33000 26.00500
H  46.71400 16.14200 24.01600
H  43.86500 16.74800 24.83700
H  46.14000 17.82200 22.56300
H  46.70700 18.79900 23.84300
H  44.93200 18.44900 23.71700
H  44.74100 14.72000 23.46900
H  43.44200 14.54000 24.67900
H  46.11900 13.16700 24.69000
H  44.65700 12.77800 25.67600
H  45.87300 13.89700 26.20300
H  40.99900 15.42800 28.83100
H  41.16200 14.56600 30.52300
H  41.52200 13.77100 29.02800
H  44.66900 15.14200 33.80000
H  41.53000 17.69000 35.61200
H  43.07600 18.46800 35.99300
H  42.62700 17.09900 36.97800

