158

Mg 2.27300 -1.52500 44.70500
C  5.55200 -0.67100 44.34700
C  1.52200 0.89800 42.20100
C  -0.86300 -2.58600 44.66700
C  3.34500 -4.55100 46.26200
N  3.42500 -0.24300 43.29700
C  4.79800 -0.01200 43.36600
C  5.32000 1.02100 42.38500
C  3.97000 1.50400 41.72600
C  2.89900 0.72300 42.48400
C  3.86600 3.03900 41.76900
C  6.48100 0.43200 41.43000
C  7.78100 1.22100 41.36200
H  8.28100 1.55200 39.95300
N  0.52600 -0.75000 43.79200
C  0.43500 0.19300 42.80000
C  -0.93400 0.49700 42.52400
C  -1.67100 -0.56700 43.18100
C  -0.70100 -1.35600 43.97000
C  -1.45900 1.56500 41.64000
C  -3.32500 -0.65600 43.02000
O  -3.99600 0.18500 42.41300
C  -4.05800 -1.84800 43.72500
N  1.38200 -3.37000 45.28700
C  0.03400 -3.41900 45.31400
C  -0.43500 -4.78900 45.87500
C  0.90500 -5.34400 46.45700
C  1.97200 -4.38000 45.99700
C  -1.73100 -4.98200 46.67300
C  1.30200 -6.80900 46.25600
C  1.65200 -7.80400 47.40400
N  4.05700 -2.48000 45.33200
C  4.30300 -3.60700 46.03900
C  5.66000 -3.57600 46.40600
C  6.20100 -2.40900 45.85000
C  5.15900 -1.82700 45.16700
C  6.51200 -4.57500 47.24300
C  7.35700 -1.57800 45.74000
O  8.50000 -1.74200 46.18000
C  6.94600 -0.36000 44.71400
C  7.10500 0.90500 45.38500
O  6.43800 1.31700 46.33700
O  8.21800 1.57300 44.88500
C  8.61600 2.86400 45.42100
H  1.24700 1.68500 41.49500
H  -1.89600 -2.92200 44.77800
H  3.68400 -5.40500 46.85100
H  5.56300 1.85300 43.04700
H  4.13600 1.24800 40.67900
H  4.77200 3.58200 42.03900
H  3.12300 3.14800 42.55900
H  3.53400 3.43700 40.81100
H  6.06100 0.14700 40.46500
H  6.72100 -0.54600 41.84700
H  8.56300 0.74600 41.95400
H  7.75900 2.16400 41.90800
H  -1.82200 2.41400 42.21900
H  -2.23700 1.19400 40.97300
H  -0.77200 1.89600 40.86000
H  -5.09400 -1.88400 43.38800
H  -4.03300 -1.82500 44.81500
H  -3.57400 -2.76400 43.38800
H  -0.50300 -5.32800 44.93000
H  0.91300 -5.19700 47.53700
H  -2.29500 -4.10400 46.98800
H  -1.65600 -5.70000 47.49000
H  -2.51400 -5.34700 46.00800
H  2.08600 -6.90900 45.50400
H  0.38000 -7.23100 45.85600
H  2.62600 -8.26000 47.22000
H  0.91900 -8.60800 47.46900
H  1.56600 -7.35300 48.39200
H  5.88300 -5.27200 47.79700
H  7.19500 -3.94300 47.80900
H  7.14200 -5.09300 46.51900
H  7.57900 -0.47100 43.83400
H  9.30300 3.23000 44.65800
H  8.98200 2.76600 46.44200
H  7.80100 3.58000 45.53200
Mg -5.55500 26.01600 25.77700
C  -4.48700 27.45300 28.75200
C  -7.57200 23.76200 27.54100
C  -6.26100 24.56400 22.88500
C  -3.14300 28.01600 24.02600
N  -5.73900 25.55200 27.86500
C  -5.40300 26.39700 28.87400
C  -6.06100 25.97400 30.18100
C  -6.71500 24.57500 29.79500
C  -6.73900 24.65300 28.27800
C  -5.86500 23.36400 30.28000
C  -6.99400 26.97800 30.86200
C  -7.03900 27.20400 32.36100
H  -6.45000 26.10000 33.20100
N  -6.74900 24.36100 25.25500
C  -7.55000 23.61300 26.10500
C  -8.28200 22.65400 25.29200
C  -7.92800 22.80000 23.92600
C  -6.95400 23.95000 23.95000
C  -9.12100 21.63000 25.93400
C  -8.29700 21.96700 22.73400
O  -7.83600 22.14600 21.62000
C  -9.36900 20.83300 22.95500
N  -4.72600 26.15600 23.75900
C  -5.19100 25.45800 22.73100
C  -4.55000 25.79900 21.41200
C  -3.60300 26.93200 21.79100
C  -3.80200 27.05100 23.28700
C  -3.78800 24.67200 20.69900
C  -3.99400 28.19800 20.92200
C  -2.86100 29.23100 20.67100
N  -4.20600 27.49400 26.22100
C  -3.35300 28.22100 25.45000
C  -2.70400 29.20500 26.23100
C  -3.09800 28.95200 27.58400
C  -4.00400 27.89400 27.51000
C  -1.74000 30.14900 25.75900
C  -2.95300 29.31900 28.99800
O  -2.24600 30.18900 29.52500
C  -3.80500 28.33000 29.75900
C  -2.83800 27.65900 30.61000
O  -2.02600 26.86200 30.23700
O  -3.05800 27.88200 31.97400
C  -2.29800 27.17000 32.96300
H  -8.13200 23.10000 28.20400
H  -6.59400 24.21000 21.90800
H  -2.41100 28.67400 23.55300
H  -5.28000 25.82900 30.92800
H  -7.77200 24.43600 30.02300
H  -5.04200 23.61200 30.95100
H  -5.38300 22.84700 29.45100
H  -6.50000 22.65100 30.80500
H  -8.00100 26.60300 30.67800
H  -6.88800 27.96000 30.40100
H  -8.10800 27.32600 32.53800
H  -6.52400 28.12200 32.64300
H  -10.13500 21.67900 25.53700
H  -9.09400 21.56800 27.02200
H  -8.72700 20.64000 25.70300
H  -9.10300 20.09700 23.71300
H  -9.59200 20.35200 22.00300
H  -10.27200 21.38100 23.22600
H  -5.37300 26.10400 20.76600
H  -2.57500 26.66400 21.54600
H  -2.91800 25.08600 20.18900
H  -4.37400 24.33900 19.84300
H  -3.58100 23.74300 21.23100
H  -4.85900 28.68900 21.36700
H  -4.10700 27.80400 19.91200
H  -2.47700 29.23600 19.65100
H  -1.97500 29.10900 21.29400
H  -3.29400 30.17700 20.99500
H  -0.79800 29.76200 25.37100
H  -1.40900 30.94700 26.42400
H  -2.21000 30.74500 24.97800
H  -4.49400 28.89200 30.38900
H  -1.26600 27.02100 32.64600
H  -2.74600 26.22700 33.27400
H  -2.36700 27.77300 33.86900

