158

Mg 24.87200 1.19700 30.05100
C  26.97500 1.45400 32.78300
C  22.28500 1.97600 31.94400
C  23.12500 1.36700 27.18600
C  27.73400 0.28800 28.10100
N  24.72100 1.89300 32.12000
C  25.63400 1.71800 33.09000
C  25.07000 2.09100 34.49000
C  23.49900 1.98600 34.24200
C  23.49300 2.03800 32.64900
C  22.94200 0.65700 34.84000
C  25.67100 3.39900 35.03400
C  26.61700 3.31700 36.21700
H  26.27600 4.23400 37.40100
N  22.94800 1.65700 29.60300
C  21.96900 1.90300 30.54700
C  20.70400 1.88000 29.90700
C  20.97600 1.81900 28.54900
C  22.41500 1.63200 28.34400
C  19.38900 2.04400 30.69600
C  19.94500 1.83500 27.38600
O  20.29500 1.79200 26.22200
C  18.51500 1.86500 27.68900
N  25.32400 0.74500 27.89600
C  24.44000 0.93700 26.90300
C  25.08700 0.77000 25.49800
C  26.59500 0.41500 25.86100
C  26.55500 0.39200 27.36400
C  24.38100 -0.24900 24.55400
C  27.61200 1.45500 25.32300
C  27.61600 2.90800 25.77800
N  26.92600 0.84700 30.32900
C  27.99100 0.51400 29.44500
C  29.25300 0.42400 30.14000
C  28.79600 0.77700 31.48700
C  27.46000 1.05600 31.52400
C  30.67000 0.14600 29.74300
C  29.37300 1.02200 32.88800
O  30.50300 0.98200 33.29600
C  28.19100 1.42000 33.75000
C  28.11400 0.30300 34.66400
O  27.54900 -0.78600 34.44300
O  28.78700 0.56900 35.83000
C  28.72300 -0.42800 36.93200
H  21.45500 1.95300 32.65300
H  22.57400 1.48200 26.25000
H  28.65000 0.15900 27.52000
H  25.35900 1.26800 35.14300
H  22.99700 2.86500 34.64700
H  22.47700 0.98000 35.77200
H  23.67800 -0.14600 34.87200
H  22.10800 0.24300 34.27400
H  24.94000 4.04700 35.51800
H  26.22400 3.88800 34.23200
H  27.64800 3.59300 35.99700
H  26.68400 2.32800 36.67300
H  18.79900 1.14800 30.50800
H  18.78900 2.91600 30.43600
H  19.57900 2.09500 31.76800
H  18.40300 1.10600 28.46300
H  17.95000 1.77900 26.76100
H  18.23500 2.83200 28.10800
H  24.88900 1.75100 25.06600
H  26.83800 -0.61600 25.60200
H  23.33300 -0.46700 24.75800
H  25.01000 -1.14000 24.53700
H  24.51100 0.13400 23.54200
H  27.21500 1.46100 24.30800
H  28.61400 1.02700 25.28400
H  27.01300 3.04800 26.67500
H  27.19500 3.49900 24.96500
H  28.58000 3.33200 26.05900
H  30.78600 0.26000 28.66500
H  30.86600 -0.90500 29.95500
H  31.43700 0.73100 30.25000
H  28.36300 2.37400 34.24900
H  28.04200 -1.23800 36.67100
H  28.47500 0.15900 37.81600
H  29.73100 -0.79900 37.11500
Mg 31.60400 58.50100 40.73000
C  28.48500 57.44700 39.20100
C  32.98300 55.77800 39.05500
C  34.54300 59.92100 40.95700
C  30.04200 61.37000 41.66800
N  30.72400 56.84300 39.27700
C  29.47800 56.58600 38.84200
C  29.38900 55.28400 38.04700
C  30.73600 54.51600 38.44400
C  31.57200 55.74900 39.01200
C  30.63100 53.36300 39.51600
C  29.15200 55.47000 36.56400
C  27.93000 54.75100 35.93400
H  27.83800 54.85300 34.38600
N  33.55700 57.89200 40.22600
C  33.88200 56.79700 39.43400
C  35.26100 56.76300 39.15700
C  35.77100 57.98900 39.65000
C  34.61000 58.70500 40.32900
C  35.95700 55.70700 38.40800
C  37.19200 58.47900 39.60000
O  38.08400 57.84500 39.05800
C  37.52800 59.71600 40.22300
N  32.23500 60.41800 41.38500
C  33.53800 60.74900 41.47200
C  33.73900 62.09400 42.15700
C  32.18500 62.51300 42.36000
C  31.39500 61.40300 41.80500
C  34.52900 62.04700 43.44700
C  31.86300 63.90900 41.75200
C  31.26900 64.85700 42.69200
N  29.60100 59.24700 40.57400
C  29.17100 60.45000 41.04900
C  27.78900 60.56600 40.86800
C  27.37700 59.34800 40.20700
C  28.61400 58.65700 39.93000
C  27.02100 61.73600 41.13500
C  26.32300 58.55300 39.58300
O  25.06800 58.65000 39.53500
C  27.01000 57.33500 38.85600
C  26.33100 56.05300 39.26400
O  26.66700 55.35800 40.22900
O  25.58000 55.59500 38.25300
C  25.21900 54.18800 38.31400
H  33.44200 54.94600 38.51700
H  35.46200 60.48700 41.12600
H  29.54000 62.21900 42.13700
H  28.49400 54.73400 38.33900
H  31.14900 54.20200 37.48500
H  31.24600 52.46700 39.42800
H  29.61400 52.97100 39.48400
H  30.77800 53.67500 40.55000
H  30.01800 55.06800 36.03800
H  29.10700 56.52000 36.27600
H  26.99400 55.15500 36.31800
H  28.08300 53.69800 36.17000
H  35.24300 55.33100 37.67500
H  36.34300 54.90500 39.03700
H  36.66200 55.98600 37.62500
H  36.98300 60.54700 39.77500
H  38.54200 60.05800 40.01800
H  37.42200 59.64200 41.30500
H  34.02400 62.70200 41.29800
H  31.93100 62.41000 43.41500
H  34.92400 61.04200 43.59900
H  33.92700 62.30900 44.31700
H  35.34500 62.76900 43.42700
H  31.19100 63.81500 40.89800
H  32.83300 64.25600 41.39400
H  30.32200 65.17800 42.25800
H  31.93500 65.71700 42.76800
H  31.13200 64.30500 43.62100
H  26.69300 61.82400 42.17000
H  26.10400 61.72200 40.54600
H  27.55400 62.62600 40.79900
H  26.79900 57.45900 37.79300
H  25.93400 53.46400 37.92400
H  24.30400 54.06900 37.73400
H  24.96000 53.80600 39.30200

