158

Mg 40.78600 7.69200 29.82700
C  42.72000 9.41300 32.31800
C  38.50700 6.90400 32.03800
C  39.07400 6.20400 27.24700
C  43.54800 8.19000 27.69500
N  40.78200 8.07200 31.86400
C  41.53500 8.81100 32.76500
C  41.07500 8.75200 34.19500
C  39.79900 7.71900 34.01000
C  39.69300 7.52200 32.50300
C  39.97100 6.46500 34.79600
C  40.88300 10.07100 34.96700
C  39.80000 10.14600 36.03100
H  39.87600 11.18200 37.11400
N  39.06100 6.62100 29.73800
C  38.13500 6.43600 30.73700
C  36.92000 5.84900 30.19200
C  37.18200 5.57200 28.83400
C  38.48700 6.15100 28.59600
C  35.63300 5.69100 30.96200
C  36.26100 5.09400 27.72000
O  36.57900 4.82300 26.56600
C  34.82200 4.88000 28.05100
N  41.29600 7.17900 27.87400
C  40.39500 6.66600 26.96300
C  40.93800 6.48300 25.59600
C  42.28100 7.21500 25.78600
C  42.39500 7.58300 27.21400
C  41.17200 5.00900 25.05700
C  42.53300 8.43300 24.88800
C  41.70500 9.71200 25.05600
N  42.75300 8.60400 29.90200
C  43.74600 8.72800 28.96500
C  44.88600 9.44000 29.42300
C  44.50700 9.75100 30.78300
C  43.22000 9.24600 31.01400
C  46.12900 9.83400 28.65900
C  44.95900 10.40600 31.99800
O  46.02200 10.94900 32.26500
C  43.82300 10.19800 33.03400
C  44.44200 9.44700 34.20200
O  44.99900 8.44900 34.11500
O  44.14200 10.03900 35.41700
C  44.62900 9.34200 36.67800
H  37.85800 6.61300 32.86600
H  38.56400 5.84200 26.35200
H  44.34600 8.27800 26.95500
H  41.83000 8.20300 34.75800
H  38.86000 8.18300 34.31100
H  39.25700 6.49500 35.61900
H  40.93000 6.55200 35.30700
H  39.86700 5.54700 34.21800
H  40.72600 10.92700 34.31000
H  41.78200 10.31400 35.53400
H  39.88800 9.15800 36.48300
H  38.80500 10.28800 35.61000
H  35.19000 4.69800 31.04500
H  34.85600 6.39100 30.65500
H  35.91200 6.06000 31.94900
H  34.80300 4.04600 28.75200
H  34.29000 4.56100 27.15400
H  34.42600 5.78900 28.50300
H  40.32100 7.14600 24.99000
H  43.16000 6.59900 25.59500
H  40.70400 4.32300 25.76400
H  42.22100 4.71500 25.01800
H  40.85700 4.88400 24.02100
H  42.38900 8.07300 23.87000
H  43.59600 8.66800 24.94800
H  41.17200 9.69800 26.00600
H  40.87800 9.78000 24.34800
H  42.25600 10.65200 25.02100
H  46.98300 9.56500 29.28100
H  46.18000 10.91000 28.49200
H  46.08400 9.27500 27.72500
H  43.42000 11.10000 33.49300
H  45.66600 9.61200 36.87900
H  44.41500 8.27500 36.61000
H  43.99300 9.62700 37.51500
Mg 8.68400 48.49400 27.87800
C  7.09900 47.68500 30.88100
C  11.62500 48.64400 29.70700
C  10.35500 49.66400 25.20300
C  5.73000 48.80300 26.36200
N  9.23500 48.22600 30.06500
C  8.45500 47.85300 31.13500
C  9.19100 47.88400 32.50800
C  10.67300 48.27200 32.01800
C  10.50700 48.40300 30.53500
C  11.25800 49.59600 32.66000
C  9.07000 46.68200 33.44100
C  8.74200 46.99000 34.90200
H  9.48300 46.03200 35.87700
N  10.72400 48.95600 27.44100
C  11.76000 48.83900 28.33900
C  12.96700 49.01200 27.64700
C  12.66600 49.31400 26.30100
C  11.19500 49.39500 26.25600
C  14.37700 48.85900 28.29000
C  13.56300 49.75700 25.09200
O  13.15800 50.14600 24.02600
C  15.06400 49.43900 25.18800
N  8.11700 49.11000 26.04200
C  9.00100 49.61800 25.07100
C  8.18800 50.15100 23.87400
C  6.72900 49.75400 24.24300
C  6.85300 49.08800 25.60400
C  8.39500 51.67400 23.60400
C  6.07400 48.78700 23.23100
C  6.73200 47.45800 22.75300
N  6.80000 48.05300 28.39900
C  5.65100 48.21300 27.66000
C  4.44900 47.89400 28.47400
C  5.00000 47.75000 29.72600
C  6.42600 47.83700 29.69100
C  2.97500 47.79300 27.98000
C  4.65300 47.38100 31.13800
O  3.55200 47.08100 31.54700
C  5.97700 47.27600 31.88300
C  6.05100 45.78200 32.24200
O  6.51800 44.95000 31.54100
O  5.39800 45.54000 33.46200
C  5.52000 44.16900 34.07200
H  12.57800 48.67200 30.23900
H  10.84700 50.07100 24.31700
H  4.78300 48.95100 25.83800
H  8.77700 48.75100 33.02400
H  11.32900 47.40200 32.03100
H  12.34200 49.51500 32.58300
H  10.91900 49.83200 33.66800
H  11.09800 50.41300 31.95600
H  10.03400 46.18100 33.52600
H  8.51300 45.92300 32.89100
H  7.68800 46.73700 35.01600
H  8.82800 48.05900 35.09600
H  14.82700 47.92300 27.96100
H  14.32900 48.94600 29.37500
H  14.99400 49.68100 27.92700
H  15.66500 50.18200 25.71200
H  15.42800 49.27800 24.17300
H  15.08400 48.50700 25.75300
H  8.55500 49.70800 22.94800
H  6.09600 50.63900 24.31100
H  9.21100 51.78000 22.89000
H  8.62400 52.08400 24.58700
H  7.58100 52.32200 23.27800
H  5.97600 49.36900 22.31500
H  5.04800 48.51200 23.47400
H  7.35900 47.63200 21.87800
H  5.91300 46.76300 22.56600
H  7.45300 47.08200 23.47900
H  2.57600 48.77500 27.72600
H  2.36700 47.35700 28.77300
H  2.97100 47.16100 27.09100
H  6.03200 47.86000 32.80200
H  6.33900 44.11800 34.79000
H  5.54700 43.35300 33.35000
H  4.62500 44.08300 34.68900

