158

Mg 29.97100 57.81300 39.66700
C  27.53800 55.75600 38.17800
C  32.23000 55.28400 38.90300
C  32.59000 60.04500 40.06000
C  27.80900 60.37600 39.91300
N  29.87900 55.76800 38.52500
C  28.74700 55.13800 38.13100
C  28.99400 53.64200 37.81500
C  30.54600 53.54300 38.00300
C  30.90500 54.92000 38.60000
C  31.08300 52.36700 38.88200
C  28.78700 53.26100 36.33600
C  29.19300 54.40100 35.27200
H  28.08300 54.94900 34.38400
N  32.15400 57.62600 39.61100
C  32.81300 56.51800 39.33400
C  34.24500 56.84300 39.27800
C  34.41200 58.17200 39.69300
C  33.03600 58.70400 39.88400
C  35.39100 55.88600 39.05500
C  35.74900 58.92200 39.77800
O  36.77300 58.35800 39.60100
C  35.82600 60.35600 40.06700
N  30.20600 59.88400 39.93300
C  31.35600 60.60400 40.12500
C  31.14000 62.07400 40.45700
C  29.58400 62.11000 40.58400
C  29.12700 60.74300 40.08200
C  31.93200 62.60700 41.68300
C  28.95700 63.35800 39.93400
C  28.10300 64.26100 40.85300
N  28.01200 58.05800 39.36600
C  27.21900 59.10900 39.66400
C  25.86800 58.73900 39.42300
C  25.95900 57.43200 38.92200
C  27.28400 57.03700 38.82800
C  24.69800 59.61100 39.48400
C  25.15200 56.40400 38.24600
O  23.94400 56.28300 38.10800
C  26.15400 55.26400 37.80500
C  25.70400 54.09300 38.65700
O  25.84800 53.96200 39.83900
O  25.04300 53.21000 37.85200
C  24.25400 52.11100 38.49200
H  33.02200 54.56000 38.69700
H  33.37200 60.80100 40.15200
H  27.04400 61.12000 40.14600
H  28.37700 52.98300 38.42600
H  31.09500 53.49500 37.06300
H  32.06700 52.58100 39.29800
H  31.09700 51.48400 38.24300
H  30.33100 52.33300 39.67100
H  27.72100 53.04000 36.28800
H  29.31200 52.42200 35.88100
H  29.99400 54.09400 34.59900
H  29.48600 55.29000 35.82900
H  35.99300 56.22500 38.21200
H  34.99400 54.88500 38.88700
H  36.04400 55.83300 39.92600
H  35.33200 60.77600 39.19100
H  36.87100 60.66600 40.03900
H  35.52900 60.66800 41.06900
H  31.40400 62.63400 39.56100
H  29.33400 62.14300 41.64500
H  31.16300 62.99200 42.35200
H  32.63500 63.39000 41.39600
H  32.48400 61.80000 42.16500
H  28.28000 62.98800 39.16500
H  29.61700 64.13000 39.53900
H  28.22900 65.29000 40.51400
H  28.44000 64.12700 41.88100
H  27.05100 63.98800 40.77300
H  24.65700 60.40600 38.74000
H  24.65200 60.00900 40.49800
H  23.87100 58.93900 39.25500
H  25.92100 55.14100 36.74800
H  24.55700 51.84400 39.50400
H  24.29600 51.18800 37.91300
H  23.19700 52.37600 38.50500
Mg -0.94300 33.61300 26.39600
C  -2.78800 32.18800 28.98000
C  0.63900 35.59500 28.69300
C  0.44300 35.25200 23.80600
C  -3.22000 32.05000 24.19500
N  -1.19100 33.96900 28.59400
C  -1.83300 33.12200 29.47200
C  -1.47900 33.46600 30.95700
C  -0.50700 34.64600 30.71100
C  -0.28300 34.71600 29.22000
C  -1.03800 35.94900 31.40600
C  -0.81600 32.18200 31.74900
C  -1.30000 31.89800 33.18600
H  -0.26500 32.07600 34.27500
N  0.32200 35.22400 26.27400
C  0.98500 35.81000 27.34800
C  2.02200 36.67100 26.84000
C  1.84300 36.67500 25.45800
C  0.80500 35.73500 25.09500
C  2.78700 37.77200 27.76700
C  2.55700 37.56500 24.47700
O  2.35300 37.62800 23.29000
C  3.65900 38.51900 25.00900
N  -1.36100 33.63400 24.30400
C  -0.55400 34.34800 23.41600
C  -1.14100 34.15200 21.99400
C  -2.23200 33.07600 22.16300
C  -2.33000 32.93400 23.65000
C  -1.71400 35.48900 21.38700
C  -1.79100 31.73400 21.30300
C  -1.20800 30.51400 22.01900
N  -2.55900 32.26000 26.45400
C  -3.33600 31.64000 25.48200
C  -4.15000 30.64900 26.13700
C  -4.04100 30.85500 27.48900
C  -3.03400 31.86000 27.61600
C  -5.07600 29.74900 25.37500
C  -4.49000 30.40300 28.74700
O  -5.24600 29.49600 28.99600
C  -3.72900 31.23200 29.79300
C  -4.72000 31.91700 30.69000
O  -5.40700 32.89900 30.49400
O  -4.70800 31.08600 31.83000
C  -5.68700 31.49700 32.81900
H  1.12700 36.23000 29.43600
H  0.99600 35.51300 22.90100
H  -3.78000 31.44800 23.47600
H  -2.37900 33.70600 31.52200
H  0.44900 34.47600 31.20600
H  -1.57300 35.73500 32.33100
H  -1.68600 36.42200 30.66900
H  -0.18300 36.59400 31.61300
H  0.25500 32.37400 31.69400
H  -1.05600 31.25100 31.23700
H  -1.56300 30.84100 33.16600
H  -2.28200 32.33800 33.36200
H  3.85400 37.88500 27.57500
H  2.75800 37.27700 28.73800
H  2.16200 38.64600 27.95100
H  3.17400 39.24200 25.66500
H  4.33500 38.96600 24.28100
H  4.27400 37.76500 25.50100
H  -0.36600 33.88000 21.27800
H  -3.22500 33.36000 21.81500
H  -1.75500 36.17000 22.23600
H  -2.76300 35.30800 21.15100
H  -1.24600 35.87800 20.48200
H  -1.04900 31.98100 20.54400
H  -2.70500 31.37700 20.82900
H  -1.77700 29.60700 21.81600
H  -1.10700 30.60700 23.10100
H  -0.17700 30.35300 21.70400
H  -5.97700 30.22400 24.98900
H  -5.27800 28.91100 26.04200
H  -4.49000 29.27100 24.58900
H  -3.17500 30.53500 30.42200
H  -6.63700 31.87100 32.43700
H  -5.15900 32.30000 33.33300
H  -5.94700 30.65600 33.46300

