158

Mg 16.56700 -1.40900 28.18900
C  15.46300 0.46300 30.93800
C  18.64500 -3.08500 30.27600
C  17.56400 -3.06600 25.62000
C  14.65000 0.72800 26.21600
N  17.05600 -1.24400 30.38800
C  16.38900 -0.48400 31.33300
C  16.83500 -0.82200 32.79500
C  18.17700 -1.66400 32.52900
C  18.05600 -2.00100 30.96900
C  19.54600 -0.84800 32.89900
C  15.72700 -1.67200 33.42700
C  15.39900 -1.34300 34.87900
H  16.43900 -0.63200 35.72800
N  17.81500 -3.00400 27.99500
C  18.53000 -3.63800 28.98700
C  19.18400 -4.87300 28.41100
C  18.88700 -4.78300 27.03700
C  18.02500 -3.61100 26.83800
C  20.13900 -5.73800 29.24700
C  19.50700 -5.56700 25.91800
O  19.12100 -5.45500 24.76000
C  20.48300 -6.55500 26.19000
N  16.12100 -1.17700 26.14800
C  16.75900 -1.99900 25.24600
C  16.36000 -1.59600 23.81600
C  15.39400 -0.35500 24.13000
C  15.31700 -0.29000 25.57700
C  17.63800 -1.32900 22.92500
C  13.99500 -0.47300 23.49000
C  12.85300 -1.24100 24.10700
N  15.33100 0.26200 28.46100
C  14.56700 1.04200 27.59000
C  13.83700 2.08400 28.25400
C  14.10400 1.84500 29.57200
C  15.07200 0.81700 29.60700
C  12.83100 3.00900 27.70900
C  13.61700 2.16200 30.94500
O  12.75100 2.95800 31.30000
C  14.67300 1.39000 31.93200
C  15.32300 2.56200 32.63000
O  16.03700 3.33800 32.03400
O  15.11800 2.63600 33.98700
C  15.65200 3.69400 34.86000
H  19.20100 -3.73700 30.95200
H  17.76600 -3.73900 24.78400
H  14.08700 1.44500 25.61500
H  16.99600 0.07400 33.39400
H  18.22700 -2.56600 33.13800
H  19.33300 0.16700 33.23400
H  20.10200 -0.91500 31.96400
H  20.03400 -1.49400 33.63000
H  15.93400 -2.74100 33.45100
H  14.82500 -1.50600 32.83800
H  15.18800 -2.29300 35.37000
H  14.51200 -0.71500 34.96100
H  19.94500 -5.55600 30.30400
H  21.20900 -5.53600 29.22300
H  19.93600 -6.76000 28.92500
H  20.21100 -7.55700 26.52100
H  21.24700 -6.03300 26.76600
H  20.96500 -6.76400 25.23500
H  15.67700 -2.39300 23.52200
H  15.89700 0.55100 23.79400
H  18.28500 -0.58400 23.38800
H  17.15100 -0.80900 22.10000
H  18.16500 -2.20500 22.54500
H  14.12800 -0.85300 22.47800
H  13.70000 0.56900 23.36700
H  12.50200 -1.89800 23.31100
H  12.05700 -0.52900 24.32600
H  13.14700 -1.93100 24.89800
H  13.27500 4.00500 27.72700
H  11.96000 3.15900 28.34700
H  12.51300 2.74400 26.70000
H  14.20500 0.83800 32.74700
H  16.09500 3.03700 35.60900
H  14.90200 4.16300 35.49700
H  16.24600 4.50600 34.44200
Mg 30.64300 58.02500 39.72800
C  27.54700 56.38900 38.97900
C  32.28300 55.17100 38.91600
C  33.37600 59.94600 39.46300
C  28.57200 60.86700 40.56900
N  29.98700 56.09700 38.92000
C  28.69500 55.62000 38.67800
C  28.75000 54.13300 38.43800
C  30.14900 53.79000 38.92400
C  30.85400 55.06600 38.93900
C  30.36700 52.99200 40.24700
C  28.24700 53.68900 37.00000
C  27.83400 54.76300 36.01900
H  28.20700 54.52300 34.52200
N  32.55600 57.62300 39.35600
C  33.09200 56.34600 38.95600
C  34.49000 56.44100 38.58800
C  34.87800 57.83900 38.80700
C  33.62400 58.57300 39.26800
C  35.41500 55.29800 38.15900
C  36.21100 58.47600 38.42800
O  37.06400 57.78700 37.90200
C  36.53700 59.94100 38.56900
N  30.92800 60.10100 39.97800
C  32.18000 60.59000 39.95700
C  32.05900 62.14000 40.32600
C  30.64800 62.36700 40.82500
C  29.94900 61.06500 40.50300
C  33.18200 62.56800 41.33100
C  29.94000 63.49700 40.13600
C  29.06600 64.46800 40.87800
N  28.46300 58.55500 39.83800
C  27.84500 59.78500 40.09200
C  26.48300 59.58100 39.93300
C  26.29200 58.29300 39.44000
C  27.57500 57.68700 39.33200
C  25.40000 60.64100 40.18700
C  25.28600 57.42300 38.96900
O  24.11800 57.51900 38.67400
C  26.08900 56.04900 38.73400
C  25.60600 55.14600 39.76900
O  25.98500 55.04900 40.89600
O  24.79400 54.17400 39.22000
C  24.49000 53.12600 40.13800
H  32.93200 54.29800 38.82200
H  34.19000 60.67400 39.44800
H  27.91800 61.69300 40.85900
H  28.07300 53.64000 39.13500
H  30.69500 53.23200 38.16400
H  30.57500 53.76700 40.98500
H  31.20000 52.32700 40.02000
H  29.44000 52.47500 40.49400
H  27.45100 52.95400 37.12000
H  29.04200 53.16700 36.46700
H  28.04500 55.77900 36.35300
H  26.76100 54.73800 35.82700
H  34.79100 54.41300 38.03500
H  36.16500 54.97200 38.88000
H  35.84400 55.68300 37.23400
H  37.55500 60.10300 38.21400
H  36.37100 60.16900 39.62200
H  35.93300 60.63100 37.97900
H  32.34900 62.57100 39.36800
H  30.68200 62.37200 41.91400
H  32.79400 63.27100 42.06800
H  34.07200 62.96800 40.84600
H  33.57100 61.70200 41.86700
H  29.49200 63.13600 39.21000
H  30.78300 64.09900 39.79900
H  28.05400 64.10100 40.71000
H  29.24200 65.45100 40.44100
H  29.34700 64.48400 41.93100
H  24.66400 60.21800 40.87000
H  25.04700 61.08600 39.25700
H  25.86700 61.44100 40.76000
H  25.87900 55.67600 37.73100
H  24.22800 53.48500 41.13400
H  25.38100 52.54800 40.38500
H  23.85100 52.37100 39.68100

