158

Mg 25.56300 1.65000 29.83300
C  27.65800 1.44200 32.52600
C  22.78100 1.99800 32.06500
C  23.47100 1.34400 27.32000
C  28.31200 0.73500 27.68700
N  25.28700 1.62700 32.00400
C  26.28700 1.69000 32.89400
C  25.85500 2.14800 34.33600
C  24.29900 1.84500 34.17700
C  24.06400 1.87400 32.71500
C  23.92700 0.39300 34.74100
C  26.15900 3.65200 34.63100
C  27.31700 3.80800 35.66200
H  27.09300 4.44600 37.01900
N  23.44600 1.78400 29.70800
C  22.50700 1.93200 30.69900
C  21.22100 1.96100 30.08800
C  21.36200 1.62300 28.73000
C  22.78000 1.56300 28.54100
C  19.92600 2.20900 30.80900
C  20.33500 1.50100 27.67900
O  20.53500 1.50700 26.47700
C  18.90700 1.35800 28.05700
N  25.85900 1.13300 27.84000
C  24.82100 1.19500 26.92800
C  25.24000 0.88700 25.48400
C  26.81300 0.84600 25.63200
C  27.01500 0.98700 27.12600
C  24.68400 -0.41900 24.89400
C  27.45800 2.00400 24.87100
C  27.36200 3.42800 25.46200
N  27.52300 1.18100 30.02800
C  28.49200 0.83300 29.06100
C  29.69400 0.44100 29.69100
C  29.48500 0.79900 31.04700
C  28.12400 1.14500 31.18100
C  30.99800 -0.09000 29.04400
C  30.10300 0.83700 32.40500
O  31.22600 0.53500 32.79600
C  28.94800 1.37800 33.35400
C  28.85300 0.63400 34.62700
O  28.06000 -0.24700 34.87400
O  29.76700 1.13400 35.54500
C  29.80000 0.54900 36.88600
H  21.94100 2.13700 32.74800
H  22.86200 1.14600 26.43500
H  29.17600 0.39900 27.11000
H  26.25500 1.45900 35.08000
H  23.76200 2.65900 34.66300
H  23.52900 -0.28700 33.98800
H  23.21200 0.58300 35.54100
H  24.77100 -0.16400 35.14700
H  25.25800 4.21300 34.88000
H  26.53800 4.20700 33.77300
H  28.08700 4.37000 35.13400
H  27.74000 2.86000 35.99500
H  19.38600 3.01500 30.31300
H  20.18600 2.51000 31.82400
H  19.39700 1.25900 30.87900
H  18.74200 0.61500 28.83800
H  18.38000 1.01900 27.16500
H  18.48700 2.26100 28.50000
H  24.90800 1.69300 24.83000
H  27.43700 -0.01100 25.38100
H  24.09300 -0.84200 25.70700
H  25.52000 -1.03300 24.55900
H  23.98700 -0.16400 24.09600
H  26.97600 2.09400 23.89700
H  28.52100 1.77600 24.80400
H  26.98200 4.09700 24.69000
H  28.34300 3.75700 25.80400
H  26.65300 3.37700 26.28900
H  31.21800 0.11000 27.99500
H  31.09700 -1.16400 29.20000
H  31.78200 0.42300 29.60100
H  29.25900 2.37800 33.65600
H  29.50400 -0.49700 36.80500
H  29.08900 1.02400 37.56200
H  30.82500 0.72400 37.21300
Mg -5.23400 24.52600 25.68200
C  -4.09200 25.77700 28.70700
C  -7.35700 22.51300 27.40800
C  -6.50200 23.42300 22.68700
C  -3.21900 26.78200 23.95800
N  -5.57800 24.15800 27.83400
C  -5.16900 24.88200 28.82900
C  -5.85200 24.66300 30.16400
C  -6.71200 23.43400 29.76100
C  -6.58100 23.31400 28.26300
C  -6.55800 22.13100 30.50100
C  -6.58800 25.92000 30.77700
C  -6.37700 26.09400 32.37100
H  -5.71600 25.06300 33.24700
N  -6.68300 23.06300 25.15000
C  -7.44800 22.42600 26.01900
C  -8.30400 21.59700 25.33800
C  -8.12500 21.81900 23.91300
C  -7.10700 22.87600 23.84700
C  -9.36400 20.73100 26.00100
C  -8.78700 21.18000 22.73500
O  -8.69900 21.59500 21.58800
C  -9.74200 19.97700 22.94300
N  -4.96200 25.12600 23.61300
C  -5.42200 24.38700 22.57000
C  -5.02100 25.06900 21.19500
C  -4.05800 26.18000 21.65000
C  -4.14200 26.06600 23.19400
C  -4.27400 24.04000 20.28200
C  -4.46700 27.49700 21.00000
C  -3.31700 28.41200 20.63100
N  -3.89400 25.98000 26.19200
C  -3.13500 26.77400 25.38900
C  -2.31900 27.63500 26.24200
C  -2.64300 27.24300 27.55100
C  -3.59800 26.18900 27.46300
C  -1.40300 28.65600 25.76200
C  -2.46900 27.58100 29.00100
O  -1.82600 28.47600 29.46600
C  -3.40100 26.53400 29.81800
C  -2.53600 25.74900 30.77100
O  -2.00500 24.66400 30.50800
O  -2.36700 26.39700 31.98900
C  -1.42600 25.84300 32.95900
H  -8.00200 21.84200 27.97900
H  -6.90800 23.12100 21.71900
H  -2.51400 27.45600 23.46700
H  -5.02900 24.36700 30.81500
H  -7.75500 23.71600 29.90700
H  -7.16700 21.29200 30.16400
H  -6.64500 22.30600 31.57300
H  -5.53200 21.77300 30.42300
H  -7.65400 25.74300 30.62900
H  -6.21200 26.74600 30.17300
H  -7.38000 26.32000 32.73400
H  -5.70700 26.92300 32.60200
H  -9.13900 19.68500 25.79000
H  -10.35000 20.89600 25.56600
H  -9.49600 20.78600 27.08200
H  -9.25500 19.32000 23.66300
H  -9.96100 19.63400 21.93200
H  -10.62400 20.43600 23.39000
H  -5.99000 25.30100 20.75300
H  -3.05600 25.99800 21.26100
H  -3.48300 24.53000 19.71400
H  -4.99600 23.63300 19.57300
H  -3.89500 23.24500 20.92400
H  -5.08600 28.05400 21.70300
H  -4.96200 27.32100 20.04500
H  -3.10300 28.26500 19.57200
H  -2.37400 28.05100 21.04300
H  -3.44600 29.44700 20.94700
H  -0.65400 28.37800 25.02000
H  -0.89500 29.11900 26.60800
H  -1.98200 29.39100 25.20300
H  -4.11700 27.18600 30.31900
H  -1.91600 24.99200 33.43200
H  -1.05000 26.48100 33.75800
H  -0.63600 25.35500 32.38800

