158

Mg 35.24400 1.90300 29.27800
C  33.04800 2.98500 31.88900
C  37.78000 1.85300 31.72700
C  37.40500 0.96800 26.89400
C  32.68500 2.31100 27.07200
N  35.39600 2.27400 31.49100
C  34.31100 2.68800 32.33800
C  34.80200 2.70600 33.80800
C  36.35200 2.69700 33.69500
C  36.55600 2.22200 32.25200
C  37.00600 4.17000 33.85700
C  34.20600 1.66000 34.81200
C  33.81800 2.15300 36.24600
H  34.60800 3.29400 36.83400
N  37.32200 1.45000 29.38200
C  38.17200 1.55400 30.41300
C  39.47900 1.06900 29.98900
C  39.36900 0.70400 28.59900
C  38.00800 1.08800 28.20700
C  40.67900 1.15100 30.83600
C  40.44800 0.26000 27.66800
O  40.18400 -0.03500 26.50000
C  41.88300 0.00600 28.11900
N  35.16400 1.80700 27.20700
C  36.18100 1.34700 26.44700
C  35.72200 1.24000 24.97700
C  34.14200 1.36800 25.08500
C  33.97800 1.90600 26.54300
C  36.41600 2.27700 24.01500
C  33.34900 0.10100 24.91100
C  32.02000 0.23400 24.26700
N  33.31400 2.57000 29.41600
C  32.40800 2.67600 28.41500
C  31.17400 3.12100 28.93000
C  31.31100 3.21500 30.30300
C  32.62100 2.84600 30.54300
C  29.84300 3.20800 28.18000
C  30.62900 3.55300 31.60000
O  29.48800 3.78700 31.93900
C  31.80800 3.41400 32.68000
C  31.92200 4.68200 33.39000
O  32.68600 5.65200 33.17300
O  31.05000 4.63000 34.48300
C  31.33400 5.55100 35.59300
H  38.55400 1.94800 32.49000
H  38.03400 0.58800 26.08600
H  31.90100 2.33600 26.31300
H  34.56300 3.72000 34.13000
H  36.77700 2.08200 34.48800
H  36.29100 4.77900 34.41100
H  37.21900 4.71300 32.93600
H  37.89800 4.09500 34.47900
H  34.96000 0.88200 34.92800
H  33.30100 1.12100 34.53100
H  34.12200 1.32300 36.88300
H  32.77300 2.33300 36.50000
H  41.21800 0.20800 30.74500
H  40.45100 1.48900 31.84700
H  41.36200 1.92400 30.48300
H  42.21000 0.81000 28.77900
H  42.52700 -0.06900 27.24200
H  41.84600 -0.88400 28.74700
H  36.02900 0.22300 24.73300
H  33.90700 2.11400 24.32600
H  36.88500 1.89400 23.10900
H  37.27700 2.60100 24.59900
H  35.75200 3.11800 23.81700
H  33.25500 -0.34000 25.90400
H  33.88900 -0.55400 24.22800
H  31.95100 -0.34700 23.34700
H  31.80900 1.29600 24.14200
H  31.18500 -0.18300 24.83000
H  29.40400 2.21400 28.09000
H  30.01600 3.52000 27.15000
H  29.14400 3.88300 28.67300
H  31.56900 2.51700 33.25100
H  30.92700 5.16300 36.52700
H  30.67400 6.41600 35.52500
H  32.28900 6.06400 35.70500
Mg 36.63500 49.61400 24.59600
C  36.45300 47.74400 27.63000
C  35.30100 52.36700 26.28300
C  35.90900 51.13300 21.58700
C  37.51200 46.78000 22.93800
N  35.84700 49.90200 26.68200
C  35.91100 49.04900 27.72700
C  35.58600 49.89700 29.00600
C  35.01000 51.26000 28.47100
C  35.42600 51.17500 27.04900
C  33.48100 51.49500 28.66600
C  36.81900 50.13300 29.94000
C  36.54800 50.04000 31.45400
H  35.22700 49.68900 31.94300
N  35.75800 51.52500 24.00000
C  35.41700 52.56400 24.87600
C  34.94700 53.67100 24.05000
C  35.24700 53.32300 22.72100
C  35.63200 51.91200 22.72500
C  34.28000 54.80800 24.74600
C  35.28200 54.17900 21.49300
O  35.52400 53.79200 20.39400
C  34.95400 55.56400 21.61900
N  36.74600 49.03400 22.54400
C  36.49400 49.90900 21.49300
C  36.83500 49.18800 20.12400
C  37.63600 47.93100 20.61200
C  37.29100 47.86700 22.13200
C  35.57100 48.88300 19.31100
C  39.16000 48.04200 20.36900
C  39.88000 46.67000 20.43300
N  36.95600 47.60900 25.16100
C  37.34100 46.58500 24.35800
C  37.56400 45.36000 25.19900
C  37.30000 45.80000 26.50600
C  36.82300 47.12100 26.42300
C  38.19500 44.16200 24.74600
C  37.26500 45.39000 27.91000
O  37.54200 44.32300 28.36600
C  36.72700 46.67100 28.70800
C  35.49700 46.10600 29.32800
O  34.45800 45.86200 28.76400
O  35.78500 45.75300 30.62100
C  34.73900 45.05700 31.20200
H  35.17200 53.22900 26.94100
H  35.68800 51.51200 20.58700
H  37.89000 45.95600 22.32900
H  34.82200 49.35700 29.56600
H  35.57000 52.12500 28.82900
H  33.14000 50.99500 29.57300
H  32.88900 51.03400 27.87600
H  33.17400 52.53600 28.77100
H  37.27600 51.10400 29.74600
H  37.55300 49.36700 29.69000
H  36.98200 50.98100 31.79300
H  37.21400 49.27000 31.84400
H  35.02000 55.55400 25.03400
H  33.81200 54.51500 25.68600
H  33.45900 55.30500 24.23100
H  33.87500 55.65400 21.48700
H  35.41100 56.17900 20.84400
H  35.23900 55.95300 22.59700
H  37.38800 49.86200 19.46900
H  37.26100 46.97000 20.26100
H  34.69900 49.41500 19.69200
H  35.38200 47.81000 19.27700
H  35.69100 49.30100 18.31100
H  39.47900 48.68900 21.18600
H  39.32400 48.74400 19.55100
H  40.56100 46.47600 19.60400
H  39.18600 45.83300 20.50500
H  40.50200 46.59900 21.32500
H  39.01800 43.91300 25.41700
H  38.69800 44.20800 23.78000
H  37.48000 43.36400 24.54600
H  37.28500 47.04900 29.56500
H  34.88400 45.16500 32.27700
H  34.80000 43.99200 30.98200
H  33.69400 45.19800 30.92600

