158

Mg -0.26900 7.74200 26.86800
C  0.49300 9.71500 29.75100
C  -0.60300 5.11400 29.06900
C  -0.49300 5.72400 24.25800
C  0.66100 10.46700 24.89800
N  0.03800 7.44700 29.17200
C  0.13200 8.42500 30.10100
C  -0.27000 7.90100 31.49000
C  -0.33200 6.37700 31.29500
C  -0.33700 6.31800 29.76100
C  0.97500 5.57800 31.72000
C  -1.54800 8.54500 32.07000
C  -1.65300 8.40000 33.66600
H  -0.50500 8.01800 34.56500
N  -0.62200 5.72600 26.68100
C  -0.75400 4.78000 27.69900
C  -1.05600 3.50200 27.15900
C  -1.12800 3.70100 25.75400
C  -0.73400 5.06600 25.46900
C  -1.37800 2.25700 28.02000
C  -1.43400 2.71600 24.67900
O  -1.33900 3.04500 23.47700
C  -1.89300 1.32900 25.07200
N  -0.21200 8.19500 24.92200
C  -0.26000 7.13400 23.99900
C  0.05000 7.61800 22.60400
C  0.18000 9.17400 22.72400
C  0.21900 9.33500 24.28900
C  1.29500 6.95400 21.89000
C  -0.84600 10.06800 22.10700
C  -2.35200 9.87100 22.50400
N  0.41600 9.75400 27.22300
C  0.78900 10.70000 26.33800
C  1.31300 11.83200 27.09700
C  1.22200 11.49900 28.44500
C  0.66500 10.20900 28.45100
C  1.63300 13.17300 26.50600
C  1.41500 11.94000 29.77900
O  1.91800 13.02100 30.21500
C  0.85600 10.83500 30.70700
C  1.94700 10.62600 31.70700
O  2.99500 10.03400 31.48700
O  1.63200 11.21000 32.88500
C  2.78200 11.29400 33.87300
H  -0.48900 4.23700 29.70900
H  -0.51800 5.17100 23.31700
H  0.95200 11.30000 24.25400
H  0.50900 8.26900 32.15800
H  -1.16900 5.82000 31.71700
H  1.62800 6.17900 32.35400
H  1.66400 5.27800 30.93000
H  0.67600 4.62700 32.16100
H  -2.30300 7.83100 31.74100
H  -1.67300 9.53600 31.63400
H  -2.43200 7.68500 33.93300
H  -2.11700 9.33700 33.97300
H  -1.31200 2.52700 29.07400
H  -0.65100 1.46100 27.85900
H  -2.33700 1.74000 27.96800
H  -2.88300 1.35600 25.52600
H  -0.97700 0.98700 25.55500
H  -1.95000 0.83900 24.10000
H  -0.76600 7.36900 21.92600
H  1.17100 9.54000 22.45700
H  2.18300 7.58500 21.83800
H  0.94900 6.58500 20.92400
H  1.64200 6.06800 22.42300
H  -0.85700 9.95700 21.02300
H  -0.61600 11.09100 22.40400
H  -2.90500 9.98500 21.57200
H  -2.68700 10.64100 23.19900
H  -2.45400 8.87800 22.94100
H  1.73600 13.19800 25.42100
H  2.51800 13.59800 26.98100
H  0.88800 13.83600 26.94400
H  0.00900 11.24900 31.25300
H  2.36000 11.80100 34.74100
H  3.55000 11.88900 33.37900
H  3.25400 10.33600 34.09100
Mg 7.64800 2.73400 28.49000
C  9.45500 1.82000 31.29200
C  5.73400 4.91700 30.42200
C  6.01500 3.68700 25.71100
C  9.26500 0.21400 26.65100
N  7.67100 3.31600 30.65700
C  8.43800 2.76900 31.59100
C  8.09600 3.40900 33.01100
C  6.79700 4.25100 32.67800
C  6.68600 4.19000 31.14300
C  5.52000 3.82400 33.49600
C  9.29700 4.33900 33.34500
C  9.22100 4.73300 34.85400
H  10.02100 3.97700 35.84100
N  6.21800 4.15800 28.14600
C  5.49900 4.86000 29.08100
C  4.43100 5.65700 28.43700
C  4.55600 5.37800 27.02100
C  5.60100 4.37300 26.90500
C  3.44900 6.53800 29.15100
C  3.77900 5.98200 25.91800
O  3.98200 5.74600 24.72800
C  2.70800 6.96200 26.19000
N  7.68800 2.08600 26.48500
C  6.94800 2.70100 25.46500
C  7.29900 2.13800 24.10900
C  8.28500 0.96900 24.43000
C  8.52300 1.11200 25.97800
C  6.06900 1.63600 23.30400
C  9.64400 1.05600 23.63900
C  10.95600 1.82800 24.23400
N  9.06600 1.28000 28.84400
C  9.62900 0.34600 27.99600
C  10.68100 -0.35700 28.65900
C  10.60600 0.12900 29.99000
C  9.63600 1.20100 30.03300
C  11.57900 -1.51000 28.23400
C  11.09500 -0.01500 31.31000
O  11.94000 -0.84800 31.71500
C  10.45900 1.14000 32.24300
C  9.70700 0.29600 33.25900
O  8.74300 -0.43800 33.10600
O  10.45200 0.37700 34.45300
C  10.13900 -0.61200 35.46900
H  5.15300 5.57400 31.07400
H  5.53600 4.01800 24.78700
H  9.91400 -0.44400 26.06900
H  7.94800 2.66700 33.79600
H  7.08500 5.25800 32.98200
H  4.80600 3.25600 32.90000
H  4.93300 4.67300 33.84400
H  5.92300 3.17800 34.27600
H  9.37500 5.12700 32.59600
H  10.20500 3.74200 33.25600
H  8.19100 4.63700 35.19700
H  9.54500 5.76700 34.97000
H  3.73700 7.56600 28.93300
H  3.51700 6.45000 30.23500
H  2.41400 6.33400 28.87600
H  1.92100 6.52700 26.80600
H  2.34800 7.33200 25.23100
H  3.09300 7.87500 26.64600
H  7.69700 2.96300 23.51900
H  7.83800 0.02200 24.12800
H  5.08800 1.74900 23.76500
H  6.19800 0.60400 22.98000
H  6.00400 2.22800 22.39000
H  9.31000 1.52800 22.71600
H  9.99100 0.05500 23.38100
H  11.27200 2.63000 23.56700
H  11.82800 1.17600 24.26700
H  10.78600 2.21500 25.23900
H  10.98700 -2.40700 28.41900
H  12.51600 -1.54800 28.79000
H  11.71800 -1.39600 27.15900
H  11.18300 1.67200 32.86100
H  9.75700 -1.57600 35.13300
H  9.39300 -0.22200 36.16200
H  11.08700 -0.74700 35.99000

