158

Mg 35.73200 1.44600 30.54200
C  33.37200 2.59800 32.93400
C  38.15400 1.55200 33.00700
C  37.83500 0.71300 28.20200
C  33.03900 1.71600 28.18200
N  35.80400 2.17100 32.68400
C  34.70500 2.50600 33.45400
C  35.14700 2.68400 34.96200
C  36.69300 2.80600 34.78000
C  36.90700 2.06800 33.44200
C  37.24200 4.29200 34.91300
C  34.61800 1.51200 35.85500
C  33.84600 2.01700 37.12000
H  34.33400 3.40400 37.69800
N  37.68500 0.96800 30.66400
C  38.50300 0.98700 31.77600
C  39.71600 0.38800 31.38000
C  39.56100 0.01800 30.03300
C  38.32400 0.57800 29.56100
C  40.82900 0.17700 32.42000
C  40.47600 -0.79500 29.17400
O  40.24800 -0.98000 28.02400
C  41.87400 -1.33300 29.66300
N  35.47800 1.31900 28.49800
C  36.57800 1.10000 27.71900
C  36.27800 1.29300 26.20600
C  34.72600 1.28300 26.17400
C  34.36700 1.45500 27.71200
C  36.92200 2.53200 25.44500
C  34.05000 -0.02400 25.66500
C  32.70800 0.27500 25.01200
N  33.57700 1.94900 30.50300
C  32.68500 2.00300 29.46800
C  31.38000 2.45100 29.93100
C  31.61400 2.62200 31.34300
C  32.95600 2.37900 31.55500
C  30.08300 2.64400 29.23500
C  30.99000 3.00400 32.62700
O  29.80200 3.20900 32.89300
C  32.10000 2.92000 33.76200
C  31.91600 4.25400 34.46600
O  32.34600 5.34400 34.15100
O  31.23200 4.09500 35.61400
C  31.00100 5.29500 36.35200
H  38.89200 1.76500 33.78300
H  38.57100 0.51200 27.42000
H  32.19300 1.77000 27.49400
H  34.73000 3.65400 35.23400
H  37.12100 2.19800 35.57700
H  37.79800 4.57900 34.02100
H  37.95600 4.31900 35.73600
H  36.57900 5.11200 35.18900
H  35.44200 0.92000 36.25200
H  33.96200 0.91900 35.21800
H  33.75900 1.27200 37.91100
H  32.85200 2.14500 36.69100
H  40.79500 -0.80400 32.89500
H  40.79100 1.00700 33.12500
H  41.75200 0.20000 31.84100
H  41.75200 -2.00900 30.51000
H  42.61100 -0.54000 29.78900
H  42.29800 -1.97500 28.89100
H  36.66500 0.47700 25.59600
H  34.26600 2.16600 25.73100
H  36.22400 3.11400 24.84300
H  37.82000 2.16100 24.95100
H  37.29500 3.19600 26.22400
H  34.02100 -0.76200 26.46600
H  34.70400 -0.48100 24.92200
H  32.27100 1.23600 25.28500
H  31.99600 -0.49900 25.29900
H  32.86300 0.07700 23.95200
H  30.31200 2.87700 28.19400
H  29.55900 3.51600 29.62800
H  29.54800 1.69700 29.17500
H  31.92800 2.14900 34.51200
H  30.81000 5.03200 37.39200
H  30.21900 5.96000 35.98500
H  31.94000 5.84900 36.33300
Mg 29.59300 57.37800 41.02400
C  26.62000 55.90100 39.93100
C  31.30500 55.14000 39.43700
C  32.22700 59.37100 41.43400
C  27.49200 59.99300 42.46000
N  28.97900 55.71300 39.83800
C  27.75300 55.22400 39.49500
C  27.85500 53.92800 38.65500
C  29.33300 53.58600 38.99700
C  29.97900 54.89500 39.35800
C  29.53000 52.62200 40.23500
C  27.45300 54.18900 37.12700
C  26.62500 52.99000 36.47100
H  26.71900 52.93900 34.94000
N  31.54600 57.23400 40.62900
C  32.07300 56.24900 39.93100
C  33.48600 56.36200 39.74100
C  33.83600 57.59500 40.36500
C  32.51000 58.12800 40.85500
C  34.33400 55.41600 39.00700
C  35.17600 58.06500 40.51400
O  36.09900 57.58200 39.86400
C  35.53400 59.37200 41.24700
N  29.76400 59.44600 41.69800
C  31.06600 59.97100 41.88500
C  30.98300 61.41600 42.38800
C  29.52300 61.48800 42.97300
C  28.88300 60.24500 42.31700
C  32.13000 61.78900 43.39900
C  28.74200 62.71200 42.45100
C  28.10500 63.61900 43.52900
N  27.50800 57.91300 41.15100
C  26.80300 58.96300 41.76800
C  25.36500 58.73100 41.68900
C  25.23200 57.50800 41.02600
C  26.60100 57.10700 40.65900
C  24.25400 59.59200 42.23700
C  24.27300 56.51700 40.52600
O  23.05400 56.49400 40.56900
C  25.15100 55.55000 39.75200
C  24.84700 54.18700 40.36400
O  25.32500 53.82300 41.43100
O  24.04900 53.45900 39.55500
C  23.48000 52.19000 39.89700
H  31.91800 54.25300 39.26200
H  33.10100 60.02600 41.44400
H  26.90300 60.77500 42.94400
H  27.21600 53.20000 39.15400
H  29.70500 53.18100 38.05600
H  28.68800 52.96800 40.83500
H  30.44400 52.74000 40.81600
H  29.37500 51.57400 39.98000
H  28.25700 54.44700 36.43800
H  26.74600 55.01800 37.08900
H  25.61900 53.06700 36.88300
H  27.07500 52.07100 36.84600
H  35.07800 55.86300 38.34800
H  33.70600 54.79500 38.36800
H  34.75100 54.65300 39.66400
H  36.59400 59.50800 41.46500
H  34.95700 59.25700 42.16400
H  35.16300 60.14200 40.57100
H  31.18100 62.09900 41.56200
H  29.33600 61.35900 44.03900
H  32.73600 62.54700 42.90200
H  32.84600 60.97900 43.53700
H  31.70300 62.03900 44.37000
H  28.08500 62.42100 41.63200
H  29.45600 63.36900 41.95500
H  28.90900 64.32800 43.72600
H  28.11900 62.94500 44.38600
H  27.12300 63.99000 43.23400
H  24.61700 60.18600 43.07600
H  23.45300 58.94200 42.58900
H  23.88200 60.21500 41.42300
H  24.80500 55.55800 38.71900
H  24.29600 51.51300 39.64600
H  22.65000 52.02500 39.21000
H  23.20600 52.00500 40.93600

