158

Mg 6.94500 54.32600 41.50600
C  6.93000 50.73200 41.15300
C  10.23800 54.33900 40.75100
C  6.73500 57.71200 41.42800
C  3.52600 54.12800 42.00800
N  8.33800 52.74800 40.91000
C  8.13700 51.34600 40.81800
C  9.44200 50.56400 40.46300
C  10.50900 51.71000 40.72200
C  9.69400 53.04700 40.80300
C  11.40000 51.58300 41.99900
C  9.50200 50.03400 39.01500
C  9.20500 50.99500 37.84400
H  7.94000 50.77600 36.97400
N  8.31300 55.80500 41.18700
C  9.63400 55.63300 40.85600
C  10.35500 56.95800 40.65300
C  9.30400 57.94900 40.95600
C  8.00200 57.18000 41.18000
C  11.81500 57.14300 40.32100
C  9.48900 59.47600 41.01400
O  10.61100 59.96100 40.70100
C  8.39200 60.55500 41.45200
N  5.26600 55.74400 41.59000
C  5.47500 57.13700 41.67400
C  4.23100 57.83200 42.10100
C  3.17100 56.68300 42.09200
C  4.02200 55.42100 41.85500
C  4.31300 58.52000 43.48400
C  1.95900 56.83600 41.10300
C  0.62200 57.36400 41.73400
N  5.51400 52.82600 41.60100
C  4.21500 52.88000 41.98700
C  3.65600 51.57500 42.14200
C  4.72400 50.72800 41.80900
C  5.79800 51.48400 41.49300
C  2.33700 51.22200 42.59100
C  5.06200 49.35900 41.93000
O  4.45800 48.40400 42.38600
C  6.53600 49.25600 41.44700
C  6.61700 48.39300 40.27000
O  6.35500 48.70600 39.10500
O  6.91400 47.11700 40.71600
C  6.97700 46.16700 39.57500
H  11.32600 54.31600 40.66600
H  6.52900 58.76800 41.61600
H  2.54100 54.09500 42.47800
H  9.74300 49.76300 41.13800
H  11.19300 51.68000 39.87400
H  11.06100 50.81700 42.69600
H  11.23800 52.48400 42.59000
H  12.45600 51.51400 41.73600
H  8.86400 49.15100 39.00500
H  10.46300 49.58200 38.76900
H  10.00800 50.93300 37.11000
H  9.11100 51.96200 38.33900
H  11.97200 58.04500 39.72900
H  12.16900 56.30000 39.72700
H  12.54800 57.18300 41.12700
H  8.67000 61.60300 41.33900
H  8.01800 60.32600 42.45000
H  7.54100 60.52100 40.77100
H  3.96700 58.53600 41.31200
H  2.79000 56.57700 43.10700
H  4.30400 59.60900 43.50700
H  5.21100 58.21600 44.02200
H  3.38300 58.25100 43.98600
H  1.78200 55.90400 40.56800
H  2.23500 57.43600 40.23600
H  0.58500 57.60400 42.79600
H  -0.19800 56.66200 41.57900
H  0.18800 58.29600 41.37100
H  1.87300 50.79800 41.70000
H  1.66300 52.02000 42.90300
H  2.25700 50.46100 43.36700
H  7.11700 48.79300 42.24500
H  7.07600 45.13300 39.90300
H  7.78700 46.45500 38.90500
H  6.06900 46.22600 38.97400
Mg 9.19900 48.75200 26.08700
C  7.64100 48.94200 29.10700
C  12.21600 49.51700 27.66800
C  10.85400 48.13800 23.15500
C  6.25800 48.09300 24.41400
N  9.83900 49.21500 28.11800
C  9.00600 49.25100 29.23200
C  9.66900 49.68400 30.46600
C  10.99500 50.34900 29.88900
C  11.07700 49.66000 28.48400
C  10.97800 51.89700 29.73500
C  9.93200 48.48700 31.44200
C  9.45400 48.60300 32.86500
H  9.43000 47.23600 33.68600
N  11.23800 48.74300 25.50800
C  12.31700 49.03500 26.31500
C  13.52600 48.86500 25.63900
C  13.19500 48.54300 24.29600
C  11.72300 48.45500 24.26900
C  14.86100 49.03100 26.35200
C  14.14100 48.40700 23.12600
O  13.64600 48.21100 22.05000
C  15.63900 48.44500 23.28200
N  8.62600 48.11400 24.03200
C  9.48200 48.08200 23.02100
C  8.78300 47.68500 21.63300
C  7.27600 47.40900 22.08900
C  7.36800 48.01500 23.56200
C  8.91300 48.75100 20.56100
C  6.72300 45.94800 22.07200
C  5.49400 45.62800 21.19400
N  7.25000 48.71600 26.57300
C  6.12700 48.36100 25.80300
C  4.98500 48.32400 26.72300
C  5.55800 48.45700 27.98200
C  6.92400 48.75000 27.84600
C  3.65200 47.93000 26.26700
C  5.24600 48.36000 29.43400
O  4.17900 48.11900 29.99400
C  6.56100 48.60900 30.20900
C  6.81700 47.36900 30.95400
O  7.34000 46.34200 30.45000
O  6.26200 47.41200 32.25400
C  6.23100 46.16300 33.01700
H  13.06800 49.95400 28.19300
H  11.24200 47.94500 22.15200
H  5.28400 47.81000 24.00900
H  8.97100 50.35400 30.96800
H  11.82000 50.14800 30.57200
H  11.95800 52.23900 30.06800
H  10.21900 52.23200 30.44200
H  10.90400 52.19700 28.69000
H  10.98400 48.37500 31.70600
H  9.72700 47.59700 30.84600
H  8.43200 48.97100 32.77500
H  9.99100 49.33200 33.47100
H  15.51700 49.80600 25.95500
H  15.40000 48.08400 26.36800
H  14.69300 49.32100 27.39000
H  16.14300 47.81400 22.55000
H  16.02500 47.89400 24.14000
H  16.02800 49.46200 23.31700
H  9.24200 46.77700 21.24100
H  6.65000 48.04100 21.45900
H  8.36300 48.47100 19.66300
H  9.95900 48.85600 20.27400
H  8.48300 49.68500 20.92300
H  6.54700 45.53800 23.06600
H  7.53300 45.32800 21.68700
H  4.94600 46.54300 20.96900
H  4.86300 44.92000 21.72900
H  5.89500 45.13300 20.30900
H  3.50800 46.85400 26.37200
H  3.57900 48.15300 25.20300
H  3.00400 48.58400 26.85100
H  6.45300 49.47700 30.86000
H  6.62600 46.42600 33.99900
H  7.01100 45.43400 32.79600
H  5.26100 45.66800 33.05100

