158

Mg 9.50200 47.31900 25.85600
C  7.38700 47.02400 28.48900
C  12.05100 48.12300 27.95600
C  11.48500 47.71600 23.14900
C  6.76700 46.99400 23.54300
N  9.75700 47.56900 27.94600
C  8.72900 47.28400 28.88700
C  9.23100 47.57700 30.35100
C  10.75000 47.83400 30.15800
C  10.87900 47.82300 28.58000
C  11.21700 49.20700 30.81600
C  8.80900 46.46200 31.29300
C  9.80300 46.06500 32.38200
H  9.23600 45.43900 33.68500
N  11.50800 47.89500 25.55300
C  12.41100 48.18300 26.56700
C  13.71100 48.42500 25.99800
C  13.57700 48.21200 24.52300
C  12.14500 47.91900 24.34500
C  14.97700 48.62700 26.84000
C  14.68600 48.23400 23.31800
O  14.40100 48.09000 22.10000
C  16.15700 48.46600 23.72000
N  9.15600 47.48700 23.58800
C  10.17100 47.61300 22.74200
C  9.77700 47.47600 21.27900
C  8.15000 47.37800 21.41100
C  8.03400 47.25400 22.94000
C  10.19100 48.72500 20.33300
C  7.49900 46.18300 20.65700
C  6.84500 46.65100 19.37200
N  7.48200 47.05700 25.91000
C  6.47000 46.94000 24.96900
C  5.20100 46.84400 25.58500
C  5.51200 46.83300 26.96600
C  6.91000 46.93000 27.13800
C  3.83400 46.77300 24.87100
C  4.91600 46.71700 28.30000
O  3.75800 46.47200 28.54700
C  6.12400 46.96400 29.31600
C  6.01900 45.82500 30.32800
O  6.22600 44.68500 30.08500
O  5.54100 46.36400 31.48300
C  5.18400 45.35700 32.51000
H  12.89200 48.19700 28.64800
H  12.11400 47.66600 22.25900
H  5.85800 47.03500 22.93800
H  8.77000 48.52100 30.64200
H  11.36200 47.06500 30.62900
H  10.49400 49.69800 31.46700
H  11.49600 49.83000 29.96600
H  11.98500 49.17000 31.58800
H  8.66300 45.60000 30.64200
H  7.91000 46.73300 31.84600
H  10.42000 46.92200 32.65100
H  10.47600 45.25300 32.10800
H  14.78800 48.47600 27.90300
H  15.31300 49.62200 26.54700
H  15.78400 47.97300 26.51100
H  16.24600 49.35600 24.34200
H  16.62000 48.59000 22.74100
H  16.59000 47.49500 23.96000
H  10.25900 46.54300 20.98500
H  7.69500 48.34400 21.19300
H  10.44600 49.55500 20.99300
H  9.39600 49.07200 19.67300
H  11.04500 48.56500 19.67500
H  6.77500 45.69700 21.31100
H  8.21800 45.44500 20.29900
H  7.22200 46.05300 18.54200
H  7.06300 47.70400 19.19300
H  5.75800 46.58100 19.34800
H  3.21000 46.16800 25.52900
H  4.02400 46.23200 23.94400
H  3.48000 47.78300 24.66900
H  5.90600 47.95300 29.71800
H  4.73900 44.42400 32.16700
H  4.53600 45.87800 33.21500
H  6.17400 45.18800 32.93400
Mg -1.59900 34.46900 26.99800
C  -2.70200 32.63700 29.84400
C  0.09500 36.55900 28.96600
C  -0.99900 36.27200 24.20300
C  -3.38800 32.14000 24.93800
N  -1.36900 34.61500 29.17800
C  -1.90600 33.75400 30.16800
C  -1.36300 34.18100 31.55200
C  -0.62900 35.51100 31.22800
C  -0.58000 35.56000 29.68500
C  -1.15400 36.84100 31.92500
C  -0.61700 33.06400 32.35500
C  0.13800 33.43300 33.65900
H  -0.02000 32.73800 35.00500
N  -0.62300 36.24000 26.66600
C  0.18600 36.89400 27.62500
C  0.74000 38.02500 27.07300
C  0.39000 38.01200 25.62600
C  -0.51800 36.87600 25.43900
C  1.65300 38.96500 27.82800
C  0.75600 39.01700 24.46600
O  0.20800 38.98000 23.37600
C  1.68800 40.19700 24.77300
N  -2.25500 34.31800 24.87100
C  -1.71200 35.13700 23.96200
C  -2.19000 34.84400 22.51100
C  -2.73300 33.37200 22.68300
C  -2.86200 33.21600 24.23600
C  -3.30600 35.82200 21.95400
C  -1.86600 32.23800 22.08500
C  -0.36000 32.08800 22.46400
N  -2.75300 32.76500 27.27200
C  -3.36200 31.91700 26.30400
C  -4.15000 30.94000 26.99900
C  -3.82400 31.11000 28.34900
C  -3.06800 32.30900 28.49800
C  -4.94300 29.85900 26.40800
C  -4.10000 30.60100 29.67000
O  -4.79700 29.70400 30.05900
C  -3.24700 31.48600 30.70800
C  -4.33600 31.90200 31.74000
O  -5.21500 32.66300 31.49600
O  -4.08900 31.32200 33.03600
C  -5.11700 31.56100 34.04300
H  0.72400 37.12800 29.65300
H  -0.74600 36.90000 23.34600
H  -3.88600 31.38600 24.32500
H  -2.31100 34.28700 32.07900
H  0.37400 35.40600 31.64200
H  -1.35700 37.61900 31.19000
H  -0.40400 37.10000 32.67300
H  -2.06300 36.69600 32.50900
H  0.14900 32.65400 31.69700
H  -1.41000 32.33400 32.51600
H  0.01300 34.49900 33.84700
H  1.18600 33.31200 33.38500
H  2.01900 38.68000 28.81400
H  0.95900 39.77400 28.05800
H  2.42800 39.15300 27.08600
H  2.65200 39.68800 24.80100
H  1.30800 40.54100 25.73500
H  1.46600 40.83000 23.91400
H  -1.30400 34.81800 21.87700
H  -3.71700 33.35300 22.21400
H  -3.99000 36.15400 22.73500
H  -3.81000 35.36100 21.10400
H  -2.84800 36.69200 21.48300
H  -1.93700 32.09200 21.00700
H  -2.25800 31.35100 22.58300
H  -0.32300 31.24100 23.14800
H  0.13500 32.91000 22.98100
H  0.19600 31.97600 21.53300
H  -4.80800 29.91700 25.32800
H  -5.99800 29.86100 26.68000
H  -4.54500 28.86200 26.59400
H  -2.46600 30.84700 31.12000
H  -5.45700 30.62300 34.48200
H  -5.90400 32.23100 33.69700
H  -4.62800 32.10800 34.85000

