158

Mg 48.44600 34.67400 26.41600
C  46.22100 33.63300 29.03900
C  48.78900 37.74500 28.09100
C  50.12500 35.83600 23.82500
C  47.61800 31.73400 24.79800
N  47.68700 35.50100 28.34600
C  46.91600 34.85300 29.30100
C  46.95700 35.71200 30.59800
C  47.56400 37.10100 30.09300
C  48.15500 36.75000 28.79500
C  46.56100 38.28900 30.04000
C  47.86400 35.04600 31.67400
C  47.46200 35.15200 33.15400
H  46.36900 36.11000 33.47000
N  49.38600 36.52700 26.00300
C  49.44400 37.65100 26.84600
C  50.35400 38.65300 26.22700
C  50.93400 38.01500 25.06200
C  50.18200 36.77000 24.89100
C  50.68800 39.95100 26.84700
C  52.05300 38.46800 24.13000
O  52.49700 37.67300 23.29800
C  52.69400 39.73900 24.28800
N  48.85200 33.80200 24.56500
C  49.51000 34.57700 23.65400
C  49.59300 33.73200 22.36400
C  49.00500 32.36300 22.71700
C  48.49800 32.60400 24.08900
C  48.92700 34.37100 21.13100
C  49.94600 31.20200 22.66800
C  49.57000 30.16100 21.65000
N  47.15200 32.98800 26.73200
C  46.88300 31.92100 25.97600
C  45.87800 31.09100 26.52400
C  45.57300 31.77100 27.74700
C  46.32400 32.89000 27.80600
C  45.17800 29.80600 25.92900
C  44.70800 31.72900 28.96300
O  43.87400 30.86900 29.26600
C  45.09400 33.04600 29.82300
C  45.43500 32.39400 31.10200
O  46.54100 32.07900 31.42500
O  44.36800 32.36800 31.95500
C  44.53200 31.86800 33.30200
H  48.93900 38.67300 28.64700
H  50.76900 36.03800 22.96700
H  47.40200 30.81700 24.24600
H  45.98000 35.84000 31.06400
H  48.39100 37.53000 30.65900
H  45.51400 38.01700 30.17400
H  46.54200 38.65600 29.01400
H  46.78100 39.08800 30.74800
H  48.86700 35.47200 31.66400
H  47.94400 33.99900 31.38000
H  48.25700 35.53100 33.79600
H  47.12000 34.17500 33.49500
H  49.82300 40.31900 27.39900
H  50.96700 40.76100 26.17200
H  51.55000 39.85600 27.50700
H  52.92300 39.89000 25.34300
H  51.94000 40.41100 23.87600
H  53.68600 39.78400 23.83900
H  50.67000 33.59900 22.26700
H  48.07000 32.28400 22.16300
H  49.57000 35.17800 20.78000
H  48.05600 34.86700 21.55900
H  48.52800 33.68500 20.38300
H  49.77000 30.58300 23.54800
H  51.00700 31.42500 22.55700
H  50.38100 30.00100 20.94000
H  48.75500 30.45000 20.98600
H  49.33700 29.21800 22.14400
H  45.49000 29.71600 24.88900
H  44.09600 29.93300 25.97100
H  45.39600 28.96100 26.58200
H  44.23700 33.70600 29.95700
H  43.48200 31.70700 33.54600
H  45.06900 32.70400 33.75100
H  45.03300 30.90000 33.32000
Mg 6.72300 53.27700 40.73000
C  6.50300 49.89300 40.35000
C  9.87300 53.31000 39.54400
C  6.54600 56.69900 40.48800
C  3.30900 53.22100 41.75900
N  7.96400 51.77700 39.91500
C  7.72400 50.40400 39.82400
C  8.99900 49.62900 39.43200
C  10.11700 50.74100 39.72000
C  9.27800 52.06600 39.67900
C  11.00900 50.52700 41.02900
C  8.98800 49.07700 37.97900
C  8.24400 49.88100 36.96600
H  7.59000 49.10300 35.72600
N  8.07700 54.81200 40.05800
C  9.32000 54.55900 39.54300
C  9.93600 55.85100 39.21300
C  8.95300 56.86400 39.50800
C  7.79400 56.14800 40.03800
C  11.36900 56.01200 38.76000
C  9.12000 58.46400 39.33000
O  10.16600 58.87200 38.77400
C  8.08100 59.41400 39.81100
N  5.17300 54.70600 40.98400
C  5.40000 56.03900 40.90400
C  4.10900 56.83600 41.15500
C  3.11100 55.73300 41.68400
C  3.92300 54.44200 41.51200
C  4.13300 58.17400 42.08000
C  1.67200 55.67900 41.00800
C  0.44500 55.57500 41.80900
N  5.23800 51.87500 41.17400
C  3.91200 51.98600 41.49800
C  3.38000 50.67600 41.81700
C  4.34300 49.79700 41.27200
C  5.41500 50.59200 40.90000
C  1.99800 50.29200 42.37500
C  4.64800 48.41100 40.96600
O  3.97900 47.38700 41.10300
C  6.15900 48.41000 40.44900
C  6.10300 47.68300 39.13000
O  5.75600 48.14600 38.04400
O  6.38300 46.33700 39.26400
C  6.35700 45.41100 38.09400
H  10.92900 53.14900 39.32000
H  6.33200 57.76000 40.33800
H  2.29600 53.06400 42.13700
H  9.08100 48.80500 40.14100
H  10.82300 50.67200 38.89300
H  11.20400 51.45000 41.57500
H  11.94000 50.07100 40.69400
H  10.58900 49.89200 41.81000
H  8.53300 48.08700 37.97900
H  9.98900 48.97900 37.55700
H  8.95100 50.54400 36.46700
H  7.55600 50.61000 37.39500
H  11.30700 56.45300 37.76500
H  11.87800 55.05500 38.65000
H  11.96800 56.67100 39.38900
H  7.18000 59.22500 39.22700
H  8.35400 60.45000 39.60800
H  8.05500 59.25000 40.88800
H  3.65900 57.06900 40.19000
H  2.92900 55.74100 42.75800
H  3.94900 59.10100 41.53600
H  5.06700 58.16200 42.64200
H  3.36100 58.23700 42.84600
H  1.49800 54.84800 40.32400
H  1.71800 56.55200 40.35700
H  0.64700 55.30800 42.84600
H  -0.18100 54.80100 41.36500
H  -0.04400 56.54600 41.89000
H  1.59700 51.09300 42.99700
H  2.03900 49.38600 42.97900
H  1.31500 50.21800 41.52900
H  6.74800 47.83200 41.16100
H  6.08100 45.94800 37.18700
H  5.69300 44.56500 38.27000
H  7.38000 45.04500 37.99700

