158

Mg 16.23200 -1.62000 26.80100
C  15.06700 0.19600 29.65600
C  18.18500 -3.48600 28.97500
C  17.46900 -3.14000 24.17000
C  14.43400 0.65600 24.73500
N  16.78400 -1.47200 29.00100
C  16.08800 -0.73400 29.97100
C  16.57300 -1.12700 31.39100
C  17.72800 -2.15400 31.09500
C  17.54900 -2.38900 29.56600
C  19.22000 -1.76500 31.43200
C  15.41500 -1.69000 32.27100
C  15.10700 -0.99800 33.60900
H  16.23300 -0.24100 34.33600
N  17.61400 -3.04400 26.61900
C  18.19400 -3.84200 27.62700
C  18.97700 -4.87900 27.05500
C  18.84200 -4.74100 25.63900
C  17.94000 -3.67300 25.41300
C  19.74400 -5.96000 27.82700
C  19.36600 -5.69800 24.57900
O  19.03000 -5.56500 23.41100
C  20.15500 -6.95100 24.93100
N  16.02700 -1.20000 24.57900
C  16.58900 -2.04900 23.76900
C  16.06600 -1.69100 22.38700
C  14.97700 -0.53700 22.50200
C  15.16400 -0.33000 24.05900
C  17.19500 -1.35400 21.45700
C  13.56800 -0.89800 22.10800
C  12.83700 0.09600 21.25000
N  15.00900 0.06300 27.06400
C  14.28300 0.82000 26.12100
C  13.52600 1.79300 26.85600
C  13.65700 1.54400 28.26100
C  14.68100 0.53000 28.34400
C  12.61000 2.81500 26.21400
C  13.21200 1.96500 29.62100
O  12.40900 2.83000 29.93800
C  14.10600 1.04900 30.59400
C  14.92300 2.10900 31.34100
O  15.95800 2.63600 30.94900
O  14.31200 2.31200 32.53700
C  14.79500 3.50000 33.32000
H  18.72500 -4.08800 29.70900
H  17.80100 -3.49700 23.19300
H  13.79400 1.29900 24.12800
H  16.88100 -0.21800 31.90800
H  17.56400 -3.10000 31.61100
H  19.72900 -2.45000 32.10900
H  19.25100 -0.87600 32.06300
H  19.78100 -1.64900 30.50500
H  15.58700 -2.75000 32.45700
H  14.50600 -1.65100 31.67200
H  14.81500 -1.82600 34.25500
H  14.35200 -0.22800 33.45300
H  20.75500 -6.23700 27.53200
H  19.22700 -6.90400 27.65600
H  19.66700 -5.60100 28.85300
H  20.45900 -7.46800 24.02100
H  19.47400 -7.66400 25.39800
H  21.10100 -6.69100 25.40600
H  15.64100 -2.59100 21.94200
H  15.33900 0.33200 21.95500
H  17.32100 -0.30300 21.19500
H  17.23200 -1.99600 20.57700
H  18.14900 -1.55100 21.94600
H  13.15800 -0.77200 23.11000
H  13.44700 -1.88400 21.66100
H  13.55300 0.60700 20.60500
H  12.34200 0.72200 21.99200
H  12.08600 -0.45600 20.68500
H  12.37400 3.59600 26.93500
H  11.68100 2.41700 25.80700
H  13.12100 3.28500 25.37400
H  13.48100 0.58100 31.35500
H  14.48800 4.49300 32.99400
H  15.88300 3.43800 33.34400
H  14.58300 3.32600 34.37500
Mg 17.13700 50.67700 26.30600
C  18.75600 49.50800 29.14900
C  14.58000 51.93300 28.18800
C  15.56100 51.81900 23.40100
C  19.69700 49.31600 24.24200
N  16.77800 50.74500 28.38200
C  17.60800 50.36200 29.42000
C  17.01000 50.79500 30.83800
C  15.52600 51.07900 30.42800
C  15.61000 51.29600 28.86200
C  14.47700 50.01100 30.92700
C  17.85200 51.82700 31.55500
C  18.20200 51.56200 33.04500
H  17.21900 50.84900 33.98300
N  15.33200 51.67600 25.85000
C  14.45900 52.20100 26.79100
C  13.47800 53.07700 26.10500
C  13.83500 53.10900 24.75500
C  14.94900 52.11100 24.65900
C  12.38200 53.76500 26.89600
C  13.35400 54.01800 23.53400
O  13.71200 53.87900 22.33900
C  12.38700 55.24600 23.87600
N  17.55100 50.57000 24.17900
C  16.74900 51.07700 23.16400
C  17.19700 50.53200 21.78200
C  18.68100 50.26400 22.07900
C  18.70400 50.06500 23.56200
C  16.29900 49.33200 21.29600
C  19.72900 51.25700 21.55900
C  19.87600 52.57600 22.30200
N  18.88200 49.61000 26.53200
C  19.85000 49.10400 25.63000
C  20.96900 48.50800 26.41100
C  20.52300 48.52800 27.76900
C  19.31500 49.26700 27.81800
C  22.20900 47.75000 25.84900
C  20.91500 48.15500 29.11000
O  21.86200 47.50500 29.60900
C  19.80100 48.84700 30.04500
C  19.16600 47.88300 31.01900
O  18.27900 47.04300 30.75200
O  19.78700 48.00300 32.27200
C  19.39100 47.16400 33.31800
H  13.92500 52.42500 28.90900
H  15.01600 51.96600 22.46600
H  20.50900 48.86300 23.67000
H  17.12400 49.94200 31.50700
H  15.24000 52.08300 30.73900
H  15.05300 49.25100 31.45500
H  13.79400 49.69700 30.13800
H  13.82500 50.51200 31.64200
H  17.22200 52.71600 31.52200
H  18.70800 51.96300 30.89400
H  18.35100 52.58800 33.38200
H  19.21700 51.18600 33.17600
H  11.51100 53.91100 26.25600
H  12.72400 54.76900 27.14900
H  12.02300 53.20800 27.76100
H  11.30800 55.08800 23.87200
H  12.59900 56.03100 23.14900
H  12.61600 55.82600 24.77000
H  17.13800 51.33200 21.04400
H  18.92800 49.32600 21.58200
H  16.87200 48.45600 20.99500
H  15.61500 49.71700 20.53900
H  15.63400 49.01400 22.09900
H  19.54600 51.59200 20.53800
H  20.68800 50.73900 21.57300
H  19.18000 52.54900 23.14100
H  19.65200 53.39700 21.62100
H  20.88000 52.75200 22.68700
H  21.95900 47.48700 24.82100
H  22.45300 46.77800 26.27700
H  23.02800 48.45200 26.01000
H  20.41900 49.54000 30.61500
H  19.49900 47.70600 34.25800
H  19.98800 46.27100 33.13500
H  18.33000 46.95000 33.44600

