158

Mg -1.40900 18.35800 26.84200
C  -1.90000 16.07700 29.40800
C  -1.54700 20.92300 29.03100
C  -1.29300 20.56100 24.09500
C  -1.88400 15.69000 24.61800
N  -1.79600 18.46800 29.00500
C  -1.87400 17.40500 29.87700
C  -1.99900 17.89700 31.30600
C  -1.96300 19.46600 31.08700
C  -1.71600 19.67900 29.61600
C  -3.19600 20.19300 31.54700
C  -0.82100 17.31200 32.13500
C  -1.17900 16.48200 33.36800
H  -0.73200 16.92200 34.78600
N  -1.37800 20.42900 26.59600
C  -1.30100 21.30000 27.67800
C  -0.98100 22.62000 27.20900
C  -0.81200 22.52500 25.80400
C  -1.18700 21.13500 25.38900
C  -0.79200 23.88200 28.14000
C  -0.35300 23.53000 24.74700
O  -0.31000 23.27100 23.54000
C  0.27900 24.83500 25.22400
N  -1.56400 18.19500 24.72500
C  -1.49600 19.17900 23.81300
C  -1.65500 18.64300 22.34800
C  -1.77600 17.12500 22.48600
C  -1.77500 16.99100 24.04500
C  -2.80500 19.25700 21.55500
C  -0.69500 16.36200 21.76300
C  0.60000 15.94800 22.52600
N  -1.65200 16.26500 26.92700
C  -1.90000 15.35700 25.95600
C  -2.15800 14.04200 26.52600
C  -2.13400 14.20900 27.89400
C  -1.90300 15.61500 28.07900
C  -2.32500 12.75500 25.79700
C  -2.31200 13.53500 29.16100
O  -2.53200 12.37000 29.56900
C  -2.19300 14.73300 30.19600
C  -1.05000 14.18700 31.02300
O  0.10400 14.13000 30.76700
O  -1.69100 13.59900 32.08800
C  -0.95000 12.72300 32.99400
H  -1.30800 21.67700 29.78400
H  -1.16300 21.25300 23.26000
H  -2.00200 14.89000 23.88500
H  -2.97100 17.56800 31.67200
H  -1.11800 19.75300 31.71400
H  -3.84000 19.59500 32.19100
H  -3.72600 20.59800 30.68500
H  -2.80700 20.99600 32.17300
H  -0.11400 18.07800 32.45100
H  -0.35700 16.52700 31.53800
H  -0.65800 15.52600 33.31500
H  -2.25400 16.30800 33.32300
H  0.25100 24.18700 28.04800
H  -1.17600 23.59700 29.11900
H  -1.41200 24.67200 27.71500
H  0.86200 25.31700 24.44000
H  1.04300 24.66800 25.98400
H  -0.49600 25.42600 25.71300
H  -0.66900 18.83000 21.92200
H  -2.75100 16.77500 22.14800
H  -2.42000 19.78300 20.68200
H  -3.42200 19.92800 22.15300
H  -3.42900 18.46900 21.13100
H  -0.42800 16.86100 20.83200
H  -1.33000 15.52300 21.47800
H  0.70600 16.43700 23.49400
H  1.44100 16.31200 21.93700
H  0.67100 14.86100 22.56900
H  -2.37100 12.81500 24.71000
H  -3.24600 12.39800 26.25600
H  -1.56200 12.00300 25.99900
H  -3.10100 14.82100 30.79400
H  -0.27100 12.06600 32.45200
H  -1.78700 12.15700 33.40300
H  -0.40000 13.27100 33.75900
Mg 16.99200 -1.33500 28.18800
C  15.80300 0.50100 30.91000
C  18.84200 -3.29600 30.46900
C  18.44500 -2.74200 25.59000
C  15.24400 0.74200 26.09600
N  17.17300 -1.42900 30.45900
C  16.68400 -0.51900 31.30900
C  17.11900 -0.77100 32.73000
C  18.13000 -1.99600 32.55800
C  18.10100 -2.29200 31.06200
C  19.58300 -1.83600 33.06300
C  15.90800 -1.19400 33.66200
C  16.16400 -1.23300 35.22900
H  17.44100 -0.55900 35.78700
N  18.31500 -2.86400 28.02400
C  18.95300 -3.63400 29.07900
C  19.68000 -4.67200 28.41700
C  19.63000 -4.42900 27.02900
C  18.81100 -3.26400 26.83000
C  20.31800 -5.79900 29.18400
C  20.39400 -5.24400 25.95100
O  20.25400 -5.04400 24.74900
C  21.28500 -6.29100 26.38600
N  17.08200 -0.92300 26.12200
C  17.71900 -1.64200 25.22400
C  17.36400 -1.37800 23.79800
C  16.29600 -0.30700 23.91600
C  16.12600 -0.23200 25.49400
C  18.57800 -1.08800 22.86800
C  15.00400 -0.53900 23.08200
C  13.91700 -1.35300 23.88700
N  15.73500 0.32300 28.39000
C  15.05900 1.01000 27.42900
C  14.22100 1.99500 28.05200
C  14.49300 1.86100 29.39700
C  15.36300 0.81100 29.57700
C  13.34200 2.95800 27.35500
C  14.24300 2.46100 30.69000
O  13.58600 3.41800 31.13300
C  15.08900 1.60400 31.74300
C  15.95800 2.49800 32.55200
O  17.10000 2.77700 32.30800
O  15.24800 3.13700 33.55600
C  16.00200 4.04400 34.40200
H  19.33600 -4.00500 31.13600
H  18.91200 -3.19600 24.71300
H  14.64900 1.44400 25.50800
H  17.72200 -0.00200 33.21300
H  17.76100 -2.88100 33.07700
H  19.81300 -2.67900 33.71600
H  19.64600 -0.85700 33.53800
H  20.28000 -1.97700 32.23700
H  15.55300 -2.14900 33.27500
H  15.09100 -0.47700 33.58700
H  15.99400 -2.24400 35.59900
H  15.30600 -0.68500 35.61800
H  21.36900 -5.52400 29.27600
H  20.27700 -6.77900 28.71000
H  19.71100 -5.90300 30.08400
H  21.82800 -6.57300 25.48400
H  20.65600 -7.07800 26.80300
H  21.96600 -5.84900 27.11400
H  16.97200 -2.34200 23.47400
H  16.74300 0.61500 23.54500
H  19.37000 -0.64100 23.46900
H  18.34100 -0.43900 22.02500
H  18.94100 -2.09500 22.66100
H  15.28100 -1.10900 22.19500
H  14.64000 0.41900 22.71200
H  13.51200 -0.75700 24.70500
H  14.34900 -2.23400 24.36200
H  13.04300 -1.61600 23.29100
H  12.73900 2.38100 26.65300
H  13.93700 3.66600 26.77900
H  12.73200 3.47300 28.09700
H  14.32500 1.18100 32.39500
H  15.23900 4.49800 35.03600
H  16.35800 4.90600 33.83900
H  16.75600 3.43400 34.90000

