158

Mg 48.11100 15.45900 28.28500
C  45.86500 15.92400 30.89900
C  50.39100 17.19100 30.04500
C  50.01900 15.42100 25.48200
C  45.49100 14.04400 26.36600
N  48.03000 16.51600 30.16200
C  47.07600 16.46700 31.13300
C  47.55300 17.14200 32.42500
C  48.84600 17.80000 31.97000
C  49.16400 17.06400 30.64400
C  48.92100 19.38900 31.87400
C  47.57200 16.21900 33.63100
C  47.38200 16.90300 34.96600
H  47.37600 18.38900 35.11100
N  49.91600 16.23000 27.85500
C  50.71100 16.91900 28.69600
C  51.96500 17.18600 28.08700
C  51.95000 16.68800 26.79200
C  50.60900 16.04300 26.64800
C  52.99200 17.96300 28.86800
C  52.98400 16.78900 25.63800
O  52.69300 16.25200 24.55200
C  54.33400 17.39800 25.84300
N  47.74900 14.95300 26.16900
C  48.75200 14.91800 25.28200
C  48.29700 14.36400 23.89800
C  46.82300 13.83600 24.22700
C  46.64900 14.31400 25.68800
C  48.31400 15.40900 22.82600
C  46.48900 12.30800 24.02900
C  47.14200 11.32500 24.94300
N  46.12600 14.91200 28.57500
C  45.19100 14.31300 27.75100
C  44.01200 14.07400 28.49400
C  44.21600 14.70200 29.73200
C  45.53000 15.21400 29.73000
C  42.77300 13.45300 27.98100
C  43.54600 14.94500 30.99700
O  42.38100 14.73600 31.34200
C  44.60500 15.72400 31.91200
C  43.99500 16.91200 32.50600
O  44.05800 18.02100 32.04300
O  43.37800 16.55800 33.65700
C  42.79200 17.64400 34.43600
H  51.07800 17.78500 30.65200
H  50.67100 15.26200 24.62100
H  44.70300 13.45600 25.89000
H  46.83900 17.95200 32.57000
H  49.67600 17.47700 32.59800
H  49.39900 19.79200 32.76700
H  47.99000 19.92600 31.69200
H  49.55800 19.65100 31.02900
H  48.51700 15.67700 33.67800
H  46.80500 15.44500 33.63700
H  48.15900 16.43800 35.57200
H  46.38100 16.59000 35.26200
H  53.89300 18.17300 28.29200
H  53.19300 17.34400 29.74300
H  52.41100 18.83000 29.18400
H  54.03300 18.43700 25.97700
H  54.95400 17.29300 24.95200
H  54.84500 16.96700 26.70300
H  48.98100 13.58000 23.57100
H  46.10700 14.38800 23.61800
H  48.28800 16.39300 23.29200
H  47.56000 15.46200 22.04000
H  49.33100 15.48700 22.44200
H  47.01200 12.04400 23.11000
H  45.41200 12.14000 24.05900
H  47.80400 10.63500 24.42200
H  46.31100 10.79400 25.40600
H  47.79100 11.85400 25.64000
H  42.90600 13.07000 26.96900
H  42.02000 14.24100 27.97800
H  42.52300 12.58700 28.59300
H  44.92500 15.06800 32.72200
H  42.68900 18.65700 34.04700
H  43.47700 17.70400 35.28200
H  41.87700 17.24600 34.87400
Mg -1.95100 35.26500 27.27000
C  -3.95900 33.48000 29.66600
C  -0.98300 37.48500 29.67800
C  -0.60800 37.18500 24.76200
C  -3.44100 33.28300 24.84200
N  -2.41500 35.42100 29.42400
C  -3.09800 34.48800 30.22800
C  -3.15100 35.01700 31.63600
C  -2.23100 36.24500 31.60200
C  -1.83100 36.37900 30.10900
C  -2.79400 37.55500 32.25200
C  -2.93800 33.94600 32.80400
C  -1.93500 34.33400 33.92800
H  -1.98800 33.51500 35.16500
N  -0.87700 37.05900 27.26800
C  -0.49000 37.77700 28.33900
C  0.36800 38.88700 28.01000
C  0.46900 38.85100 26.56200
C  -0.36400 37.70800 26.14800
C  1.12900 39.69700 28.96000
C  1.18500 39.77800 25.58300
O  1.18700 39.62600 24.34800
C  1.93500 40.93100 26.11700
N  -2.04400 35.28600 25.03000
C  -1.47500 36.24500 24.21200
C  -1.60400 35.92100 22.68700
C  -2.38600 34.55600 22.83500
C  -2.55100 34.30500 24.34400
C  -2.26500 36.96600 21.76900
C  -1.80100 33.29600 22.25200
C  -2.72200 32.59800 21.22400
N  -3.42800 33.71300 27.21100
C  -3.88000 32.99600 26.17500
C  -4.70600 31.89100 26.64500
C  -4.82300 32.08000 27.99000
C  -4.02900 33.21500 28.31500
C  -5.31400 30.78900 25.74800
C  -5.39700 31.59500 29.26500
O  -6.04800 30.54900 29.45800
C  -4.88700 32.54700 30.41100
C  -6.09800 33.36000 30.94600
O  -6.75100 34.21700 30.40100
O  -6.36300 32.86300 32.16600
C  -7.34700 33.53200 33.01500
H  -0.60700 38.14000 30.46700
H  -0.17300 37.71600 23.91200
H  -3.85400 32.65300 24.05200
H  -4.17800 35.27100 31.89700
H  -1.33000 36.15800 32.21000
H  -3.05200 38.23700 31.44100
H  -2.07700 38.03800 32.91500
H  -3.72800 37.42600 32.79800
H  -2.55700 33.01200 32.39100
H  -3.87900 33.72200 33.30600
H  -2.01900 35.35600 34.29800
H  -0.97500 34.15600 33.44200
H  0.93500 39.23700 29.92900
H  0.69200 40.68600 28.81900
H  2.21000 39.71900 28.81800
H  2.80600 40.49200 26.60400
H  1.36100 41.55700 26.80000
H  2.27600 41.47600 25.23700
H  -0.54800 35.84000 22.42600
H  -3.45100 34.76000 22.72200
H  -2.39400 37.83100 22.41900
H  -3.16000 36.51900 21.33800
H  -1.63400 37.25200 20.92700
H  -1.47100 32.61700 23.03900
H  -0.95400 33.66500 21.67400
H  -2.30400 32.86100 20.25200
H  -3.71600 33.04600 21.20800
H  -2.77300 31.52800 21.42500
H  -4.73300 30.69500 24.83000
H  -6.26300 31.04100 25.27500
H  -5.42000 29.83900 26.27100
H  -4.33800 32.02400 31.19400
H  -6.97500 34.53900 33.19900
H  -7.54300 32.90300 33.88400
H  -8.32200 33.67400 32.54700

