158

Mg 47.07800 25.67000 28.75400
C  48.11700 27.79700 31.30200
C  45.99700 23.41400 31.02300
C  46.64100 23.36800 26.21000
C  48.52300 27.80700 26.33000
N  47.16300 25.65300 30.87700
C  47.59400 26.59500 31.78600
C  47.26200 26.24500 33.23900
C  46.77900 24.76000 33.04800
C  46.55400 24.60100 31.52500
C  47.70200 23.68300 33.67400
C  46.10900 27.21200 33.87200
C  46.47800 27.48600 35.29100
H  45.33800 27.09000 36.24200
N  46.40900 23.64600 28.58100
C  45.92100 22.94200 29.65800
C  45.55700 21.64900 29.29900
C  45.70600 21.60100 27.89400
C  46.30400 22.86800 27.47200
C  45.03000 20.58400 30.27900
C  45.44400 20.42300 26.94600
O  45.76700 20.47600 25.78700
C  44.84800 19.15500 27.50300
N  47.52100 25.61500 26.57500
C  47.12300 24.53100 25.79600
C  47.54000 24.80600 24.41300
C  47.84100 26.29600 24.37600
C  48.01000 26.58800 25.84000
C  48.63800 23.87900 23.79500
C  46.80500 27.22000 23.64700
C  47.47300 28.00400 22.46700
N  48.02400 27.48000 28.77600
C  48.50700 28.24200 27.73600
C  49.18100 29.36700 28.29700
C  48.94800 29.25100 29.67900
C  48.29500 28.08700 29.93000
C  49.94100 30.43800 27.57200
C  49.20900 29.90700 30.95800
O  49.74900 30.92700 31.29400
C  48.55400 29.01600 32.02700
C  49.58000 28.65800 33.07900
O  50.71100 28.29900 32.85200
O  49.01900 28.80100 34.33300
C  49.96800 28.77700 35.44800
H  45.69300 22.74300 31.83000
H  46.50400 22.66500 25.38600
H  48.85400 28.46700 25.52500
H  48.16700 26.24300 33.84500
H  45.86300 24.55800 33.60400
H  48.59100 24.13000 34.11900
H  47.82200 22.98200 32.84800
H  47.22900 23.11000 34.47200
H  45.07200 26.97500 33.63500
H  46.24400 28.13800 33.31300
H  46.54300 28.56400 35.44100
H  47.41000 27.02000 35.61000
H  45.60400 19.66400 30.39500
H  44.08300 20.27600 29.83600
H  44.85900 20.91000 31.30500
H  44.68600 18.47900 26.66400
H  43.90800 19.45500 27.96600
H  45.51200 18.65100 28.20500
H  46.70000 24.75100 23.72200
H  48.84500 26.43200 23.97400
H  48.77100 22.99800 24.42300
H  49.52600 24.50100 23.67900
H  48.30700 23.53500 22.81500
H  46.36000 27.82100 24.43900
H  46.00200 26.63100 23.20300
H  46.88000 27.94900 21.55400
H  48.50400 27.69400 22.29800
H  47.38700 29.08200 22.60700
H  49.96200 30.31200 26.48900
H  50.94400 30.24800 27.95300
H  49.57100 31.43500 27.81400
H  47.73300 29.53800 32.51900
H  49.81800 27.84100 35.98600
H  49.80200 29.62600 36.11200
H  51.00800 29.00400 35.21600
Mg 42.29600 41.39900 26.05100
C  41.50100 43.69700 28.57000
C  44.02900 39.58700 28.33600
C  42.66600 38.96300 23.82300
C  41.32600 43.62200 23.74100
N  42.78100 41.69400 28.26800
C  42.15600 42.58900 29.10600
C  42.42100 42.30400 30.52800
C  43.30900 40.91800 30.39800
C  43.34400 40.68500 28.90800
C  44.56500 40.97200 31.25000
C  41.14100 41.96100 31.36100
C  40.59200 42.96800 32.43700
H  40.05300 42.38800 33.75200
N  43.41300 39.61300 26.02400
C  44.07800 39.05100 27.07500
C  44.62700 37.78600 26.61500
C  44.04900 37.49300 25.34700
C  43.32600 38.71500 25.01300
C  45.54600 36.94400 27.48900
C  44.09200 36.22800 24.51800
O  43.51000 36.15500 23.37700
C  44.86800 35.08900 24.99000
N  42.17800 41.36900 24.06800
C  42.23400 40.22400 23.35200
C  41.82900 40.42500 21.93100
C  41.49600 41.96800 21.85500
C  41.67300 42.37700 23.28700
C  43.05200 40.04300 20.98400
C  40.01700 42.18300 21.33000
C  39.80400 43.25900 20.30700
N  41.42400 43.23400 26.10900
C  41.07000 44.02800 25.07100
C  40.57300 45.27000 25.55100
C  40.66100 45.18000 26.92200
C  41.21600 43.91800 27.20700
C  40.11100 46.38900 24.60700
C  40.43100 45.83600 28.15000
O  39.95800 46.96200 28.45400
C  40.90300 44.87600 29.36500
C  41.80200 45.63100 30.18700
O  42.93100 45.85000 30.00900
O  41.19300 45.96400 31.30600
C  41.95200 46.69900 32.40300
H  44.51700 38.94000 29.06800
H  42.52200 38.15700 23.10100
H  41.17700 44.33600 22.92900
H  43.01100 43.12200 30.94100
H  42.72100 40.08600 30.78400
H  45.57600 40.93200 30.84200
H  44.48300 40.29000 32.09600
H  44.54300 41.94000 31.75000
H  41.15800 40.97500 31.82600
H  40.27000 41.96900 30.70600
H  39.76100 43.57800 32.08100
H  41.36200 43.72900 32.56500
H  46.35300 36.68600 26.80200
H  44.94600 36.14700 27.92800
H  45.97800 37.53300 28.29800
H  44.67000 34.81300 26.02600
H  45.91400 35.29400 24.76400
H  44.52900 34.17800 24.49600
H  40.97800 39.77800 21.71700
H  42.14000 42.66600 21.32100
H  42.96300 39.06100 20.51900
H  44.01100 40.18400 21.48400
H  42.96200 40.77400 20.18100
H  39.31100 42.30400 22.15100
H  39.65800 41.24300 20.91100
H  39.17700 44.07000 20.67800
H  39.53900 42.88100 19.31900
H  40.67500 43.91200 20.23300
H  39.24300 45.93200 24.13200
H  40.85700 46.68100 23.86800
H  39.66600 47.13600 25.26500
H  40.02900 44.66200 29.98100
H  42.04800 46.10600 33.31300
H  41.41500 47.63500 32.55800
H  42.94000 46.98700 32.04400

