158

Mg 41.67400 9.09800 29.38500
C  43.49400 10.53700 31.94700
C  39.52600 7.67100 31.59200
C  40.13700 7.63100 26.69100
C  44.29500 9.99800 27.16800
N  41.59500 9.01100 31.57800
C  42.33400 9.85100 32.42100
C  41.77100 9.81200 33.89600
C  40.62300 8.76800 33.76500
C  40.63700 8.34900 32.19600
C  40.64400 7.57300 34.70400
C  41.52000 11.23100 34.51700
C  40.36000 11.29800 35.54600
H  40.51700 12.11500 36.86100
N  40.02100 7.87100 29.11400
C  39.24900 7.31500 30.17800
C  38.10500 6.69000 29.65500
C  38.12700 6.80100 28.21700
C  39.47400 7.42400 27.91700
C  37.06500 6.03100 30.66000
C  37.15000 6.39200 27.22000
O  37.29500 6.41300 26.01000
C  35.88900 5.95500 27.73800
N  42.23000 8.74800 27.23700
C  41.35200 8.24600 26.34700
C  41.94900 8.29500 24.92500
C  43.26800 9.10500 25.06700
C  43.27100 9.25000 26.57800
C  42.13500 6.84700 24.43200
C  43.22200 10.51600 24.31800
C  42.05400 11.47600 24.61000
N  43.40100 10.16500 29.47100
C  44.39600 10.37500 28.54500
C  45.43400 11.21000 29.08500
C  45.09300 11.37500 30.48700
C  43.85000 10.64700 30.61300
C  46.51600 11.76200 28.25300
C  45.48800 11.91700 31.75700
O  46.45200 12.58500 32.13700
C  44.41600 11.37700 32.75700
C  45.10100 10.65800 33.86900
O  45.96000 9.81200 33.75600
O  44.68900 11.13200 35.13300
C  45.39000 10.68900 36.43000
H  38.88800 7.20500 32.34600
H  39.51500 7.13400 25.94300
H  45.06500 10.49800 26.57600
H  42.53300 9.49300 34.60800
H  39.63400 9.20700 33.89700
H  40.38100 6.69800 34.10900
H  39.86500 7.76400 35.44300
H  41.54400 7.55700 35.31800
H  41.39600 11.86400 33.63800
H  42.30000 11.55100 35.20700
H  40.14700 10.26000 35.80400
H  39.54800 11.79100 35.01200
H  36.16200 6.64000 30.67900
H  37.42300 5.97000 31.68800
H  36.67000 5.09100 30.27500
H  35.24500 5.70300 26.89500
H  35.35000 6.61400 28.41900
H  36.04500 5.03400 28.29900
H  41.23000 8.74000 24.23800
H  44.13000 8.55600 24.68800
H  41.74900 6.18700 25.20900
H  43.19200 6.65500 24.24500
H  41.54500 6.73100 23.52300
H  43.16700 10.33100 23.24500
H  44.15500 11.04800 24.50000
H  42.40600 12.40300 25.06300
H  41.29400 11.09700 25.29300
H  41.52400 11.63700 23.67100
H  47.09200 12.49800 28.81400
H  46.17400 12.16500 27.30000
H  47.19600 10.95800 27.97000
H  43.89400 12.28100 33.07100
H  46.03800 9.85700 36.15300
H  44.71500 10.25800 37.16900
H  45.98600 11.54000 36.76000
Mg 36.43800 49.77400 24.61300
C  36.99300 48.32900 27.57100
C  34.95500 52.55900 26.25900
C  35.56000 51.09500 21.58400
C  37.55700 46.94300 22.91400
N  36.15000 50.39500 26.71600
C  36.36600 49.61400 27.79800
C  35.99300 50.29600 29.10700
C  35.05400 51.42900 28.60500
C  35.42300 51.51600 27.10100
C  33.52300 51.26400 29.06200
C  37.19000 50.76200 29.96600
C  37.31900 50.23900 31.41500
H  36.06800 50.12300 32.21400
N  35.58600 51.65400 24.01400
C  35.03600 52.65400 24.82900
C  34.55300 53.75400 24.01200
C  34.56700 53.29000 22.63600
C  35.33300 51.98200 22.68600
C  34.01100 55.05100 24.58400
C  34.01400 53.92300 21.34500
O  34.04200 53.28500 20.25300
C  33.51500 55.37300 21.49100
N  36.50500 49.08400 22.55100
C  36.11700 49.81600 21.53200
C  36.34900 49.10400 20.08600
C  37.11500 47.85100 20.48600
C  37.01500 47.90600 22.12600
C  35.02700 48.89600 19.36100
C  38.60800 47.65200 19.98900
C  39.61600 48.77200 20.39500
N  37.04100 47.98300 25.11200
C  37.55100 46.94600 24.33700
C  37.95800 45.83200 25.15400
C  37.72800 46.34700 26.52600
C  37.19700 47.65800 26.39600
C  38.33800 44.42400 24.70800
C  37.88000 45.98000 27.90000
O  38.14100 44.90500 28.46700
C  37.43000 47.30600 28.64200
C  36.29600 46.79700 29.54400
O  35.11300 46.72400 29.28300
O  36.87500 46.37800 30.77500
C  35.94300 45.78200 31.70900
H  34.55400 53.42000 26.79900
H  35.15500 51.40600 20.61900
H  37.81400 46.01000 22.40800
H  35.43500 49.50900 29.61400
H  35.33700 52.39300 29.02900
H  33.30300 52.24700 29.47800
H  33.35700 50.45800 29.77600
H  32.88200 51.06600 28.20300
H  37.23400 51.84500 30.08500
H  38.09200 50.48500 29.42000
H  38.08000 50.82000 31.93800
H  37.70600 49.22000 31.42900
H  34.61800 55.88200 24.22500
H  34.07600 55.01900 25.67100
H  32.96300 55.09500 24.28800
H  32.68700 55.32800 22.20000
H  33.24200 55.80600 20.52900
H  34.31000 56.00800 21.88300
H  36.93200 49.84600 19.53900
H  36.57900 46.98500 20.09800
H  34.15100 49.10800 19.97400
H  35.00400 47.83800 19.09900
H  34.81000 49.42600 18.43400
H  38.58800 47.62000 18.89900
H  38.91800 46.62700 20.19200
H  39.07300 49.59600 20.85900
H  40.10600 49.12000 19.48600
H  40.21500 48.48600 21.26000
H  38.41000 44.28400 23.63000
H  37.72000 43.65300 25.16900
H  39.39800 44.34800 24.94700
H  38.22700 47.50700 29.35800
H  35.09100 46.46200 31.72600
H  36.38700 45.65600 32.69600
H  35.60200 44.80700 31.36200

