158

Mg 1.61300 -1.44700 43.68500
C  4.86600 -0.82100 43.21700
C  0.72600 1.22300 41.49700
C  -1.67700 -2.35200 43.77400
C  2.51200 -4.71100 44.86100
N  2.63800 -0.01000 42.40400
C  4.06200 0.12300 42.49200
C  4.50200 1.39000 41.76000
C  3.17200 2.07800 41.29200
C  2.08600 1.06300 41.80600
C  2.94900 3.51500 41.82300
C  5.30200 1.00800 40.47400
C  6.35000 2.03200 40.01400
H  6.22400 2.61800 38.61500
N  -0.18800 -0.57000 42.92800
C  -0.31100 0.43700 42.05800
C  -1.76800 0.57500 41.69600
C  -2.45300 -0.26900 42.58200
C  -1.39600 -1.13200 43.18100
C  -2.26600 1.48300 40.66500
C  -3.98200 -0.42700 42.75500
O  -4.75700 0.12900 42.02300
C  -4.60800 -0.99500 43.98200
N  0.55700 -3.40100 44.05200
C  -0.77600 -3.33700 44.25900
C  -1.19300 -4.57900 44.92100
C  0.03200 -5.53000 44.97800
C  1.13500 -4.47900 44.69100
C  -1.79400 -4.24700 46.28200
C  0.00000 -6.69300 43.90500
C  -0.05500 -8.17900 44.34100
N  3.36400 -2.53900 44.10400
C  3.60700 -3.75200 44.56000
C  5.01300 -3.90600 44.80600
C  5.56800 -2.74600 44.34400
C  4.49700 -1.98700 43.84000
C  5.58700 -5.08300 45.47300
C  6.74600 -2.02500 44.19900
O  7.87200 -2.34800 44.42600
C  6.36200 -0.76900 43.44800
C  6.78700 0.32300 44.33000
O  6.35400 0.61500 45.42700
O  7.72000 1.11800 43.68900
C  8.10900 2.25800 44.51600
H  0.40600 1.98200 40.78000
H  -2.74900 -2.54100 43.86900
H  2.85200 -5.64100 45.32100
H  5.09800 2.04500 42.39600
H  3.21400 2.11900 40.20400
H  2.30800 3.45700 42.70300
H  2.56600 4.14300 41.01900
H  3.91200 3.95500 42.07800
H  4.62700 0.78500 39.64800
H  5.80700 0.04200 40.48400
H  7.33600 1.57500 40.10400
H  6.37000 2.88800 40.68800
H  -2.97300 1.04900 39.95800
H  -1.49900 1.86700 39.99200
H  -2.64400 2.36500 41.18100
H  -5.02100 -1.99100 43.82400
H  -5.43400 -0.32300 44.21600
H  -3.82000 -0.93900 44.73300
H  -1.96300 -4.96300 44.25200
H  0.26800 -5.88200 45.98200
H  -2.67200 -3.63800 46.06600
H  -1.20800 -3.63500 46.96800
H  -2.22800 -5.19200 46.60900
H  0.90700 -6.58000 43.31200
H  -0.79800 -6.58500 43.17100
H  -0.56100 -8.20300 45.30700
H  0.93800 -8.58700 44.53000
H  -0.64200 -8.78500 43.65100
H  5.04600 -5.91500 45.02100
H  5.45800 -4.98500 46.55100
H  6.61200 -5.24700 45.14100
H  6.94000 -0.74100 42.52400
H  9.02000 2.71500 44.12800
H  8.35800 2.04200 45.55500
H  7.30400 2.98700 44.61200
Mg 8.30900 3.33300 27.73400
C  9.65300 2.15800 30.70900
C  6.47300 5.69200 29.67700
C  6.95200 4.46600 24.93800
C  9.88300 0.83800 26.01200
N  7.94000 3.62700 30.02600
C  8.78700 3.18700 30.99800
C  8.53500 3.84300 32.37400
C  7.34200 4.77600 31.97600
C  7.23000 4.69800 30.47200
C  5.96000 4.77200 32.73200
C  9.69500 4.52700 33.09600
C  10.04600 4.04100 34.56100
H  10.46700 5.06200 35.60400
N  6.90600 4.82800 27.41300
C  6.24500 5.66100 28.27700
C  5.45000 6.61400 27.41800
C  5.61500 6.27800 26.04000
C  6.56500 5.18700 26.09800
C  4.65000 7.75800 28.12800
C  5.02100 6.88200 24.87300
O  5.28100 6.64100 23.65600
C  3.85300 7.89100 25.04300
N  8.47900 2.76700 25.65600
C  7.76300 3.34400 24.74600
C  8.16000 2.80500 23.38900
C  9.40400 1.92400 23.67000
C  9.24500 1.79100 25.20100
C  7.00500 2.17700 22.59400
C  10.70200 2.67000 23.29300
C  11.04600 2.48400 21.83800
N  9.48700 1.67900 28.22400
C  10.09700 0.85000 27.39800
C  10.92800 -0.02400 28.21700
C  10.81400 0.49300 29.55200
C  9.89700 1.48700 29.47500
C  11.85400 -1.01700 27.60000
C  11.26300 0.29200 30.86500
O  12.00300 -0.52400 31.37900
C  10.61900 1.43900 31.64500
C  9.78900 0.79700 32.75100
O  8.56100 0.62100 32.79900
O  10.65000 0.60200 33.82600
C  9.95800 0.28500 35.06200
H  6.19300 6.42100 30.44100
H  6.48000 4.79600 24.01100
H  10.51200 0.16700 25.42200
H  8.05300 3.07300 32.97600
H  7.68500 5.79000 32.18200
H  5.16300 4.21600 32.23900
H  5.55700 5.77300 32.88200
H  6.06500 4.25700 33.68700
H  9.49300 5.59500 33.01500
H  10.58900 4.33500 32.50300
H  10.92300 3.42900 34.34700
H  9.19700 3.50200 34.98100
H  3.65200 7.32000 28.10200
H  4.60000 8.62200 27.46400
H  5.09800 7.96900 29.09900
H  3.09300 7.73400 25.80900
H  3.35500 7.85900 24.07400
H  4.40700 8.81700 25.20000
H  8.37600 3.53400 22.60700
H  9.34500 0.98900 23.11300
H  6.04800 2.24500 23.11100
H  7.25900 1.15600 22.30800
H  6.78200 2.75800 21.69900
H  11.46100 2.36000 24.01100
H  10.48000 3.70600 23.55100
H  10.78400 3.33800 21.21400
H  10.66600 1.55800 21.40600
H  12.12300 2.31900 21.78900
H  12.31200 -0.65100 26.68100
H  11.31600 -1.90700 27.27400
H  12.55600 -1.13600 28.42500
H  11.40300 2.12700 31.96000
H  10.58900 0.43000 35.93900
H  9.63700 -0.75600 35.10000
H  9.11800 0.97400 35.14800

