158

Mg 41.97600 40.60800 27.00400
C  41.28000 42.93400 29.32300
C  43.17300 38.40700 29.38900
C  42.17000 38.32300 24.57000
C  41.46200 43.03400 24.51300
N  42.13000 40.61000 29.10400
C  41.71600 41.68900 29.85900
C  41.85800 41.30800 31.35200
C  42.66500 39.93900 31.38300
C  42.73500 39.64000 29.87600
C  44.03100 39.92200 32.21800
C  40.50800 41.22200 32.10900
C  40.18000 42.15300 33.22800
H  39.74000 41.71500 34.61900
N  42.53900 38.62000 26.94700
C  42.98800 37.86600 28.05500
C  43.18600 36.51700 27.62100
C  42.92900 36.44500 26.26500
C  42.52100 37.82500 25.85800
C  43.62800 35.46100 28.52500
C  43.10500 35.26300 25.18300
O  42.81500 35.36700 23.95300
C  43.49500 33.90500 25.61600
N  41.98600 40.73000 24.79300
C  41.90200 39.62600 24.05200
C  41.55100 39.92500 22.60000
C  41.34700 41.39100 22.58400
C  41.63800 41.77200 24.01400
C  42.57500 39.38600 21.60400
C  40.02800 41.99500 21.96000
C  40.27600 43.11600 20.89800
N  41.52700 42.56700 26.87900
C  41.30300 43.41400 25.80900
C  40.96400 44.72800 26.30500
C  40.87200 44.58300 27.71700
C  41.27700 43.32600 27.99700
C  40.72500 45.95900 25.54500
C  40.49500 45.27600 28.95400
O  40.09200 46.42200 29.18000
C  40.83800 44.24300 30.04300
C  41.81400 44.71200 31.05700
O  42.99300 44.76800 30.89700
O  41.12600 45.24400 32.09400
C  41.80600 45.55500 33.35100
H  43.39600 37.76200 30.24200
H  42.12000 37.65500 23.70800
H  41.17300 43.68800 23.68700
H  42.40200 42.16000 31.75900
H  42.01000 39.15700 31.76700
H  43.74400 39.20400 32.98700
H  44.30400 40.86900 32.68500
H  44.86300 39.62400 31.57900
H  40.29000 40.19200 32.38800
H  39.83100 41.42800 31.28000
H  39.22000 42.54800 32.89400
H  40.82800 43.02800 33.27100
H  42.96000 34.61700 28.35300
H  43.65800 35.65900 29.59600
H  44.63500 35.17200 28.22500
H  42.70200 33.60300 26.30000
H  44.51100 33.87900 26.00800
H  43.43600 33.25900 24.74000
H  40.57500 39.49300 22.37900
H  42.12700 41.82800 21.96000
H  43.27600 38.71300 22.09900
H  43.08500 40.21900 21.11900
H  41.97000 38.89200 20.84400
H  39.42800 42.32900 22.80700
H  39.46100 41.22200 21.44300
H  39.94100 42.81800 19.90400
H  41.34100 43.32300 20.78800
H  39.53400 43.85700 21.19300
H  39.70000 45.92200 25.17600
H  41.47900 45.96800 24.75900
H  40.80500 46.87200 26.13600
H  39.92500 44.08000 30.61700
H  42.32900 46.51100 33.36800
H  42.45000 44.71800 33.62300
H  40.94000 45.53900 34.01200
Mg 29.36300 58.00800 40.79500
C  26.36700 56.38100 39.69700
C  31.09500 55.52800 39.17800
C  32.21300 60.03400 40.73700
C  27.45600 60.84100 41.60200
N  28.75000 56.10800 39.63100
C  27.48800 55.66700 39.33700
C  27.59100 54.36100 38.50300
C  29.11900 54.00800 38.47900
C  29.70400 55.26600 39.12200
C  29.58700 52.66800 39.22600
C  26.93600 54.48800 37.14800
C  27.05900 55.79200 36.40600
H  26.85300 55.80700 34.91700
N  31.34300 57.74100 40.25500
C  31.90500 56.63000 39.68400
C  33.33000 56.71600 39.47600
C  33.74800 57.98800 40.07900
C  32.44500 58.65000 40.41600
C  34.17200 55.67100 38.82500
C  35.15900 58.54100 40.20200
O  36.08500 57.99700 39.58500
C  35.49500 59.71200 41.02200
N  29.73900 60.13000 41.07000
C  30.99300 60.67600 41.08500
C  30.95000 62.16900 41.41000
C  29.39700 62.41300 41.70500
C  28.80400 61.02800 41.39000
C  32.07300 62.61300 42.41500
C  28.82200 63.57500 40.87600
C  28.71200 64.96200 41.60700
N  27.29800 58.47700 40.84400
C  26.66700 59.70500 41.22200
C  25.22400 59.52500 41.21100
C  25.04600 58.17100 40.66700
C  26.33600 57.64900 40.36400
C  24.22000 60.53500 41.69100
C  24.08700 57.26500 40.12900
O  22.84100 57.29900 40.11900
C  24.88600 56.10000 39.36900
C  24.45500 54.82600 40.05000
O  23.82700 54.00200 39.42700
O  24.95200 54.60000 41.27500
C  24.94200 53.21700 41.78200
H  31.71000 54.74000 38.74000
H  33.06600 60.70700 40.63100
H  26.85500 61.71000 41.87700
H  26.94600 53.67100 39.04800
H  29.35700 53.99400 37.41500
H  28.68900 52.22600 39.65600
H  30.29100 52.89900 40.02600
H  29.95200 51.92900 38.51200
H  25.89900 54.18200 37.28800
H  27.39100 53.77600 36.46000
H  28.01100 56.24400 36.68500
H  26.29300 56.47600 36.77000
H  33.73100 54.69300 38.63500
H  35.03400 55.61500 39.49000
H  34.63100 56.04100 37.90800
H  34.73200 59.80200 41.79500
H  35.54300 60.59200 40.38000
H  36.49100 59.51300 41.41900
H  31.22100 62.63600 40.46300
H  29.19300 62.64800 42.75000
H  31.55400 62.92800 43.32100
H  32.65700 63.49300 42.14900
H  32.74800 61.84600 42.79400
H  27.91800 63.25500 40.35600
H  29.52800 63.74900 40.06400
H  27.79700 64.96400 42.20000
H  28.70200 65.71800 40.82200
H  29.58500 64.98500 42.26000
H  24.23400 61.49500 41.17400
H  24.49100 60.81200 42.70900
H  23.20700 60.13500 41.73000
H  24.59900 56.22800 38.32600
H  24.34900 53.30400 42.69200
H  25.96200 52.92000 42.02600
H  24.42300 52.41300 41.26000

