158

Mg 0.29000 43.97400 25.45900
C  2.08500 43.60900 28.41600
C  -2.52700 42.90900 27.12100
C  -1.34100 43.81700 22.55000
C  3.12200 44.83700 23.88600
N  -0.16500 43.56000 27.57300
C  0.74300 43.42500 28.61000
C  0.07200 43.03700 29.94900
C  -1.43800 42.95400 29.52300
C  -1.42300 43.11700 27.99100
C  -2.05000 41.53800 29.74400
C  0.25100 44.10100 31.07800
C  0.54300 43.57500 32.51800
H  0.23900 42.16100 32.92200
N  -1.72300 43.62300 24.90200
C  -2.65100 43.09800 25.73100
C  -3.86400 42.81400 25.01000
C  -3.58900 43.27100 23.66100
C  -2.14500 43.63400 23.69600
C  -5.04600 42.17700 25.64400
C  -4.45200 43.19300 22.48700
O  -4.10900 43.75900 21.45600
C  -5.73900 42.47000 22.60200
N  0.86800 44.11900 23.49300
C  -0.02100 43.98700 22.47900
C  0.72900 44.22200 21.08400
C  2.13100 44.83200 21.54200
C  2.04600 44.65700 23.11200
C  0.79400 42.88800 20.19000
C  2.47900 46.28800 21.10200
C  1.26100 47.28600 20.85900
N  2.23800 44.05300 25.98200
C  3.29900 44.42800 25.21700
C  4.51700 44.45600 25.97700
C  4.06300 44.14600 27.27400
C  2.68300 43.94400 27.23300
C  5.92100 44.99600 25.59200
C  4.53000 43.96300 28.64000
O  5.64100 44.08200 29.23200
C  3.19100 43.63200 29.39200
C  3.37800 42.43400 30.20200
O  3.32000 41.31200 29.81900
O  3.60600 42.78800 31.50000
C  4.00700 41.73000 32.47200
H  -3.43400 42.94100 27.72900
H  -1.82900 43.58700 21.60100
H  3.99000 45.23800 23.35900
H  0.53000 42.10200 30.27200
H  -1.99700 43.73300 30.04200
H  -1.38300 40.90100 30.32500
H  -2.30900 41.00600 28.82800
H  -3.03700 41.46600 30.20100
H  -0.54200 44.83400 31.23000
H  1.02400 44.82400 30.81700
H  0.03600 44.15200 33.29200
H  1.58700 43.71500 32.79500
H  -5.34700 41.16200 25.38400
H  -5.79900 42.95500 25.52300
H  -4.96300 42.08300 26.72700
H  -6.22100 42.45800 21.62500
H  -6.39900 42.86800 23.37400
H  -5.68500 41.41100 22.85200
H  0.07300 44.88900 20.52500
H  2.91300 44.21500 21.10000
H  0.32700 42.96000 19.20700
H  0.23200 42.15200 20.76500
H  1.83100 42.58500 20.04900
H  3.03800 46.29400 20.16700
H  3.10700 46.87900 21.76900
H  0.74500 47.24600 19.90000
H  1.63300 48.29000 21.06300
H  0.50500 47.09600 21.62200
H  6.52700 45.47400 26.36100
H  5.68300 45.83400 24.93600
H  6.40200 44.18000 25.05400
H  3.16800 44.47800 30.07800
H  5.07100 41.57000 32.29600
H  3.48500 40.79800 32.25400
H  3.71600 42.06900 33.46600
Mg -4.36500 24.65100 26.15700
C  -3.37100 26.23000 28.98100
C  -6.13500 22.39000 28.12400
C  -5.32500 22.96600 23.37200
C  -2.66000 26.93100 24.17700
N  -4.99000 24.56900 28.32200
C  -4.37800 25.28100 29.23900
C  -4.91800 24.88000 30.66700
C  -5.57800 23.48100 30.39600
C  -5.56800 23.45200 28.82300
C  -5.01900 22.26800 31.15500
C  -5.87900 25.98500 31.19300
C  -5.60300 26.37300 32.70000
H  -4.83700 25.58200 33.73200
N  -5.57200 22.94300 25.81000
C  -6.21400 22.17700 26.76000
C  -6.84200 21.02800 26.12800
C  -6.64800 21.18500 24.72500
C  -5.75700 22.38500 24.57300
C  -7.51700 19.91400 26.95000
C  -7.15200 20.30700 23.51300
O  -6.65100 20.48100 22.40700
C  -8.08200 19.13900 23.77700
N  -4.05400 24.91900 24.07400
C  -4.58700 24.17100 23.11600
C  -4.43100 24.79000 21.72900
C  -3.48900 25.99300 22.01100
C  -3.42700 25.98800 23.49100
C  -3.78900 23.92300 20.61400
C  -3.97700 27.29600 21.44200
C  -2.90700 28.26300 20.89200
N  -3.21200 26.27200 26.41200
C  -2.56900 27.08500 25.56400
C  -1.76500 28.08400 26.27500
C  -2.00900 27.74600 27.68600
C  -2.98000 26.71100 27.70000
C  -0.84000 29.17700 25.67700
C  -1.70800 28.10600 29.02800
O  -0.95200 28.86600 29.52100
C  -2.55300 27.19700 29.86300
C  -1.56500 26.34800 30.70700
O  -1.02400 25.31100 30.34600
O  -1.31900 27.08600 31.79400
C  -0.48100 26.42600 32.81300
H  -6.42900 21.64800 28.87000
H  -5.78500 22.62200 22.44400
H  -2.32900 27.80200 23.60700
H  -4.04800 24.80700 31.32000
H  -6.64300 23.51600 30.62400
H  -4.06800 21.95900 30.72100
H  -5.75500 21.46700 31.22500
H  -4.76300 22.57800 32.16800
H  -6.91700 25.67000 31.09000
H  -5.77100 26.80400 30.48200
H  -6.60900 26.53600 33.08700
H  -5.10700 27.33700 32.58600
H  -7.01400 19.73200 27.90000
H  -7.51900 18.98000 26.38800
H  -8.54900 20.16800 27.18800
H  -8.84200 19.49400 24.47400
H  -7.52200 18.29800 24.18600
H  -8.64300 18.84500 22.89000
H  -5.37500 25.22000 21.39300
H  -2.50400 25.87800 21.55800
H  -4.59500 23.51200 20.00500
H  -3.03900 23.22800 20.99300
H  -3.10100 24.48900 19.98700
H  -4.56900 27.68900 22.26800
H  -4.65600 27.12000 20.60700
H  -1.89900 27.86500 21.00700
H  -3.02600 29.27000 21.29300
H  -3.09600 28.33900 19.82100
H  -1.27000 30.15700 25.88200
H  -0.68800 29.17500 24.59800
H  0.12800 29.11800 26.17600
H  -3.11000 27.90900 30.47200
H  0.52000 26.61600 32.42500
H  -0.62900 25.35100 32.92000
H  -0.56600 27.08600 33.67700

