158

Mg 35.79200 2.39500 30.64400
C  33.20400 3.17400 33.00600
C  38.00300 2.50900 33.34700
C  38.30900 2.08800 28.46800
C  33.47100 2.98700 28.07900
N  35.57100 2.82900 32.87200
C  34.39200 3.02200 33.61100
C  34.63200 3.12000 35.13600
C  36.16400 3.10200 35.27100
C  36.67900 2.84900 33.76600
C  36.68000 4.48100 35.81300
C  33.92300 2.01200 36.08900
C  33.47900 2.45500 37.50300
H  34.24700 3.50900 38.28400
N  37.83800 2.20900 30.83700
C  38.51200 2.31800 32.02100
C  39.85000 1.85200 31.72700
C  40.03400 1.73000 30.35400
C  38.72400 2.10600 29.82200
C  40.82600 1.46900 32.74700
C  41.25600 1.37800 29.52000
O  41.25600 1.10100 28.33500
C  42.55900 1.39900 30.19700
N  35.87200 2.62200 28.55500
C  36.99500 2.26000 27.88300
C  36.73700 2.25000 26.46200
C  35.16200 2.38000 26.33400
C  34.77700 2.68500 27.75800
C  37.45700 3.34700 25.62100
C  34.61300 0.98800 25.87200
C  34.90000 0.47800 24.42300
N  33.79200 2.90900 30.47900
C  32.97800 3.10700 29.38800
C  31.66000 3.33400 29.78400
C  31.69100 3.29100 31.16400
C  33.00800 3.14700 31.54800
C  30.43600 3.46400 28.87600
C  30.89100 3.52000 32.38900
O  29.68400 3.83100 32.45800
C  31.81200 3.36500 33.66200
C  31.69100 4.62700 34.53200
O  31.86800 5.75900 34.13900
O  31.06100 4.36100 35.74400
C  30.85500 5.51100 36.70900
H  38.70700 2.42700 34.17700
H  38.96700 1.73200 27.67300
H  32.79600 3.11000 27.22900
H  34.27700 4.13000 35.34200
H  36.54400 2.30800 35.91300
H  36.80500 5.12500 34.94200
H  37.57600 4.26000 36.39300
H  35.98400 4.97200 36.49400
H  34.61400 1.18300 36.24200
H  33.00700 1.67200 35.60600
H  33.39500 1.59000 38.16100
H  32.47900 2.86900 37.37400
H  41.10900 0.41800 32.68900
H  40.43000 1.62100 33.75100
H  41.70100 2.10500 32.61200
H  42.65400 0.57600 30.90500
H  42.54800 2.36500 30.70000
H  43.28600 1.40600 29.38400
H  37.12500 1.33200 26.02100
H  34.68200 3.09400 25.66600
H  38.20100 3.90100 26.19400
H  36.79800 4.08400 25.16200
H  37.98000 2.89300 24.78000
H  33.53200 1.00000 26.01000
H  35.03200 0.28200 26.58900
H  33.96200 0.48100 23.86800
H  35.25400 -0.55100 24.48100
H  35.72600 0.98800 23.92700
H  29.60000 2.96400 29.36400
H  30.54600 3.00000 27.89600
H  30.17600 4.50900 28.71100
H  31.54600 2.46700 34.22000
H  30.35000 6.37400 36.27500
H  31.79500 5.81100 37.17100
H  30.13900 5.15900 37.45200
Mg -10.45400 39.20000 40.21700
C  -8.66200 36.31700 39.07800
C  -7.58100 41.15400 39.60800
C  -12.44300 41.93800 40.22800
C  -13.32400 37.16700 40.19900
N  -8.37900 38.77800 39.53000
C  -7.97400 37.60300 38.99000
C  -6.69400 37.75200 38.24700
C  -6.16200 39.09300 38.86600
C  -7.41800 39.74000 39.39100
C  -5.21500 38.89300 40.10500
C  -6.76300 37.84000 36.72100
C  -6.17200 36.70800 35.89100
H  -7.00300 36.16100 34.69800
N  -10.06000 41.26900 39.97600
C  -8.81500 41.90200 39.71800
C  -8.99200 43.32300 39.61100
C  -10.34900 43.58800 39.85400
C  -11.02700 42.24500 40.05400
C  -7.82200 44.26800 39.24100
C  -10.98900 44.93000 39.83000
O  -10.29500 45.88200 39.53900
C  -12.48600 45.13500 39.94900
N  -12.57000 39.52200 40.17500
C  -13.11800 40.73300 40.34100
C  -14.64200 40.71600 40.38200
C  -14.89300 39.11400 40.18000
C  -13.54700 38.56800 40.17300
C  -15.09900 41.16300 41.74600
C  -15.70100 38.89100 38.91500
C  -16.58600 37.57900 38.82800
N  -10.88500 37.12000 39.99600
C  -12.06800 36.47700 40.12500
C  -11.78300 35.08000 40.14500
C  -10.47400 34.95500 39.66100
C  -9.97200 36.24700 39.62300
C  -12.75300 34.08300 40.57300
C  -9.37600 34.02300 39.26300
O  -9.34000 32.79200 39.40400
C  -8.21500 34.92000 38.73400
C  -6.89000 34.53000 39.41500
O  -6.61200 34.67800 40.59100
O  -6.02700 33.96300 38.50700
C  -4.72700 33.51100 38.98700
H  -6.67600 41.73000 39.40400
H  -13.18500 42.72700 40.36400
H  -14.21200 36.53300 40.24900
H  -6.12500 36.87500 38.55400
H  -5.65800 39.66000 38.08400
H  -4.22500 39.19800 39.76500
H  -5.24800 37.85700 40.44300
H  -5.41400 39.53300 40.96500
H  -6.44700 38.81000 36.33500
H  -7.81200 37.83100 36.42300
H  -6.01700 35.88700 36.59100
H  -5.14500 36.89000 35.57400
H  -8.14800 45.09000 38.60400
H  -7.09000 43.65900 38.71000
H  -7.20300 44.66900 40.04300
H  -12.82100 46.17100 39.89600
H  -12.92400 44.69300 40.84400
H  -13.02500 44.69800 39.10900
H  -14.95400 41.34600 39.54900
H  -15.34200 38.67600 41.07100
H  -15.58000 42.14100 41.72100
H  -14.28400 41.29000 42.45800
H  -15.81300 40.41500 42.09100
H  -14.99300 38.95700 38.08900
H  -16.35800 39.75700 38.83700
H  -16.07400 36.72900 38.37600
H  -17.57500 37.82700 38.44200
H  -16.78800 37.32400 39.86800
H  -12.92000 34.23100 41.64000
H  -12.28600 33.10500 40.45400
H  -13.67400 34.21700 40.00600
H  -8.15300 34.80800 37.65100
H  -4.44300 32.75700 38.25300
H  -4.95800 33.10300 39.97100
H  -3.97100 34.28100 39.13900

