158

Mg 46.89800 25.34100 27.90300
C  47.42600 27.44400 30.65400
C  46.40800 22.71400 30.13700
C  46.88100 23.22800 25.28500
C  47.94800 27.95600 25.86000
N  46.88000 25.11700 30.16500
C  46.99100 26.16300 31.05900
C  46.79800 25.65800 32.43000
C  46.77000 24.07700 32.28000
C  46.65200 23.95600 30.80000
C  48.05100 23.30900 32.75900
C  45.59100 26.36200 33.09900
C  44.92600 25.57000 34.20800
H  44.70600 26.19000 35.59800
N  46.49800 23.28500 27.71400
C  46.26400 22.39700 28.77200
C  45.93600 21.12100 28.17900
C  46.15900 21.20800 26.78600
C  46.49300 22.64400 26.53000
C  45.36600 19.90700 29.00100
C  46.06800 20.08900 25.75500
O  46.40800 20.27300 24.56900
C  45.68500 18.63000 26.07300
N  47.17000 25.64300 25.82800
C  47.20200 24.56200 24.98900
C  47.36400 25.06100 23.53300
C  47.36300 26.59900 23.75400
C  47.45300 26.81000 25.21700
C  48.74800 24.46100 23.02700
C  46.09700 27.33000 23.28000
C  44.77800 26.68400 23.71500
N  47.58300 27.26000 28.14200
C  48.00200 28.22100 27.25200
C  48.35200 29.44200 27.94200
C  48.10200 29.16900 29.30900
C  47.73300 27.82500 29.32900
C  48.99700 30.64600 27.31800
C  48.22000 29.71700 30.59200
O  48.67800 30.76500 30.92200
C  47.80000 28.64600 31.53400
C  48.85000 28.32500 32.59700
O  50.02600 28.13500 32.34300
O  48.23500 28.39000 33.81000
C  49.08200 28.14700 34.99800
H  46.21600 21.94100 30.88400
H  46.84100 22.54100 24.43800
H  48.18800 28.75300 25.15300
H  47.72700 25.90900 32.94100
H  45.87800 23.55300 32.62500
H  47.68000 22.43900 33.30200
H  48.67600 23.88100 33.44500
H  48.74100 22.89700 32.02400
H  44.88900 26.63300 32.31000
H  45.89900 27.24300 33.66000
H  45.46600 24.63600 34.36200
H  43.91700 25.32200 33.87800
H  44.35700 19.67700 28.66000
H  45.34600 20.22900 30.04200
H  46.01900 19.03600 28.93000
H  44.71800 18.73900 26.56400
H  46.40500 18.27200 26.80900
H  45.65000 17.91300 25.25200
H  46.60100 24.86300 22.78000
H  48.29800 27.03600 23.40400
H  48.79900 23.41900 23.34500
H  49.65000 25.03900 23.22800
H  48.57800 24.46200 21.95100
H  46.18400 27.50500 22.20800
H  46.07200 28.32800 23.71800
H  44.30000 26.33100 22.80100
H  44.08100 27.38200 24.18000
H  44.72300 25.88700 24.45600
H  48.34700 30.98000 26.50900
H  49.96800 30.57100 26.82800
H  49.02200 31.48300 28.01600
H  46.92200 28.95100 32.10400
H  49.51900 27.15500 34.87900
H  48.53500 28.19200 35.94000
H  49.92500 28.83500 35.05200
Mg 46.85200 46.48000 43.91000
C  43.51900 46.40200 43.04500
C  47.19100 43.35200 42.30600
C  50.08700 46.64700 44.43200
C  46.49500 49.96900 44.39200
N  45.60700 45.23500 42.68600
C  44.21400 45.26900 42.64000
C  43.67700 44.25700 41.62800
C  44.79100 43.19200 41.68800
C  46.00500 43.98800 42.22200
C  44.33600 41.93500 42.56100
C  43.34000 44.91400 40.20300
C  42.05500 44.48900 39.56400
H  42.22900 43.42200 38.50500
N  48.40900 45.12800 43.48200
C  48.40900 43.90600 42.78200
C  49.74100 43.35500 42.75600
C  50.61500 44.31600 43.31200
C  49.70500 45.41100 43.80900
C  50.08200 41.97100 42.02000
C  52.11100 44.17100 43.50700
O  52.66300 43.19000 43.10900
C  52.95100 45.37400 43.95000
N  48.08600 48.09400 44.27100
C  49.43900 47.87300 44.60200
C  50.12700 49.24300 45.05200
C  48.95800 50.28100 44.80200
C  47.73800 49.41000 44.45900
C  50.60500 49.27200 46.50200
C  49.25400 51.29700 43.66600
C  49.02800 50.90600 42.18600
N  45.24900 48.00500 43.92600
C  45.26900 49.36600 44.06800
C  43.89700 49.81400 44.05800
C  43.15400 48.68800 43.66500
C  44.01400 47.61900 43.56200
C  43.48900 51.24100 44.23200
C  41.88700 48.16900 43.26900
O  40.89600 48.76700 43.06600
C  42.01400 46.68900 42.95000
C  41.05800 45.88500 43.74600
O  40.03200 45.49400 43.29500
O  41.46000 45.76400 45.06400
C  40.57100 44.99200 45.93900
H  47.25400 42.37500 41.82300
H  51.08800 46.71800 44.86200
H  46.46600 51.04100 44.59500
H  42.71400 43.86600 41.95700
H  45.09900 42.75300 40.74000
H  44.43200 41.01100 41.99100
H  43.29900 41.94700 42.89700
H  44.88700 41.97900 43.50100
H  44.06500 44.56300 39.46800
H  43.43700 45.99600 40.28800
H  41.58800 45.32900 39.04900
H  41.32100 44.07200 40.25400
H  49.18500 41.44700 41.69000
H  50.62300 41.27100 42.65800
H  50.70400 42.28000 41.18000
H  52.75000 46.27100 43.36400
H  54.00300 45.09100 43.96900
H  52.65500 45.55700 44.98300
H  51.00100 49.48900 44.44900
H  48.67100 50.87100 45.67300
H  51.67500 49.47900 46.49700
H  50.42400 48.33600 47.03100
H  50.14300 50.06200 47.09400
H  50.15500 51.91000 43.69300
H  48.52100 52.09400 43.78400
H  47.97800 50.74600 41.94300
H  49.58600 49.99200 41.98400
H  49.41700 51.69200 41.53800
H  44.29900 51.96900 44.20500
H  42.88600 51.29200 45.13800
H  42.97400 51.41600 43.28700
H  41.67800 46.55000 41.92300
H  40.86400 45.34300 46.92800
H  40.77200 43.93000 46.07500
H  39.52500 45.06600 45.64400

