158

Mg 30.71000 58.17200 38.69200
C  27.80200 56.18700 38.21200
C  32.57500 55.39500 38.12900
C  33.41000 60.09700 38.58200
C  28.55400 60.88700 38.48400
N  30.18700 56.01500 38.41800
C  29.00200 55.40200 38.21600
C  29.13600 53.96000 37.93800
C  30.64400 53.64500 38.22400
C  31.23600 55.08700 38.40200
C  30.98900 52.60800 39.33300
C  28.61100 53.52900 36.43500
C  29.13000 54.35400 35.26700
H  27.99800 54.95600 34.34200
N  32.75400 57.78900 38.48900
C  33.30600 56.59400 38.14800
C  34.69700 56.71100 37.95000
C  34.98300 58.03800 38.26400
C  33.70900 58.70400 38.48900
C  35.54800 55.57400 37.58600
C  36.34400 58.63100 38.25400
O  37.36600 57.97000 38.11400
C  36.70200 60.13000 38.61900
N  30.93100 60.07000 38.61900
C  32.17200 60.68900 38.65500
C  32.00400 62.23600 38.62200
C  30.49000 62.44200 38.42800
C  29.93500 61.04100 38.49200
C  32.61500 63.00600 39.79000
C  30.16200 63.11700 37.03900
C  29.87100 64.66500 37.04300
N  28.57000 58.51600 38.49100
C  27.88300 59.67200 38.48500
C  26.50200 59.41700 38.50000
C  26.45200 58.04400 38.25400
C  27.68200 57.57300 38.30700
C  25.39300 60.43600 38.62900
C  25.54400 56.87100 38.16800
O  24.29300 56.93200 38.23000
C  26.39600 55.64600 37.98400
C  26.03300 54.70800 39.05200
O  26.07300 54.92600 40.28200
O  25.59100 53.53400 38.53600
C  24.71000 52.67700 39.32900
H  33.16100 54.48000 38.02200
H  34.23400 60.81300 38.61000
H  27.80500 61.68200 38.49100
H  28.56700 53.46600 38.72600
H  31.05800 53.25300 37.29500
H  29.99600 52.33500 39.69200
H  31.46000 53.03000 40.22100
H  31.59400 51.82200 38.88200
H  27.52300 53.55300 36.38000
H  29.08000 52.55800 36.27700
H  29.85200 53.82700 34.64300
H  29.72200 55.16500 35.69200
H  35.00000 54.89600 36.93200
H  36.03500 55.07900 38.42600
H  36.36300 55.99600 36.99800
H  36.30600 60.38400 39.60300
H  36.37200 60.77100 37.80100
H  37.78800 60.20800 38.67400
H  32.61100 62.62000 37.80300
H  30.01700 63.03100 39.21300
H  32.30500 64.05100 39.83000
H  33.66000 62.94100 39.48900
H  32.33000 62.41500 40.66000
H  29.36500 62.68300 36.43500
H  31.07900 63.06900 36.45000
H  29.77800 65.13000 38.02500
H  28.98500 64.86000 36.43900
H  30.71600 65.07900 36.49300
H  24.39700 59.99700 38.57000
H  25.51300 61.28900 37.96100
H  25.50500 60.80500 39.64800
H  26.18300 55.21500 37.00600
H  24.19400 53.11200 40.18500
H  25.26300 51.83400 39.74500
H  24.00100 52.21400 38.64200
Mg -5.40900 25.94000 26.46500
C  -4.27000 27.56100 29.24800
C  -7.28400 23.89500 28.39200
C  -6.28800 24.13600 23.63400
C  -3.32600 27.96900 24.45900
N  -5.69700 25.79400 28.55200
C  -5.19700 26.55600 29.55500
C  -5.74300 26.14800 30.90900
C  -6.46000 24.83200 30.60400
C  -6.42100 24.76000 29.09100
C  -5.89800 23.57400 31.24700
C  -6.66700 27.20900 31.50500
C  -6.72000 27.36000 33.03100
H  -6.22400 26.26600 33.93300
N  -6.68000 24.37000 26.05500
C  -7.33900 23.66400 26.98600
C  -8.20700 22.65400 26.35500
C  -7.93100 22.72600 24.95400
C  -6.84800 23.74900 24.80600
C  -9.17200 21.75000 27.20200
C  -8.46100 21.87100 23.80800
O  -8.11900 22.08000 22.68400
C  -9.48300 20.89600 24.07900
N  -4.78100 25.98900 24.36300
C  -5.31800 25.16400 23.37900
C  -4.79500 25.54900 21.97600
C  -4.14400 26.95600 22.17400
C  -4.09900 27.03000 23.76400
C  -3.85800 24.48600 21.32000
C  -4.83000 28.15300 21.39500
C  -3.86500 29.12500 20.63900
N  -4.05700 27.45500 26.73800
C  -3.25300 28.23300 25.84400
C  -2.51600 29.19900 26.62900
C  -2.95500 29.03300 27.94500
C  -3.84400 27.95900 27.97300
C  -1.52300 30.23700 26.09900
C  -2.74800 29.53100 29.28000
O  -2.02300 30.43700 29.71000
C  -3.56400 28.59400 30.22200
C  -2.65700 27.80100 31.13700
O  -2.05800 26.80000 30.84200
O  -2.63000 28.35300 32.43800
C  -1.72300 27.84900 33.47100
H  -7.93100 23.27200 29.01400
H  -6.52100 23.76200 22.63500
H  -2.75500 28.64600 23.82000
H  -4.92800 25.98800 31.61500
H  -7.48200 24.90100 30.97600
H  -5.16600 23.77900 32.02800
H  -5.49100 22.88600 30.50600
H  -6.63300 23.04300 31.85200
H  -7.66100 26.99300 31.11200
H  -6.32400 28.15600 31.08900
H  -7.77800 27.55700 33.20000
H  -6.17900 28.28900 33.21200
H  -10.20200 22.10800 27.19800
H  -8.79100 21.66500 28.22000
H  -9.19300 20.76600 26.73400
H  -9.15800 19.96800 24.54800
H  -9.90900 20.64500 23.10800
H  -10.27600 21.27100 24.72600
H  -5.71000 25.72200 21.41000
H  -3.12600 26.91800 21.78600
H  -2.83100 24.72300 21.04100
H  -4.40200 24.03400 20.49100
H  -3.69700 23.72800 22.08500
H  -5.42700 28.78200 22.05500
H  -5.53500 27.70000 20.69800
H  -4.24800 30.14500 20.59500
H  -3.55000 28.81100 19.64400
H  -2.96500 29.32800 21.21800
H  -0.97600 30.01000 25.18400
H  -0.86300 30.45400 26.93900
H  -1.97700 31.15500 25.72600
H  -4.16800 29.20500 30.89300
H  -0.81500 27.42700 33.04100
H  -2.17600 27.18800 34.20900
H  -1.29600 28.67900 34.03300

