158

Mg 47.27400 15.24100 29.06900
C  45.33200 15.39700 31.81500
C  49.67800 17.21900 30.69600
C  48.99600 15.47700 26.20300
C  44.55000 13.71900 27.26300
N  47.48100 16.06900 30.99500
C  46.49300 16.02500 32.00800
C  47.05000 16.63500 33.39000
C  48.23200 17.49500 32.76500
C  48.47900 16.83200 31.40700
C  48.05300 19.06700 32.74800
C  47.39800 15.52900 34.36600
C  46.94200 15.81900 35.78800
H  46.84200 17.28200 36.19000
N  49.11800 16.10200 28.59000
C  49.95100 16.82400 29.38100
C  51.24700 16.99300 28.73000
C  51.07200 16.42800 27.39400
C  49.67300 15.95600 27.38300
C  52.50000 17.49100 29.43100
C  52.07800 16.26500 26.18000
O  51.82600 15.59600 25.17300
C  53.38900 16.95800 26.32500
N  46.71000 14.99800 26.95600
C  47.72800 14.95000 26.04300
C  47.26600 14.23900 24.74700
C  45.87200 13.63700 25.15000
C  45.69700 14.13200 26.56800
C  47.22900 15.27000 23.61600
C  45.84900 12.11300 24.92000
C  46.28500 11.29100 26.16100
N  45.20800 14.78700 29.39200
C  44.27200 14.12500 28.61100
C  43.05200 13.96700 29.40200
C  43.41400 14.42100 30.72500
C  44.76800 14.87400 30.61600
C  41.85700 13.19700 28.98900
C  42.98100 14.47800 32.11000
O  42.01800 13.89300 32.57700
C  44.16100 15.24400 32.81000
C  43.53100 16.36200 33.38300
O  43.16000 17.38000 32.81500
O  43.39000 16.19700 34.73600
C  42.84500 17.30700 35.57400
H  50.36800 17.88600 31.21700
H  49.68700 15.38200 25.36300
H  43.79900 13.22100 26.64700
H  46.21500 17.25600 33.71300
H  49.17200 17.37100 33.30300
H  47.98600 19.28600 31.68300
H  48.92800 19.59300 33.13200
H  47.14900 19.36700 33.27800
H  48.47300 15.59600 34.20300
H  47.10600 14.51900 34.07700
H  47.64700 15.37600 36.49200
H  45.93700 15.41000 35.89100
H  52.36100 17.96800 30.40200
H  53.11600 18.18200 28.85600
H  53.11100 16.62200 29.67500
H  53.32700 17.96500 26.73600
H  53.95700 17.15200 25.41500
H  54.03700 16.39900 27.00100
H  47.88100 13.38800 24.45700
H  45.15500 14.06800 24.45200
H  48.02500 15.09400 22.89300
H  47.51700 16.28000 23.90600
H  46.31100 15.26600 23.02800
H  46.50500 11.85600 24.08800
H  44.81200 11.83100 24.73400
H  47.05800 11.90000 26.62900
H  46.80300 10.34700 25.98900
H  45.41400 10.94700 26.72000
H  41.89400 12.16000 29.32200
H  41.78400 13.12700 27.90400
H  40.99700 13.69300 29.43800
H  44.43400 14.59700 33.64400
H  41.82600 17.55900 35.27800
H  43.50700 18.16900 35.50600
H  42.64100 16.91300 36.56900
Mg 17.07200 51.77400 25.50000
C  18.72500 50.31100 28.38500
C  14.52500 52.38700 27.63800
C  15.47400 52.87800 22.93400
C  19.61600 50.45800 23.57400
N  16.79800 51.55900 27.81900
C  17.60700 50.97700 28.76800
C  17.05700 51.23200 30.19600
C  15.57200 51.78700 29.85300
C  15.57400 51.90700 28.34900
C  14.36800 51.03200 30.44600
C  18.03300 52.32100 30.90500
C  18.05600 52.37600 32.41600
H  17.15900 51.35200 33.13700
N  15.25700 52.51400 25.29100
C  14.32200 52.74700 26.25200
C  13.10800 53.38800 25.70200
C  13.36200 53.55400 24.28200
C  14.67200 52.91300 24.06800
C  12.00700 53.91200 26.50100
C  12.54700 54.32400 23.30600
O  12.80800 54.48300 22.11700
C  11.35300 55.14800 23.77400
N  17.41000 51.60200 23.46400
C  16.63800 52.17100 22.54100
C  17.29300 52.15500 21.18000
C  18.73200 51.51400 21.48300
C  18.51400 51.08500 22.91100
C  16.40200 51.59900 20.00800
C  19.98400 52.42800 21.27700
C  20.95100 52.00400 20.09400
N  18.72900 50.58600 25.82300
C  19.72400 50.14000 24.91500
C  20.72400 49.42100 25.56000
C  20.36800 49.46300 26.92800
C  19.13200 50.17100 27.02600
C  21.88200 48.78600 24.86300
C  20.81600 49.04300 28.29300
O  21.83900 48.49000 28.63400
C  19.69900 49.52300 29.26400
C  19.13200 48.28900 29.99800
O  18.80200 47.24400 29.46300
O  19.18100 48.48600 31.32700
C  18.88300 47.27100 32.12400
H  13.66800 52.56100 28.29200
H  14.93500 53.32700 22.09700
H  20.55900 50.30700 23.04400
H  17.00000 50.37100 30.86200
H  15.50400 52.78600 30.28600
H  13.64300 51.65400 30.97000
H  14.73400 50.27300 31.13800
H  13.87600 50.46500 29.65500
H  17.58300 53.28400 30.66500
H  19.01500 52.26400 30.43500
H  17.82500 53.40600 32.68900
H  19.07800 52.06600 32.63200
H  12.07200 54.99500 26.39300
H  12.20300 53.64900 27.54000
H  11.02400 53.55900 26.18800
H  10.85300 55.67600 22.96200
H  11.74500 55.91000 24.44800
H  10.62500 54.48800 24.24500
H  17.34600 53.23900 21.07300
H  18.81900 50.65300 20.82000
H  15.68900 50.96800 20.53800
H  17.04600 51.02100 19.34500
H  16.02800 52.42200 19.39900
H  20.57500 52.43200 22.19300
H  19.62300 53.45500 21.21100
H  20.78200 52.74800 19.31600
H  20.92900 51.01300 19.63900
H  21.98900 52.08400 20.41700
H  22.01600 49.20500 23.86500
H  21.73100 47.70800 24.80000
H  22.84900 49.04800 25.29200
H  20.16700 50.15300 30.02100
H  17.94100 46.82300 31.80600
H  18.96000 47.39900 33.20300
H  19.63400 46.50200 31.94300

