158

Mg 0.57500 7.72100 25.53300
C  1.30700 9.76200 28.29800
C  0.51600 5.09000 27.62200
C  0.27900 5.76300 22.71100
C  1.16600 10.59000 23.42200
N  0.97300 7.47300 27.61200
C  1.17600 8.42100 28.60300
C  1.18900 7.84700 30.05300
C  1.07100 6.32000 29.82400
C  0.74300 6.29200 28.25100
C  2.36700 5.37400 30.18400
C  0.07900 8.32800 30.98000
C  0.43200 8.46300 32.44500
H  1.70300 7.62200 32.83900
N  0.35200 5.69900 25.20300
C  0.42400 4.76500 26.24300
C  0.34300 3.43200 25.62100
C  0.19900 3.65000 24.16400
C  0.34200 5.06800 23.99900
C  0.27400 2.15900 26.44500
C  0.05700 2.54700 23.09800
O  0.08200 2.82800 21.89700
C  -0.06900 1.12900 23.48700
N  0.84800 8.04700 23.41100
C  0.47300 7.12700 22.50400
C  0.27800 7.71600 21.09600
C  0.33600 9.29400 21.44000
C  0.83100 9.38200 22.83100
C  1.29200 7.26400 20.06000
C  -1.04200 10.03100 21.49100
C  -1.16500 11.24100 20.59800
N  1.12700 9.73700 25.76700
C  1.25100 10.80700 24.85200
C  1.48900 12.04800 25.51300
C  1.40200 11.69800 26.84100
C  1.24400 10.29700 27.00100
C  1.80100 13.28600 24.90000
C  1.63300 12.28800 28.18900
O  1.87000 13.43800 28.53300
C  1.40300 11.07700 29.17400
C  2.66200 11.08400 30.03800
O  3.83400 10.94700 29.60400
O  2.31700 11.36500 31.38000
C  3.42200 11.19000 32.24400
H  0.29700 4.22800 28.25600
H  0.08200 5.25700 21.76400
H  1.20900 11.51100 22.83800
H  2.17900 8.11800 30.41900
H  0.25400 5.81700 30.34200
H  2.10400 4.58200 30.88600
H  3.12300 6.06600 30.55400
H  2.83400 4.86500 29.34200
H  -0.78600 7.68300 30.83000
H  -0.06900 9.33500 30.59000
H  -0.38900 8.33500 33.15000
H  0.81400 9.48400 32.48300
H  0.96700 1.37000 26.15300
H  -0.77400 1.86500 26.38400
H  0.60400 2.27100 27.47800
H  -0.21500 0.52300 22.59300
H  -0.94200 1.16200 24.13800
H  0.81400 0.70700 23.96800
H  -0.72000 7.51900 20.70500
H  1.00600 9.84800 20.78200
H  1.69800 6.26700 20.22600
H  2.15400 7.91100 19.89400
H  0.75900 7.24000 19.11000
H  -1.38000 10.19500 22.51400
H  -1.81700 9.30600 21.24500
H  -0.25300 11.47400 20.04800
H  -1.38900 12.09700 21.23500
H  -1.97100 11.13300 19.87300
H  1.37100 13.53200 23.92900
H  2.86800 13.31900 24.67900
H  1.44500 14.04400 25.59800
H  0.53300 11.37300 29.76100
H  3.93800 10.24500 32.07600
H  3.04100 11.13200 33.26300
H  4.21300 11.91000 32.03200
Mg -11.51900 38.62300 41.97400
C  -9.38200 35.95600 40.89500
C  -9.51400 40.71100 40.20900
C  -13.75000 41.03100 42.40600
C  -13.74300 36.16800 42.96100
N  -9.74300 38.30500 40.61300
C  -8.96900 37.20300 40.48500
C  -7.70100 37.57500 39.64600
C  -7.66600 39.08900 39.57700
C  -9.01300 39.45300 40.18600
C  -6.48200 39.85400 40.29600
C  -7.67600 36.89500 38.22400
C  -6.45000 35.97600 37.93900
H  -5.48400 36.61100 36.94500
N  -11.57700 40.67400 41.54000
C  -10.62300 41.32300 40.76200
C  -11.06400 42.71000 40.60200
C  -12.24300 42.90800 41.38100
C  -12.58200 41.55000 41.88500
C  -10.37500 43.75200 39.78700
C  -12.95500 44.20900 41.47800
O  -12.54300 45.29900 41.02300
C  -14.16600 44.25100 42.37100
N  -13.63800 38.49700 42.38400
C  -14.20800 39.71800 42.71300
C  -15.60500 39.46300 43.30300
C  -15.63000 37.89600 43.40800
C  -14.26100 37.46000 42.89300
C  -15.93800 40.30100 44.60300
C  -16.81300 37.21400 42.61600
C  -17.97100 36.72200 43.52300
N  -11.56500 36.45300 41.94800
C  -12.51600 35.67200 42.55800
C  -12.02300 34.24000 42.63500
C  -10.83300 34.37500 41.90100
C  -10.61700 35.65900 41.52300
C  -12.58100 33.09300 43.41900
C  -9.64800 33.63200 41.43300
O  -9.39500 32.42100 41.56900
C  -8.70700 34.63700 40.71200
C  -7.45700 34.44800 41.42900
O  -7.28800 34.72300 42.63800
O  -6.43200 33.91700 40.75200
C  -5.08600 33.68900 41.30200
H  -8.94800 41.39600 39.57400
H  -14.58800 41.73100 42.38900
H  -14.33200 35.47300 43.56200
H  -6.88400 37.18400 40.25300
H  -7.58700 39.46900 38.55800
H  -5.61400 39.19400 40.30200
H  -6.77500 39.97800 41.33800
H  -6.17500 40.82500 39.90800
H  -7.83400 37.67400 37.47800
H  -8.47700 36.16000 38.14600
H  -6.75300 34.97200 37.64200
H  -5.71600 35.82500 38.73100
H  -11.12200 44.37100 39.29000
H  -9.80500 43.17600 39.05800
H  -9.82600 44.39700 40.47300
H  -14.99300 43.68500 41.94300
H  -14.62400 45.24000 42.35300
H  -13.96100 43.91800 43.38800
H  -16.40900 39.78900 42.64300
H  -15.73000 37.65300 44.46600
H  -15.05800 40.32600 45.24500
H  -16.69100 39.75000 45.16600
H  -16.04400 41.35500 44.34600
H  -16.51300 36.36200 42.00500
H  -17.29000 37.90500 41.92100
H  -18.73500 37.45500 43.78200
H  -17.58800 36.31100 44.45700
H  -18.54900 35.90800 43.08500
H  -13.64500 33.24700 43.59800
H  -12.06400 32.75800 44.31800
H  -12.53800 32.27500 42.69900
H  -8.69200 34.22700 39.70200
H  -4.78800 34.41800 42.05600
H  -4.35300 33.63400 40.49700
H  -5.02900 32.72200 41.80300

