158

Mg 40.74100 9.81100 29.03600
C  42.41700 10.80900 31.91900
C  38.18800 8.60800 31.01100
C  39.56400 8.27900 26.38100
C  43.68100 10.74700 27.19600
N  40.34800 9.65700 31.24400
C  41.13200 10.20400 32.16400
C  40.31200 10.23600 33.49000
C  39.13200 9.23800 33.21900
C  39.15400 9.30100 31.74200
C  39.18200 7.82200 33.84300
C  39.95700 11.66300 34.01600
C  39.70400 11.85300 35.48300
H  40.76900 12.60000 36.27700
N  39.11800 8.69000 28.68400
C  38.11000 8.29900 29.63700
C  36.98900 7.65000 28.99100
C  37.33300 7.66900 27.60100
C  38.76600 8.21900 27.53700
C  35.83500 7.00500 29.78000
C  36.48300 7.23700 26.43700
O  36.87700 7.37100 25.30300
C  35.10500 6.66800 26.70300
N  41.53600 9.53600 27.09400
C  40.81500 8.87900 26.18400
C  41.43500 8.98100 24.78400
C  42.74600 9.75800 25.04200
C  42.66300 10.13900 26.50900
C  41.65400 7.57700 24.23000
C  43.01800 10.95900 24.04800
C  42.40700 12.31100 24.41300
N  42.64200 10.71900 29.39300
C  43.71700 11.02500 28.58200
C  44.74600 11.66900 29.34000
C  44.29700 11.54700 30.67200
C  43.01200 11.00300 30.61700
C  46.06500 12.03000 28.86300
C  44.61100 11.88100 32.02900
O  45.55900 12.49600 32.48700
C  43.47900 11.34600 32.91400
C  44.04500 10.41700 33.90700
O  44.61700 9.42400 33.65000
O  43.59000 10.77400 35.21100
C  43.77100 9.62300 36.11700
H  37.29900 8.26400 31.54400
H  39.06600 7.99800 25.45100
H  44.48000 11.18700 26.59400
H  40.86400 9.77100 34.30600
H  38.18700 9.71600 33.47700
H  39.68000 7.15600 33.13900
H  38.18200 7.56100 34.19000
H  39.92800 7.75000 34.63400
H  39.14700 12.03000 33.38500
H  40.73000 12.37100 33.71500
H  39.63000 10.92300 36.04800
H  38.78000 12.42800 35.54000
H  35.87000 6.74300 30.83800
H  35.54800 6.12500 29.20400
H  34.96700 7.66100 29.71700
H  34.63700 6.58100 25.72200
H  34.54900 7.40000 27.28800
H  35.08100 5.69300 27.18900
H  40.77900 9.42300 24.03400
H  43.61400 9.09800 25.04900
H  41.59700 6.87100 25.05900
H  42.59800 7.42600 23.70600
H  40.86600 7.30400 23.52800
H  42.63700 10.60600 23.08900
H  44.10400 10.95700 23.96400
H  41.90700 12.28400 25.38100
H  41.74900 12.51700 23.56900
H  43.23100 13.02400 24.44400
H  46.11600 12.18000 27.78500
H  46.68800 11.18800 29.16300
H  46.44100 12.92600 29.35700
H  42.99200 12.17800 33.42300
H  43.08700 8.77400 36.10500
H  43.67200 10.01100 37.13100
H  44.78400 9.24800 35.97100
Mg 47.21900 16.87300 27.74200
C  45.37200 16.49200 30.64600
C  49.31400 19.01500 29.44800
C  48.42900 18.05800 24.73300
C  44.51300 15.42900 25.97400
N  47.28100 17.73300 29.76900
C  46.54400 17.25100 30.83300
C  47.08400 17.73000 32.18300
C  48.19300 18.74000 31.78800
C  48.28200 18.53700 30.24200
C  47.97000 20.07600 32.46700
C  47.51400 16.52600 33.06700
C  47.45800 16.67900 34.63100
H  46.67500 17.88300 35.11900
N  48.73400 18.17400 27.18200
C  49.58400 18.91900 28.04500
C  50.62900 19.56600 27.26000
C  50.38900 19.29600 25.85600
C  49.12400 18.52800 25.89900
C  51.70400 20.47500 27.99500
C  51.13300 19.55300 24.54200
O  50.80900 19.23400 23.43600
C  52.48000 20.20300 24.60000
N  46.52800 16.75700 25.64100
C  47.29500 17.27300 24.60900
C  46.60400 16.88200 23.20800
C  45.63900 15.80600 23.70400
C  45.49700 16.02400 25.19500
C  45.91700 18.16800 22.66500
C  45.96400 14.37200 23.32600
C  45.08500 13.61500 22.25900
N  45.44400 15.95400 28.18600
C  44.39900 15.38000 27.39900
C  43.30400 14.99500 28.19700
C  43.63700 15.35800 29.47300
C  44.91500 15.99800 29.44000
C  42.02500 14.43400 27.71100
C  43.20900 15.31200 30.88400
O  42.21300 14.87700 31.36000
C  44.37500 16.07700 31.72800
C  43.66100 17.12600 32.47800
O  43.68000 18.30400 32.06200
O  43.08900 16.61400 33.65200
C  42.18900 17.56500 34.26800
H  49.93200 19.64100 30.09500
H  48.75200 18.31300 23.72200
H  43.72300 14.95300 25.39000
H  46.25600 18.25100 32.66400
H  49.17500 18.37000 32.08400
H  47.20000 20.14200 33.23600
H  47.65100 20.82300 31.74000
H  48.95300 20.40200 32.80600
H  48.59200 16.51300 32.90900
H  47.09900 15.58000 32.72000
H  48.45400 16.86700 35.03300
H  47.00800 15.80400 35.09800
H  52.66900 19.97600 28.08600
H  51.33700 20.68500 28.99900
H  51.93000 21.34800 27.38300
H  53.18800 19.80400 23.87300
H  53.02500 20.13600 25.54200
H  52.39800 21.25900 24.34200
H  47.40900 16.49700 22.58200
H  44.63700 15.92100 23.29100
H  46.67600 18.43900 21.93200
H  45.82000 19.03100 23.32400
H  45.00300 17.88900 22.14100
H  46.06400 13.78100 24.23600
H  46.94100 14.51800 22.86600
H  44.82200 12.64500 22.68100
H  45.71700 13.54000 21.37400
H  44.22000 14.21300 21.97500
H  41.71300 14.92500 26.78900
H  41.21400 14.60200 28.41900
H  42.18600 13.37100 27.53000
H  44.73000 15.36400 32.47200
H  42.72600 18.46500 34.56900
H  41.81400 17.07000 35.16400
H  41.35500 17.88000 33.64100

