158

Mg 25.03700 -8.35900 46.61500
C  27.22100 -5.77300 45.53000
C  22.74600 -7.11800 44.47000
C  23.25500 -11.12700 47.09000
C  27.86300 -9.78300 48.38200
N  25.08000 -6.66000 45.13900
C  26.04300 -5.67600 44.83900
C  25.50800 -4.63200 43.82100
C  24.12000 -5.18700 43.44300
C  23.96100 -6.39700 44.42300
C  23.01500 -4.10500 43.58900
C  26.51800 -4.54600 42.61000
C  26.77300 -3.17100 42.01500
H  27.11200 -3.15000 40.53900
N  23.21100 -8.97200 46.04900
C  22.37900 -8.32300 45.16400
C  21.08300 -9.01100 45.04500
C  21.26100 -10.17000 45.83000
C  22.62300 -10.10700 46.37600
C  19.84900 -8.47900 44.23800
C  20.26200 -11.28300 45.89100
O  19.24200 -11.25500 45.20100
C  20.39400 -12.45700 46.84300
N  25.58200 -10.26500 47.39900
C  24.57700 -11.19800 47.61300
C  25.10000 -12.42200 48.40900
C  26.51900 -11.92000 48.89100
C  26.69300 -10.55800 48.21600
C  24.06600 -12.93100 49.54600
C  27.66600 -12.98300 48.82500
C  28.59600 -12.97500 50.05700
N  27.10700 -7.92500 46.91800
C  28.08300 -8.56700 47.64800
C  29.32100 -7.78100 47.60600
C  28.95400 -6.59800 46.93700
C  27.67600 -6.85300 46.37600
C  30.48200 -8.05600 48.44200
C  29.37600 -5.24300 46.52100
O  30.44900 -4.67600 46.69800
C  28.31200 -4.67700 45.55500
C  27.70700 -3.48000 46.09400
O  27.47500 -3.42200 47.28300
O  27.49600 -2.53200 45.15200
C  27.01800 -1.23900 45.62100
H  21.97600 -6.82400 43.75400
H  22.73900 -12.03400 47.41200
H  28.74700 -10.24900 48.82200
H  25.38500 -3.72600 44.41400
H  24.20700 -5.60900 42.44200
H  23.43600 -3.17100 43.21800
H  22.80000 -4.10200 44.65700
H  22.07600 -4.20100 43.04300
H  26.27200 -5.10500 41.70700
H  27.40200 -4.99900 43.05600
H  27.66500 -2.78200 42.50600
H  25.88500 -2.58200 42.24500
H  19.89700 -7.39200 44.16600
H  18.98700 -8.78000 44.83300
H  19.87100 -8.91600 43.24000
H  20.80400 -12.04000 47.76300
H  21.09700 -13.19000 46.45000
H  19.46100 -12.98800 47.03200
H  25.35100 -13.23800 47.73200
H  26.41700 -11.63300 49.93800
H  23.19600 -12.28100 49.64300
H  24.62600 -13.11700 50.46200
H  23.71400 -13.87700 49.13400
H  28.29300 -12.83800 47.94500
H  27.19500 -13.96600 48.81300
H  28.50900 -13.99500 50.43100
H  28.14900 -12.34100 50.82200
H  29.65000 -12.76500 49.87200
H  30.78800 -9.09500 48.32400
H  30.11200 -7.90400 49.45600
H  31.20700 -7.35100 48.03600
H  28.74500 -4.53100 44.56600
H  27.71100 -0.58800 45.08900
H  27.06200 -1.04900 46.69300
H  25.98300 -0.96100 45.42200
Mg 6.95500 57.12700 42.11300
C  6.12000 53.65300 42.30600
C  10.09500 56.11400 41.12700
C  7.60400 60.24900 41.64900
C  3.65400 57.77400 43.30300
N  7.99900 55.09400 41.72000
C  7.38700 53.85900 41.78600
C  8.42800 52.77000 41.41200
C  9.69500 53.47600 41.56900
C  9.30700 54.96700 41.49800
C  10.38500 53.23000 43.00300
C  8.40400 52.18500 39.97300
C  8.14900 53.15700 38.81800
H  7.07000 52.88000 37.67200
N  8.63500 58.10200 41.38600
C  9.83000 57.48000 40.97100
C  10.68100 58.50400 40.45100
C  10.03000 59.76600 40.57000
C  8.69600 59.41900 41.22800
C  12.02900 58.24300 39.77800
C  10.45600 61.11400 40.14200
O  11.60800 61.36700 39.81100
C  9.57300 62.26700 40.21900
N  5.75700 58.77200 42.29300
C  6.33100 59.96900 42.17700
C  5.43400 61.08100 42.68800
C  4.18900 60.29300 43.32600
C  4.57500 58.79300 43.01900
C  6.04800 62.01300 43.83900
C  2.81900 60.57400 42.59100
C  1.70200 60.77100 43.66200
N  5.18100 56.04000 42.57300
C  3.95200 56.38900 43.06800
C  3.12800 55.24800 43.50900
C  3.92400 54.12400 43.14000
C  5.14100 54.62200 42.64300
C  1.84800 55.25200 44.21100
C  3.87200 52.78800 43.07400
O  3.00300 51.97900 43.32300
C  5.35000 52.31800 42.46800
C  5.05700 51.64400 41.15600
O  5.24000 52.14400 40.08500
O  4.73900 50.34200 41.33300
C  4.88700 49.40100 40.19600
H  11.07600 55.77000 40.79300
H  7.70200 61.33600 41.62500
H  2.75000 58.00000 43.87100
H  8.29400 51.95100 42.11800
H  10.45600 53.35900 40.79800
H  11.35400 52.73700 42.93400
H  9.76200 52.61700 43.65500
H  10.47400 54.20800 43.47800
H  7.69100 51.36100 39.93600
H  9.37400 51.78800 39.67500
H  9.07700 53.29800 38.26300
H  7.85700 54.10900 39.26000
H  12.17800 58.70100 38.80000
H  12.15500 57.17100 39.62100
H  12.80500 58.44300 40.51700
H  9.34400 62.64600 41.21500
H  8.62000 62.04900 39.73600
H  10.06100 63.07600 39.67500
H  5.16300 61.58200 41.75800
H  4.18800 60.31900 44.41600
H  5.56500 61.96500 44.81500
H  5.91900 63.02200 43.44800
H  7.10900 61.77300 43.90500
H  2.53800 59.88500 41.79500
H  2.86700 61.50000 42.01800
H  1.97200 60.54300 44.69300
H  0.88900 60.10800 43.36700
H  1.41000 61.82100 43.63700
H  1.58400 56.21300 44.65100
H  1.68600 54.45700 44.93800
H  1.08000 55.08900 43.45400
H  5.82600 51.69700 43.22700
H  4.14700 49.59600 39.42000
H  4.73200 48.35800 40.47200
H  5.89800 49.51100 39.80300

