158

Mg 17.11800 -1.52100 27.75000
C  16.21200 0.90900 30.15400
C  18.73200 -3.21000 30.27100
C  18.71800 -3.38200 25.39000
C  15.91000 0.56800 25.33000
N  17.38000 -1.11900 29.96400
C  16.75600 -0.20200 30.71600
C  17.09700 -0.40100 32.18700
C  18.25700 -1.43300 32.10500
C  18.11700 -2.00300 30.68000
C  19.68100 -0.91800 32.50200
C  15.85200 -0.90300 33.00900
C  15.86100 -0.63100 34.53200
H  17.03700 0.23800 35.11200
N  18.35800 -3.13100 27.81600
C  18.86700 -3.72100 28.94300
C  19.61400 -4.90700 28.57600
C  19.80000 -4.88400 27.21600
C  18.91200 -3.84000 26.71400
C  20.17700 -5.89600 29.58000
C  20.63200 -5.77500 26.34700
O  20.67100 -5.75700 25.12900
C  21.40400 -6.94200 26.97300
N  17.40800 -1.29500 25.68400
C  18.00500 -2.29500 24.87700
C  17.85600 -1.97100 23.38400
C  16.95500 -0.66300 23.32600
C  16.74200 -0.44300 24.83500
C  19.23800 -1.74200 22.74000
C  15.55700 -0.78500 22.60100
C  15.42100 0.29400 21.56600
N  16.17000 0.35600 27.68000
C  15.53200 0.96200 26.65400
C  14.76100 2.09400 27.02100
C  15.14500 2.16600 28.40800
C  15.96500 1.08500 28.75300
C  13.94500 3.01200 26.16000
C  14.90500 2.92000 29.63200
O  14.24000 3.96100 29.80700
C  15.56500 2.09700 30.81500
C  16.52300 2.91900 31.65700
O  17.59100 3.31600 31.23200
O  15.98500 3.24400 32.90800
C  16.62700 4.32600 33.69900
H  19.26200 -3.69200 31.09500
H  19.05600 -3.94000 24.51400
H  15.42200 1.18200 24.57100
H  17.54700 0.50100 32.60100
H  17.93100 -2.20700 32.80000
H  20.06600 -1.35800 33.42200
H  19.69100 0.16200 32.64700
H  20.36000 -1.20000 31.69600
H  15.66100 -1.94900 32.76900
H  15.01100 -0.33900 32.60500
H  15.98600 -1.59700 35.02000
H  14.93400 -0.15600 34.85600
H  19.89000 -5.60900 30.59200
H  21.25300 -6.00800 29.45300
H  19.67100 -6.85300 29.45300
H  22.12300 -6.49600 27.66000
H  22.15700 -7.38900 26.32400
H  20.77900 -7.69100 27.46200
H  17.47200 -2.87300 22.90800
H  17.68400 0.08400 23.01100
H  19.68300 -0.76100 22.90600
H  19.05800 -1.87100 21.67200
H  20.00100 -2.48200 22.98400
H  14.69700 -0.70300 23.26600
H  15.42600 -1.78900 22.19500
H  14.63900 0.99600 21.85400
H  15.16500 -0.25400 20.65900
H  16.25500 0.93400 21.27600
H  12.90200 2.69700 26.13400
H  14.24100 2.93400 25.11400
H  14.12900 4.06000 26.39800
H  14.74600 1.75200 31.44700
H  17.64900 3.99900 33.89100
H  16.34200 4.40100 34.74900
H  16.61700 5.31300 33.23600
Mg 40.18300 9.11600 29.15800
C  42.06000 10.49600 31.84600
C  38.32800 7.35400 31.48100
C  38.55000 7.73800 26.64600
C  42.83300 9.82900 27.02500
N  40.10500 9.09500 31.40600
C  40.90200 9.82200 32.31000
C  40.47200 9.59500 33.78300
C  39.34700 8.46100 33.63500
C  39.29900 8.22500 32.07300
C  39.38800 7.19200 34.45200
C  40.14200 10.99100 34.35500
C  39.13300 11.00100 35.53800
H  39.40200 11.89200 36.79000
N  38.55300 7.82600 29.04000
C  37.94100 7.22600 30.09700
C  36.71400 6.46300 29.56600
C  36.69400 6.75300 28.22500
C  37.95900 7.47100 27.88500
C  35.78900 5.63200 30.39900
C  35.64400 6.29000 27.15900
O  35.74000 6.60000 25.97500
C  34.47000 5.53100 27.54100
N  40.53800 8.96900 27.15600
C  39.72700 8.31200 26.27300
C  40.19700 8.42100 24.83200
C  41.67600 8.86400 24.99200
C  41.71100 9.20500 26.46800
C  40.02500 7.08200 24.06900
C  42.26500 9.98800 23.98600
C  41.71800 11.38200 24.24100
N  42.02500 10.09100 29.33500
C  42.99700 10.25000 28.36000
C  44.09000 10.89600 28.98100
C  43.75300 11.07600 30.29600
C  42.52000 10.49600 30.51000
C  45.42600 11.27000 28.41900
C  44.30300 11.52400 31.51600
O  45.31700 12.21400 31.75800
C  43.19000 11.20600 32.58300
C  43.68600 10.39200 33.67400
O  43.84100 9.20100 33.62400
O  43.97500 11.08900 34.80600
C  44.39400 10.40700 36.02600
H  37.67400 6.84800 32.19400
H  37.91600 7.36300 25.83900
H  43.65100 10.08100 26.34800
H  41.31100 9.22200 34.36900
H  38.33100 8.82900 33.77900
H  38.40400 7.05600 34.90100
H  40.16200 7.25700 35.21700
H  39.60400 6.36400 33.77800
H  39.71400 11.62600 33.57900
H  41.11100 11.43500 34.58500
H  38.88600 10.01200 35.92500
H  38.23800 11.42200 35.08000
H  36.16400 5.51600 31.41600
H  35.67100 4.67000 29.89900
H  34.81400 6.11900 30.43800
H  33.93900 5.23700 26.63500
H  33.93500 6.01100 28.36000
H  34.83700 4.58200 27.93200
H  39.69000 9.29100 24.41400
H  42.32700 7.99000 24.96100
H  40.94400 6.82200 23.54300
H  39.25800 7.12400 23.29500
H  39.79500 6.26400 24.75100
H  42.02200 9.80200 22.94000
H  43.35000 9.91900 24.06300
H  40.89800 11.40200 24.95900
H  41.40100 11.80000 23.28500
H  42.60000 11.97400 24.48600
H  45.38300 10.99100 27.36600
H  46.19900 10.75100 28.98500
H  45.45100 12.35300 28.53600
H  42.86000 12.14900 33.01900
H  43.69700 10.75100 36.79000
H  45.41300 10.72900 36.24200
H  44.33200 9.32800 36.17200

