158

Mg 1.19800 -1.73500 43.67900
C  4.35400 -0.09900 43.12800
C  -0.31100 0.95400 42.27800
C  -1.65200 -3.42100 43.65600
C  3.04500 -4.54100 44.83000
N  1.99800 0.16100 42.83800
C  3.29800 0.59400 42.64000
C  3.33700 1.95000 41.93300
C  1.80400 2.37400 41.99000
C  1.09900 1.10200 42.46200
C  1.45400 3.61100 42.91800
C  3.82800 1.77100 40.46000
C  5.15500 2.62900 40.08300
H  6.15200 1.93200 39.03600
N  -0.81100 -1.30700 42.99600
C  -1.21400 -0.10300 42.44500
C  -2.60900 -0.17500 42.16400
C  -3.05300 -1.48300 42.50500
C  -1.83700 -2.16200 43.12500
C  -3.40000 1.00400 41.60200
C  -4.44900 -2.05400 42.18000
O  -5.28700 -1.24400 41.76900
C  -4.64800 -3.58900 42.35300
N  0.80100 -3.83500 43.97600
C  -0.52500 -4.21000 44.03400
C  -0.57300 -5.71800 44.61900
C  0.96200 -6.06300 44.81400
C  1.66700 -4.72100 44.51800
C  -1.28900 -5.74100 46.02200
C  1.54900 -7.15000 43.92000
C  1.91500 -8.51900 44.62400
N  3.27000 -2.27100 44.04500
C  3.85700 -3.43000 44.51700
C  5.23200 -3.24600 44.60600
C  5.54000 -1.91900 44.12600
C  4.28100 -1.37600 43.79700
C  6.22400 -4.30100 45.16000
C  6.57300 -0.90200 43.82500
O  7.77000 -1.00900 43.99200
C  5.85800 0.35200 43.12100
C  6.01700 1.54200 44.00600
O  5.20000 1.94000 44.85100
O  7.16200 2.19000 43.65300
C  7.51500 3.49400 44.33200
H  -0.69800 1.94700 42.04200
H  -2.64100 -3.81700 43.89600
H  3.50500 -5.44500 45.23600
H  4.04400 2.54500 42.51100
H  1.44900 2.77600 41.04100
H  2.39500 3.87200 43.40100
H  0.70000 3.21900 43.60100
H  1.03700 4.48000 42.40900
H  3.17000 2.15300 39.67900
H  4.06300 0.72400 40.26900
H  5.71400 2.97700 40.95200
H  4.75100 3.50600 39.57800
H  -3.54300 0.93000 40.52400
H  -2.84000 1.93100 41.73400
H  -4.38700 1.19900 42.02000
H  -3.76800 -3.96100 41.82900
H  -5.59600 -3.83100 41.87200
H  -4.69100 -3.92300 43.39000
H  -1.06800 -6.45500 43.98700
H  1.12900 -6.29300 45.86700
H  -0.65000 -6.14100 46.81000
H  -2.24100 -6.27100 45.98600
H  -1.49900 -4.69200 46.22900
H  2.42900 -6.81900 43.36800
H  0.83500 -7.42600 43.14300
H  1.42800 -9.33200 44.08500
H  1.56100 -8.46100 45.65300
H  2.99400 -8.56000 44.47800
H  7.12100 -4.42100 44.55300
H  5.80800 -5.30100 45.28400
H  6.52300 -3.96200 46.15200
H  6.20800 0.43100 42.09100
H  6.57300 3.99600 44.55400
H  7.95200 4.21100 43.63700
H  8.12000 3.35400 45.22800
Mg 49.42900 45.12300 42.13700
C  45.93900 44.84600 41.81500
C  49.73300 41.81700 41.79800
C  52.72400 45.56700 41.92500
C  48.96900 48.63100 41.78400
N  48.01900 43.56000 41.75900
C  46.63900 43.59500 41.75400
C  45.97200 42.26500 41.75500
C  47.16200 41.28800 41.96800
C  48.43600 42.26000 41.82300
C  47.20400 40.58100 43.39800
C  45.19000 42.07000 40.41700
C  45.67700 42.76000 39.13700
H  45.11100 42.23200 37.76300
N  51.07900 43.86000 41.98600
C  50.96100 42.52100 41.73200
C  52.24400 41.94000 41.55400
C  53.17200 42.99900 41.81300
C  52.39200 44.25200 41.92000
C  52.44200 40.55200 41.31200
C  54.67300 42.83800 41.96900
O  55.17600 41.76900 41.72800
C  55.62200 43.90800 42.36600
N  50.69600 46.83600 41.86000
C  51.99000 46.80300 41.94200
C  52.62500 48.16200 42.11500
C  51.46700 49.11200 42.10500
C  50.31200 48.16900 41.90800
C  53.49900 48.41200 43.38700
C  51.53200 50.30900 41.10100
C  51.01500 50.05600 39.65000
N  47.81600 46.53400 41.85400
C  47.79600 47.87700 41.79100
C  46.37700 48.35200 41.81400
C  45.64400 47.15800 41.80300
C  46.50100 46.11200 41.83900
C  45.86500 49.85000 41.72200
C  44.25300 46.66300 41.80800
O  43.17800 47.25300 41.71200
C  44.40600 45.13700 41.80900
C  43.65100 44.54100 43.03200
O  43.08500 43.43100 43.05500
O  43.85500 45.38200 44.16200
C  43.56600 44.66400 45.43600
H  49.80000 40.73000 41.87300
H  53.79400 45.74600 41.80000
H  48.70700 49.68900 41.85400
H  45.32100 42.24700 42.63000
H  47.18400 40.50800 41.20700
H  46.30100 40.76200 43.98100
H  48.13500 40.78900 43.92500
H  47.30600 39.51000 43.22000
H  44.13700 42.34800 40.47000
H  45.01000 40.99700 40.35600
H  46.76100 42.66400 39.08900
H  45.53200 43.83600 39.24000
H  52.25000 40.10800 42.28900
H  53.45700 40.21300 41.10400
H  51.84200 40.06000 40.54600
H  55.28700 44.34500 43.30700
H  55.53200 44.53900 41.48200
H  56.59700 43.42200 42.37300
H  53.15400 48.41400 41.19600
H  51.29500 49.48100 43.11600
H  52.82100 48.44200 44.23900
H  54.17100 49.26800 43.31100
H  54.15600 47.58100 43.64300
H  52.57800 50.60900 41.04900
H  51.03700 51.15700 41.57400
H  50.15800 50.70600 39.47800
H  50.72000 49.04200 39.37800
H  51.78800 50.36100 38.94600
H  46.16600 50.31000 42.66300
H  44.78000 49.76100 41.78100
H  46.13200 50.31100 40.77100
H  43.85200 44.58700 41.04900
H  44.06900 43.69700 45.42400
H  42.49400 44.62400 45.62800
H  43.98300 45.12800 46.33100

