158

Mg 50.11800 46.11100 42.85700
C  46.96300 46.53100 41.18300
C  50.42500 43.09500 41.25900
C  53.27300 46.09600 43.88800
C  49.71300 49.39200 43.88200
N  48.91100 45.05900 41.18500
C  47.63000 45.38100 40.83100
C  47.16300 44.26600 39.83600
C  48.13700 43.04900 40.06900
C  49.22000 43.76800 40.98000
C  47.52200 41.82200 40.92800
C  47.11000 44.78300 38.40600
C  46.04000 44.03500 37.60100
H  45.72600 44.41600 36.12600
N  51.64600 44.69300 42.64600
C  51.56700 43.48900 41.96200
C  52.86300 42.84600 42.09300
C  53.60400 43.64000 43.05300
C  52.88200 44.88100 43.26800
C  53.18200 41.45800 41.48600
C  54.93800 43.40400 43.67700
O  55.48000 42.40900 43.27600
C  55.60300 44.22600 44.76500
N  51.41100 47.52100 43.77100
C  52.69300 47.34600 44.05600
C  53.31700 48.58300 44.72800
C  52.19100 49.68700 44.59400
C  50.99000 48.78300 44.07700
C  53.80700 48.37200 46.18900
C  52.62900 50.88600 43.65500
C  53.17900 52.11500 44.42600
N  48.67600 47.63400 42.73500
C  48.63900 48.86300 43.26400
C  47.35400 49.51500 43.01000
C  46.69800 48.67000 42.15600
C  47.50600 47.50500 42.06400
C  47.05300 50.93700 43.41700
C  45.51200 48.56700 41.35500
O  44.55000 49.29300 41.18200
C  45.60800 47.09800 40.66600
C  44.41700 46.25700 41.08400
O  44.31200 45.63500 42.10600
O  43.49400 46.26400 40.05900
C  42.22200 45.68000 40.32400
H  50.42600 42.08600 40.84200
H  54.25600 46.05700 44.36400
H  49.50800 50.39600 44.26100
H  46.18100 43.92300 40.16400
H  48.46100 42.59400 39.13300
H  46.54100 42.21000 41.20300
H  48.03600 41.77000 41.88800
H  47.54800 40.91000 40.33200
H  48.01800 44.58400 37.83800
H  47.00200 45.84700 38.19700
H  45.08100 44.13300 38.11100
H  46.29100 42.97500 37.55600
H  53.47800 40.74300 42.25400
H  54.10800 41.51900 40.91600
H  52.42000 41.00100 40.85300
H  56.16800 45.13700 44.56700
H  56.34500 43.58400 45.24100
H  54.90500 44.47500 45.56300
H  54.23500 48.81000 44.18600
H  51.99300 50.01500 45.61400
H  53.73800 49.38000 46.59800
H  54.81700 47.96900 46.11000
H  53.14000 47.67500 46.69500
H  51.82000 51.25900 43.02700
H  53.38000 50.64400 42.90400
H  54.11100 52.49500 44.00700
H  53.29400 51.80600 45.46500
H  52.44100 52.91100 44.32600
H  47.89100 51.60100 43.62900
H  46.54100 51.03100 44.37400
H  46.56000 51.47900 42.61000
H  45.60200 47.14500 39.57700
H  42.31600 44.60100 40.19900
H  41.50900 46.07700 39.60200
H  41.87500 46.10400 41.26600
Mg 1.07700 42.02300 24.99000
C  2.13500 42.13000 28.42400
C  -2.01800 41.12400 26.24700
C  0.08900 41.57700 21.87100
C  4.39700 42.74600 24.02000
N  0.23100 41.53000 27.11400
C  0.80400 41.84600 28.29100
C  -0.17700 41.66500 29.44700
C  -1.55500 41.27600 28.76800
C  -1.13700 41.32300 27.29200
C  -1.89400 39.82700 29.10100
C  -0.24300 42.98300 30.31800
C  -0.31500 42.88100 31.85600
H  -0.47600 41.47100 32.45900
N  -0.80700 41.49700 24.16700
C  -1.88100 41.07300 24.85600
C  -2.95200 40.85000 23.85100
C  -2.41600 40.96400 22.55400
C  -0.99600 41.35700 22.79300
C  -4.36100 40.44600 24.17700
C  -2.98500 40.74800 21.16900
O  -2.33600 41.04200 20.18000
C  -4.38000 40.23600 20.97300
N  2.05000 42.31400 23.26500
C  1.36000 42.05300 22.10300
C  2.28000 42.15800 20.79500
C  3.64700 42.60700 21.51400
C  3.35700 42.53300 23.02500
C  2.26100 40.87400 19.91300
C  4.10700 44.09000 21.11300
C  2.95900 45.12700 21.09800
N  2.92600 42.39400 25.95300
C  4.14200 42.73300 25.45000
C  5.12800 42.74500 26.54100
C  4.28600 42.64900 27.70600
C  3.04500 42.32700 27.30400
C  6.56300 43.04900 26.43100
C  4.30600 42.69100 29.21300
O  5.16200 42.97500 30.07400
C  2.98100 42.36600 29.71500
C  3.34000 41.08200 30.47900
O  3.76300 40.08200 29.95200
O  3.01000 41.20200 31.75500
C  3.41600 40.29700 32.80300
H  -3.04600 41.01900 26.60100
H  -0.16200 41.51300 20.81000
H  5.39200 43.09600 23.73900
H  0.18300 40.90200 30.13600
H  -2.36300 41.98400 28.95500
H  -1.47300 39.48200 30.04600
H  -1.53400 39.22700 28.26600
H  -2.98100 39.87500 29.16800
H  -1.10200 43.53500 29.93400
H  0.68100 43.54700 30.19100
H  -1.16100 43.44800 32.24500
H  0.52100 43.35300 32.37300
H  -5.03000 41.02800 23.54400
H  -4.62100 40.66100 25.21300
H  -4.53500 39.37500 24.06700
H  -4.44100 39.28600 21.50400
H  -4.46900 40.12500 19.89300
H  -5.12000 40.95700 21.32100
H  1.78000 42.98500 20.28900
H  4.38100 41.86400 21.20300
H  1.53300 40.15000 20.27700
H  3.23800 40.38900 19.90100
H  2.12100 41.15200 18.86800
H  4.35600 43.91300 20.06600
H  4.91800 44.44800 21.74700
H  2.07100 44.97100 21.71100
H  2.63000 45.25300 20.06600
H  3.35200 46.09200 21.41700
H  6.62500 43.88700 25.73700
H  7.06100 42.18500 25.99100
H  7.08000 43.27800 27.36300
H  2.63100 43.04000 30.49700
H  4.40000 40.57500 33.18100
H  3.37500 39.21700 32.66400
H  2.75400 40.46500 33.65300

