158

Mg 24.09200 -5.38100 46.40500
C  26.00100 -2.88200 44.64600
C  21.43200 -4.30100 44.61400
C  22.62500 -8.30000 47.18300
C  27.14100 -6.74000 47.42400
N  23.82500 -3.85500 44.68400
C  24.67800 -2.85500 44.31400
C  23.98700 -1.87500 43.36500
C  22.46200 -2.09100 43.76900
C  22.55900 -3.54000 44.34100
C  21.91900 -1.07700 44.76300
C  24.28700 -2.24100 41.84400
C  24.93100 -1.17500 40.96900
H  24.54300 -1.35900 39.44800
N  22.31700 -6.17200 46.11100
C  21.36100 -5.51600 45.38600
C  20.18200 -6.27500 45.54400
C  20.40500 -7.40600 46.33200
C  21.81200 -7.40500 46.57800
C  18.87100 -5.77900 44.83000
C  19.35900 -8.48500 46.77600
O  18.19700 -8.38900 46.38500
C  19.67200 -9.65400 47.62800
N  24.79600 -7.18500 47.33800
C  23.95100 -8.22100 47.56700
C  24.68900 -9.40100 48.28400
C  26.16200 -9.00100 48.25200
C  26.04100 -7.53800 47.62700
C  24.29600 -9.74700 49.73600
C  27.14800 -9.95200 47.55100
C  27.34900 -9.75100 46.00200
N  26.16300 -4.83500 46.22800
C  27.24700 -5.47000 46.81900
C  28.41800 -4.72300 46.54100
C  28.01400 -3.65400 45.62000
C  26.64800 -3.79700 45.50400
C  29.89400 -4.94200 47.02700
C  28.47800 -2.56300 44.75300
O  29.58500 -2.19700 44.44300
C  27.19300 -2.08500 44.10000
C  27.13900 -0.70900 44.46900
O  26.75000 -0.18700 45.50600
O  27.57500 0.04300 43.38400
C  27.85900 1.47000 43.80100
H  20.49000 -3.97700 44.16600
H  22.23800 -9.30200 47.37700
H  28.10800 -7.16100 47.70800
H  24.33200 -0.85700 43.54400
H  21.82500 -2.03900 42.88600
H  20.94600 -0.70900 44.43600
H  22.60100 -0.22900 44.82000
H  21.73000 -1.52200 45.74000
H  23.35500 -2.56500 41.38200
H  25.00500 -3.06000 41.79800
H  26.01600 -1.20400 41.06700
H  24.58100 -0.20400 41.31800
H  18.75500 -4.71500 45.03500
H  17.96700 -6.26100 45.20100
H  19.06400 -5.84400 43.75900
H  18.87200 -10.36300 47.84200
H  20.14500 -9.25300 48.52400
H  20.37700 -10.19600 46.99700
H  24.58900 -10.31900 47.70600
H  26.65800 -8.78000 49.19700
H  23.81500 -10.72500 49.71900
H  23.59400 -8.98700 50.08000
H  25.13200 -9.62100 50.42300
H  26.76100 -10.95800 47.71500
H  28.11600 -9.86300 48.04200
H  27.02200 -10.71100 45.60200
H  28.39500 -9.55500 45.76900
H  26.63900 -9.03400 45.58900
H  30.15400 -3.94500 47.38100
H  30.51700 -5.21500 46.17500
H  29.92100 -5.66200 47.84400
H  27.26700 -2.27500 43.03000
H  26.89900 1.97100 43.92200
H  28.30600 2.07200 43.00900
H  28.51000 1.51500 44.67300
Mg 0.27000 42.23300 25.12300
C  2.00700 42.47300 28.16100
C  -2.55200 41.30700 27.07700
C  -1.50200 41.87300 22.42800
C  3.19100 42.67600 23.43500
N  -0.17600 41.83100 27.34100
C  0.64200 42.21200 28.38200
C  -0.08900 42.11800 29.72700
C  -1.42600 41.51600 29.33300
C  -1.41000 41.58200 27.81200
C  -1.72900 40.05100 29.92300
C  -0.14700 43.60300 30.40100
C  0.42600 43.68500 31.85800
H  -0.68100 44.04500 32.87800
N  -1.76500 41.65000 24.72500
C  -2.69800 41.22000 25.68600
C  -3.91100 40.96100 24.98300
C  -3.65000 41.12400 23.62500
C  -2.27600 41.58200 23.53800
C  -5.13800 40.49200 25.62900
C  -4.50400 40.88400 22.41300
O  -4.16500 40.94500 21.24100
C  -5.99100 40.56200 22.66000
N  0.90700 41.94800 23.16700
C  -0.09700 41.93900 22.23200
C  0.54100 42.11300 20.77200
C  2.04000 42.40300 21.07600
C  2.06400 42.44000 22.65000
C  0.15300 40.93500 19.73300
C  2.57200 43.56700 20.24600
C  2.32800 44.99400 20.74800
N  2.25800 42.42200 25.66200
C  3.33200 42.68100 24.81800
C  4.51100 42.84500 25.69700
C  4.03500 42.70900 27.00600
C  2.61900 42.48200 26.93000
C  5.87600 43.23800 25.24800
C  4.46900 42.75500 28.37000
O  5.59100 42.79500 28.80400
C  3.10800 42.60100 29.19400
C  3.28000 41.49900 30.18700
O  3.18600 40.25800 30.08000
O  3.52300 42.08700 31.39500
C  3.51700 41.21100 32.59000
H  -3.50100 41.10300 27.57600
H  -2.01100 41.91300 21.46300
H  4.17700 42.82600 22.99000
H  0.37700 41.40700 30.40900
H  -2.28600 42.12200 29.61900
H  -0.90000 39.75300 30.56500
H  -1.76800 39.24400 29.19000
H  -2.65200 39.94400 30.49300
H  -1.18400 43.92600 30.49600
H  0.45900 44.34000 29.87500
H  1.24400 44.39100 32.00100
H  0.84000 42.70900 32.11200
H  -5.53800 39.60400 25.13900
H  -5.75300 41.39200 25.63400
H  -4.97200 40.20500 26.66800
H  -6.21000 39.61700 23.15600
H  -6.54400 40.52500 21.72100
H  -6.42500 41.27000 23.36500
H  0.17500 43.03400 20.31900
H  2.67500 41.53700 20.89000
H  -0.79100 40.58800 20.15300
H  0.86600 40.11000 19.71400
H  0.08900 41.33500 18.72100
H  2.17800 43.49200 19.23200
H  3.63900 43.35200 20.20500
H  1.53500 45.07200 21.49100
H  2.12700 45.60600 19.86800
H  3.17000 45.33900 21.34900
H  5.67900 44.16000 24.70100
H  6.25900 42.48200 24.56300
H  6.64500 43.38900 26.00500
H  2.98900 43.56200 29.69600
H  4.54500 40.87200 32.71800
H  2.80200 40.39100 32.51600
H  3.18400 41.76200 33.47000

