158

Mg 47.91000 15.99600 28.59600
C  45.51100 15.95900 31.11400
C  49.78400 17.83900 30.74300
C  49.82300 16.62300 26.05900
C  45.23600 14.96500 26.43200
N  47.75800 16.74600 30.73600
C  46.63500 16.62600 31.51200
C  46.90400 17.03600 32.97000
C  48.26100 17.80900 32.82900
C  48.65100 17.44400 31.37000
C  48.29400 19.40000 33.01900
C  46.98500 15.90900 34.05300
C  46.14700 16.12700 35.30700
H  46.11900 17.43300 36.17000
N  49.66500 16.81900 28.54200
C  50.21600 17.56500 29.49300
C  51.47700 18.05500 28.94600
C  51.60100 17.66300 27.57600
C  50.30600 16.99500 27.32200
C  52.45900 18.93300 29.82500
C  52.63200 18.04600 26.60600
O  52.60000 17.87400 25.41200
C  53.87800 18.81200 27.04800
N  47.60000 15.85700 26.49900
C  48.62100 16.06600 25.64600
C  48.12500 15.88500 24.14500
C  46.63300 15.36100 24.29800
C  46.51200 15.28700 25.78000
C  48.19000 17.18100 23.23200
C  46.43700 14.00100 23.59200
C  45.39400 13.82200 22.46200
N  45.85600 15.41500 28.70300
C  44.92600 14.98700 27.79300
C  43.62600 14.62100 28.37500
C  43.81800 14.97900 29.73100
C  45.15800 15.42200 29.84700
C  42.49300 13.94900 27.72300
C  43.11600 15.13500 30.99000
O  41.96700 15.04500 31.25500
C  44.18800 15.65900 31.96200
C  43.72900 16.93900 32.49100
O  43.72300 18.01100 31.92700
O  43.09400 16.77400 33.65500
C  42.60000 17.92200 34.43500
H  50.25200 18.47200 31.50000
H  50.48500 16.92500 25.24500
H  44.49400 14.63600 25.70100
H  46.14100 17.73900 33.30500
H  49.05500 17.42300 33.46800
H  48.19000 19.88900 32.05000
H  49.23000 19.72800 33.47000
H  47.49800 19.65000 33.72100
H  47.99900 15.72200 34.40500
H  46.50700 15.05300 33.57500
H  46.46500 15.38200 36.03700
H  45.07600 15.98300 35.16000
H  52.72000 19.84600 29.28900
H  53.44600 18.47400 29.89100
H  52.11300 19.26500 30.80400
H  54.28400 18.24600 27.88700
H  53.47200 19.78400 27.32800
H  54.56700 18.89200 26.20700
H  48.69500 15.12900 23.60500
H  45.90900 15.96200 23.74700
H  48.94700 16.96200 22.47900
H  48.60300 18.06500 23.71700
H  47.26300 17.49200 22.75100
H  46.27100 13.27800 24.39000
H  47.32300 13.56000 23.13400
H  46.00100 13.70500 21.56400
H  44.75500 14.70500 22.44600
H  44.83000 12.90500 22.63500
H  42.62000 12.89400 27.47900
H  42.29400 14.43300 26.76700
H  41.59900 14.24800 28.26900
H  44.40600 14.85000 32.65900
H  43.44000 18.46800 34.86300
H  41.96500 17.51700 35.22400
H  42.14700 18.67400 33.78800
Mg 16.80900 52.10900 26.95200
C  18.87600 50.68600 29.35300
C  14.58800 52.99600 29.34500
C  14.83000 53.16900 24.54200
C  18.98000 50.79200 24.53800
N  16.81300 51.87100 29.15400
C  17.76300 51.22700 29.95300
C  17.44600 51.48200 31.42700
C  15.90700 51.89500 31.30900
C  15.74400 52.37400 29.87700
C  14.96400 50.79400 31.71100
C  18.39500 52.55600 32.10800
C  18.95200 52.16800 33.48000
H  18.10200 51.40400 34.39000
N  15.04100 53.10600 26.98500
C  14.28300 53.37200 28.02900
C  13.11600 54.12300 27.59800
C  13.10600 54.10800 26.21800
C  14.35800 53.44300 25.83600
C  12.10100 54.78400 28.62800
C  12.12300 54.72400 25.16500
O  12.35600 54.76400 23.95500
C  10.96200 55.41000 25.75500
N  16.96400 52.01800 24.76700
C  16.00400 52.56000 24.01300
C  16.35000 52.46700 22.54200
C  17.73200 51.67000 22.55100
C  17.92200 51.42400 24.04200
C  15.21600 51.76000 21.71100
C  18.94900 52.49700 21.93000
C  19.64600 53.47300 22.85000
N  18.60000 50.94400 26.89400
C  19.37800 50.47400 25.81200
C  20.44400 49.68600 26.32300
C  20.30300 49.76900 27.72100
C  19.16000 50.52100 28.00500
C  21.55600 48.98400 25.60700
C  20.95400 49.36800 28.93200
O  22.00500 48.80400 29.12400
C  19.97800 49.86300 30.05200
C  19.32800 48.75900 30.72800
O  18.44500 48.01000 30.35700
O  19.95400 48.57600 31.98800
C  19.39500 47.48900 32.86600
H  13.92300 53.28500 30.16100
H  14.23700 53.49400 23.68400
H  19.52400 50.33300 23.71000
H  17.54100 50.48500 31.85800
H  15.76300 52.68500 32.04600
H  14.57600 50.32400 30.80700
H  14.07000 51.21300 32.17200
H  15.35800 50.16100 32.50600
H  17.83200 53.48900 32.10800
H  19.29900 52.81900 31.55800
H  19.31700 52.98500 34.10300
H  19.92500 51.70100 33.32700
H  12.42200 54.67200 29.66400
H  11.22800 54.13400 28.67300
H  11.85100 55.83700 28.49600
H  10.28200 55.71600 24.96000
H  11.31400 56.33000 26.22100
H  10.34100 54.77000 26.38200
H  16.67400 53.46900 22.26000
H  17.60700 50.86400 21.82700
H  14.32000 51.47000 22.26000
H  15.52800 50.92000 21.09000
H  14.86300 52.48100 20.97500
H  18.48100 53.03100 21.10200
H  19.85200 52.01200 21.55900
H  20.70800 53.24300 22.93000
H  19.22000 53.53500 23.85100
H  19.41000 54.44200 22.41000
H  21.84800 49.73300 24.87200
H  21.15800 48.18600 24.98000
H  22.32000 48.61500 26.29100
H  20.55000 50.38200 30.82100
H  18.42800 47.11800 32.52600
H  19.24700 47.76200 33.91100
H  19.98300 46.57100 32.89600

