158

Mg 0.13900 43.73100 25.51100
C  2.39300 43.79300 28.16900
C  -2.27300 42.75100 27.77500
C  -1.88200 42.99800 22.95900
C  2.85300 44.12700 23.32400
N  0.09300 43.29000 27.78700
C  1.13900 43.52500 28.62600
C  0.64600 43.57500 30.11300
C  -0.79800 42.97500 29.99200
C  -1.06200 43.03000 28.44800
C  -0.95500 41.60100 30.55400
C  0.74000 45.07900 30.58900
C  0.62000 45.18000 32.16600
H  0.47800 43.97500 33.14800
N  -1.85800 43.16200 25.42500
C  -2.64700 42.80500 26.44900
C  -4.04200 42.62500 25.99500
C  -3.92700 42.65500 24.62700
C  -2.48900 42.95800 24.24200
C  -5.25000 42.47200 26.86200
C  -5.06900 42.54000 23.56000
O  -4.84000 42.62400 22.31600
C  -6.54200 42.41600 23.94700
N  0.49000 43.40600 23.41500
C  -0.50500 43.17800 22.56600
C  -0.10600 43.34500 21.07600
C  1.38200 43.84600 21.21200
C  1.60800 43.87700 22.73000
C  -0.35800 41.98000 20.23900
C  1.68200 45.20100 20.38600
C  2.21800 45.05500 18.90300
N  2.21500 44.03400 25.64900
C  3.22700 44.18100 24.69900
C  4.56700 44.18700 25.34700
C  4.29300 44.10600 26.73800
C  2.84400 43.94000 26.83500
C  5.92400 44.29300 24.71000
C  4.88000 43.99400 28.05200
O  6.02300 43.77100 28.41600
C  3.65200 44.01600 29.03600
C  3.85400 42.85600 30.02000
O  3.77100 41.62600 29.77400
O  4.18200 43.41400 31.23600
C  4.42700 42.44600 32.30300
H  -3.01400 42.40700 28.50000
H  -2.54800 42.97700 22.09400
H  3.69300 44.15600 22.62700
H  1.27800 42.92900 30.72200
H  -1.47700 43.61200 30.55900
H  -1.33300 40.94900 29.76700
H  -1.60400 41.71400 31.42200
H  -0.01100 41.18300 30.90500
H  -0.13500 45.56900 30.16000
H  1.65700 45.57300 30.27000
H  -0.14200 45.95900 32.17200
H  1.53200 45.51100 32.66400
H  -5.85500 41.68700 26.41000
H  -5.89500 43.34900 26.81400
H  -5.06700 42.20100 27.90200
H  -6.86000 43.27100 24.54400
H  -6.46600 41.45700 24.45900
H  -7.02600 42.29100 22.97900
H  -0.64800 44.18300 20.63600
H  1.97200 43.06200 20.73600
H  -1.09200 42.14700 19.45000
H  -0.85700 41.23600 20.85900
H  0.62100 41.57400 19.98400
H  2.28900 45.92600 20.92800
H  0.68500 45.63800 20.33200
H  1.28800 45.23200 18.36300
H  2.55900 44.04400 18.68100
H  3.05600 45.70600 18.65300
H  6.59300 44.76900 25.42600
H  5.89400 44.89400 23.80100
H  6.26700 43.29000 24.45700
H  3.79700 44.98100 29.52200
H  5.43100 42.02500 32.24400
H  3.67900 41.66800 32.15400
H  4.28000 42.93100 33.26900
Mg -10.22100 17.39400 40.73300
C  -6.78400 17.19000 40.90900
C  -9.84800 20.76800 40.16100
C  -13.56500 17.52600 40.09100
C  -10.28600 13.98600 40.55200
N  -8.52400 18.78900 40.45800
C  -7.26700 18.47600 40.68600
C  -6.29800 19.68800 40.46500
C  -7.31200 20.90400 40.72100
C  -8.66000 20.11900 40.49800
C  -7.27700 21.44800 42.11800
C  -5.59900 19.72200 39.06100
C  -4.09400 19.46200 39.03400
H  -3.50900 18.65000 37.92700
N  -11.52100 18.91400 40.18900
C  -11.16600 20.27000 39.96400
C  -12.30500 21.01700 39.59400
C  -13.45300 20.14800 39.74000
C  -12.86900 18.78300 39.95400
C  -12.19800 22.49400 39.13800
C  -14.91300 20.56800 39.66300
O  -15.19900 21.73300 39.50200
C  -15.99200 19.61400 39.60600
N  -11.72800 15.93000 40.47600
C  -13.01500 16.23200 40.36700
C  -13.80900 14.92800 40.22700
C  -12.77700 13.80300 40.17500
C  -11.51900 14.65100 40.39300
C  -14.94500 14.73900 41.26700
C  -12.81500 13.08100 38.86100
C  -12.69600 11.54900 39.03400
N  -8.86900 15.86400 40.76200
C  -9.00600 14.47900 40.76800
C  -7.81400 13.79200 40.87700
C  -6.92700 14.92300 40.97900
C  -7.63100 16.07500 40.92500
C  -7.63300 12.32800 40.87700
C  -5.45800 15.15200 41.04300
O  -4.58300 14.30400 41.08100
C  -5.38600 16.69200 41.19100
C  -4.95900 17.15600 42.55700
O  -3.88000 17.70800 42.72100
O  -5.92300 17.00400 43.48700
C  -5.63600 17.60500 44.82000
H  -9.83700 21.85700 40.07600
H  -14.62300 17.39400 39.85100
H  -10.32200 12.89500 40.53200
H  -5.51200 19.70100 41.22100
H  -7.19300 21.68000 39.96500
H  -6.90600 22.46700 42.00200
H  -6.55800 20.93800 42.75900
H  -8.29300 21.47700 42.51100
H  -5.68300 20.66400 38.52000
H  -6.26000 19.06000 38.50100
H  -3.73100 19.36800 40.05700
H  -3.68800 20.43800 38.76800
H  -12.13200 23.12600 40.02400
H  -13.13900 22.76300 38.65900
H  -11.26000 22.69700 38.62000
H  -16.04400 18.94600 38.74700
H  -16.94000 20.14600 39.67900
H  -15.90800 19.08900 40.55800
H  -14.23000 15.07500 39.23200
H  -13.00300 13.19100 41.04800
H  -15.12300 15.63900 41.85600
H  -14.78600 13.92800 41.97700
H  -15.83500 14.58800 40.65600
H  -11.99000 13.47500 38.26700
H  -13.76900 13.33000 38.39600
H  -11.67500 11.22600 38.82800
H  -13.37300 11.00100 38.37900
H  -12.88100 11.34500 40.08900
H  -7.94000 11.94300 39.90500
H  -8.33000 11.84600 41.56200
H  -6.62000 11.95700 41.03200
H  -4.66600 16.98800 40.42700
H  -4.80400 17.14700 45.35400
H  -6.59600 17.47700 45.32000
H  -5.42100 18.67100 44.74800

