158

Mg 8.96300 3.18700 27.20500
C  10.17700 1.65300 30.08300
C  7.29800 5.42900 29.22600
C  7.77700 4.52600 24.43900
C  10.56300 0.69600 25.34500
N  8.67200 3.40200 29.51300
C  9.31800 2.73000 30.49700
C  9.05000 3.34600 31.90300
C  8.02700 4.49300 31.54800
C  7.98700 4.43300 30.01300
C  6.69500 4.51100 32.20300
C  10.44600 3.79900 32.50300
C  10.54700 4.58800 33.81800
H  11.22100 4.00200 35.03600
N  7.80800 4.82100 26.82700
C  7.14900 5.58300 27.80200
C  6.42500 6.56200 27.11600
C  6.62200 6.32500 25.73600
C  7.45900 5.20000 25.59000
C  5.80000 7.72600 27.77000
C  6.02700 7.20200 24.61400
O  6.20500 7.00400 23.42200
C  4.86600 8.16300 24.93700
N  9.21100 2.69400 25.15100
C  8.58300 3.41200 24.15000
C  8.74000 2.79800 22.74000
C  9.72700 1.63000 23.10100
C  9.84400 1.63900 24.62800
C  7.44000 2.22200 22.05600
C  11.11500 1.93100 22.51500
C  11.37100 1.70700 20.95400
N  10.00200 1.39300 27.59700
C  10.66500 0.53600 26.74800
C  11.40100 -0.40400 27.50700
C  11.12100 -0.08600 28.85800
C  10.31900 1.09300 28.85600
C  12.24200 -1.58400 27.03900
C  11.37100 -0.50200 30.16500
O  12.08700 -1.41800 30.59100
C  10.86700 0.68100 31.07100
C  10.03400 0.08500 32.12500
O  8.96600 -0.38900 32.08200
O  10.82300 0.06900 33.20600
C  10.07000 0.17500 34.44500
H  6.75300 6.20000 29.77500
H  7.29400 5.06100 23.61800
H  11.10000 -0.02000 24.71900
H  8.58500 2.51300 32.43000
H  8.49800 5.44600 31.79000
H  5.99000 5.03700 31.55900
H  6.79400 5.10400 33.11200
H  6.33400 3.56400 32.60400
H  10.86500 4.31200 31.63800
H  10.96300 2.84800 32.63700
H  9.52300 4.70800 34.17000
H  10.95000 5.58000 33.61600
H  6.26200 7.86700 28.74700
H  4.75900 7.45200 27.93900
H  5.93300 8.67200 27.24400
H  4.40200 8.32600 23.96500
H  5.50400 9.01700 25.16400
H  4.21500 7.87200 25.76200
H  9.17700 3.59100 22.13300
H  9.42200 0.65300 22.72500
H  7.25500 2.75600 21.12400
H  6.62300 2.29000 22.77400
H  7.51100 1.15200 21.86400
H  11.83200 1.37600 23.12100
H  11.35100 2.97200 22.73800
H  11.61300 2.62300 20.41500
H  10.51000 1.43000 20.34400
H  12.15300 0.97900 20.73800
H  13.04900 -1.86600 27.71600
H  12.56100 -1.25200 26.05100
H  11.53700 -2.41400 27.02400
H  11.75100 1.16000 31.49200
H  9.70100 1.20100 34.46300
H  10.62500 0.09400 35.38000
H  9.17800 -0.44700 34.52400
Mg 29.67000 59.69600 41.17200
C  26.71800 57.96200 40.30500
C  31.32100 56.90500 39.84600
C  32.43900 61.56100 40.81400
C  27.78100 62.50900 41.86900
N  29.05000 57.72100 40.11400
C  27.80000 57.16400 39.96000
C  27.81100 55.84000 39.16700
C  29.28700 55.45400 39.34800
C  29.96400 56.77500 39.76600
C  29.49500 54.35700 40.44200
C  27.36700 56.16600 37.68700
C  26.34400 55.13100 36.99300
H  26.75400 54.52100 35.61800
N  31.63500 59.26000 40.54000
C  32.12000 58.05600 40.11700
C  33.53400 58.23300 39.95400
C  33.92200 59.52800 40.31800
C  32.62900 60.20300 40.61100
C  34.34500 57.19400 39.38500
C  35.36400 60.07700 40.22800
O  36.35700 59.36500 39.89600
C  35.66000 61.54400 40.40700
N  30.03300 61.71900 41.12600
C  31.30500 62.23500 41.13800
C  31.32000 63.76100 41.31700
C  29.84100 64.01500 41.77800
C  29.16200 62.64600 41.67500
C  32.46400 64.35300 42.18100
C  29.05000 65.05100 40.96500
C  28.40100 66.08000 41.84000
N  27.68600 60.17600 41.20400
C  27.00500 61.36300 41.51600
C  25.58700 61.11900 41.47000
C  25.46300 59.83600 41.01300
C  26.73700 59.27500 40.84000
C  24.60900 62.12400 41.77700
C  24.48100 58.86200 40.56700
O  23.26700 58.89200 40.52300
C  25.26700 57.68800 39.98400
C  24.89600 56.33500 40.52800
O  25.14800 55.82100 41.63200
O  24.06700 55.82200 39.64400
C  23.25500 54.68000 40.13200
H  31.77400 55.94200 39.60500
H  33.25000 62.28100 40.68800
H  27.12800 63.31800 42.20200
H  27.10700 55.11400 39.57600
H  29.82800 55.22600 38.42900
H  29.87000 54.89800 41.31000
H  30.36900 53.79000 40.12200
H  28.61800 53.74800 40.66300
H  28.27100 56.21500 37.08100
H  27.00300 57.19200 37.62700
H  25.35600 55.56700 36.84500
H  26.26400 54.33300 37.73100
H  33.81100 56.66200 38.59800
H  34.73800 56.49800 40.12700
H  35.34000 57.49600 39.05800
H  35.24500 62.33500 39.78300
H  36.73500 61.65600 40.26600
H  35.48200 61.67600 41.47400
H  31.43500 64.07400 40.27900
H  29.77500 64.25800 42.83800
H  33.16300 64.78400 41.46500
H  32.89400 63.55400 42.78500
H  32.12900 65.02400 42.97300
H  28.23100 64.50500 40.49700
H  29.68000 65.66300 40.32000
H  27.32300 65.94300 41.76000
H  28.70400 67.09400 41.58000
H  28.67200 65.93000 42.88500
H  24.66800 62.56700 42.77100
H  23.62100 61.68700 41.63200
H  24.88800 62.78500 40.95600
H  25.17500 57.55100 38.90600
H  22.50700 55.03400 40.84200
H  23.86100 53.94200 40.65700
H  22.71700 54.17200 39.33100

