158

Mg 16.99200 -1.33500 28.18800
C  15.80300 0.50100 30.91000
C  18.84200 -3.29600 30.46900
C  18.44500 -2.74200 25.59000
C  15.24400 0.74200 26.09600
N  17.17300 -1.42900 30.45900
C  16.68400 -0.51900 31.30900
C  17.11900 -0.77100 32.73000
C  18.13000 -1.99600 32.55800
C  18.10100 -2.29200 31.06200
C  19.58300 -1.83600 33.06300
C  15.90800 -1.19400 33.66200
C  16.16400 -1.23300 35.22900
H  17.44100 -0.55900 35.78700
N  18.31500 -2.86400 28.02400
C  18.95300 -3.63400 29.07900
C  19.68000 -4.67200 28.41700
C  19.63000 -4.42900 27.02900
C  18.81100 -3.26400 26.83000
C  20.31800 -5.79900 29.18400
C  20.39400 -5.24400 25.95100
O  20.25400 -5.04400 24.74900
C  21.28500 -6.29100 26.38600
N  17.08200 -0.92300 26.12200
C  17.71900 -1.64200 25.22400
C  17.36400 -1.37800 23.79800
C  16.29600 -0.30700 23.91600
C  16.12600 -0.23200 25.49400
C  18.57800 -1.08800 22.86800
C  15.00400 -0.53900 23.08200
C  13.91700 -1.35300 23.88700
N  15.73500 0.32300 28.39000
C  15.05900 1.01000 27.42900
C  14.22100 1.99500 28.05200
C  14.49300 1.86100 29.39700
C  15.36300 0.81100 29.57700
C  13.34200 2.95800 27.35500
C  14.24300 2.46100 30.69000
O  13.58600 3.41800 31.13300
C  15.08900 1.60400 31.74300
C  15.95800 2.49800 32.55200
O  17.10000 2.77700 32.30800
O  15.24800 3.13700 33.55600
C  16.00200 4.04400 34.40200
H  19.33600 -4.00500 31.13600
H  18.91200 -3.19600 24.71300
H  14.64900 1.44400 25.50800
H  17.72200 -0.00200 33.21300
H  17.76100 -2.88100 33.07700
H  19.81300 -2.67900 33.71600
H  19.64600 -0.85700 33.53800
H  20.28000 -1.97700 32.23700
H  15.55300 -2.14900 33.27500
H  15.09100 -0.47700 33.58700
H  15.99400 -2.24400 35.59900
H  15.30600 -0.68500 35.61800
H  21.36900 -5.52400 29.27600
H  20.27700 -6.77900 28.71000
H  19.71100 -5.90300 30.08400
H  21.82800 -6.57300 25.48400
H  20.65600 -7.07800 26.80300
H  21.96600 -5.84900 27.11400
H  16.97200 -2.34200 23.47400
H  16.74300 0.61500 23.54500
H  19.37000 -0.64100 23.46900
H  18.34100 -0.43900 22.02500
H  18.94100 -2.09500 22.66100
H  15.28100 -1.10900 22.19500
H  14.64000 0.41900 22.71200
H  13.51200 -0.75700 24.70500
H  14.34900 -2.23400 24.36200
H  13.04300 -1.61600 23.29100
H  12.73900 2.38100 26.65300
H  13.93700 3.66600 26.77900
H  12.73200 3.47300 28.09700
H  14.32500 1.18100 32.39500
H  15.23900 4.49800 35.03600
H  16.35800 4.90600 33.83900
H  16.75600 3.43400 34.90000
Mg 48.96500 36.04200 26.39900
C  47.30800 34.47600 28.93100
C  49.26200 38.85500 28.09400
C  51.04900 37.35300 23.90200
C  48.46300 33.22900 24.43400
N  48.35600 36.57300 28.33000
C  47.79700 35.75500 29.26200
C  47.46900 36.55200 30.60200
C  47.76200 37.98800 30.18300
C  48.58500 37.85100 28.81400
C  46.57400 38.85900 30.13900
C  48.29000 36.07100 31.86800
C  47.34500 35.59600 33.11700
H  46.18400 36.58500 33.52000
N  50.04200 37.79400 26.12600
C  49.98600 38.89200 26.88300
C  50.86200 39.95600 26.47300
C  51.28600 39.60800 25.14100
C  50.72700 38.18000 24.97300
C  50.87700 41.29900 27.19000
C  52.06800 40.47700 24.13100
O  52.37900 40.09700 23.01100
C  52.46300 41.90400 24.63300
N  49.49600 35.46000 24.47400
C  50.47200 36.08500 23.69500
C  50.98800 35.17200 22.59600
C  50.17200 33.91500 22.74100
C  49.31800 34.19600 23.94700
C  50.93000 35.79200 21.20000
C  51.00300 32.63000 22.93500
C  50.81400 31.57100 21.78500
N  47.89900 34.27900 26.55500
C  47.76800 33.19600 25.67900
C  46.85400 32.21400 26.19900
C  46.59600 32.65200 27.49700
C  47.40400 33.87200 27.68000
C  46.55100 30.90000 25.54800
C  45.87800 32.42400 28.74200
O  45.05100 31.57400 29.01200
C  46.37900 33.55400 29.75600
C  47.19900 32.84200 30.81700
O  48.41200 32.78000 30.85600
O  46.32500 32.15100 31.55300
C  46.75500 31.53600 32.83200
H  49.34100 39.74900 28.71700
H  51.88000 37.51900 23.21200
H  48.28700 32.35700 23.80100
H  46.41000 36.34900 30.76400
H  48.44500 38.57300 30.79900
H  46.25000 38.87300 29.09900
H  46.85800 39.83200 30.54100
H  45.79700 38.31400 30.67600
H  48.89300 36.88600 32.26900
H  48.90400 35.20600 31.61700
H  48.02400 35.36300 33.93700
H  46.92600 34.59300 33.03900
H  51.83900 41.61800 27.59100
H  50.26800 41.33700 28.09400
H  50.39900 41.99700 26.50300
H  51.52800 42.46500 24.61400
H  53.07100 42.28700 23.81400
H  52.96900 41.96100 25.59700
H  52.02900 34.87100 22.71000
H  49.46600 33.78800 21.92000
H  50.24800 36.64000 21.26200
H  50.65400 35.08500 20.41700
H  51.90800 36.15400 20.88100
H  50.83600 32.04000 23.83700
H  52.08500 32.74000 23.00400
H  50.32800 32.00600 20.91200
H  50.01300 30.98100 22.23100
H  51.70800 30.99100 21.55800
H  45.46100 30.89200 25.53000
H  46.92600 30.04500 26.11000
H  46.85900 30.94800 24.50400
H  45.60800 34.05800 30.33900
H  47.82100 31.31300 32.78600
H  46.18700 30.61500 32.96500
H  46.50900 32.10400 33.72900

