158

Mg 26.52500 -0.05500 28.29700
C  28.23600 -0.29500 31.31700
C  23.57500 0.20600 30.09100
C  25.03200 -0.53300 25.48300
C  29.66500 -0.72100 26.59500
N  25.98900 -0.20100 30.50100
C  26.82500 -0.17000 31.46100
C  26.10100 -0.01000 32.82700
C  24.61200 0.19300 32.42100
C  24.72800 0.03500 30.90400
C  23.63900 -0.83600 33.15700
C  26.63300 1.14500 33.78300
C  25.68400 1.75200 34.87400
H  26.22900 2.31800 36.23200
N  24.58000 -0.09300 27.83100
C  23.51100 0.12100 28.66900
C  22.32300 0.01600 27.90600
C  22.66200 -0.17700 26.52200
C  24.17300 -0.41800 26.55200
C  20.86700 0.04600 28.50200
C  21.95900 -0.14300 25.14900
O  22.42000 -0.52600 24.10000
C  20.60800 0.38800 25.26100
N  27.30700 -0.32100 26.32300
C  26.44800 -0.50600 25.32300
C  27.09600 -0.58600 23.88800
C  28.55800 -0.31300 24.30500
C  28.57200 -0.48700 25.81200
C  26.94000 -1.98800 23.31200
C  29.03300 1.11100 23.85000
C  29.71300 1.22600 22.47900
N  28.48600 -0.40400 28.80100
C  29.63800 -0.72200 28.03000
C  30.78900 -0.84900 28.87600
C  30.32900 -0.65700 30.17500
C  28.94100 -0.45800 30.07500
C  32.22300 -1.07700 28.49000
C  30.69200 -0.48800 31.52200
O  31.80200 -0.51900 32.04000
C  29.34200 -0.08900 32.33100
C  29.35900 -0.88800 33.57400
O  29.14500 -2.10400 33.67400
O  29.65300 -0.03600 34.63900
C  29.53000 -0.53800 36.02100
H  22.61900 0.26400 30.61500
H  24.72500 -0.56500 24.43500
H  30.52700 -0.89400 25.94600
H  26.31000 -0.92600 33.38000
H  24.40400 1.24600 32.61300
H  23.08900 -0.28600 33.92100
H  24.24500 -1.63100 33.59300
H  22.93200 -1.24700 32.43700
H  26.85600 2.02300 33.17700
H  27.48100 0.80000 34.37400
H  24.78500 1.13800 34.92600
H  25.29700 2.62400 34.34700
H  20.21500 0.90600 28.35100
H  20.84400 -0.28800 29.53900
H  20.29300 -0.74200 28.01400
H  20.06300 -0.41400 25.75900
H  20.14300 0.60400 24.30000
H  20.48700 1.24600 25.92200
H  26.60100 0.05100 23.15600
H  29.25700 -1.04800 23.90600
H  26.57100 -1.99300 22.28700
H  26.37500 -2.68700 23.93000
H  27.88300 -2.51400 23.16400
H  29.68600 1.60200 24.57100
H  28.18600 1.79200 23.76800
H  29.09100 0.96700 21.62300
H  30.49600 0.47300 22.56500
H  30.02500 2.24400 22.24300
H  32.86700 -0.20600 28.61100
H  32.32200 -1.35000 27.43900
H  32.54000 -1.90100 29.12900
H  29.39600 0.98400 32.51000
H  28.90100 0.19500 36.52600
H  30.53200 -0.40200 36.42700
H  29.10000 -1.53400 36.13700
Mg -10.55200 39.69000 41.50900
C  -9.48300 36.41000 40.86500
C  -7.59100 40.88300 40.17800
C  -11.99700 42.69700 41.36000
C  -13.58400 38.39300 42.70000
N  -8.76100 38.75600 40.71800
C  -8.59700 37.39800 40.45500
C  -7.22700 37.12100 39.70400
C  -6.50000 38.54200 39.71100
C  -7.66800 39.45600 40.23600
C  -5.18300 38.68600 40.49400
C  -7.36700 36.51100 38.24800
C  -6.17700 35.56200 37.87000
H  -5.22900 35.94800 36.74300
N  -9.83400 41.50000 40.96600
C  -8.52900 41.83700 40.54400
C  -8.46100 43.29700 40.43000
C  -9.75300 43.81400 40.71800
C  -10.62300 42.66600 41.03100
C  -7.28800 44.05300 39.83000
C  -9.98500 45.32400 40.92400
O  -9.03600 46.08600 40.83500
C  -11.33600 45.93700 41.25100
N  -12.59900 40.36900 41.79700
C  -12.89800 41.65100 41.72300
C  -14.38400 41.97500 42.07100
C  -14.89300 40.64500 42.65900
C  -13.65700 39.69000 42.30900
C  -14.67700 43.16200 43.00300
C  -16.26300 40.13300 42.08700
C  -17.58100 40.36600 43.00300
N  -11.43000 37.77100 41.79200
C  -12.55700 37.39200 42.41200
C  -12.53900 35.93700 42.53100
C  -11.37200 35.53000 41.92600
C  -10.73600 36.70600 41.47500
C  -13.72500 35.09400 42.95900
C  -10.55200 34.34700 41.64000
O  -10.71000 33.17200 41.92800
C  -9.24300 34.92200 41.01200
C  -8.01800 34.62000 41.82300
O  -7.77900 35.11700 42.92000
O  -7.15900 33.88800 41.14000
C  -5.86500 33.69500 41.72900
H  -6.68200 41.21100 39.67000
H  -12.39500 43.71400 41.32400
H  -14.31400 38.01100 43.41600
H  -6.67000 36.48000 40.38700
H  -6.31700 38.97900 38.73000
H  -4.52900 39.31200 39.88700
H  -4.77100 37.67900 40.57000
H  -5.16700 39.13900 41.48600
H  -7.38700 37.26600 37.46100
H  -8.34900 36.06000 38.10800
H  -6.64900 34.59400 37.69900
H  -5.55600 35.47900 38.76100
H  -6.53900 43.36400 39.44000
H  -6.84100 44.69200 40.59100
H  -7.71400 44.61200 38.99700
H  -11.97600 45.85800 40.37100
H  -11.17100 47.00900 41.35300
H  -11.68800 45.55200 42.20800
H  -14.79300 42.26700 41.10400
H  -14.93900 40.82300 43.73400
H  -13.80700 43.33600 43.63700
H  -15.56700 42.98200 43.60500
H  -14.85000 44.09700 42.47000
H  -16.23700 39.04300 42.08700
H  -16.50800 40.51800 41.09800
H  -18.50600 40.05900 42.51500
H  -17.80400 41.39900 43.26900
H  -17.56600 39.79800 43.93300
H  -13.79800 34.26000 42.26100
H  -14.65800 35.65500 42.91000
H  -13.51000 34.67200 43.94100
H  -9.07100 34.36200 40.09300
H  -6.07800 33.04000 42.57400
H  -5.48000 34.68900 41.95500
H  -5.12600 33.20400 41.09500

