158

Mg 17.52000 -0.87300 27.97000
C  16.45900 1.18600 30.57500
C  19.56400 -2.53300 29.99500
C  19.12000 -2.41700 25.26500
C  15.95400 1.25900 25.74600
N  18.05300 -0.53800 30.08600
C  17.41000 0.24600 31.02400
C  17.88300 -0.11900 32.41100
C  18.98700 -1.17700 32.09300
C  18.89400 -1.45200 30.60200
C  20.45400 -0.69500 32.39900
C  16.74500 -0.51500 33.44000
C  17.00700 -0.26500 34.98600
H  18.42500 0.18500 35.53400
N  18.86500 -2.50700 27.73700
C  19.56100 -3.03900 28.69700
C  20.31400 -4.16400 28.23100
C  20.20500 -4.16800 26.85400
C  19.38500 -2.95600 26.53900
C  21.08500 -5.04300 29.15900
C  20.76700 -5.02300 25.74800
O  20.49600 -4.94500 24.55800
C  21.57900 -6.09700 26.19400
N  17.46000 -0.69200 25.78700
C  18.25600 -1.35400 24.90400
C  17.99800 -0.76700 23.46900
C  16.78700 0.09400 23.66000
C  16.78800 0.24400 25.11900
C  19.26400 -0.05700 22.86900
C  15.47300 -0.30700 23.00900
C  14.36900 -0.93500 23.86300
N  16.43200 0.81000 28.04600
C  15.78300 1.55600 27.06400
C  14.95600 2.61100 27.63800
C  15.15800 2.49400 29.00300
C  16.08400 1.39700 29.24100
C  14.14500 3.66800 26.92000
C  14.88200 3.11700 30.34600
O  14.28300 4.10400 30.68800
C  15.65100 2.15400 31.36200
C  16.50700 3.03800 32.24700
O  17.60900 3.42600 31.94900
O  15.84600 3.39500 33.43200
C  16.66200 4.07400 34.48400
H  20.11500 -3.13400 30.72100
H  19.60600 -2.85500 24.39100
H  15.51900 1.92500 24.99800
H  18.32400 0.79300 32.81400
H  18.78600 -2.07900 32.67100
H  20.38600 0.39100 32.34100
H  21.12000 -1.09300 31.63300
H  20.83900 -0.86900 33.40400
H  16.55300 -1.58700 33.46600
H  15.73500 -0.13700 33.27800
H  16.78200 -1.24900 35.39800
H  16.30900 0.47600 35.37400
H  22.15500 -4.84400 29.09500
H  21.19100 -6.11300 28.98200
H  20.86000 -4.86400 30.21000
H  20.95200 -6.66100 26.88600
H  22.47500 -5.64500 26.61900
H  21.93300 -6.72700 25.37800
H  17.75700 -1.52900 22.72800
H  17.01500 1.04300 23.17600
H  20.04900 0.04000 23.61900
H  18.97500 0.91400 22.46600
H  19.65800 -0.64100 22.03700
H  15.78600 -0.98300 22.21300
H  15.06500 0.57600 22.51700
H  14.65300 -1.41800 24.79900
H  14.03100 -1.76600 23.24400
H  13.52500 -0.25100 23.95000
H  13.13000 3.27500 26.96100
H  14.55200 3.84800 25.92400
H  14.22900 4.61000 27.46300
H  15.02600 1.60300 32.06600
H  17.29800 3.31200 34.93700
H  15.86100 4.45200 35.11800
H  17.31000 4.81800 34.02000
Mg 6.49000 53.12200 41.01400
C  6.15000 49.71000 41.20000
C  9.76500 52.91600 40.39400
C  6.52600 56.60200 40.89800
C  3.01800 53.46400 41.27200
N  7.74800 51.45400 40.53800
C  7.45100 50.16000 40.81400
C  8.68900 49.37200 40.55000
C  9.81700 50.42900 40.80100
C  9.12700 51.70900 40.59500
C  10.64000 50.25800 42.06200
C  8.94100 48.52100 39.22900
C  8.89900 49.28600 37.89200
H  7.88800 48.83200 36.77200
N  7.88500 54.50900 40.53700
C  9.23400 54.23800 40.26900
C  9.90500 55.46300 39.97800
C  8.93500 56.48900 40.09700
C  7.71000 55.88900 40.58400
C  11.30200 55.41300 39.46900
C  9.23200 57.93400 39.79200
O  10.34800 58.27900 39.56900
C  8.12300 58.91400 39.62400
N  4.90600 54.85200 40.99800
C  5.22600 56.14400 41.08300
C  3.97600 57.01700 41.26800
C  2.84400 55.97500 41.08100
C  3.66300 54.69600 41.08800
C  4.04600 57.77400 42.65200
C  1.98600 56.07200 39.83300
C  0.41300 55.89800 39.98200
N  4.86800 51.94100 41.34200
C  3.47700 52.21900 41.45000
C  2.80200 50.86700 41.63500
C  3.83700 49.91000 41.64400
C  5.03300 50.59600 41.42600
C  1.29200 50.58100 41.83200
C  4.10400 48.54100 41.87700
O  3.34600 47.64200 42.26800
C  5.56800 48.28300 41.49900
C  5.58500 47.43000 40.37500
O  5.03400 47.68800 39.28400
O  6.20800 46.20200 40.69600
C  5.74300 45.08700 39.81300
H  10.82800 52.76400 40.19700
H  6.59300 57.69000 40.96100
H  1.94300 53.58200 41.42600
H  8.72200 48.62400 41.34300
H  10.66600 50.33400 40.12300
H  11.68000 50.54100 41.89700
H  10.53500 49.22000 42.37800
H  10.29200 50.95400 42.82500
H  8.11300 47.81200 39.22300
H  9.77700 47.82500 39.30600
H  9.87500 49.31700 37.40800
H  8.64700 50.33100 38.06900
H  12.12200 55.51800 40.17900
H  11.46400 56.18900 38.72100
H  11.48800 54.46600 38.96300
H  7.27700 58.56300 39.03400
H  8.47600 59.62700 38.87900
H  7.78600 59.46500 40.50200
H  3.99800 57.72900 40.44200
H  2.14800 56.02200 41.91900
H  3.44000 58.67400 42.54700
H  5.08200 57.99000 42.91500
H  3.57800 57.09700 43.36700
H  2.35600 55.49200 38.98700
H  2.13000 57.10900 39.52900
H  0.01800 56.70600 39.36600
H  -0.05000 56.01200 40.96200
H  0.00800 55.02100 39.47600
H  0.92800 50.53200 40.80500
H  0.77000 51.42000 42.29200
H  1.05800 49.66800 42.37900
H  5.88200 47.74000 42.39100
H  6.23800 45.10800 38.84200
H  4.65700 45.13600 39.73100
H  5.99900 44.06800 40.10400

