158

Mg 23.91500 -5.53700 46.02300
C  26.18400 -3.23100 44.49000
C  21.54000 -4.35600 43.76100
C  22.01300 -8.10800 46.88600
C  26.72100 -6.97600 47.63600
N  23.86900 -3.94800 44.31800
C  24.92600 -3.16900 43.92500
C  24.51900 -2.26400 42.72500
C  22.96100 -2.43300 42.77500
C  22.72800 -3.62800 43.67000
C  22.14900 -1.21200 43.34900
C  25.02300 -2.88500 41.39200
C  25.88700 -1.96300 40.54000
H  25.61600 -2.09200 38.97800
N  21.96600 -6.11800 45.53400
C  21.18600 -5.47000 44.61100
C  20.00500 -6.20300 44.43000
C  20.13200 -7.37300 45.25700
C  21.39700 -7.23300 45.96500
C  18.94500 -5.88100 43.35100
C  19.12000 -8.56400 45.24700
O  18.03000 -8.45100 44.69700
C  19.56100 -9.85700 45.85500
N  24.33300 -7.28700 47.06000
C  23.31100 -8.16200 47.40200
C  23.84500 -9.34400 48.22800
C  25.22900 -8.86400 48.63300
C  25.49500 -7.64900 47.72700
C  22.98500 -9.75300 49.41600
C  26.33500 -9.99200 48.72200
C  26.97700 -10.20000 50.10200
N  26.05400 -5.10200 46.24400
C  27.05000 -5.75700 46.92800
C  28.34800 -5.04800 46.82200
C  28.00400 -4.03200 45.85300
C  26.66400 -4.22300 45.44400
C  29.59100 -5.46600 47.54900
C  28.54200 -2.89100 45.11000
O  29.67400 -2.48500 45.13600
C  27.40500 -2.39400 44.10200
C  27.32400 -0.95900 44.37300
O  26.48600 -0.49800 45.16100
O  28.14200 -0.10800 43.60400
C  28.26600 1.27200 44.06400
H  20.79300 -4.01200 43.04200
H  21.41000 -8.90100 47.33200
H  27.55000 -7.43500 48.17800
H  24.83800 -1.23000 42.85700
H  22.50400 -2.52300 41.78900
H  22.83300 -0.39100 43.56700
H  21.60600 -1.44900 44.26300
H  21.46600 -0.84000 42.58500
H  24.24400 -3.16100 40.68000
H  25.62800 -3.77500 41.56900
H  26.90600 -2.33700 40.63600
H  25.76900 -0.94300 40.90600
H  19.02500 -6.67000 42.60400
H  19.07000 -4.86800 42.96800
H  17.97100 -5.79100 43.83300
H  20.60500 -10.00200 45.57800
H  18.87300 -10.63400 45.52200
H  19.44900 -9.57800 46.90300
H  24.03500 -10.13600 47.50400
H  25.21000 -8.40300 49.62000
H  23.49100 -9.70200 50.37900
H  22.60400 -10.74900 49.19200
H  22.12200 -9.08800 49.39300
H  27.05000 -9.81100 47.92000
H  25.90300 -10.95100 48.43500
H  28.06300 -10.21300 50.00800
H  26.69700 -11.12100 50.61300
H  26.77100 -9.45200 50.86800
H  29.80500 -6.48800 47.24000
H  29.36800 -5.32800 48.60800
H  30.43600 -4.81900 47.31500
H  27.68000 -2.67700 43.08600
H  27.35600 1.85700 43.93400
H  29.01500 1.70900 43.40400
H  28.68600 1.37300 45.06500
Mg 6.18200 53.92400 40.92400
C  5.54800 50.42600 40.51700
C  9.56400 53.30900 40.36500
C  6.69800 57.22900 40.68700
C  2.81400 54.34900 41.29600
N  7.36500 52.09100 40.60200
C  6.94500 50.78600 40.43900
C  8.08100 49.76200 40.31700
C  9.31300 50.70000 40.63300
C  8.73600 52.18500 40.52700
C  10.11700 50.49300 41.97400
C  8.34300 49.13600 38.89100
C  8.14200 50.09600 37.62600
H  7.19400 49.62900 36.50200
N  7.88000 55.12900 40.55200
C  9.13300 54.66900 40.31500
C  9.93200 55.83000 40.00100
C  9.21000 57.01000 40.19800
C  7.85700 56.50600 40.47200
C  11.31500 55.55200 39.40900
C  9.64800 58.37400 40.01600
O  10.79100 58.58600 39.63800
C  8.81700 59.50700 40.41000
N  4.91200 55.56300 41.10300
C  5.37400 56.80100 41.03600
C  4.25200 57.85500 41.18100
C  3.02300 56.89100 41.15600
C  3.59700 55.51300 41.15300
C  4.35800 58.70600 42.41400
C  2.18300 57.00000 39.89900
C  0.66300 56.81700 40.08000
N  4.42200 52.69600 40.89600
C  3.16400 53.01000 41.19000
C  2.30600 51.85700 41.12400
C  3.19800 50.80600 40.95600
C  4.50000 51.40700 40.77100
C  0.80200 51.83900 41.29500
C  3.30600 49.37500 40.79800
O  2.44400 48.55000 40.83400
C  4.82400 49.03300 40.57500
C  4.98800 48.33200 39.27900
O  4.61900 48.71800 38.19500
O  5.61900 47.10500 39.57400
C  5.76300 46.38200 38.32600
H  10.63900 53.15100 40.25800
H  6.58200 58.31400 40.64700
H  1.75600 54.57900 41.44300
H  7.93300 48.94800 41.02700
H  10.12100 50.58600 39.91000
H  11.16900 50.51700 41.69000
H  9.76100 49.60200 42.49100
H  9.95800 51.34900 42.63000
H  7.73500 48.24400 38.74300
H  9.40000 48.89200 38.79000
H  9.09600 50.18500 37.10600
H  8.01500 51.16000 37.82800
H  11.35000 54.69200 38.74000
H  12.10200 55.62200 40.16000
H  11.66000 56.35200 38.75400
H  9.52100 60.32800 40.54600
H  8.35300 59.20000 41.34700
H  8.05100 59.70700 39.66100
H  4.22600 58.47800 40.28600
H  2.40300 57.00300 42.04600
H  5.11800 58.31900 43.09400
H  3.40500 58.74500 42.94200
H  4.67800 59.73400 42.24300
H  2.28600 56.15000 39.22500
H  2.37900 57.87500 39.28100
H  0.35100 56.39700 41.03600
H  0.28600 56.10800 39.34300
H  0.17000 57.78500 39.98500
H  0.41000 52.77900 40.90700
H  0.59400 51.68700 42.35500
H  0.47800 50.98400 40.70100
H  5.26700 48.38800 41.33400
H  6.33200 46.96900 37.60500
H  4.79200 46.07900 37.93200
H  6.30500 45.45000 38.48600

