158

Mg 34.98100 3.33800 29.48900
C  32.82200 4.22600 32.17200
C  37.59400 3.51000 31.67400
C  37.02700 2.68400 26.87400
C  32.35300 3.46500 27.35000
N  35.17400 3.73700 31.74400
C  34.16600 4.03500 32.60900
C  34.75100 4.12000 34.01400
C  36.26800 4.18900 33.75800
C  36.39800 3.69600 32.35800
C  36.93300 5.53700 34.00100
C  34.25500 2.86600 34.82200
C  33.94400 3.23100 36.29600
H  34.66400 4.33100 36.89000
N  37.02000 3.09700 29.29800
C  37.97500 3.29500 30.26400
C  39.27800 2.95500 29.85400
C  39.13800 2.66100 28.49200
C  37.68700 2.81700 28.11500
C  40.45600 2.95600 30.79800
C  40.16800 2.22300 27.42700
O  39.94100 2.18000 26.23100
C  41.48700 1.75700 27.94600
N  34.75900 3.13400 27.35700
C  35.71500 2.82100 26.51500
C  35.16200 2.62900 25.10000
C  33.62200 2.92600 25.20400
C  33.55800 3.22100 26.76700
C  36.02600 3.44400 24.09100
C  32.63200 1.79100 24.85900
C  31.51200 2.18300 23.87100
N  33.05800 3.70800 29.67500
C  32.04900 3.82800 28.68000
C  30.76300 4.10500 29.25700
C  31.11100 4.25800 30.61600
C  32.48900 4.01100 30.84600
C  29.51900 4.23700 28.53300
C  30.46600 4.53400 31.90200
O  29.28900 4.69400 32.12800
C  31.58600 4.50600 32.98800
C  31.69000 5.84900 33.62000
O  32.43500 6.72700 33.21700
O  30.88900 5.88800 34.75000
C  31.33800 6.87500 35.75800
H  38.42100 3.54600 32.38700
H  37.77600 2.48200 26.10500
H  31.48100 3.51000 26.69500
H  34.50800 5.08000 34.47000
H  36.82000 3.49400 34.39000
H  37.16300 6.10400 33.09900
H  37.88200 5.36000 34.50600
H  36.40900 6.15200 34.73300
H  34.98900 2.06600 34.91300
H  33.35400 2.52400 34.31200
H  33.97100 2.35600 36.94600
H  32.91200 3.56900 36.20000
H  40.35600 3.90000 31.33400
H  41.40100 2.89500 30.25800
H  40.32000 2.16800 31.53800
H  41.90200 1.11300 27.17100
H  41.35000 1.26800 28.91100
H  42.17300 2.60000 28.03200
H  35.21600 1.57100 24.84200
H  33.37600 3.77100 24.56100
H  36.46800 4.30300 24.59500
H  35.42100 3.76200 23.24200
H  36.83700 2.78700 23.77600
H  32.08000 1.38100 25.70500
H  33.19500 1.03800 24.30700
H  31.42700 3.26900 23.82700
H  30.53400 1.74800 24.07800
H  31.77900 1.78000 22.89400
H  28.77900 4.72000 29.17100
H  29.13500 3.26300 28.22800
H  29.67000 4.81000 27.61800
H  31.51000 3.71000 33.73000
H  30.57700 7.64600 35.87500
H  32.22200 7.44900 35.47900
H  31.56600 6.27900 36.64200
Mg 36.79600 49.16400 25.30900
C  36.65700 47.19800 28.18100
C  35.05500 51.60600 27.18300
C  36.05600 51.05900 22.40100
C  38.08900 46.63600 23.50300
N  35.81100 49.24800 27.37300
C  36.18800 48.45100 28.40100
C  35.96400 49.11400 29.80300
C  35.43500 50.50300 29.38900
C  35.37700 50.45900 27.91300
C  34.12100 50.86000 30.07600
C  37.17500 49.17700 30.75600
C  36.92900 48.52400 32.16100
H  36.97100 49.51900 33.32500
N  35.85300 51.12400 24.91100
C  35.22100 51.92800 25.83800
C  34.88300 53.18600 25.21000
C  35.17400 53.01000 23.81900
C  35.67000 51.65700 23.65900
C  34.39100 54.42000 26.03800
C  34.90700 54.07500 22.72000
O  35.27600 53.92700 21.54600
C  34.08400 55.34700 23.03500
N  36.95600 48.90600 23.29000
C  36.68900 49.80500 22.27000
C  36.78000 49.05600 20.89900
C  37.69600 47.82600 21.25800
C  37.58700 47.75900 22.81900
C  35.35200 48.75600 20.38100
C  39.15500 48.00900 20.85300
C  39.68800 46.91400 19.86500
N  37.33700 47.33200 25.71400
C  37.92300 46.39000 24.87700
C  38.05200 45.11200 25.53800
C  37.63900 45.41500 26.85000
C  37.11700 46.73800 26.88200
C  38.52800 43.75600 25.03500
C  37.47200 44.86900 28.25500
O  37.76400 43.76600 28.69700
C  36.78300 45.99400 29.05300
C  35.62400 45.42900 29.66000
O  34.69000 44.92900 29.03100
O  35.76600 45.41800 31.06400
C  34.71100 44.76900 31.84700
H  34.54900 52.39800 27.73800
H  35.82700 51.68500 21.53700
H  38.63900 45.89700 22.91600
H  35.16500 48.49000 30.20300
H  36.12100 51.29700 29.68200
H  33.24900 50.67000 29.45000
H  34.08000 51.94400 30.17300
H  34.03300 50.40500 31.06300
H  37.43100 50.23100 30.86200
H  38.00300 48.76000 30.18400
H  37.84400 47.95400 32.32600
H  35.99000 47.97300 32.21100
H  34.29900 54.23200 27.10800
H  33.40600 54.78200 25.74400
H  35.21500 55.12600 25.94200
H  33.13900 55.29400 23.57500
H  33.76700 55.72500 22.06300
H  34.70800 55.95900 23.68500
H  37.12200 49.73000 20.11300
H  37.21500 46.92800 20.87200
H  34.60500 49.10200 21.09600
H  35.31200 47.71400 20.06400
H  35.21700 49.32100 19.45800
H  39.77900 48.08800 21.74400
H  39.27400 48.96400 20.34200
H  39.89900 47.41800 18.92200
H  39.00500 46.06600 19.83400
H  40.67400 46.69700 20.27800
H  39.61700 43.70300 25.05100
H  38.29400 43.71700 23.97100
H  37.96600 42.97800 25.55200
H  37.48200 46.27300 29.84200
H  35.14600 43.96000 32.43400
H  33.80200 44.40700 31.36700
H  34.41500 45.37500 32.70400

