158

Mg 1.86800 -1.67200 45.52100
C  5.10700 -0.72900 44.62700
C  0.75100 0.99600 43.83500
C  -1.21200 -3.04200 45.67500
C  3.22300 -4.67300 46.95500
N  2.88400 0.05300 44.47300
C  4.15700 0.18500 44.15900
C  4.38400 1.53900 43.41400
C  2.96400 2.21500 43.48900
C  2.10800 1.05000 43.98300
C  2.78800 3.45500 44.46800
C  4.97900 1.36900 41.97100
C  6.25200 2.14800 41.74500
H  7.42700 1.48100 40.98700
N  0.01500 -1.10500 44.80800
C  -0.23000 -0.00900 44.07500
C  -1.62800 0.02600 43.64500
C  -2.23200 -1.13300 44.20100
C  -1.14900 -1.83800 44.91000
C  -2.16400 1.26200 42.82200
C  -3.69000 -1.52000 44.03500
O  -4.40900 -0.83600 43.33200
C  -4.35100 -2.76500 44.47000
N  1.10100 -3.51100 46.44400
C  -0.25900 -3.77800 46.44000
C  -0.59400 -5.13000 47.13600
C  0.88900 -5.60400 47.61200
C  1.83300 -4.55200 46.99200
C  -1.71800 -5.04700 48.25000
C  1.35600 -7.09100 47.25100
C  1.57800 -8.01000 48.49800
N  3.74200 -2.62100 45.71400
C  4.15000 -3.76400 46.41000
C  5.59900 -3.81200 46.25900
C  6.00500 -2.62800 45.69100
C  4.85800 -1.94900 45.34000
C  6.38100 -4.97900 46.67900
C  7.08900 -1.86800 45.24900
O  8.27100 -2.04100 45.43000
C  6.62400 -0.58000 44.58600
C  7.00500 0.55100 45.41600
O  6.26600 1.17000 46.16400
O  8.34600 0.86500 45.19800
C  8.80500 2.12700 45.70000
H  0.44600 1.92100 43.34100
H  -2.24300 -3.37900 45.80300
H  3.66900 -5.59200 47.34100
H  5.05100 2.16200 44.01100
H  2.61000 2.47100 42.49100
H  1.85800 3.48900 45.03400
H  2.79300 4.37000 43.87600
H  3.64300 3.55600 45.13600
H  4.30900 1.67800 41.16900
H  5.22900 0.32700 41.76900
H  6.81000 2.37700 42.65300
H  5.94400 3.06300 41.23900
H  -2.09400 1.18300 41.73700
H  -1.64700 2.16000 43.16100
H  -3.21500 1.44600 43.04500
H  -4.24100 -2.69500 45.55200
H  -3.75100 -3.50300 43.93800
H  -5.40500 -2.69500 44.19900
H  -0.96200 -5.78300 46.34400
H  1.02100 -5.46900 48.68500
H  -1.26700 -5.32000 49.20400
H  -2.60400 -5.63000 47.99900
H  -2.10000 -4.03400 48.37700
H  2.22000 -7.06900 46.58700
H  0.47900 -7.45100 46.71200
H  0.58500 -8.16900 48.91900
H  2.03600 -7.35100 49.23600
H  2.27000 -8.82800 48.29800
H  7.43300 -4.77000 46.87000
H  6.26300 -5.80700 45.98000
H  6.05200 -5.44700 47.60700
H  7.12100 -0.35700 43.64200
H  9.61400 1.93500 46.40400
H  8.09400 2.71300 46.28200
H  9.26900 2.63300 44.85400
Mg 28.16900 58.39200 42.14300
C  25.87000 56.20500 40.71800
C  30.69100 56.90600 40.43500
C  30.06200 60.79800 43.27600
C  25.33100 60.14300 43.43400
N  28.23900 56.83300 40.74300
C  27.18400 56.07900 40.25100
C  27.64500 55.19800 39.14500
C  29.19400 55.06500 39.49200
C  29.37600 56.39400 40.20900
C  29.65800 53.73700 40.17100
C  27.29000 55.79900 37.74800
C  27.05000 54.74000 36.63700
H  26.52400 55.29600 35.31700
N  30.21100 58.72600 41.98600
C  31.09300 57.98000 41.26700
C  32.37100 58.59900 41.41400
C  32.24400 59.73300 42.28200
C  30.81900 59.75500 42.56700
C  33.46200 58.19500 40.55400
C  33.29300 60.79300 42.71400
O  34.41400 60.62800 42.24100
C  33.10300 61.95400 43.59000
N  27.71800 60.23100 43.07500
C  28.68200 61.02500 43.49500
C  28.11800 62.26900 44.25800
C  26.59200 62.13000 44.10400
C  26.54600 60.73800 43.49600
C  28.62700 62.26000 45.72300
C  25.97800 63.27500 43.20400
C  26.02600 64.73100 43.84000
N  26.02600 58.24600 42.24900
C  25.04800 58.96200 42.87500
C  23.72600 58.38500 42.60000
C  23.97000 57.33100 41.69300
C  25.36000 57.25100 41.58500
C  22.38600 58.96200 42.96600
C  23.37200 56.23600 40.88500
O  22.18300 55.94400 40.67400
C  24.59100 55.39100 40.34400
C  24.63300 53.93600 40.82300
O  25.29900 53.49100 41.74000
O  23.80000 53.17800 40.03100
C  23.90400 51.70500 40.08800
H  31.37000 56.31400 39.81800
H  30.69200 61.62000 43.62300
H  24.50300 60.76700 43.77800
H  27.06300 54.27900 39.20700
H  29.70000 55.11500 38.52800
H  30.36800 53.30300 39.46700
H  28.83100 53.07000 40.41300
H  30.18200 53.89000 41.11400
H  28.04500 56.49900 37.38900
H  26.34700 56.33400 37.86200
H  26.31000 54.08400 37.09500
H  27.91300 54.08100 36.54000
H  33.29000 57.21100 40.11800
H  34.45900 58.13100 40.98900
H  33.53300 58.93600 39.75800
H  32.54300 62.76500 43.12300
H  34.08100 62.26900 43.95400
H  32.66300 61.57000 44.51000
H  28.45400 63.12500 43.67300
H  26.07600 62.25500 45.05700
H  29.70500 62.13600 45.62700
H  28.23700 61.38900 46.25000
H  28.46900 63.19600 46.25800
H  24.95200 62.95800 43.01300
H  26.54300 63.24700 42.27200
H  25.03700 65.17800 43.94300
H  26.58300 65.30400 43.09800
H  26.51600 64.80300 44.81100
H  22.29300 60.02700 42.75000
H  22.31000 58.91400 44.05200
H  21.48700 58.40300 42.70500
H  24.53600 55.28300 39.26100
H  22.89400 51.54100 39.71100
H  24.03200 51.24000 41.06600
H  24.56000 51.26400 39.33700

