158

Mg 47.37000 16.43600 27.63100
C  45.60700 16.46300 30.70900
C  50.01300 18.17400 29.27500
C  49.20800 16.34600 24.85600
C  44.84700 14.71300 26.18500
N  47.68000 17.31700 29.71600
C  46.85600 17.06600 30.75900
C  47.50100 17.62400 31.97400
C  48.85500 18.44500 31.54100
C  48.85800 17.99500 30.05200
C  48.80700 19.99400 31.61600
C  47.76500 16.51000 33.01400
C  47.34300 16.68000 34.52500
H  46.87200 18.12500 35.02000
N  49.26700 17.14500 27.19800
C  50.23600 17.72900 27.96500
C  51.47400 18.04300 27.25400
C  51.27100 17.49800 25.93700
C  49.88500 16.97500 25.94600
C  52.55900 18.94500 27.80500
C  52.18600 17.56300 24.70900
O  51.77900 17.17800 23.64600
C  53.53800 18.13200 24.85500
N  47.10800 15.70000 25.82700
C  47.98900 15.77000 24.77300
C  47.37900 15.33600 23.46400
C  46.02400 14.73600 23.88000
C  45.94700 15.11300 25.41300
C  47.40300 16.58500 22.44400
C  46.00600 13.19400 23.56000
C  45.16700 12.75000 22.30800
N  45.64700 15.65600 28.27300
C  44.62200 14.98900 27.58700
C  43.54900 14.66900 28.44900
C  43.91400 15.20800 29.65600
C  45.21000 15.82100 29.54700
C  42.35200 13.87300 28.14900
C  43.40400 15.36100 31.06500
O  42.34400 14.99700 31.54400
C  44.62200 16.12000 31.79900
C  44.15200 17.23800 32.53500
O  43.73700 18.26600 32.07200
O  43.85800 16.80900 33.75700
C  42.73700 17.52500 34.41100
H  50.74500 18.77400 29.81900
H  49.75000 16.20000 23.91900
H  43.95300 14.32900 25.68900
H  46.83100 18.39800 32.34700
H  49.64800 18.08300 32.19600
H  48.05000 20.23100 32.36400
H  48.64900 20.39000 30.61300
H  49.72700 20.40500 32.03100
H  48.83100 16.30000 33.10200
H  47.28600 15.59000 32.67800
H  48.20800 16.36200 35.10700
H  46.56900 15.94800 34.75500
H  53.28100 19.37400 27.11100
H  53.14400 18.36700 28.52100
H  52.08500 19.76400 28.34600
H  53.44700 19.20800 25.00400
H  54.25700 17.97100 24.05200
H  54.03900 17.67900 25.71000
H  48.08600 14.60300 23.07600
H  45.20400 15.09000 23.25600
H  46.56800 16.74900 21.76300
H  48.32200 16.45600 21.87100
H  47.40400 17.51800 23.00700
H  45.47400 12.76900 24.41100
H  47.05600 12.90200 23.57000
H  45.87900 12.86500 21.49100
H  44.27400 13.29200 21.99600
H  44.82000 11.74000 22.53100
H  42.67000 13.02800 27.53800
H  41.79700 14.55200 27.50100
H  41.88900 13.67000 29.11400
H  45.05600 15.41800 32.51100
H  41.83800 17.54000 33.79600
H  42.86400 18.52100 34.83600
H  42.32000 16.86900 35.17500
Mg 41.25900 40.95600 27.33600
C  40.95000 43.51600 29.67600
C  42.52200 38.94300 29.88100
C  42.24500 38.70100 24.96600
C  40.42600 43.16100 24.79500
N  41.82200 41.31200 29.53500
C  41.45600 42.36700 30.26600
C  41.55400 42.12800 31.74800
C  42.25500 40.68800 31.85700
C  42.19900 40.27700 30.37200
C  43.66300 40.65000 32.44500
C  40.20500 42.11100 32.48300
C  40.11200 43.12000 33.73900
H  39.45400 42.62600 35.01600
N  42.33300 39.13800 27.36600
C  42.67100 38.46900 28.53400
C  43.27400 37.21100 28.21900
C  43.12800 37.08500 26.80600
C  42.52300 38.35200 26.30200
C  43.81400 36.22100 29.27500
C  43.54800 35.97700 25.91500
O  43.43400 36.06700 24.72400
C  44.07200 34.69200 26.43500
N  41.58200 41.03800 25.20400
C  42.00000 39.98600 24.40600
C  41.68100 40.12600 22.92200
C  40.93500 41.49800 22.95800
C  40.87800 41.89400 24.45400
C  42.96900 39.99500 21.94500
C  39.61300 41.42900 22.29000
C  38.38800 41.14200 23.19500
N  40.83200 42.90800 27.15200
C  40.45900 43.67300 26.10900
C  40.17000 44.98300 26.55900
C  40.25100 44.94000 27.98400
C  40.78100 43.68200 28.29100
C  40.00400 46.16000 25.52200
C  40.19200 45.74000 29.12800
O  39.86200 46.88700 29.27300
C  40.62200 44.79300 30.31500
C  41.70400 45.59800 31.02000
O  42.56300 46.26200 30.41900
O  41.46800 45.76100 32.35200
C  41.97500 47.02000 32.93300
H  42.82100 38.40200 30.78100
H  42.32800 38.00100 24.13100
H  40.02900 43.82100 24.02100
H  42.26600 42.89300 32.05900
H  41.72900 39.92300 32.42800
H  43.77700 39.76700 33.07400
H  43.80000 41.56300 33.02400
H  44.41600 40.69100 31.65700
H  39.89300 41.13600 32.85700
H  39.39800 42.38500 31.80400
H  39.52000 43.96800 33.39300
H  41.11200 43.48700 33.96800
H  43.60100 35.15900 29.15600
H  43.55500 36.43300 30.31200
H  44.90100 36.28500 29.23100
H  43.96300 33.89100 25.70300
H  43.42500 34.26500 27.20100
H  45.08900 34.82600 26.80300
H  41.03500 39.27300 22.71100
H  41.58100 42.24600 22.49900
H  42.77800 40.59100 21.05300
H  42.92600 38.92300 21.75400
H  43.86300 40.38900 22.42900
H  39.58600 40.66800 21.51100
H  39.44800 42.43000 21.89300
H  37.87300 40.26300 22.80800
H  37.75400 42.02100 23.07300
H  38.64300 40.92800 24.23300
H  39.46500 46.99600 25.96900
H  39.72600 45.67200 24.58800
H  41.04900 46.41400 25.34600
H  39.85700 44.72900 31.08900
H  43.02800 46.91400 33.19400
H  41.48700 47.25400 33.87900
H  41.88400 47.81300 32.19100

