158

Mg 48.82100 45.52400 43.67800
C  45.54200 45.62800 42.38300
C  48.95800 42.29000 42.84200
C  52.02400 45.80000 43.91200
C  48.47700 49.05600 44.19200
N  47.34400 44.21800 42.74500
C  46.15800 44.45500 42.23800
C  45.61400 43.22700 41.45400
C  46.63100 42.09900 41.83500
C  47.72300 42.88300 42.59100
C  46.11500 40.91200 42.82300
C  45.62700 43.50000 39.87400
C  44.37100 43.11900 39.11300
H  44.36000 41.89400 38.14700
N  50.30700 44.18400 43.51200
C  50.22000 42.84400 43.19300
C  51.51000 42.22800 43.19800
C  52.43400 43.23700 43.55000
C  51.62500 44.51900 43.63500
C  51.64300 40.70300 42.86700
C  53.88300 42.98900 43.82900
O  54.26500 41.84000 43.78700
C  54.90400 44.08700 44.16800
N  50.04100 47.23300 44.11800
C  51.36300 47.06100 44.13500
C  52.11200 48.40000 44.35900
C  50.98200 49.47800 44.54700
C  49.75100 48.53200 44.26400
C  53.14400 48.35600 45.50500
C  51.09700 50.61300 43.49900
C  50.80600 52.10500 43.92000
N  47.33500 47.09600 43.38800
C  47.27900 48.38700 43.69600
C  45.99700 48.95300 43.53900
C  45.25300 47.90000 42.96100
C  46.16600 46.80400 42.93400
C  45.53300 50.43700 43.90400
C  43.99400 47.52000 42.36400
O  43.01600 48.21500 42.18100
C  44.10100 45.97700 42.01400
C  43.01500 45.28100 42.72200
O  42.49700 44.30100 42.22400
O  42.55900 45.86600 43.82900
C  41.53900 45.07600 44.56200
H  48.93200 41.25100 42.50600
H  53.11400 45.86400 43.88700
H  48.27100 50.05100 44.59100
H  44.67000 42.79300 41.78200
H  47.01000 41.52800 40.98700
H  46.30900 39.99900 42.26200
H  45.05400 41.10800 42.97500
H  46.48900 40.86400 43.84600
H  46.32900 42.82200 39.38800
H  45.81700 44.54400 39.62500
H  44.11700 43.97400 38.48500
H  43.56800 42.98200 39.83600
H  52.16100 40.65100 41.90900
H  50.75900 40.08700 42.70400
H  52.33000 40.19300 43.54200
H  55.85900 43.67900 44.49800
H  54.42100 44.59100 45.00600
H  55.00600 44.69200 43.26700
H  52.69200 48.75400 43.50700
H  50.99400 49.79100 45.59100
H  54.11600 48.54200 45.04700
H  53.15700 47.35100 45.92600
H  52.92700 49.04900 46.31800
H  50.64300 50.47800 42.51700
H  52.16200 50.65900 43.27400
H  50.27700 52.05000 44.87100
H  50.13000 52.67700 43.28500
H  51.72400 52.69200 43.90000
H  44.61100 50.70000 43.38600
H  46.27500 51.11100 43.47500
H  45.33500 50.61900 44.96100
H  43.95100 45.83000 40.94500
H  40.58600 44.86800 44.07500
H  41.19000 45.80300 45.29500
H  41.89500 44.25500 45.18500
Mg 9.55400 48.04100 26.74500
C  7.61800 47.92300 29.59800
C  12.17000 49.49500 28.38200
C  11.32500 47.67600 23.88500
C  6.61800 47.20800 25.02800
N  9.72200 48.86800 28.71600
C  8.89000 48.47400 29.75900
C  9.63000 48.68900 31.08800
C  10.89600 49.48400 30.63300
C  10.97600 49.28200 29.13700
C  10.90300 50.93500 31.11800
C  9.93900 47.54600 32.11900
C  9.60400 47.86000 33.58900
H  9.61900 46.63200 34.54200
N  11.51300 48.54900 26.13500
C  12.40300 49.10200 27.01500
C  13.71400 49.13700 26.37000
C  13.45600 48.54900 25.07200
C  12.05800 48.23900 24.95800
C  14.95900 49.73800 26.98400
C  14.43300 48.31100 23.94500
O  14.08500 47.79700 22.87300
C  15.93400 48.53900 24.18500
N  9.02400 47.59600 24.76400
C  9.88800 47.48300 23.79200
C  9.34900 46.77900 22.62400
C  7.83300 46.87400 22.86200
C  7.78300 47.30400 24.34100
C  9.84800 47.30500 21.27000
C  7.06200 45.53600 22.58900
C  5.82600 45.82700 21.68700
N  7.46100 47.65900 27.15300
C  6.45500 47.26900 26.39000
C  5.26400 47.00800 27.13400
C  5.64200 47.32600 28.53000
C  7.01500 47.59100 28.39800
C  3.89100 46.63800 26.58900
C  5.21400 47.49700 29.86500
O  4.13200 47.31600 30.42200
C  6.55500 47.67900 30.68400
C  6.88600 46.37100 31.32000
O  7.47500 45.48400 30.80000
O  6.30400 46.29200 32.49800
C  6.30400 45.04300 33.24300
H  12.95000 50.03200 28.92600
H  11.83900 47.32100 22.99000
H  5.76200 46.97500 24.39200
H  8.93700 49.30400 31.66300
H  11.83600 49.03500 30.95200
H  10.83300 51.49100 30.18300
H  11.84100 51.10700 31.64600
H  10.03500 51.14900 31.74100
H  11.02800 47.53400 32.15000
H  9.72800 46.51800 31.82400
H  8.70300 48.43200 33.81200
H  10.54400 48.29900 33.92400
H  15.64400 48.93000 27.24300
H  14.70300 50.35800 27.84300
H  15.41700 50.37900 26.23000
H  16.18800 48.15100 25.17200
H  16.17500 49.60100 24.15700
H  16.52300 48.08400 23.38900
H  9.60600 45.73900 22.82900
H  7.41200 47.64200 22.21300
H  10.23300 48.30800 21.45600
H  9.05000 47.28300 20.52700
H  10.63900 46.66300 20.88300
H  6.77400 44.99100 23.48700
H  7.73300 44.91700 21.99300
H  5.74600 45.17100 20.82100
H  5.75900 46.84700 21.30800
H  4.89200 45.60500 22.20300
H  3.81500 46.36400 25.53600
H  3.26300 47.51900 26.72400
H  3.51700 45.79500 27.17000
H  6.42700 48.49700 31.39400
H  5.84000 45.03300 34.23000
H  7.35700 44.79200 33.36800
H  5.84700 44.24700 32.65500

