158

Mg 23.87600 -4.72700 45.14200
C  26.02000 -2.50100 43.60500
C  21.51300 -4.10600 42.83000
C  22.15800 -7.51100 46.21200
C  26.41900 -5.68000 47.35300
N  23.69100 -3.38300 43.44000
C  24.68800 -2.44300 43.08300
C  24.21400 -1.48900 41.92700
C  22.65100 -1.90200 41.86500
C  22.57800 -3.19900 42.74100
C  21.76000 -0.85900 42.57700
C  25.00900 -1.75000 40.65000
C  25.63000 -0.57900 39.88800
H  25.53200 -0.66700 38.42000
N  22.01100 -5.60700 44.64500
C  21.20900 -5.21400 43.63400
C  20.04600 -6.10500 43.57600
C  20.19900 -7.10800 44.58300
C  21.51500 -6.81800 45.21200
C  18.98200 -6.02000 42.53000
C  19.27900 -8.26600 44.75700
O  18.26100 -8.31600 44.03300
C  19.32900 -9.35800 45.83700
N  24.26800 -6.43200 46.52500
C  23.37200 -7.41900 46.81100
C  23.86000 -8.40700 47.91000
C  25.27600 -7.79100 48.34900
C  25.31200 -6.56300 47.37600
C  22.92800 -8.87700 49.08400
C  26.46400 -8.74600 48.12900
C  27.49600 -8.90500 49.22900
N  25.83300 -4.31300 45.44100
C  26.75900 -4.70300 46.39000
C  28.06600 -4.06100 46.10500
C  27.77000 -3.18800 45.02100
C  26.42000 -3.37600 44.66800
C  29.27500 -4.24900 46.91200
C  28.37900 -2.20100 44.15800
O  29.51500 -1.75400 44.26900
C  27.25600 -1.67500 43.18200
C  27.17200 -0.26000 43.39600
O  26.42300 0.41100 44.08300
O  28.16200 0.32100 42.64900
C  28.21500 1.82300 42.77400
H  20.80200 -3.90900 42.02400
H  21.52700 -8.30600 46.61500
H  27.23800 -5.98900 48.00500
H  24.25000 -0.43500 42.20400
H  22.21700 -2.08300 40.88200
H  20.84400 -1.33800 42.92200
H  21.32900 -0.10500 41.91700
H  22.18700 -0.33200 43.43000
H  24.33700 -2.08500 39.86000
H  25.81900 -2.47800 40.69000
H  26.70100 -0.53800 40.08800
H  25.13800 0.31800 40.26400
H  17.98200 -6.08700 42.95800
H  19.13800 -6.96600 42.01100
H  19.09500 -5.19100 41.83100
H  19.26000 -8.83300 46.79000
H  20.21400 -9.98700 45.74100
H  18.41400 -9.95100 45.81300
H  24.10600 -9.28500 47.31200
H  25.34000 -7.48000 49.39200
H  21.97100 -8.41200 49.32200
H  23.47800 -8.82700 50.02400
H  22.67500 -9.91700 48.87900
H  26.95700 -8.40600 47.21700
H  26.12800 -9.76000 47.91700
H  27.40600 -9.94300 49.54700
H  27.33500 -8.15400 50.00300
H  28.49000 -8.67900 48.84400
H  29.81900 -5.13400 46.58100
H  29.02200 -4.53500 47.93300
H  29.88200 -3.34500 46.86900
H  27.59500 -1.88400 42.16700
H  27.93400 2.20000 43.75800
H  27.54600 2.25900 42.03300
H  29.23700 2.19200 42.69300
Mg 25.86700 0.98500 29.15900
C  27.88700 0.84800 32.11700
C  23.11200 1.41400 31.23900
C  24.07400 1.39900 26.40100
C  28.70500 0.17800 27.22200
N  25.54100 0.98100 31.38900
C  26.50000 1.05900 32.41400
C  25.91200 1.34500 33.84300
C  24.38800 1.37200 33.56500
C  24.32900 1.25200 31.94900
C  23.58100 0.25700 34.30900
C  26.42900 2.61400 34.58600
C  27.02000 2.41700 35.95900
H  26.78100 3.50500 37.07700
N  23.86500 1.35700 28.87300
C  22.85400 1.43600 29.80800
C  21.60000 1.65400 29.16500
C  21.82500 1.59300 27.72100
C  23.30300 1.46700 27.63800
C  20.27500 1.83200 29.89300
C  20.89900 1.65800 26.54500
O  21.25400 1.61900 25.39200
C  19.54200 2.08400 26.86900
N  26.31400 0.73900 27.12900
C  25.46800 1.03200 26.15700
C  26.04000 0.85800 24.74100
C  27.54700 0.51300 25.06500
C  27.54500 0.51100 26.53800
C  25.30100 -0.01000 23.84800
C  28.65500 1.41400 24.48300
C  29.76100 0.64400 23.79300
N  27.86900 0.55500 29.53600
C  28.87800 0.36700 28.64500
C  30.08100 0.10000 29.35400
C  29.73800 0.35200 30.71900
C  28.38600 0.66500 30.79400
C  31.38600 -0.24500 28.75900
C  30.28400 0.48100 32.09400
O  31.44700 0.30900 32.45300
C  29.05900 0.63500 33.08900
C  28.88800 -0.57300 33.94800
O  28.89400 -1.73000 33.53800
O  28.80000 -0.23400 35.28700
C  28.79100 -1.43100 36.21700
H  22.25700 1.57400 31.90000
H  23.59700 1.72600 25.47500
H  29.47200 -0.30300 26.61100
H  26.19000 0.46100 34.41800
H  23.87900 2.29600 33.84000
H  22.69800 0.82800 34.59600
H  24.14700 -0.12900 35.15700
H  23.27700 -0.59300 33.69800
H  25.73000 3.45100 34.61700
H  27.21400 3.02300 33.94900
H  28.10100 2.52700 35.87800
H  26.80500 1.40800 36.31200
H  20.44900 1.93700 30.96300
H  19.66700 0.94800 29.69900
H  19.58900 2.59600 29.52700
H  18.92300 1.71600 26.05100
H  19.68000 3.16500 26.91000
H  19.16300 1.72900 27.82800
H  26.13200 1.87100 24.34900
H  27.74700 -0.54500 24.89500
H  24.28300 -0.13200 24.21800
H  25.87700 -0.93400 23.80100
H  25.31600 0.49400 22.88200
H  29.01700 2.04600 25.29300
H  28.31900 2.09900 23.70500
H  30.49000 0.27800 24.51600
H  30.22300 1.27400 23.03300
H  29.40100 -0.23700 23.26100
H  32.18500 -0.30500 29.49800
H  31.59600 0.49500 27.98600
H  31.45100 -1.19000 28.21900
H  29.35800 1.54800 33.60500
H  28.68300 -2.40200 35.73400
H  28.03800 -1.17300 36.96200
H  29.66800 -1.34000 36.85800

