158

Mg 16.59700 -1.35400 27.70800
C  15.90400 0.58400 30.58800
C  19.08900 -2.95800 29.43900
C  17.70900 -2.79600 24.75200
C  14.65000 0.89300 25.82100
N  17.40700 -1.28700 29.91700
C  16.95200 -0.41400 30.89500
C  17.69100 -0.77600 32.21400
C  18.83000 -1.86400 31.72800
C  18.39000 -2.10300 30.30000
C  20.26300 -1.34100 31.93400
C  16.78000 -1.17100 33.49900
C  16.82000 -0.23700 34.69800
H  18.15900 -0.14300 35.37400
N  17.99700 -2.88200 27.24700
C  18.87000 -3.38300 28.12400
C  19.59800 -4.54600 27.47400
C  19.20200 -4.52100 26.08500
C  18.25800 -3.37200 25.97100
C  20.39400 -5.57400 28.15900
C  19.46800 -5.47700 24.93900
O  18.93600 -5.40600 23.84700
C  20.34400 -6.68500 25.18700
N  16.29700 -0.93300 25.63600
C  16.83000 -1.68900 24.65900
C  16.21300 -1.36300 23.32300
C  15.01600 -0.42600 23.72000
C  15.26600 -0.15400 25.19100
C  17.29600 -0.71900 22.36500
C  13.57100 -0.98600 23.42700
C  12.75600 -0.34500 22.30700
N  15.45800 0.38400 28.05500
C  14.66700 1.12700 27.15800
C  13.93000 2.07200 27.94900
C  14.32700 1.84100 29.24800
C  15.27400 0.85600 29.28400
C  12.82800 3.07900 27.52200
C  14.07500 2.29200 30.56700
O  13.26300 3.08300 30.98800
C  15.10300 1.55100 31.58300
C  15.99400 2.60600 32.19900
O  17.07300 2.95100 31.74000
O  15.39600 3.07300 33.32500
C  16.15400 4.01000 34.17800
H  19.93500 -3.45200 29.92100
H  17.95500 -3.33800 23.83600
H  13.98100 1.55600 25.26900
H  18.14500 0.16100 32.53800
H  18.79500 -2.82300 32.24500
H  20.21800 -0.41100 32.50000
H  20.55900 -1.09500 30.91400
H  20.96100 -2.10900 32.27000
H  17.09100 -2.18700 33.74200
H  15.72000 -1.06600 33.26400
H  15.98100 -0.50500 35.34200
H  16.63600 0.77700 34.34300
H  21.37800 -5.68800 27.70400
H  20.02500 -6.57200 27.92400
H  20.42200 -5.60100 29.24800
H  20.44600 -7.37500 24.34900
H  19.86200 -7.23800 25.99300
H  21.36700 -6.47600 25.49800
H  15.91600 -2.30300 22.85800
H  15.06300 0.46400 23.09200
H  18.27900 -0.94100 22.78100
H  17.17800 0.35800 22.47700
H  17.23200 -1.15600 21.36800
H  12.96000 -0.93500 24.32800
H  13.50900 -2.05900 23.24500
H  11.97500 -0.96600 21.86800
H  13.49300 -0.05600 21.55800
H  12.37600 0.61700 22.65100
H  13.03800 3.59900 26.58800
H  12.61200 3.76400 28.34200
H  11.89900 2.53400 27.35500
H  14.54000 1.05600 32.37400
H  15.70900 3.91700 35.16900
H  16.08600 5.03700 33.82100
H  17.21300 3.78000 34.29300
Mg 0.51000 42.38200 26.88400
C  2.08100 42.41500 29.97400
C  -2.34800 41.23600 28.25500
C  -0.69200 41.72200 23.78600
C  3.64900 43.20500 25.37300
N  -0.02800 41.99000 28.83600
C  0.72700 42.15700 29.98800
C  -0.18100 41.96400 31.20100
C  -1.55500 41.35200 30.71400
C  -1.30400 41.59100 29.14100
C  -1.79000 39.90500 31.18300
C  -0.39400 43.25500 32.03100
C  -0.01200 43.11500 33.56800
H  -0.31200 41.84400 34.39900
N  -1.24600 41.60400 26.11400
C  -2.39600 41.23900 26.84700
C  -3.48500 40.82200 25.94900
C  -2.96000 40.92300 24.65100
C  -1.54500 41.45000 24.79300
C  -4.90300 40.37400 26.39900
C  -3.70500 40.73300 23.35400
O  -3.21500 41.04300 22.27300
C  -5.10400 40.22900 23.23800
N  1.31500 42.41900 24.87100
C  0.64700 42.14300 23.78700
C  1.43500 42.46400 22.53200
C  2.73500 43.12600 23.02000
C  2.52600 43.02700 24.57500
C  1.65500 41.25500 21.61200
C  2.95800 44.60300 22.48600
C  3.78200 44.73800 21.13800
N  2.42600 42.81000 27.51000
C  3.61000 43.04400 26.78800
C  4.75300 43.20000 27.73600
C  4.13100 42.99900 29.04400
C  2.80300 42.69600 28.82400
C  6.15900 43.51800 27.41100
C  4.36600 42.85500 30.51700
O  5.41200 42.93800 31.17700
C  3.02100 42.61500 31.23800
C  3.06800 41.34400 32.01000
O  2.92000 40.24900 31.51600
O  3.54000 41.55700 33.30700
C  3.74500 40.36600 34.23800
H  -3.27600 40.96600 28.76400
H  -1.11700 41.53400 22.79800
H  4.59100 43.62100 25.01100
H  0.42400 41.30600 31.82600
H  -2.41000 41.90700 31.09800
H  -2.77300 39.71100 31.61400
H  -0.95100 39.51700 31.76100
H  -1.93400 39.33100 30.26800
H  -1.37900 43.70800 31.91900
H  0.30800 43.95500 31.57700
H  -0.63200 43.87500 34.04500
H  1.04800 43.30700 33.73400
H  -5.73300 41.04500 26.17700
H  -4.81300 40.35900 27.48500
H  -5.05400 39.35000 26.05600
H  -5.26900 39.25700 23.70300
H  -5.30100 40.08300 22.17600
H  -5.92500 40.93000 23.38900
H  0.87700 43.27900 22.07200
H  3.57800 42.50700 22.71300
H  1.18700 41.51700 20.66400
H  1.06700 40.43200 22.01900
H  2.70900 40.98400 21.53600
H  3.41400 45.17300 23.29600
H  1.98100 45.06100 22.33600
H  3.23300 45.29600 20.37900
H  4.08600 43.78800 20.69900
H  4.68100 45.33200 21.30400
H  6.39200 43.23300 26.38400
H  6.82600 42.97600 28.08100
H  6.31400 44.57800 27.61000
H  2.82700 43.47900 31.87300
H  4.72000 40.38000 34.72400
H  3.62100 39.34100 33.88700
H  2.96300 40.54800 34.97500

