158

Mg 48.64600 14.95900 28.82800
C  46.56500 15.20700 31.69400
C  51.07700 16.72400 30.37800
C  50.20500 14.93400 25.98900
C  45.75200 13.51800 27.18600
N  48.69200 15.97000 30.72700
C  47.79300 15.87800 31.81400
C  48.43200 16.47600 33.09200
C  49.75900 17.14800 32.58400
C  49.89400 16.61000 31.14600
C  49.67700 18.71200 32.53900
C  48.69900 15.55700 34.24100
C  48.08500 15.89900 35.58600
H  48.91600 15.48300 36.79900
N  50.49600 15.67600 28.26300
C  51.34200 16.36700 29.03800
C  52.53700 16.64300 28.29100
C  52.31800 16.17800 26.97600
C  50.96600 15.56800 26.99300
C  53.76400 17.37500 28.95600
C  53.14700 16.23600 25.67700
O  52.81100 15.65500 24.62200
C  54.49500 16.90200 25.79600
N  47.95200 14.47900 26.78200
C  48.91000 14.53100 25.77100
C  48.31400 13.88900 24.53400
C  46.88800 13.34500 24.93300
C  46.81300 13.72900 26.39100
C  48.29100 14.85600 23.25500
C  46.71100 11.83900 24.78600
C  47.83400 10.81300 25.24500
N  46.64000 14.28100 29.38000
C  45.62600 13.74700 28.56400
C  44.47500 13.50000 29.39000
C  44.77900 13.98900 30.65500
C  46.11800 14.46200 30.57300
C  43.22500 12.80800 29.03900
C  44.24500 14.24800 31.93800
O  43.12400 14.05700 32.44500
C  45.46200 15.01000 32.69300
C  44.86300 16.22000 33.31000
O  44.41500 17.18100 32.66400
O  44.72200 16.10300 34.69200
C  44.04400 17.09500 35.53100
H  51.77700 17.18600 31.07700
H  50.75600 14.54000 25.13200
H  44.80800 13.15100 26.77600
H  47.79100 17.27500 33.46500
H  50.63200 17.00300 33.22100
H  50.54100 19.20800 32.98100
H  48.76600 19.09300 33.00200
H  49.61100 19.07100 31.51200
H  49.76700 15.54600 34.45400
H  48.45100 14.56500 33.86200
H  47.06300 15.52100 35.60300
H  47.97900 16.98300 35.53900
H  53.37500 17.95300 29.79400
H  54.37100 18.05300 28.35600
H  54.41700 16.64200 29.42900
H  55.16800 16.23200 26.33000
H  54.52600 17.90600 26.21800
H  54.95900 16.88100 24.81000
H  49.09900 13.17400 24.28900
H  46.13700 13.96700 24.44500
H  48.87600 14.34400 22.49000
H  48.65300 15.87100 23.41900
H  47.28800 14.87700 22.82900
H  46.46300 11.47700 23.78800
H  45.81700 11.49700 25.30600
H  47.53600 9.78500 25.03400
H  47.93100 10.94400 26.32200
H  48.74700 11.07300 24.71000
H  42.90300 12.76400 27.99900
H  42.38800 13.11500 29.66700
H  43.37800 11.74200 29.20300
H  45.81800 14.30700 33.44700
H  44.70300 17.24300 36.38700
H  43.01300 16.86700 35.80000
H  44.01000 18.04100 34.99200
Mg 41.97500 40.81900 26.63200
C  41.61500 43.56000 28.88100
C  42.86900 38.87200 29.39100
C  43.07500 38.46800 24.50600
C  41.67000 43.11600 24.08200
N  42.01500 41.15200 28.91900
C  41.72600 42.30800 29.54700
C  41.84800 42.06400 31.08000
C  42.70000 40.68000 31.18200
C  42.51200 40.15000 29.81400
C  44.15000 40.69400 31.70600
C  40.39200 41.96000 31.70600
C  40.15700 43.02500 32.82800
H  39.69700 42.49500 34.21800
N  42.67900 38.85200 26.90200
C  42.90900 38.19800 28.13100
C  43.42500 36.91000 27.81800
C  43.56400 36.78300 26.41900
C  43.17600 38.09500 25.87500
C  43.76500 35.88500 28.91500
C  44.13100 35.57500 25.55500
O  44.35600 35.86900 24.38000
C  44.43100 34.28100 26.04400
N  42.51500 40.88700 24.53900
C  42.72200 39.70700 23.89400
C  42.51900 39.95400 22.40900
C  42.02900 41.45500 22.24500
C  42.01100 41.83800 23.71800
C  43.87800 39.61600 21.62200
C  40.65100 41.51500 21.52400
C  39.39200 41.37000 22.47500
N  41.67200 42.90300 26.45300
C  41.56400 43.67600 25.35900
C  41.26300 45.03100 25.66100
C  41.28600 45.01600 27.05900
C  41.54400 43.74200 27.50400
C  40.93100 46.10600 24.67100
C  41.04500 45.87700 28.21100
O  40.71700 47.06100 28.28500
C  41.22700 44.94600 29.46400
C  42.27700 45.56400 30.31400
O  43.48400 45.58700 30.08800
O  41.68300 46.16200 31.38800
C  42.58800 46.77700 32.33100
H  43.38200 38.24300 30.12200
H  43.11700 37.71900 23.71300
H  41.33000 43.78900 23.29200
H  42.38300 42.89700 31.53500
H  42.13100 40.03700 31.85400
H  44.80500 39.99700 31.18400
H  44.09800 40.65900 32.79400
H  44.56500 41.67300 31.46300
H  40.19000 40.99900 32.18000
H  39.59200 41.96200 30.96600
H  39.35700 43.66500 32.45800
H  41.04900 43.63500 32.97000
H  43.16800 34.99700 28.70900
H  43.48200 36.33200 29.86800
H  44.81500 35.62100 29.03900
H  45.20700 33.88700 25.38900
H  43.53900 33.79000 25.65600
H  44.61200 34.24100 27.11900
H  41.69600 39.27200 22.19300
H  42.74800 42.09100 21.73000
H  43.84100 39.86800 20.56300
H  44.06000 38.54100 21.64000
H  44.67900 40.19900 22.07700
H  40.62900 40.74100 20.75800
H  40.60500 42.46100 20.98400
H  38.64800 40.71100 22.02700
H  38.94700 42.35500 22.61000
H  39.62700 40.98900 23.46900
H  41.23400 45.78000 23.67600
H  41.51500 46.97100 24.98300
H  39.86800 46.31600 24.78600
H  40.28800 44.77600 29.99200
H  42.00200 47.17700 33.15800
H  43.04200 47.59700 31.77500
H  43.36100 46.07500 32.64300

