158

Mg 54.44200 24.07600 44.50300
C  51.88100 26.26900 43.98700
C  52.53400 21.52600 43.32700
C  57.25000 21.96100 44.42100
C  56.57000 26.82100 45.46900
N  52.56700 23.94600 43.72700
C  51.64000 24.93100 43.51800
C  50.35500 24.49700 42.84900
C  50.45100 22.96500 43.11900
C  51.95200 22.77800 43.44600
C  49.53500 22.39500 44.24800
C  50.18200 24.81200 41.31900
C  48.68500 24.79600 40.76400
H  48.51500 24.15500 39.41600
N  54.82700 22.08800 43.90100
C  53.89900 21.19500 43.49100
C  54.48700 19.86500 43.33000
C  55.85100 20.06000 43.45300
C  56.06200 21.41100 43.88600
C  53.62400 18.58100 43.01700
C  56.91100 19.02300 43.29700
O  56.59200 17.85300 43.15200
C  58.37700 19.25800 43.35100
N  56.63000 24.39100 44.74600
C  57.50500 23.32100 44.83100
C  58.88600 23.85100 45.38800
C  58.66700 25.33800 45.66500
C  57.23200 25.59200 45.16900
C  59.38200 23.01500 46.60600
C  59.67900 26.40500 45.05100
C  60.46300 27.24700 46.07900
N  54.25300 26.14700 44.71000
C  55.17700 27.09600 45.22500
C  54.40900 28.29400 45.44300
C  53.12300 28.09900 44.97900
C  53.09600 26.75300 44.53600
C  54.99700 29.52000 46.14900
C  51.78600 28.67200 44.75200
O  51.29300 29.81100 44.95200
C  50.96500 27.50300 44.02600
C  50.66800 28.18400 42.72600
O  51.53800 28.59200 41.96400
O  49.35200 27.93100 42.36500
C  48.90900 28.54100 41.16900
H  51.79900 20.76000 43.07100
H  58.07900 21.27700 44.61400
H  57.18500 27.62300 45.88300
H  49.46900 24.71100 43.44700
H  50.30700 22.40100 42.19800
H  50.04200 22.34600 45.21200
H  49.21100 21.38800 43.98400
H  48.62100 22.99000 44.26700
H  50.65900 23.98900 40.78700
H  50.73200 25.71800 41.06700
H  48.31700 25.80500 40.57500
H  47.95000 24.34400 41.42900
H  53.71800 18.32100 41.96200
H  52.55500 18.71300 43.18400
H  53.89900 17.70200 43.60100
H  58.50200 20.06700 42.63200
H  58.85100 18.31700 43.07200
H  58.70100 19.52600 44.35700
H  59.52300 23.73300 44.51200
H  58.70300 25.47300 46.74600
H  58.57800 22.35000 46.92200
H  59.64600 23.65400 47.44900
H  60.28100 22.48300 46.29400
H  59.19400 27.10300 44.36900
H  60.52600 25.84500 44.65300
H  60.18500 26.94900 47.09000
H  60.31200 28.30100 45.84600
H  61.54600 27.30500 45.96700
H  54.41600 29.80400 47.02600
H  55.15500 30.39400 45.51700
H  55.98200 29.26500 46.54200
H  50.02500 27.31100 44.54200
H  48.79300 29.59900 41.40700
H  47.90000 28.17800 40.97200
H  49.57100 28.29200 40.34000
Mg -11.56300 17.22000 42.10300
C  -8.44900 15.59100 42.15100
C  -10.06600 19.95500 40.89700
C  -14.64500 18.54200 41.57900
C  -13.06500 14.11800 42.71200
N  -9.47800 17.60300 41.56400
C  -8.36300 16.92500 41.77200
C  -7.12100 17.65300 41.12700
C  -7.66100 19.05700 41.08400
C  -9.18700 18.87100 41.16400
C  -7.05700 19.95200 42.12900
C  -6.75300 17.10300 39.72000
C  -5.18800 16.92300 39.57600
H  -4.84600 15.63500 38.79100
N  -12.25700 19.04000 41.42400
C  -11.47000 20.01600 40.97500
C  -12.25100 21.14900 40.45000
C  -13.61200 20.79500 40.74800
C  -13.58700 19.42300 41.32000
C  -11.62000 22.42700 39.87200
C  -14.83700 21.70100 40.65100
O  -14.69500 22.90600 40.34400
C  -16.33900 21.25000 41.03500
N  -13.59400 16.40900 41.86700
C  -14.64200 17.21800 41.88300
C  -15.97900 16.46900 42.25000
C  -15.45000 15.04100 42.56400
C  -13.95000 15.21500 42.44900
C  -16.81500 16.98300 43.53100
C  -15.94600 13.71600 41.79300
C  -16.55100 12.59900 42.61600
N  -10.91100 15.23200 42.34800
C  -11.64900 14.07900 42.52900
C  -10.78300 12.96700 42.60700
C  -9.48000 13.53900 42.40900
C  -9.63800 14.89200 42.32200
C  -11.18200 11.60500 43.02600
C  -8.06000 13.24100 42.32700
O  -7.43000 12.20300 42.31000
C  -7.36700 14.58800 42.17200
C  -6.32500 14.68800 43.31900
O  -6.58700 15.00000 44.46500
O  -5.10000 14.74700 42.72700
C  -3.94200 15.23500 43.45000
H  -9.38500 20.75500 40.60000
H  -15.67700 18.87000 41.44000
H  -13.56800 13.22100 43.07800
H  -6.29800 17.62500 41.84100
H  -7.35600 19.39400 40.09300
H  -6.11700 19.49600 42.44000
H  -7.76300 20.00300 42.95700
H  -6.78300 20.90800 41.68200
H  -7.08800 17.70000 38.87200
H  -7.31700 16.17200 39.65400
H  -4.58800 16.91800 40.48600
H  -4.91800 17.82200 39.02100
H  -10.58500 22.25800 39.57100
H  -11.61500 23.18500 40.65500
H  -12.22100 22.79300 39.04000
H  -16.98700 22.12400 40.98000
H  -16.23300 20.86100 42.04700
H  -16.70100 20.40000 40.45700
H  -16.55300 16.44800 41.32400
H  -15.53800 14.89500 43.64100
H  -17.79800 17.26000 43.14900
H  -16.48400 17.94800 43.91600
H  -16.90100 16.32700 44.39700
H  -15.04500 13.36000 41.29300
H  -16.76000 14.04000 41.14400
H  -17.35200 12.02700 42.14700
H  -16.96300 12.91800 43.57300
H  -15.79800 11.82800 42.78000
H  -11.69300 11.48100 43.98000
H  -10.22700 11.08600 43.11200
H  -11.70100 11.07800 42.22500
H  -6.86100 14.50900 41.21000
H  -4.25400 15.44900 44.47200
H  -3.52700 16.12000 42.96900
H  -3.22300 14.42100 43.36100

