158

Mg 30.73800 58.62800 40.42800
C  27.89500 56.75400 39.21200
C  32.80700 56.09300 39.19400
C  33.24200 60.65800 40.75800
C  28.31900 61.28700 40.92800
N  30.31200 56.66900 39.18500
C  29.10900 56.13700 38.92900
C  29.34000 54.75700 38.28900
C  30.86400 54.38800 38.58200
C  31.42600 55.77400 38.99500
C  31.03700 53.25700 39.63600
C  28.91200 54.87300 36.72300
C  28.04900 53.73900 36.19800
H  27.11400 54.07600 35.04900
N  32.74700 58.36600 40.09300
C  33.46200 57.32200 39.57100
C  34.83100 57.59500 39.55400
C  35.06600 58.96700 39.80500
C  33.66800 59.45100 40.24500
C  35.85000 56.55600 39.26300
C  36.36600 59.82900 39.66800
O  37.40600 59.33800 39.25400
C  36.37800 61.18900 40.29800
N  30.77400 60.72200 40.83500
C  32.01500 61.31000 40.91300
C  31.88000 62.83300 41.16200
C  30.32400 62.94200 41.42500
C  29.71700 61.59100 41.02900
C  32.77500 63.42700 42.30500
C  29.67100 64.12800 40.65100
C  28.51200 64.82700 41.30900
N  28.55500 59.00900 40.25000
C  27.75600 60.07500 40.50600
C  26.35800 59.76700 40.19700
C  26.37400 58.46600 39.77200
C  27.73100 58.06200 39.72800
C  25.28100 60.81300 40.24100
C  25.52400 57.38700 39.27100
O  24.29700 57.23900 39.12200
C  26.51200 56.18300 38.90800
C  26.22600 55.03900 39.76100
O  26.60300 55.06000 40.98500
O  25.54500 54.06100 39.09800
C  24.97000 52.93800 39.86400
H  33.53000 55.34400 38.86400
H  33.93200 61.48200 40.95000
H  27.55700 62.00400 41.24000
H  28.61500 54.08800 38.75200
H  31.35700 54.10500 37.65200
H  30.41600 52.39000 39.41300
H  30.93000 53.70000 40.62700
H  32.03100 52.81700 39.55200
H  29.84000 54.90300 36.15100
H  28.41700 55.81500 36.48600
H  27.34300 53.32500 36.91800
H  28.63600 52.88900 35.84900
H  35.52700 56.13700 38.30900
H  35.77500 55.80200 40.04600
H  36.79800 57.07200 39.11000
H  35.97100 61.12600 41.30700
H  35.87300 61.94800 39.70000
H  37.43900 61.43900 40.31200
H  32.23300 63.23500 40.21300
H  30.10600 63.16000 42.47000
H  33.42800 62.59800 42.58000
H  32.16800 63.71200 43.16400
H  33.35500 64.25200 41.89300
H  29.37000 63.77000 39.66600
H  30.42200 64.87200 40.38400
H  27.63300 64.61200 40.70100
H  28.63600 65.90900 41.32600
H  28.41400 64.47100 42.33400
H  24.36200 60.27100 40.01700
H  25.48600 61.61500 39.53200
H  25.33300 61.26900 41.22900
H  26.38600 56.04400 37.83400
H  24.71300 53.28200 40.86600
H  25.71100 52.13900 39.82000
H  23.98700 52.62900 39.50700
Mg -2.24600 33.84800 25.71100
C  -3.91500 32.55500 28.62800
C  -0.56800 36.03700 27.61800
C  -0.98800 34.98700 22.82800
C  -4.42200 31.67200 23.80700
N  -2.19200 34.18800 27.93700
C  -2.96900 33.54200 28.93500
C  -2.63200 34.16100 30.30500
C  -1.57100 35.30800 29.96300
C  -1.45500 35.19100 28.37600
C  -2.05900 36.72400 30.45000
C  -1.98700 33.08400 31.26600
C  -2.64000 32.65700 32.61000
H  -1.87400 32.76900 33.92900
N  -0.92600 35.19300 25.32900
C  -0.30600 36.00600 26.25700
C  0.63900 36.86500 25.50400
C  0.54900 36.52000 24.13500
C  -0.49400 35.53500 24.03600
C  1.54200 37.90500 26.25600
C  1.40600 37.03500 22.93900
O  1.14100 36.84200 21.74700
C  2.58100 37.99400 23.38800
N  -2.80900 33.50700 23.56500
C  -2.05400 34.04400 22.62400
C  -2.55900 33.57600 21.15700
C  -3.58600 32.35900 21.51500
C  -3.68900 32.57300 23.03100
C  -3.01100 34.71200 20.25200
C  -3.09300 30.93800 21.13900
C  -1.82000 30.49200 21.81800
N  -3.77200 32.38700 26.04400
C  -4.55000 31.55800 25.21500
C  -5.35600 30.62300 25.99500
C  -5.16100 31.03500 27.34900
C  -4.17700 32.09300 27.33100
C  -6.24800 29.61600 25.50400
C  -5.62400 30.86500 28.67400
O  -6.46900 30.06500 29.13800
C  -4.78300 31.75300 29.65100
C  -5.54400 32.55500 30.52900
O  -6.03500 33.60300 30.05700
O  -5.60100 32.10500 31.80900
C  -6.22700 33.07500 32.73400
H  -0.14600 36.74300 28.33600
H  -0.60600 35.29700 21.85300
H  -4.98100 30.96600 23.19000
H  -3.53800 34.54500 30.77400
H  -0.54600 35.14200 30.29500
H  -2.06300 37.49100 29.67600
H  -1.37400 37.04600 31.23500
H  -3.04100 36.79200 30.91800
H  -1.00400 33.52400 31.43000
H  -1.64700 32.22300 30.69000
H  -3.00000 31.63100 32.54600
H  -3.50200 33.30700 32.76500
H  1.39100 38.91200 25.86800
H  2.55800 37.51200 26.21500
H  1.47700 37.81900 27.34100
H  2.16400 38.87400 23.87800
H  3.08100 38.47900 22.55000
H  3.26800 37.34800 23.93500
H  -1.72400 33.07800 20.66500
H  -4.54600 32.56000 21.03900
H  -3.02000 35.64400 20.81600
H  -3.94300 34.40000 19.78000
H  -2.24700 34.87400 19.49100
H  -2.96300 30.84300 20.06100
H  -3.90700 30.22800 21.28600
H  -1.10600 30.29600 21.01800
H  -1.97500 29.58300 22.39800
H  -1.43900 31.28800 22.45800
H  -7.05400 30.06600 24.92400
H  -6.76600 29.06600 26.29000
H  -5.77900 28.96200 24.76800
H  -4.18500 31.05800 30.24000
H  -7.23300 33.42500 32.50100
H  -5.53900 33.91800 32.67100
H  -6.37100 32.77800 33.77300

