158

Mg 48.74200 34.61500 26.15600
C  46.59700 33.35400 28.75100
C  49.00600 37.38100 27.98200
C  50.36400 35.95100 23.59600
C  47.74200 31.89800 24.16500
N  48.06300 35.20700 28.15000
C  47.33100 34.49500 29.05100
C  47.57700 35.02700 30.46200
C  47.95200 36.53300 30.15100
C  48.43700 36.37000 28.67200
C  46.64400 37.44400 30.14400
C  48.68400 34.28300 31.32800
C  48.67200 34.51300 32.89400
H  47.49600 35.38800 33.45100
N  49.60800 36.38100 25.84900
C  49.57500 37.41500 26.71600
C  50.29500 38.54500 26.16000
C  50.64400 38.12700 24.84100
C  50.24000 36.76300 24.73700
C  50.51600 39.88900 26.89300
C  51.39500 38.91500 23.75100
O  51.79500 38.44400 22.72700
C  51.27700 40.36700 23.89200
N  49.01500 33.97900 24.14400
C  49.81900 34.68700 23.35100
C  50.11800 33.87400 22.04300
C  49.22900 32.63500 22.21000
C  48.67500 32.81200 23.60800
C  49.89600 34.68900 20.81000
C  49.95200 31.19500 22.16500
C  49.34900 30.16000 21.16700
N  47.47400 32.96700 26.35900
C  47.19900 31.94300 25.46800
C  46.24000 31.04600 26.14600
C  45.96200 31.54700 27.38100
C  46.74500 32.71500 27.45400
C  45.77300 29.79900 25.48600
C  45.27500 31.34500 28.60000
O  44.47300 30.46400 28.85400
C  45.77800 32.48500 29.62300
C  46.48200 31.77200 30.68800
O  47.32300 30.94300 30.47900
O  46.08400 32.17100 31.96300
C  46.66300 31.25500 32.95500
H  49.23200 38.27600 28.56700
H  50.91500 36.45000 22.79600
H  47.42300 31.10600 23.48300
H  46.62700 35.04500 30.99600
H  48.74200 36.93800 30.78300
H  46.04400 37.12800 30.99800
H  46.09700 37.29200 29.21300
H  46.96800 38.48300 30.20300
H  49.65600 34.56100 30.92000
H  48.58300 33.20600 31.19800
H  49.60200 35.05700 33.05500
H  48.72600 33.54900 33.40000
H  51.55900 40.20200 26.94200
H  50.20600 39.88700 27.93800
H  49.91400 40.66100 26.41300
H  51.93400 40.83100 24.62800
H  50.25200 40.66100 24.11600
H  51.57800 40.74300 22.91400
H  51.15400 33.55200 22.15400
H  48.37600 32.63400 21.53200
H  49.79300 34.05600 19.92900
H  50.84000 35.22200 20.70200
H  49.08700 35.42000 20.79900
H  50.08800 30.63600 23.09100
H  50.93400 31.52500 21.82500
H  50.03600 30.17700 20.32100
H  48.37200 30.47700 20.80200
H  49.25400 29.16900 21.61300
H  45.41500 30.21300 24.54300
H  44.84300 29.44800 25.93300
H  46.50900 28.99600 25.44500
H  44.79600 32.87600 29.88900
H  46.58200 31.82100 33.88300
H  47.71600 30.98500 32.87200
H  46.18700 30.27700 33.03000
Mg 6.73400 53.66100 40.55600
C  6.20300 50.19800 40.35700
C  10.03800 53.12100 39.75100
C  7.10500 57.02700 40.04700
C  3.22600 54.03100 40.81800
N  7.89600 51.86400 39.94200
C  7.45600 50.58700 40.01500
C  8.60600 49.63700 39.62000
C  9.86800 50.55300 39.89700
C  9.26400 51.99500 39.92300
C  10.80500 50.15900 41.09100
C  8.67700 49.10700 38.16300
C  8.07900 50.02800 36.97600
H  7.13700 49.43800 35.92800
N  8.42400 54.90500 40.00200
C  9.71600 54.51100 39.79800
C  10.51600 55.67100 39.62800
C  9.63600 56.83100 39.63300
C  8.28700 56.28600 39.89900
C  12.04500 55.60600 39.30000
C  10.09200 58.18900 39.36400
O  11.28100 58.48600 39.11300
C  9.16800 59.44700 39.53400
N  5.29700 55.30500 40.09900
C  5.83100 56.59400 40.27500
C  4.66000 57.57100 40.48700
C  3.40800 56.66200 40.57300
C  4.01000 55.22100 40.53300
C  4.85600 58.48200 41.77000
C  2.44400 56.91900 39.41500
C  1.47100 58.08300 39.63500
N  4.97600 52.42300 40.63500
C  3.66200 52.68500 40.77900
C  2.97000 51.51400 40.92500
C  3.86700 50.48500 40.82000
C  5.08800 51.08200 40.48600
C  1.50400 51.39000 41.19200
C  4.00100 49.06900 40.92000
O  3.18400 48.19400 41.19000
C  5.58300 48.80000 40.65400
C  5.59300 47.75900 39.58300
O  5.24800 47.94300 38.44600
O  5.80100 46.47700 40.10800
C  5.70300 45.43100 39.18500
H  11.10400 52.88700 39.72300
H  7.25800 58.10000 39.91600
H  2.18400 54.27700 41.02800
H  8.53200 48.82200 40.33900
H  10.46500 50.56500 38.98500
H  11.52300 49.36100 40.89900
H  10.08200 49.76500 41.80400
H  11.40300 51.00200 41.43900
H  8.33900 48.07200 38.21500
H  9.73400 49.10800 37.89700
H  8.91600 50.40500 36.38900
H  7.52800 50.89000 37.35200
H  12.17900 56.03100 38.30500
H  12.30200 54.55800 39.14800
H  12.72800 56.01600 40.04300
H  9.71400 60.37200 39.35000
H  8.86000 59.41600 40.57900
H  8.37200 59.41700 38.78900
H  4.60900 58.17200 39.58000
H  2.92000 56.76200 41.54300
H  5.83100 58.96700 41.73800
H  4.70500 57.89400 42.67600
H  4.14400 59.30400 41.69800
H  1.85400 56.00200 39.42800
H  3.03800 57.13800 38.52800
H  0.46600 57.66200 39.66500
H  1.68100 58.76800 38.81400
H  1.47600 58.59100 40.60000
H  1.12800 52.36700 41.49600
H  1.25000 50.73800 42.02800
H  0.98700 51.06200 40.29100
H  5.84300 48.35700 41.61500
H  6.11200 45.71700 38.21600
H  4.67700 45.08100 39.07400
H  6.30700 44.54700 39.39300

