158

Mg 25.56300 1.65000 29.83300
C  27.65800 1.44200 32.52600
C  22.78100 1.99800 32.06500
C  23.47100 1.34400 27.32000
C  28.31200 0.73500 27.68700
N  25.28700 1.62700 32.00400
C  26.28700 1.69000 32.89400
C  25.85500 2.14800 34.33600
C  24.29900 1.84500 34.17700
C  24.06400 1.87400 32.71500
C  23.92700 0.39300 34.74100
C  26.15900 3.65200 34.63100
C  27.31700 3.80800 35.66200
H  27.09300 4.44600 37.01900
N  23.44600 1.78400 29.70800
C  22.50700 1.93200 30.69900
C  21.22100 1.96100 30.08800
C  21.36200 1.62300 28.73000
C  22.78000 1.56300 28.54100
C  19.92600 2.20900 30.80900
C  20.33500 1.50100 27.67900
O  20.53500 1.50700 26.47700
C  18.90700 1.35800 28.05700
N  25.85900 1.13300 27.84000
C  24.82100 1.19500 26.92800
C  25.24000 0.88700 25.48400
C  26.81300 0.84600 25.63200
C  27.01500 0.98700 27.12600
C  24.68400 -0.41900 24.89400
C  27.45800 2.00400 24.87100
C  27.36200 3.42800 25.46200
N  27.52300 1.18100 30.02800
C  28.49200 0.83300 29.06100
C  29.69400 0.44100 29.69100
C  29.48500 0.79900 31.04700
C  28.12400 1.14500 31.18100
C  30.99800 -0.09000 29.04400
C  30.10300 0.83700 32.40500
O  31.22600 0.53500 32.79600
C  28.94800 1.37800 33.35400
C  28.85300 0.63400 34.62700
O  28.06000 -0.24700 34.87400
O  29.76700 1.13400 35.54500
C  29.80000 0.54900 36.88600
H  21.94100 2.13700 32.74800
H  22.86200 1.14600 26.43500
H  29.17600 0.39900 27.11000
H  26.25500 1.45900 35.08000
H  23.76200 2.65900 34.66300
H  23.52900 -0.28700 33.98800
H  23.21200 0.58300 35.54100
H  24.77100 -0.16400 35.14700
H  25.25800 4.21300 34.88000
H  26.53800 4.20700 33.77300
H  28.08700 4.37000 35.13400
H  27.74000 2.86000 35.99500
H  19.38600 3.01500 30.31300
H  20.18600 2.51000 31.82400
H  19.39700 1.25900 30.87900
H  18.74200 0.61500 28.83800
H  18.38000 1.01900 27.16500
H  18.48700 2.26100 28.50000
H  24.90800 1.69300 24.83000
H  27.43700 -0.01100 25.38100
H  24.09300 -0.84200 25.70700
H  25.52000 -1.03300 24.55900
H  23.98700 -0.16400 24.09600
H  26.97600 2.09400 23.89700
H  28.52100 1.77600 24.80400
H  26.98200 4.09700 24.69000
H  28.34300 3.75700 25.80400
H  26.65300 3.37700 26.28900
H  31.21800 0.11000 27.99500
H  31.09700 -1.16400 29.20000
H  31.78200 0.42300 29.60100
H  29.25900 2.37800 33.65600
H  29.50400 -0.49700 36.80500
H  29.08900 1.02400 37.56200
H  30.82500 0.72400 37.21300
Mg 53.65700 24.19900 44.59800
C  51.17900 26.48500 43.87300
C  51.62300 21.61900 43.68200
C  56.41800 22.25700 44.14800
C  55.80000 26.96100 45.08100
N  51.71600 24.07100 43.71000
C  50.81900 25.12700 43.62100
C  49.41000 24.71800 43.15800
C  49.59300 23.19800 43.57100
C  51.08200 22.96900 43.67900
C  48.86100 22.74100 44.86700
C  49.20600 25.08000 41.70000
C  48.23600 24.21200 40.90600
H  48.00700 24.62800 39.44000
N  53.97800 22.21600 43.99600
C  52.98600 21.32400 43.69600
C  53.57600 19.99200 43.60400
C  54.93600 20.17300 43.75700
C  55.12900 21.61000 43.89700
C  52.75100 18.73200 43.39700
C  56.04300 19.05000 43.76800
O  55.74800 17.87400 43.58600
C  57.55800 19.21000 43.98800
N  55.82600 24.60800 44.58500
C  56.70100 23.55900 44.55300
C  58.20500 24.06700 44.87000
C  57.97900 25.58300 45.08900
C  56.44000 25.75300 44.85800
C  58.70800 23.45300 46.17900
C  58.96400 26.44400 44.22900
C  58.82900 26.32100 42.70900
N  53.58300 26.34500 44.69400
C  54.46800 27.29100 44.98900
C  53.80400 28.57700 45.05900
C  52.45500 28.31000 44.64300
C  52.40100 26.95200 44.34900
C  54.46300 29.80400 45.64300
C  51.10300 28.93000 44.58500
O  50.64800 30.04100 44.82500
C  50.27100 27.80000 43.87800
C  50.14500 28.37600 42.46700
O  51.07200 28.62800 41.73300
O  48.82600 28.69500 42.17200
C  48.51900 29.02900 40.74200
H  50.93600 20.77000 43.66000
H  57.28200 21.60200 44.27300
H  56.45800 27.80900 45.28000
H  48.65600 25.28100 43.70800
H  49.28000 22.49600 42.79800
H  48.00900 22.11100 44.61300
H  48.43100 23.62300 45.34100
H  49.56000 22.26500 45.55600
H  50.15800 25.11200 41.17000
H  48.69600 26.04400 41.69900
H  47.29200 24.06000 41.43000
H  48.74400 23.25200 40.81400
H  51.88800 18.94100 42.76400
H  52.42500 18.43900 44.39500
H  53.20200 17.82700 42.99100
H  58.08100 18.25400 43.99400
H  57.69000 19.60900 44.99400
H  58.01600 19.92200 43.30200
H  58.89700 23.99200 44.03100
H  58.12500 25.95000 46.10600
H  57.99700 22.73100 46.58300
H  58.79900 24.21100 46.95600
H  59.72100 23.12600 45.94700
H  59.99300 26.15500 44.44400
H  58.85700 27.46600 44.59400
H  58.49000 27.25000 42.25000
H  58.13600 25.58000 42.31200
H  59.87200 26.21500 42.41100
H  55.53400 29.70700 45.82300
H  53.87500 30.14400 46.49600
H  54.30200 30.64500 44.96900
H  49.25400 27.73400 44.26500
H  49.36400 29.11600 40.05900
H  47.97100 29.95500 40.56700
H  47.86400 28.22500 40.40600

