158

Mg 2.26800 -1.94200 44.71100
C  5.47000 -1.00200 43.69900
C  0.88700 0.46100 42.73300
C  -0.76600 -3.35200 45.10700
C  3.68900 -4.84700 46.19000
N  3.14700 -0.33800 43.43300
C  4.46700 -0.26700 43.03100
C  4.68800 0.97000 42.14900
C  3.21100 1.44900 41.81500
C  2.29000 0.42800 42.69900
C  2.93800 2.93100 41.93800
C  5.54300 0.69700 40.85000
C  6.56100 1.72900 40.44000
H  6.28500 2.27800 38.95400
N  0.29100 -1.41500 44.04800
C  -0.03800 -0.30900 43.37300
C  -1.56000 -0.28300 43.34000
C  -2.04400 -1.39400 44.06900
C  -0.82500 -2.13400 44.47200
C  -2.29200 0.76500 42.49600
C  -3.49400 -1.60900 44.46500
O  -4.37000 -0.88500 44.03300
C  -3.88600 -2.64200 45.52000
N  1.53200 -3.91900 45.46900
C  0.27000 -4.18900 45.62400
C  0.05800 -5.59100 46.23300
C  1.50400 -6.12700 46.52400
C  2.30300 -4.91900 46.02100
C  -0.88800 -5.72100 47.46800
C  1.96400 -7.38800 45.74200
C  2.28900 -8.55100 46.62500
N  4.14100 -2.85200 44.89800
C  4.59400 -3.93200 45.65300
C  6.03600 -3.90900 45.71200
C  6.39200 -2.73300 45.02400
C  5.25900 -2.20500 44.49600
C  6.96300 -4.86300 46.40700
C  7.54300 -1.90300 44.61800
O  8.72400 -1.99300 45.00800
C  6.91100 -0.77700 43.72400
C  7.16500 0.56300 44.48000
O  6.71400 0.98400 45.55900
O  8.02500 1.38500 43.69600
C  8.21700 2.74000 44.14900
H  0.58900 1.26900 42.06300
H  -1.74000 -3.84700 45.12400
H  4.11200 -5.71500 46.70000
H  4.98900 1.80600 42.78000
H  3.18500 1.34500 40.73000
H  3.85500 3.51200 41.84100
H  2.55200 2.93700 42.95800
H  2.17200 3.23200 41.22300
H  4.90300 0.42100 40.01200
H  6.14200 -0.19700 41.02000
H  7.61300 1.44700 40.47600
H  6.51200 2.59200 41.10500
H  -3.10900 0.20600 42.04100
H  -1.69100 1.23600 41.71800
H  -2.90600 1.46000 43.06700
H  -4.86900 -2.40500 45.92700
H  -3.14000 -2.75400 46.30800
H  -3.90400 -3.62000 45.03800
H  -0.40500 -6.10800 45.39300
H  1.58800 -6.18600 47.60900
H  -0.23400 -5.76000 48.34000
H  -1.42300 -6.66400 47.35300
H  -1.48400 -4.80900 47.50400
H  2.82900 -7.14000 45.12700
H  1.18200 -7.66800 45.03600
H  1.54900 -8.62600 47.42200
H  3.27100 -8.37800 47.06700
H  2.26400 -9.49200 46.07600
H  7.85800 -4.78400 45.79000
H  6.60900 -5.88300 46.55100
H  7.16500 -4.39500 47.37100
H  7.42400 -0.81200 42.76200
H  7.58100 3.47400 43.65400
H  9.17000 3.09500 43.75600
H  8.17900 2.79700 45.23600
Mg 35.89300 1.72000 29.83200
C  33.51800 2.72700 32.09600
C  38.14100 1.65000 32.54300
C  38.49600 1.40000 27.65700
C  33.75400 2.35800 27.25200
N  35.82300 2.20900 32.01500
C  34.73200 2.60300 32.71400
C  35.06200 2.78500 34.19700
C  36.62800 2.79700 34.19400
C  36.87700 2.14200 32.81800
C  37.16100 4.26600 34.33700
C  34.57700 1.64900 35.13400
C  34.08600 2.04200 36.56600
H  34.67200 3.25300 37.19300
N  38.01800 1.40600 30.11300
C  38.70800 1.35700 31.27200
C  40.13700 0.98200 30.99200
C  40.24400 0.90100 29.55800
C  38.82900 1.20400 29.04400
C  41.28400 0.85600 31.93200
C  41.40000 0.48300 28.71800
O  41.38100 0.48700 27.47900
C  42.71100 0.05600 29.35000
N  36.11300 1.81800 27.79200
C  37.27300 1.71000 27.11000
C  37.07400 1.89300 25.62000
C  35.52300 2.14900 25.42500
C  35.06300 2.07900 26.93300
C  38.02500 2.98700 24.97700
C  34.73600 1.09900 24.50400
C  33.98600 1.66600 23.25900
N  33.97100 2.26500 29.67700
C  33.14700 2.41300 28.53200
C  31.82000 2.87400 28.96500
C  31.88200 2.95000 30.34400
C  33.22400 2.55700 30.71900
C  30.72800 3.45100 28.17100
C  31.16100 3.33600 31.57900
O  29.99300 3.73400 31.70100
C  32.20800 3.20300 32.73500
C  32.23700 4.56100 33.36500
O  32.70300 5.54300 32.89500
O  31.51000 4.49500 34.52300
C  31.38600 5.63400 35.32600
H  38.76500 1.44100 33.41500
H  39.30100 1.50200 26.92600
H  33.02000 2.52300 26.46100
H  34.64200 3.69600 34.62400
H  37.12500 2.18100 34.94400
H  37.83900 4.44700 33.50300
H  37.65300 4.25700 35.31000
H  36.36000 5.00500 34.30100
H  35.38400 0.93900 35.31800
H  33.80000 1.13700 34.56700
H  34.35900 1.18900 37.18700
H  33.00600 2.11900 36.69000
H  41.67000 -0.15700 32.03900
H  40.86400 1.26400 32.85100
H  42.08600 1.56900 31.74200
H  42.60300 -0.64300 30.18000
H  43.16800 0.98600 29.68800
H  43.41900 -0.26100 28.58400
H  37.29700 0.91900 25.18400
H  35.36900 3.17700 25.09600
H  37.54800 3.56400 24.18500
H  38.85900 2.46500 24.50700
H  38.43000 3.60400 25.77900
H  33.92400 0.63900 25.06700
H  35.38800 0.29500 24.16100
H  32.89900 1.65900 23.34400
H  34.19600 1.16400 22.31400
H  34.21300 2.69100 22.96800
H  30.92800 3.29000 27.11200
H  30.47100 4.50300 28.28700
H  29.86000 2.83700 28.41100
H  31.87000 2.42300 33.41800
H  30.36600 5.83100 35.65400
H  31.88300 6.54300 34.98700
H  31.86500 5.34200 36.26000

