158

Mg 23.97500 -6.62400 46.43900
C  26.06000 -4.16300 44.69500
C  21.48200 -5.65900 44.14100
C  22.41500 -9.46500 46.98700
C  26.82700 -7.58600 48.21700
N  23.77700 -5.08400 44.72700
C  24.79500 -4.25500 44.12500
C  24.18100 -3.41900 42.99700
C  22.67700 -3.45200 43.31900
C  22.55800 -4.80500 44.14300
C  22.06000 -2.27000 44.19100
C  24.64600 -3.88000 41.62900
C  25.34800 -2.83400 40.74400
H  25.11900 -2.86900 39.22900
N  22.08700 -7.46200 45.72000
C  21.19500 -6.87200 44.84200
C  19.98800 -7.65000 44.80500
C  20.21000 -8.81300 45.63600
C  21.59200 -8.63400 46.18100
C  18.88800 -7.29000 43.87800
C  19.24600 -9.95600 45.91700
O  18.10200 -9.86400 45.53700
C  19.63500 -11.21700 46.75200
N  24.63000 -8.34300 47.27800
C  23.73900 -9.40200 47.51300
C  24.32900 -10.49300 48.47400
C  25.67400 -9.76800 48.85000
C  25.73600 -8.41000 48.10200
C  23.39000 -10.86500 49.62100
C  26.96100 -10.69100 48.58000
C  27.88900 -10.88400 49.66000
N  26.00400 -5.90900 46.58300
C  27.04600 -6.38700 47.36400
C  28.21700 -5.57400 47.27500
C  27.84900 -4.65700 46.28600
C  26.50900 -4.89700 45.83000
C  29.57500 -5.62500 48.03700
C  28.25200 -3.46100 45.54900
O  29.34900 -2.88500 45.63500
C  27.16500 -3.14400 44.48700
C  26.80800 -1.72500 44.74500
O  25.90500 -1.23300 45.39400
O  27.71500 -0.98200 44.07400
C  27.33500 0.44300 43.90100
H  20.63400 -5.30000 43.55500
H  21.91700 -10.42500 47.13500
H  27.63200 -7.88500 48.89100
H  24.48600 -2.37700 43.09700
H  22.05500 -3.41000 42.42500
H  21.97100 -2.49600 45.25400
H  21.06700 -1.96700 43.85900
H  22.71000 -1.39700 44.14000
H  23.77500 -4.34300 41.16500
H  25.39100 -4.67100 41.71300
H  26.41600 -2.90100 40.95000
H  25.04500 -1.82700 41.02900
H  18.29200 -8.16300 43.61200
H  19.14800 -6.62700 43.05200
H  18.18600 -6.67700 44.44400
H  18.89300 -12.00800 46.64900
H  19.89100 -10.91500 47.76800
H  20.42400 -11.79100 46.26600
H  24.35200 -11.36700 47.82400
H  25.68900 -9.53800 49.91600
H  22.60300 -10.11100 49.60500
H  23.96500 -10.88400 50.54700
H  22.97900 -11.87000 49.52900
H  27.46500 -10.18500 47.75700
H  26.70300 -11.70700 48.27900
H  28.92500 -10.66900 49.39900
H  27.96000 -11.93100 49.95700
H  27.73000 -10.26400 50.54200
H  29.26400 -5.19300 48.98800
H  30.32200 -5.05900 47.47900
H  29.97400 -6.62300 48.22100
H  27.58800 -3.19100 43.48400
H  27.69100 0.91900 44.81500
H  26.26500 0.63900 43.84000
H  27.79500 0.84200 42.99700
Mg 40.15000 9.41600 30.36100
C  42.11100 10.66300 33.03200
C  37.71200 8.42000 32.67800
C  38.64000 7.67500 27.95400
C  43.06700 9.76400 28.25900
N  40.00500 9.41000 32.68800
C  40.87600 10.11300 33.52500
C  40.25700 10.17500 34.87300
C  38.92200 9.31600 34.77800
C  38.80900 9.15800 33.25900
C  38.96000 7.93000 35.48600
C  40.04300 11.62400 35.38200
C  40.79700 11.94700 36.65900
H  39.96900 12.54000 37.79100
N  38.36200 8.24200 30.29400
C  37.51400 7.94200 31.39500
C  36.47100 7.05000 30.85000
C  36.74300 6.86900 29.46200
C  37.94600 7.63900 29.19100
C  35.30500 6.52100 31.67500
C  35.99700 5.89500 28.46600
O  36.46200 5.63500 27.35000
C  34.70200 5.31100 28.90200
N  40.84000 8.76800 28.41600
C  39.87700 8.24000 27.53500
C  40.33100 8.31100 26.09500
C  41.75200 8.87000 26.27700
C  41.89800 9.20400 27.76000
C  40.18800 7.04100 25.29700
C  42.14300 9.98300 25.27600
C  41.27200 11.26500 25.36600
N  42.14600 10.16600 30.54400
C  43.14100 10.28800 29.55600
C  44.19800 11.10800 30.13400
C  43.84800 11.26500 31.53300
C  42.58600 10.69300 31.67700
C  45.36800 11.75700 29.41500
C  44.27000 11.88800 32.79900
O  45.25900 12.52800 32.95300
C  43.16700 11.44200 33.85400
C  43.85900 10.75900 34.92800
O  44.61300 9.82100 34.88500
O  43.66900 11.50700 36.00600
C  44.29900 11.07000 37.24200
H  36.85000 8.18200 33.30500
H  38.09800 7.24300 27.11100
H  43.77900 10.08200 27.49400
H  40.90100 9.63800 35.56900
H  37.96300 9.76700 35.03300
H  38.17300 7.83300 36.23300
H  39.84600 7.77700 36.10200
H  38.77900 7.27600 34.63300
H  38.97700 11.81300 35.51400
H  40.39300 12.28500 34.59000
H  41.42200 12.82400 36.48800
H  41.37100 11.09700 37.02600
H  35.19600 6.89500 32.69300
H  35.42700 5.43800 31.64500
H  34.35900 6.63500 31.14500
H  33.96100 6.10500 28.99000
H  34.76000 4.78300 29.85400
H  34.43000 4.44800 28.29400
H  39.74900 9.06800 25.56900
H  42.48400 8.09700 26.04400
H  39.56700 6.22700 25.67000
H  41.09500 6.49000 25.04900
H  39.93100 7.37300 24.29100
H  41.91600 9.40500 24.38000
H  43.17100 10.32500 25.39100
H  40.39400 11.23600 26.01000
H  40.94200 11.41000 24.33700
H  41.82200 12.10100 25.79700
H  45.11600 12.66300 28.86200
H  45.85600 11.07100 28.72300
H  46.23500 12.04000 30.01200
H  42.77300 12.38300 34.23600
H  43.57800 11.36400 38.00500
H  45.21600 11.65600 37.31100
H  44.66600 10.05600 37.40000

