158

Mg -3.33400 16.94900 26.52800
C  -3.57700 14.83900 29.32000
C  -3.85200 19.66200 28.63300
C  -3.03000 18.94400 23.92000
C  -3.52400 14.22800 24.52200
N  -3.79000 17.17300 28.72300
C  -3.67300 16.18700 29.73800
C  -3.73700 16.73400 31.10200
C  -3.96300 18.27500 30.90100
C  -3.90900 18.43600 29.32400
C  -5.26100 18.87700 31.49300
C  -2.57500 16.35900 32.16200
C  -2.35900 17.18900 33.39800
H  -1.73100 16.54500 34.59400
N  -3.42000 18.96400 26.31100
C  -3.50200 19.90300 27.31700
C  -3.41400 21.21800 26.72300
C  -2.96900 21.04800 25.39200
C  -3.16200 19.60700 25.13400
C  -3.63000 22.48700 27.54200
C  -2.40400 22.04200 24.43400
O  -2.09700 21.77800 23.26900
C  -2.02000 23.28700 24.84700
N  -3.32900 16.61300 24.54100
C  -3.06300 17.62800 23.65200
C  -3.13000 17.04500 22.22700
C  -2.98000 15.55100 22.41500
C  -3.28100 15.40200 23.89000
C  -4.36400 17.42800 21.39300
C  -1.63800 14.88300 22.00500
C  -0.45900 15.40600 22.92100
N  -3.60300 14.90300 26.75600
C  -3.55300 13.89500 25.89000
C  -3.75100 12.61100 26.55200
C  -3.68300 12.96900 27.86300
C  -3.61800 14.33500 27.98900
C  -3.89500 11.25400 25.87100
C  -3.74100 12.32400 29.11400
O  -3.77900 11.16100 29.38100
C  -3.65200 13.56500 30.17600
C  -2.42000 13.26900 30.97200
O  -1.26600 13.43100 30.64600
O  -2.87300 12.86700 32.21200
C  -1.68900 12.54600 33.03300
H  -3.91300 20.50700 29.32200
H  -2.92200 19.56000 23.02500
H  -3.45200 13.31900 23.92000
H  -4.64200 16.41800 31.62000
H  -3.13300 18.85800 31.30100
H  -5.52600 18.28400 32.36800
H  -6.10000 19.01300 30.81000
H  -5.00700 19.86400 31.88100
H  -1.65900 16.17400 31.60000
H  -2.96500 15.38000 32.43900
H  -3.25300 17.74500 33.68100
H  -1.66900 17.94000 33.01400
H  -4.38300 22.33400 28.31500
H  -3.96600 23.33900 26.95100
H  -2.71200 22.77100 28.05800
H  -1.64600 23.21800 25.86900
H  -2.91200 23.91100 24.89900
H  -1.26100 23.79600 24.25300
H  -2.25200 17.38200 21.67500
H  -3.85000 15.13700 21.90500
H  -4.62700 18.43300 21.72500
H  -5.24100 16.78800 21.49500
H  -4.13100 17.32500 20.33400
H  -1.29300 15.20100 21.02100
H  -1.78200 13.80500 22.09000
H  -0.05500 14.50200 23.37700
H  -0.80200 16.09700 23.69100
H  0.37100 15.81800 22.34600
H  -3.64900 10.47100 26.58800
H  -3.20300 11.27100 25.02900
H  -4.88100 10.93200 25.53700
H  -4.55600 13.55700 30.78400
H  -1.95300 12.80200 34.05800
H  -0.73900 13.04900 32.85200
H  -1.57800 11.46200 33.01300
Mg 17.47100 51.45400 25.82000
C  19.21800 50.06100 28.59700
C  14.76100 52.16600 28.00800
C  15.60100 52.37600 23.24000
C  19.89500 50.12900 23.76700
N  16.98200 51.00500 28.04700
C  17.94700 50.65200 28.94400
C  17.52800 50.98500 30.40200
C  15.99200 51.47400 30.20300
C  15.81700 51.51000 28.64300
C  14.87700 50.57500 30.80000
C  18.41800 52.12800 30.98300
C  18.49300 52.12600 32.51300
H  17.47200 51.31700 33.24300
N  15.51700 52.28200 25.66900
C  14.59300 52.53600 26.67300
C  13.51500 53.33400 26.08700
C  13.72600 53.46000 24.66100
C  14.96600 52.66800 24.45700
C  12.35700 53.78800 26.99500
C  12.87500 54.09300 23.55500
O  13.19900 54.03300 22.35100
C  11.55600 54.74700 23.87900
N  17.64100 51.13500 23.80300
C  16.77700 51.64800 22.93200
C  17.16600 51.31700 21.55700
C  18.73900 50.97900 21.73600
C  18.78300 50.75300 23.21600
C  16.34400 50.15900 20.95600
C  19.70100 52.15500 21.23700
C  19.40400 53.51800 21.82900
N  19.21800 50.35200 26.04100
C  20.11300 49.95700 25.12700
C  21.21300 49.18600 25.75300
C  20.86800 49.28000 27.12400
C  19.70800 50.01600 27.20300
C  22.37000 48.46300 25.10600
C  21.33000 48.88400 28.41400
O  22.30900 48.33600 28.89100
C  20.22400 49.31700 29.40800
C  19.73800 48.14100 30.20700
O  19.13800 47.18000 29.85400
O  20.09800 48.28300 31.46700
C  19.64700 47.41000 32.54100
H  13.97100 52.36400 28.73500
H  15.10100 52.76900 22.35200
H  20.62800 49.86100 23.00400
H  17.62800 50.04400 30.94200
H  15.87600 52.49600 30.56400
H  14.27000 51.22400 31.43000
H  15.33600 49.73800 31.32700
H  14.26400 50.10900 30.02800
H  18.18200 53.11200 30.57900
H  19.45500 51.95400 30.69800
H  18.19500 53.14000 32.78000
H  19.51100 51.97300 32.87000
H  11.60100 54.38400 26.48400
H  12.84100 54.37700 27.77300
H  11.94100 52.89800 27.46700
H  10.79000 54.08700 24.28700
H  11.25200 55.29200 22.98600
H  11.68700 55.65000 24.47600
H  17.05100 52.22600 20.96700
H  18.98000 50.03500 21.24700
H  15.60500 50.62400 20.30300
H  15.80600 49.49000 21.62800
H  16.97200 49.57400 20.28400
H  19.75600 52.05800 20.15300
H  20.62700 51.75600 21.65000
H  20.32200 53.85100 22.31200
H  18.44400 53.55400 22.34400
H  19.40400 54.24800 21.01900
H  21.99400 48.05800 24.16700
H  22.60100 47.59400 25.72300
H  23.18300 49.18900 25.08200
H  20.68100 50.06500 30.05500
H  19.45100 48.06300 33.39200
H  20.37300 46.63300 32.78000
H  18.75300 46.81300 32.36100

