158

Mg -12.41500 37.86900 42.82000
C  -10.24900 35.41500 41.50400
C  -10.32800 40.31200 41.50200
C  -14.80900 40.07700 43.24800
C  -14.60700 35.34800 43.74600
N  -10.60000 37.91000 41.53400
C  -9.83300 36.74500 41.30700
C  -8.56600 37.06000 40.52500
C  -8.45600 38.65000 40.81000
C  -9.87100 39.00100 41.30600
C  -7.34100 39.10500 41.77700
C  -8.69200 36.66100 39.03100
C  -7.58600 35.66500 38.62600
H  -6.61200 36.11000 37.51600
N  -12.61200 39.91600 42.41200
C  -11.59100 40.76900 41.98500
C  -12.04000 42.12100 42.02000
C  -13.40900 42.06900 42.46200
C  -13.69100 40.62900 42.69500
C  -11.17900 43.33600 41.63300
C  -14.31500 43.32900 42.72100
O  -13.89200 44.38000 42.33200
C  -15.76300 43.28700 43.32400
N  -14.50200 37.59400 43.15400
C  -15.20800 38.75900 43.43400
C  -16.48900 38.44800 44.25100
C  -16.28400 36.91500 44.57900
C  -15.09000 36.57000 43.77200
C  -16.83300 39.32700 45.51800
C  -17.51100 35.98300 44.35600
C  -17.78900 34.94500 45.37700
N  -12.42000 35.77600 42.70700
C  -13.38400 34.85600 43.15500
C  -12.79600 33.56900 43.06100
C  -11.55100 33.71300 42.39900
C  -11.38900 35.06300 42.13500
C  -13.42900 32.40900 43.60500
C  -10.38200 33.04100 41.85700
O  -9.99600 31.87200 41.87400
C  -9.53800 34.12400 41.11400
C  -8.10800 34.03000 41.60000
O  -7.24800 33.62900 40.88300
O  -7.87300 34.25400 42.93600
C  -6.52400 34.06900 43.29800
H  -9.62100 41.08200 41.18600
H  -15.52800 40.83600 43.56200
H  -15.11000 34.58100 44.33900
H  -7.73500 36.54400 41.00700
H  -8.14200 39.13700 39.88700
H  -6.94300 38.19800 42.23100
H  -7.71200 39.79200 42.53900
H  -6.57900 39.60800 41.18200
H  -8.60800 37.57400 38.44200
H  -9.73700 36.35900 38.95400
H  -8.07700 34.78400 38.21300
H  -6.96900 35.29000 39.44200
H  -11.31700 43.62800 40.59200
H  -10.14500 43.04500 41.81900
H  -11.46100 44.18000 42.26300
H  -16.33200 42.80200 42.53100
H  -16.24100 44.26500 43.27500
H  -15.90900 42.73900 44.25500
H  -17.37200 38.64100 43.64300
H  -16.04400 36.86600 45.64100
H  -17.47900 40.14600 45.20000
H  -15.96900 39.81900 45.96400
H  -17.35000 38.64500 46.19300
H  -17.43300 35.57500 43.34800
H  -18.37900 36.64100 44.32000
H  -17.06200 34.82700 46.18100
H  -17.85000 34.00600 44.82800
H  -18.77900 35.12000 45.79800
H  -12.85900 31.98800 44.43400
H  -13.47300 31.70200 42.77700
H  -14.45000 32.59500 43.93900
H  -9.60100 33.73800 40.09700
H  -5.92700 34.75700 42.69800
H  -6.17000 33.06300 43.07500
H  -6.34700 34.19000 44.36700
Mg 1.42600 42.53700 26.04500
C  2.62100 42.58500 29.17400
C  -1.36600 40.84500 27.26800
C  0.30600 42.16900 22.86800
C  4.32900 43.92900 24.72900
N  0.59800 41.98000 28.06400
C  1.29000 42.13400 29.17800
C  0.40600 41.86700 30.46300
C  -0.87300 41.28100 29.79000
C  -0.55200 41.33300 28.27000
C  -1.32100 39.85100 30.21900
C  0.21200 43.11600 31.39500
C  0.84700 43.17700 32.80400
H  0.72500 41.93800 33.74100
N  -0.30400 41.61400 25.22300
C  -1.26000 40.92700 25.87700
C  -2.26400 40.47500 25.01400
C  -1.85700 40.87100 23.71300
C  -0.57900 41.68000 23.88300
C  -3.57500 39.63500 25.40000
C  -2.49800 40.70600 22.34500
O  -2.09600 41.13700 21.25500
C  -3.81300 39.89000 22.18800
N  2.21500 42.95800 24.08000
C  1.50400 42.75400 22.98300
C  2.35400 42.95900 21.74200
C  3.39800 43.93200 22.31100
C  3.34400 43.66800 23.80400
C  2.84700 41.52400 21.11800
C  3.46700 45.41400 21.86100
C  2.21400 46.28700 21.88800
N  3.15600 43.00800 26.77300
C  4.22200 43.64200 26.10800
C  5.32000 43.86600 27.10200
C  4.73700 43.43500 28.34800
C  3.44600 42.91000 28.09900
C  6.64000 44.47500 26.97700
C  4.96300 43.30200 29.75100
O  6.00300 43.41400 30.39900
C  3.56900 42.75000 30.35100
C  3.84800 41.45700 31.13000
O  3.78500 40.28300 30.83600
O  4.33400 41.90100 32.36100
C  5.07700 40.86500 33.09500
H  -2.32000 40.46600 27.64100
H  0.09300 41.90600 21.83000
H  5.29000 44.26100 24.33100
H  0.94400 41.09900 31.02000
H  -1.73700 41.91800 29.97700
H  -0.60500 39.56100 30.98900
H  -1.32100 39.08800 29.44100
H  -2.29000 40.01600 30.68800
H  -0.87200 43.19800 31.48000
H  0.54400 43.99600 30.84400
H  0.40100 43.96000 33.41700
H  1.89700 43.45700 32.71200
H  -3.82400 38.95900 24.58300
H  -4.40900 40.31900 25.55400
H  -3.28000 39.17000 26.34000
H  -3.74300 38.81100 22.32500
H  -4.22100 40.13100 21.20700
H  -4.51900 40.40200 22.84200
H  1.83900 43.48100 20.93500
H  4.38500 43.60100 21.99000
H  2.10100 40.74900 21.29500
H  3.80200 41.29900 21.59300
H  2.86400 41.66000 20.03700
H  3.92000 45.38200 20.87000
H  4.16600 45.98800 22.46900
H  2.12800 46.97200 22.73100
H  1.28800 45.72200 21.77900
H  2.33800 46.88100 20.98200
H  6.47100 45.24700 26.22600
H  7.33000 43.70300 26.63600
H  6.98700 44.86500 27.93300
H  3.23400 43.41300 31.14900
H  5.74800 40.35600 32.40300
H  4.50800 40.02800 33.50000
H  5.60000 41.42700 33.86900

