158

Mg 41.36800 41.18200 26.65400
C  40.82700 43.71100 28.89300
C  42.11200 39.09000 29.14700
C  42.41300 38.86200 24.26900
C  41.05700 43.45100 24.00800
N  41.46400 41.42500 28.85700
C  41.04700 42.47700 29.57800
C  40.92700 42.12300 31.10600
C  41.61500 40.63900 31.06300
C  41.70100 40.37600 29.58800
C  42.91000 40.48700 31.87700
C  39.45300 42.22300 31.57900
C  39.13000 43.21100 32.73900
H  38.49500 42.58100 33.99900
N  42.01700 39.15600 26.68400
C  42.26000 38.52600 27.84800
C  42.74700 37.20100 27.61400
C  42.82100 37.09300 26.21100
C  42.42500 38.39700 25.60600
C  43.19800 36.24600 28.67300
C  43.24100 35.97400 25.31000
O  43.30500 36.04200 24.10400
C  43.62600 34.66100 25.95500
N  41.77700 41.11500 24.51300
C  42.14400 40.08900 23.75800
C  41.91600 40.35400 22.21100
C  41.24900 41.72800 22.21800
C  41.29300 42.14800 23.69000
C  43.31500 40.37800 21.44300
C  39.86400 41.62200 21.47800
C  38.78700 40.79600 22.16400
N  41.03000 43.21100 26.44200
C  40.93000 44.02300 25.32300
C  40.64500 45.36800 25.61900
C  40.51300 45.35600 27.06900
C  40.84000 43.94700 27.45000
C  40.50800 46.58800 24.70300
C  40.15700 46.05800 28.24600
O  39.83500 47.26800 28.41400
C  40.19300 45.06000 29.47800
C  41.03600 45.72500 30.52700
O  42.25700 45.70000 30.68400
O  40.13500 46.36700 31.34200
C  40.77800 46.98100 32.52400
H  42.39600 38.37600 29.92300
H  42.46000 38.16600 23.42900
H  40.87000 44.03200 23.10200
H  41.53200 42.87100 31.61700
H  40.95100 39.86500 31.45000
H  43.26800 41.39800 32.35700
H  43.63500 40.19100 31.11900
H  42.74600 39.64700 32.55200
H  39.13100 41.18700 31.68700
H  38.90100 42.54200 30.69500
H  38.39900 43.94400 32.39600
H  40.05800 43.67700 33.07200
H  42.53300 35.39300 28.54000
H  43.10800 36.58100 29.70600
H  44.25600 36.05300 28.50000
H  44.56700 34.61900 26.50500
H  43.72400 33.99000 25.10200
H  42.84100 34.19700 26.55200
H  41.16700 39.64800 21.85400
H  41.76400 42.44700 21.58100
H  43.47500 41.27000 20.83700
H  43.22100 39.61200 20.67300
H  44.16400 40.04000 22.03800
H  40.04400 41.34200 20.44000
H  39.44700 42.59900 21.23400
H  38.49600 40.14400 21.34000
H  37.86200 41.31200 22.41800
H  39.09800 40.14800 22.98300
H  39.70300 47.24700 25.02800
H  40.28400 46.41800 23.65000
H  41.40500 47.17800 24.89200
H  39.22500 44.66100 29.78000
H  40.03000 47.52300 33.10100
H  41.56900 47.68800 32.27200
H  41.12700 46.29100 33.29300
Mg -5.44600 25.92400 25.39700
C  -3.70400 27.06700 28.26600
C  -7.27700 23.80200 27.41800
C  -6.80600 24.76600 22.64600
C  -3.33200 27.85700 23.41900
N  -5.50000 25.49000 27.67100
C  -4.75700 26.14800 28.65900
C  -5.38200 25.89100 30.05200
C  -6.28200 24.61200 29.74100
C  -6.35000 24.61200 28.17000
C  -5.71300 23.30200 30.37800
C  -6.12400 27.11000 30.69100
C  -5.79400 27.34400 32.15400
H  -5.41000 26.17000 33.10500
N  -6.85200 24.41900 25.08200
C  -7.48000 23.63100 26.03400
C  -8.42900 22.76000 25.40200
C  -8.35300 23.02000 23.99000
C  -7.28600 24.09500 23.81200
C  -9.19300 21.62900 26.22900
C  -9.08200 22.31100 22.84300
O  -8.99200 22.74500 21.67900
C  -9.98900 21.15300 23.21700
N  -5.04800 26.19100 23.30300
C  -5.75000 25.58800 22.38000
C  -5.43300 25.96200 20.97000
C  -4.45300 27.21100 21.20500
C  -4.26200 27.06300 22.72700
C  -4.82400 24.78900 20.15500
C  -5.17000 28.57900 20.84400
C  -5.83700 28.84700 19.48400
N  -3.76400 27.14000 25.73900
C  -3.04100 27.83800 24.85100
C  -2.08400 28.65100 25.63500
C  -2.34700 28.39800 26.93200
C  -3.34800 27.46900 26.95000
C  -0.99200 29.72000 25.13000
C  -2.02400 28.85200 28.31000
O  -1.31100 29.76300 28.64700
C  -2.85300 27.83900 29.27000
C  -1.90200 27.03500 30.10700
O  -0.84100 26.53000 29.73800
O  -2.30600 27.19800 31.40300
C  -1.46600 26.52600 32.40500
H  -8.07100 23.33300 28.00300
H  -7.37400 24.39700 21.78900
H  -2.72700 28.55300 22.83400
H  -4.60600 25.66200 30.78300
H  -7.27900 24.81100 30.13300
H  -4.74000 23.30800 30.86900
H  -5.51400 22.62500 29.54700
H  -6.42600 22.83400 31.05700
H  -7.20100 26.99100 30.57700
H  -5.87200 27.93600 30.02600
H  -6.65400 27.82300 32.62200
H  -5.01700 28.10400 32.06400
H  -10.20500 21.47900 25.85200
H  -9.17400 21.78200 27.30800
H  -8.70700 20.66400 26.09100
H  -10.33900 20.54100 22.38600
H  -10.85400 21.49900 23.78300
H  -9.43000 20.48400 23.87100
H  -6.37200 26.23200 20.48600
H  -3.51000 26.99700 20.70100
H  -4.74400 23.85500 20.71100
H  -3.88700 24.98900 19.63500
H  -5.54200 24.48800 19.39200
H  -4.43900 29.38500 20.90400
H  -5.83900 28.75900 21.68500
H  -5.87600 27.94200 18.87700
H  -5.49600 29.69400 18.88700
H  -6.84600 29.15400 19.75700
H  -1.08500 30.60400 25.76000
H  -1.11800 29.98800 24.08100
H  0.01200 29.30300 25.21500
H  -3.48400 28.42500 29.93800
H  -1.11100 25.58700 31.98000
H  -1.99700 26.27900 33.32500
H  -0.59300 27.10800 32.69900

