158

Mg 35.45600 49.71400 26.24100
C  35.81600 47.72700 29.05600
C  34.19100 52.23800 28.09400
C  35.34200 51.78700 23.46600
C  36.51400 47.09000 24.22300
N  34.97600 49.89400 28.35100
C  35.23000 48.99500 29.32900
C  34.86200 49.53500 30.65900
C  34.24100 50.90300 30.38700
C  34.44300 51.08200 28.81900
C  32.74000 51.17900 30.89000
C  36.20000 49.67800 31.37500
C  36.30300 49.22400 32.88500
H  35.16200 49.51800 33.85400
N  34.98700 51.77700 25.88200
C  34.46600 52.60000 26.80000
C  34.25300 53.92100 26.22300
C  34.49400 53.80100 24.79000
C  35.02900 52.44800 24.67400
C  33.72300 55.03500 27.10700
C  34.21700 54.82300 23.71500
O  34.22400 54.48100 22.55300
C  33.66300 56.18300 24.02900
N  35.89200 49.44900 24.14700
C  35.64900 50.41000 23.20300
C  36.08400 49.90900 21.78500
C  36.46600 48.38800 22.02300
C  36.27400 48.27900 23.57100
C  35.04300 49.98900 20.62600
C  37.84600 47.98600 21.41000
C  39.14000 48.34300 22.27900
N  35.93700 47.73200 26.54300
C  36.51400 46.86000 25.62000
C  36.93300 45.65300 26.39600
C  36.67300 45.94600 27.73400
C  36.09200 47.25700 27.78000
C  37.55900 44.50100 25.75700
C  36.83600 45.52600 29.12600
O  37.25700 44.49700 29.58700
C  36.14900 46.57400 30.03300
C  34.98900 45.97600 30.70600
O  33.89900 45.65600 30.21300
O  35.38200 45.75000 31.96900
C  34.35800 45.10300 32.83800
H  33.75200 53.02700 28.70700
H  35.29200 52.40500 22.56800
H  37.00300 46.33200 23.60800
H  34.23300 48.95000 31.32900
H  34.80700 51.72000 30.83500
H  32.17000 51.39000 29.98500
H  32.70900 52.06200 31.52800
H  32.25700 50.34100 31.39100
H  36.44200 50.74000 31.41400
H  37.06100 49.24700 30.86500
H  37.20100 49.73100 33.23700
H  36.40200 48.14500 33.00900
H  32.63900 55.10100 27.01900
H  34.09800 56.01300 26.80600
H  34.13000 54.92100 28.11200
H  34.29200 56.96800 24.44700
H  32.75000 56.01500 24.60100
H  33.29400 56.42100 23.03100
H  36.91500 50.47000 21.35800
H  35.70300 47.77400 21.54500
H  34.17500 50.51900 21.01800
H  34.85500 48.98600 20.24200
H  35.43900 50.64600 19.85100
H  37.94800 48.52900 20.47000
H  37.92000 46.90700 21.27500
H  39.92400 48.78300 21.66300
H  39.46300 47.35300 22.60200
H  38.77600 48.88100 23.15400
H  36.78100 43.82900 25.39300
H  38.04700 43.91200 26.53300
H  38.28200 44.79300 24.99600
H  36.82800 47.01600 30.76200
H  34.70200 44.79500 33.82600
H  34.06800 44.20100 32.29900
H  33.54600 45.79600 33.06100
Mg 6.19100 53.92600 41.15900
C  4.71700 50.90400 41.18400
C  8.81700 52.59800 39.55900
C  7.39900 57.18100 40.85300
C  3.23100 55.38900 42.64700
N  6.65600 51.99700 40.30700
C  5.94600 50.86900 40.53800
C  6.66000 49.64700 39.96300
C  8.11700 50.18800 39.84800
C  7.84000 51.67700 39.79100
C  9.07300 49.86300 41.03400
C  6.24200 49.04400 38.61700
C  5.51600 49.92500 37.58600
H  6.12900 50.08800 36.15200
N  7.88300 54.72900 40.39300
C  8.89200 54.04600 39.78000
C  9.98100 54.88500 39.37100
C  9.66800 56.18700 39.78800
C  8.23100 56.09800 40.39600
C  11.22100 54.33700 38.69300
C  10.62100 57.36000 39.66200
O  11.69400 57.15800 39.14600
C  10.32100 58.65200 40.41300
N  5.40500 55.97100 41.60700
C  6.11300 57.19300 41.43800
C  5.42000 58.49900 41.96600
C  4.05500 57.78700 42.44100
C  4.25400 56.28000 42.31000
C  6.10900 59.32400 43.03100
C  2.81900 58.37500 41.81400
C  2.27600 57.70500 40.54900
N  4.31400 53.37100 41.80300
C  3.28400 54.03000 42.39900
C  2.28700 53.07900 42.67300
C  2.81600 51.84100 42.29100
C  4.03600 52.09700 41.68800
C  0.85300 53.35200 43.21700
C  2.50900 50.43200 42.30600
O  1.59300 49.83500 42.84200
C  3.80100 49.71800 41.61200
C  3.30200 48.87400 40.51800
O  2.69100 49.20600 39.53700
O  3.79700 47.57200 40.69600
C  3.45500 46.59200 39.71900
H  9.68800 52.07500 39.15800
H  7.76100 58.20600 40.75400
H  2.32500 55.66400 43.19200
H  6.56400 48.94300 40.78900
H  8.67900 50.03600 38.92700
H  9.42200 50.68400 41.66000
H  9.92800 49.27100 40.70800
H  8.62400 49.10700 41.67900
H  5.68700 48.11100 38.71600
H  7.17200 48.71400 38.15300
H  5.36400 50.95900 37.89400
H  4.52300 49.47700 37.56000
H  11.16900 53.31100 38.32800
H  12.02600 54.32200 39.42900
H  11.54400 54.99400 37.88600
H  11.12300 59.37700 40.27400
H  10.07400 58.36200 41.43400
H  9.40800 58.94300 39.89400
H  5.24500 59.08500 41.06400
H  3.86800 57.84100 43.51400
H  6.34500 60.30100 42.60900
H  7.00100 58.92200 43.51100
H  5.44200 59.44000 43.88500
H  2.93800 59.45400 41.71600
H  2.11000 58.14500 42.60900
H  1.27300 57.30200 40.69400
H  2.93800 56.89800 40.23500
H  2.09200 58.51300 39.84100
H  0.45000 54.33700 42.98400
H  0.95600 53.27000 44.29900
H  0.23500 52.54200 42.83000
H  4.22000 48.98400 42.30100
H  2.37800 46.47000 39.83700
H  3.94500 45.63400 39.89300
H  3.66000 46.88100 38.68800

