158

Mg 1.50700 -2.63800 45.68000
C  4.91900 -1.94100 45.46700
C  0.85800 0.26800 43.98400
C  -1.75400 -3.68300 45.33700
C  2.25300 -5.61700 47.20600
N  2.75700 -1.15300 44.57000
C  4.12600 -1.04800 44.68500
C  4.65500 0.18600 43.92100
C  3.35700 1.01700 43.92900
C  2.23600 0.02800 44.14000
C  3.35200 2.26700 44.89700
C  5.25600 -0.14300 42.59500
C  6.41200 0.81100 42.18400
H  6.40100 1.31700 40.74900
N  -0.16300 -1.79000 44.75500
C  -0.23500 -0.49500 44.22400
C  -1.60700 -0.23100 43.97100
C  -2.47000 -1.32600 44.38900
C  -1.45200 -2.38200 44.87300
C  -2.01100 1.15200 43.37000
C  -3.94100 -1.40100 44.24100
O  -4.50900 -0.32200 43.95900
C  -4.73100 -2.61100 44.58700
N  0.32000 -4.53400 46.10500
C  -0.94200 -4.75000 45.83800
C  -1.39500 -6.06100 46.33100
C  -0.00500 -6.78800 46.73700
C  0.91300 -5.53600 46.76200
C  -2.28800 -5.98700 47.62300
C  0.47700 -7.71900 45.51900
C  1.12000 -9.07600 45.86600
N  3.20800 -3.59100 46.23900
C  3.36400 -4.77500 46.94300
C  4.75000 -4.94600 47.35200
C  5.40300 -3.82700 46.76200
C  4.42600 -3.06800 46.08600
C  5.22600 -6.04200 48.21100
C  6.67000 -3.14800 46.61200
O  7.77900 -3.34700 47.11900
C  6.42700 -1.95200 45.63900
C  6.89600 -0.69200 46.32500
O  6.59800 -0.41200 47.50500
O  7.67900 0.10200 45.56900
C  8.03100 1.49900 45.97100
H  0.63100 1.30800 43.73900
H  -2.81200 -3.94600 45.28000
H  2.48200 -6.55400 47.71800
H  5.39600 0.69000 44.54000
H  3.05800 1.53600 43.01800
H  2.63400 2.17200 45.71200
H  3.07100 3.18400 44.38000
H  4.38300 2.51400 45.14900
H  4.44200 -0.12700 41.87000
H  5.73300 -1.12300 42.59500
H  7.39400 0.36500 42.33800
H  6.29000 1.67000 42.84300
H  -2.68700 1.60100 44.09800
H  -2.42400 1.21300 42.36300
H  -1.17300 1.84900 43.37800
H  -4.55100 -2.92600 45.61400
H  -4.46600 -3.32500 43.80700
H  -5.80200 -2.50100 44.41800
H  -1.97600 -6.50500 45.52300
H  -0.13400 -7.19900 47.73800
H  -2.48800 -4.93500 47.82300
H  -1.79300 -6.40400 48.50000
H  -3.26100 -6.46500 47.51200
H  1.18900 -7.17100 44.90300
H  -0.37000 -8.08500 44.93900
H  2.14900 -9.13100 45.51000
H  0.75200 -9.88000 45.22900
H  1.05800 -9.36000 46.91600
H  5.27600 -6.87800 47.51300
H  4.53400 -6.29000 49.01600
H  6.26600 -5.88400 48.49800
H  7.06000 -2.16900 44.77900
H  7.94200 2.19200 45.13500
H  9.04800 1.54900 46.36000
H  7.33000 1.91000 46.69700
Mg 9.74200 47.29400 24.80600
C  7.78400 47.38500 27.68300
C  12.32900 48.87100 26.63200
C  11.52400 47.28300 22.06600
C  6.95200 46.15000 22.98900
N  10.07700 47.91500 27.00100
C  9.11900 47.81800 27.98100
C  9.69800 48.44100 29.25700
C  10.95600 49.31300 28.80700
C  11.17400 48.66300 27.40000
C  10.86500 50.86400 28.74000
C  10.02300 47.30700 30.24700
C  9.89200 47.58300 31.78400
H  9.67200 46.37900 32.71700
N  11.70400 47.93200 24.45400
C  12.55600 48.53600 25.31300
C  13.79300 48.73000 24.52200
C  13.62400 48.23100 23.22900
C  12.24500 47.74800 23.17200
C  15.05900 49.20600 25.17900
C  14.66000 48.24900 22.09000
O  14.49000 47.74900 20.93100
C  15.90700 49.04400 22.22600
N  9.26700 46.75600 22.78200
C  10.25000 46.83500 21.83100
C  9.77900 46.27700 20.50000
C  8.21000 46.02300 20.72900
C  8.08000 46.37500 22.23200
C  10.22300 47.13100 19.19900
C  7.81500 44.63000 20.46300
C  8.35500 43.59000 21.50600
N  7.78400 46.83500 25.18300
C  6.78500 46.43600 24.36800
C  5.52900 46.28800 25.14500
C  5.85000 46.66300 26.45600
C  7.23400 46.99000 26.41500
C  4.20200 46.06200 24.69500
C  5.36000 46.83900 27.79300
O  4.24900 46.60600 28.28900
C  6.66000 47.16400 28.65000
C  6.87800 46.01700 29.60300
O  7.34200 44.97000 29.33500
O  6.49900 46.22900 30.84000
C  6.41000 45.10500 31.78400
H  13.19800 49.29400 27.14100
H  12.22900 47.04900 21.26500
H  6.15900 45.66500 22.41500
H  8.94600 49.06000 29.74600
H  11.77400 49.04800 29.47800
H  11.22300 51.16200 27.75500
H  11.43400 51.38500 29.50900
H  9.78200 50.97300 28.79800
H  11.03800 46.99300 30.00000
H  9.36900 46.44700 30.10600
H  9.15500 48.36400 31.97100
H  10.86900 47.88900 32.16000
H  15.88500 48.66300 24.71900
H  15.01500 49.25600 26.26700
H  15.16200 50.28300 25.04500
H  16.26100 49.37800 21.25100
H  16.64800 48.39900 22.69800
H  15.73300 49.88800 22.89400
H  10.23100 45.28600 20.45100
H  7.57200 46.66500 20.12200
H  9.53900 47.97000 19.06700
H  10.15600 46.49500 18.31700
H  11.21200 47.56500 19.34600
H  8.18600 44.30100 19.49200
H  6.72900 44.59500 20.38200
H  8.70400 42.70600 20.97100
H  7.54300 43.35800 22.19600
H  9.19700 43.90000 22.12400
H  4.06800 46.90900 24.02300
H  3.49900 46.05800 25.52800
H  4.11500 45.09300 24.20200
H  6.56700 48.08600 29.22400
H  7.25400 44.43200 31.63500
H  5.45400 44.61200 31.60300
H  6.48300 45.42600 32.82300

