158

Mg 48.57600 44.13300 42.93100
C  45.08400 43.50000 42.81300
C  48.95200 40.58900 42.45000
C  51.80500 44.60600 42.53600
C  47.93400 47.64100 42.63800
N  47.16400 42.25100 42.63200
C  45.73500 42.27500 42.55500
C  45.13400 40.93500 42.30700
C  46.39200 39.96600 42.27900
C  47.59500 40.99200 42.48200
C  46.41800 38.82800 43.28100
C  44.22800 40.75800 41.07400
C  44.73400 41.52900 39.77500
H  44.38800 40.87000 38.48200
N  50.15500 42.88700 42.53500
C  50.08700 41.45300 42.44700
C  51.39600 41.02600 42.15700
C  52.30600 42.07100 42.24800
C  51.44700 43.29300 42.43900
C  51.71700 39.53700 41.87100
C  53.86000 41.96800 42.07500
O  54.40700 40.89000 41.90900
C  54.73100 43.16500 42.24400
N  49.72900 45.91200 42.26700
C  51.08000 45.79000 42.47200
C  51.67200 47.15800 42.85200
C  50.44100 48.13400 42.57100
C  49.23600 47.17700 42.49500
C  52.38600 47.24900 44.27900
C  50.54700 48.91000 41.22900
C  50.03500 50.37600 41.32700
N  46.88600 45.34100 42.79700
C  46.81300 46.75100 42.68600
C  45.35200 47.07700 42.73900
C  44.68100 45.85900 42.85900
C  45.61600 44.83600 42.79700
C  44.86400 48.47800 42.78800
C  43.36100 45.27200 42.82300
O  42.25200 45.87400 42.74800
C  43.55200 43.67900 42.90200
C  42.87700 43.19900 44.10200
O  42.23700 42.15300 44.19700
O  43.18100 44.02000 45.12400
C  42.39500 43.81400 46.35700
H  49.04900 39.52400 42.22800
H  52.85900 44.88500 42.59900
H  47.82500 48.71800 42.78100
H  44.52800 40.76100 43.19600
H  46.54500 39.62100 41.25700
H  46.86700 39.21000 44.19800
H  47.01400 38.04100 42.81900
H  45.39600 38.52100 43.50200
H  43.23700 41.10100 41.37100
H  44.39200 39.71500 40.80400
H  45.82200 41.58500 39.82500
H  44.44700 42.58000 39.79400
H  51.81700 39.28500 40.81600
H  50.97500 38.90500 42.35900
H  52.72600 39.25400 42.17200
H  54.64100 43.92100 41.46400
H  55.75900 42.91000 42.50000
H  54.38500 43.63400 43.16400
H  52.42700 47.40500 42.10500
H  50.40900 48.82200 43.41600
H  52.59300 46.25900 44.68500
H  51.75100 47.81600 44.96000
H  53.31300 47.82100 44.33000
H  49.97800 48.40300 40.45100
H  51.56400 48.85200 40.84000
H  50.64800 51.14000 40.84900
H  49.79400 50.70900 42.33700
H  49.05500 50.26200 40.86500
H  45.11600 48.85700 43.77900
H  43.78000 48.58800 42.78100
H  45.26000 49.00300 41.91900
H  42.96200 43.26800 42.08300
H  43.21900 43.44200 46.96600
H  41.50400 43.18900 46.30300
H  42.24600 44.77800 46.84400
Mg 36.76300 49.21400 24.89900
C  37.12900 47.30100 27.88900
C  35.19900 51.54200 26.75100
C  36.32500 50.89100 22.15400
C  37.55300 46.28000 23.06600
N  36.15200 49.37500 27.08600
C  36.52000 48.53800 28.14000
C  36.18800 49.20000 29.47600
C  35.33600 50.43400 29.05600
C  35.51800 50.48100 27.55900
C  33.88000 50.45900 29.57500
C  37.50500 49.51600 30.25200
C  37.45700 49.48600 31.76800
H  36.07800 49.49400 32.50100
N  35.99800 50.99700 24.56300
C  35.52600 51.88600 25.41800
C  35.32400 53.16000 24.78000
C  35.41800 52.95600 23.40700
C  35.90700 51.51900 23.30200
C  34.79900 54.36700 25.49800
C  35.23400 53.89200 22.15400
O  35.29100 53.40100 20.98500
C  34.90000 55.31500 22.30000
N  36.79500 48.65400 22.88700
C  36.78400 49.59000 21.90200
C  37.03200 49.06300 20.57000
C  37.48400 47.57500 20.90800
C  37.26600 47.46000 22.39700
C  35.72800 49.10800 19.67400
C  38.85800 47.32500 20.30800
C  40.01400 47.72100 21.27800
N  37.23900 47.18800 25.29600
C  37.54800 46.09700 24.46000
C  37.89200 44.96700 25.21800
C  37.82600 45.43600 26.60600
C  37.30100 46.72100 26.59100
C  38.41300 43.66100 24.66500
C  37.98000 44.99200 27.94900
O  38.28500 43.87800 28.40300
C  37.58600 46.17900 28.80800
C  36.42200 45.63400 29.60400
O  35.34700 45.26300 29.13800
O  36.73300 45.68700 30.91900
C  35.81000 45.06900 31.87800
H  34.56100 52.22300 27.31900
H  36.18400 51.40800 21.20200
H  37.71000 45.41000 22.42500
H  35.59200 48.47100 30.02500
H  35.70100 51.42300 29.33300
H  33.29000 50.67300 28.68400
H  33.78800 51.31200 30.24800
H  33.69100 49.51700 30.08900
H  37.85000 50.52500 30.02900
H  38.30100 48.80400 30.03300
H  37.97500 50.35100 32.18100
H  38.05800 48.64800 32.12200
H  34.57400 54.22800 26.55600
H  33.78600 54.52700 25.13000
H  35.40900 55.26300 25.37900
H  33.93800 55.31800 22.81200
H  34.92500 55.73300 21.29300
H  35.65900 55.83000 22.88900
H  37.83000 49.65600 20.12300
H  36.83400 46.86000 20.40400
H  34.84300 49.19600 20.30400
H  35.71500 48.28700 18.95700
H  35.77600 49.96100 18.99600
H  39.08600 47.90800 19.41500
H  39.11000 46.30700 20.01000
H  40.17500 46.95400 22.03500
H  39.73700 48.62100 21.82800
H  40.98800 47.76500 20.79200
H  37.88600 43.57000 23.71500
H  38.05600 42.78000 25.19900
H  39.49100 43.56500 24.54100
H  38.44900 46.50300 29.39100
H  35.11900 45.86900 32.14100
H  36.32500 44.61900 32.72700
H  35.15400 44.35300 31.38200

