158

Mg 48.02600 35.52300 27.60600
C  46.25500 33.53100 29.99100
C  48.29300 37.94900 30.19400
C  49.43700 37.57000 25.35000
C  47.62800 33.12100 25.24800
N  47.25300 35.77500 29.79700
C  46.68100 34.76500 30.59000
C  46.67600 35.08200 32.05900
C  47.04400 36.61600 32.12900
C  47.55700 36.84900 30.65200
C  45.94700 37.58300 32.70600
C  47.78700 34.28200 32.73000
C  47.76200 34.01400 34.24700
H  46.92500 34.91400 35.19100
N  48.71000 37.45000 27.75300
C  48.64400 38.29600 28.89900
C  49.23600 39.57500 28.51800
C  49.75600 39.42200 27.19600
C  49.31500 38.07700 26.70800
C  49.27300 40.77700 29.42400
C  50.48300 40.46600 26.38600
O  50.84000 40.28400 25.20100
C  51.05300 41.67500 27.05100
N  48.20200 35.52000 25.48400
C  48.89100 36.47000 24.78900
C  49.30600 35.99200 23.38300
C  48.90400 34.49700 23.41300
C  48.17800 34.34100 24.78100
C  48.64200 36.95100 22.30500
C  50.03600 33.38800 23.17400
C  49.94000 32.66900 21.79300
N  46.92400 33.87900 27.45500
C  46.92800 32.92100 26.47300
C  46.22500 31.73400 26.85200
C  45.80200 32.04700 28.21100
C  46.36600 33.25700 28.57000
C  46.03000 30.50200 26.08900
C  45.15100 31.40200 29.33000
O  44.63000 30.26700 29.39700
C  45.22100 32.53800 30.47900
C  45.50900 31.88200 31.79500
O  46.22400 30.88700 31.91500
O  44.72300 32.50800 32.68300
C  44.44200 31.92400 34.01400
H  48.54600 38.71700 30.92800
H  49.94900 38.15300 24.58200
H  47.68100 32.28400 24.54900
H  45.72800 34.91500 32.57200
H  47.94400 36.67300 32.74100
H  46.07000 37.67500 33.78500
H  44.98000 37.09800 32.57600
H  45.93000 38.57200 32.24800
H  48.74800 34.74600 32.50900
H  47.88500 33.26600 32.34800
H  48.79000 34.22900 34.53600
H  47.54800 32.96200 34.43900
H  48.91700 41.67500 28.92000
H  50.28000 40.96300 29.79800
H  48.62400 40.58600 30.27900
H  51.68700 42.13000 26.29000
H  51.75300 41.37300 27.83100
H  50.26900 42.35200 27.39000
H  50.38700 36.11000 23.44700
H  48.17000 34.36400 22.61800
H  48.02400 36.31100 21.67500
H  49.27900 37.64400 21.75600
H  47.92800 37.57800 22.84100
H  50.14100 32.60400 23.92400
H  50.94400 33.98900 23.13600
H  48.92900 32.75600 21.39700
H  50.17000 31.62000 21.98000
H  50.44200 33.11100 20.93200
H  44.97100 30.29500 25.93900
H  46.38200 29.61800 26.62000
H  46.59300 30.46500 25.15600
H  44.25600 33.04400 30.46300
H  43.38800 31.64700 34.00700
H  44.74000 32.62700 34.79200
H  45.00800 30.99600 34.10000
Mg 10.03900 49.16500 26.11800
C  8.03400 49.04600 28.91100
C  12.52600 50.74400 27.93000
C  11.92500 49.36800 23.24000
C  7.46000 47.86800 24.23900
N  10.18400 49.85500 28.22500
C  9.28300 49.61500 29.16800
C  9.93800 50.10300 30.56100
C  11.32200 50.77700 30.21900
C  11.40800 50.42300 28.71400
C  11.13400 52.38900 30.59600
C  10.13400 48.85000 31.53300
C  9.21800 48.89900 32.83200
H  9.89000 49.72200 34.01900
N  11.93900 49.76600 25.73600
C  12.86000 50.25600 26.62900
C  14.14500 50.32100 25.98700
C  13.97100 50.00200 24.56000
C  12.53300 49.63300 24.43700
C  15.41700 50.68400 26.75900
C  15.01300 49.89400 23.49000
O  14.72600 49.63800 22.31800
C  16.46100 50.28800 23.73200
N  9.70000 48.64500 24.00900
C  10.59900 48.91000 23.03000
C  10.12300 48.35100 21.71300
C  8.70700 47.71500 22.08800
C  8.64600 48.01100 23.56700
C  10.12800 49.46600 20.70800
C  8.61900 46.14200 21.80800
C  9.46400 45.15900 22.64300
N  8.06800 48.81400 26.46000
C  7.15600 48.22500 25.59300
C  5.89000 48.21300 26.28600
C  6.17100 48.37000 27.61500
C  7.57100 48.71900 27.62800
C  4.56700 47.87100 25.63200
C  5.68000 48.44400 29.00400
O  4.57100 48.24600 29.50900
C  6.91800 48.61400 29.87800
C  7.04700 47.36300 30.56900
O  7.79500 46.50600 30.17500
O  6.31800 47.30000 31.78600
C  6.50700 46.22900 32.78600
H  13.27900 51.21400 28.56600
H  12.53500 49.37900 22.33400
H  6.65000 47.45000 23.63800
H  9.18300 50.74400 31.01600
H  12.23600 50.40000 30.67700
H  12.01600 52.76900 31.11200
H  10.19400 52.56300 31.11900
H  11.14300 52.90700 29.63700
H  11.11200 48.67800 31.98300
H  10.10600 47.84800 31.10600
H  9.01000 47.85000 33.04300
H  8.28600 49.45100 32.71500
H  15.37300 50.52800 27.83700
H  15.66200 51.72400 26.54400
H  16.15300 50.00400 26.33100
H  16.82400 49.58300 24.48000
H  16.48100 51.16500 24.37900
H  17.11600 50.29400 22.86100
H  10.73400 47.48000 21.47200
H  7.90300 48.25900 21.59100
H  10.19200 50.48200 21.09800
H  9.17700 49.38500 20.18100
H  10.97700 49.34100 20.03500
H  8.78100 45.97200 20.74400
H  7.56500 45.86800 21.86700
H  10.15600 45.56500 23.38200
H  9.98000 44.56900 21.88600
H  8.76100 44.59000 23.25100
H  3.81400 47.92100 26.41900
H  4.59000 46.89500 25.14800
H  4.35800 48.63200 24.88000
H  6.74200 49.36000 30.65300
H  6.77600 46.57200 33.78500
H  7.37000 45.62200 32.51300
H  5.62600 45.59200 32.85800

