158

Mg 53.38300 23.82800 44.80200
C  50.65700 26.02700 44.37900
C  51.31100 21.19100 44.18200
C  56.13600 21.91700 44.23000
C  55.47400 26.63900 45.12700
N  51.16700 23.63300 44.11300
C  50.25300 24.67500 44.21500
C  48.80400 24.12700 44.25200
C  49.07800 22.64600 44.56400
C  50.54700 22.43600 44.21800
C  48.79300 22.17100 46.01000
C  47.88900 24.35300 43.01300
C  48.44700 24.26400 41.61200
H  47.91700 23.04000 40.77300
N  53.75200 21.84600 44.26900
C  52.70300 20.90100 44.08900
C  53.29500 19.60300 43.98500
C  54.75400 19.74400 43.96500
C  54.91900 21.24100 44.15200
C  52.34800 18.39100 43.75600
C  55.76300 18.56600 43.84400
O  55.46300 17.36600 43.82500
C  57.20800 18.88000 43.89600
N  55.56800 24.22800 44.59500
C  56.51500 23.26000 44.38600
C  57.94200 23.86800 44.21700
C  57.65000 25.38400 44.66400
C  56.12600 25.44500 44.86000
C  58.90900 23.01300 45.13000
C  58.20700 26.53100 43.66700
C  57.24000 26.92300 42.49500
N  53.17500 25.89500 44.85900
C  54.10400 26.90500 45.07900
C  53.39400 28.20000 45.16300
C  52.06600 27.87300 44.85300
C  51.99900 26.49400 44.62700
C  54.14400 29.43900 45.50200
C  50.76000 28.43600 44.74300
O  50.43000 29.59900 44.94600
C  49.77500 27.23400 44.44700
C  49.23700 27.48400 43.08000
O  49.90000 27.58000 42.03700
O  47.88200 27.71400 43.17300
C  47.12400 27.93000 41.95500
H  50.65000 20.34000 44.35500
H  57.04100 21.34700 44.01200
H  56.07800 27.53400 45.28900
H  48.33000 24.56400 45.13100
H  48.48300 21.99300 43.92500
H  49.73400 22.10600 46.55600
H  48.41600 21.15600 45.88200
H  48.09900 22.77700 46.59200
H  47.43600 25.33700 43.12800
H  47.08200 23.62600 43.10700
H  49.52100 24.44200 41.55800
H  48.11900 25.23400 41.24000
H  51.86800 18.50900 42.78500
H  51.61900 18.22900 44.55000
H  52.91500 17.46800 43.63500
H  57.78300 17.95900 43.79400
H  57.32300 19.40300 44.84600
H  57.41500 19.60000 43.10500
H  58.31500 23.69200 43.20800
H  58.03700 25.62000 45.65600
H  59.74300 22.64300 44.53300
H  58.48900 22.17500 45.68600
H  59.35900 23.78700 45.75100
H  59.16400 26.26600 43.21700
H  58.51500 27.43300 44.19500
H  56.62600 27.76200 42.82400
H  56.58800 26.08600 42.24300
H  57.95500 27.20200 41.72100
H  54.55900 29.24600 46.49200
H  53.47900 30.30300 45.50900
H  54.92300 29.54800 44.74800
H  48.98900 26.99400 45.16300
H  46.62800 28.89100 42.09400
H  46.32700 27.18800 41.90600
H  47.74200 27.93000 41.05700
Mg 46.70600 24.74500 29.03900
C  47.11300 26.80400 31.70900
C  45.49200 22.32200 31.17500
C  46.59000 22.57700 26.48600
C  47.70800 27.22500 26.76600
N  46.37000 24.59000 31.21500
C  46.55100 25.59200 32.06100
C  46.18700 25.17800 33.45600
C  45.64700 23.71000 33.32700
C  45.87400 23.49300 31.86300
C  46.43200 22.62100 34.14500
C  45.15700 26.10500 34.19600
C  45.66100 26.60300 35.58300
H  44.69700 26.71500 36.86000
N  46.18900 22.70700 28.88800
C  45.74100 21.88900 29.88000
C  45.40000 20.60900 29.40100
C  45.86100 20.57500 28.04400
C  46.21100 21.97600 27.67500
C  44.82400 19.57300 30.20700
C  45.99600 19.44700 27.08400
O  46.28400 19.53500 25.88900
C  45.78100 18.07700 27.66700
N  47.14500 24.86900 27.06200
C  47.07100 23.78400 26.17200
C  47.64900 24.12300 24.77200
C  47.42300 25.67200 24.80300
C  47.39900 25.92600 26.32800
C  49.15800 23.65200 24.61500
C  46.15300 26.11300 24.10800
C  44.77600 26.11500 24.86800
N  47.29700 26.66000 29.11000
C  47.66500 27.52800 28.12200
C  47.98000 28.85900 28.77100
C  47.79900 28.56600 30.17300
C  47.37200 27.26000 30.35300
C  48.51200 30.13300 28.21300
C  48.05600 29.04200 31.45300
O  48.43400 30.11300 31.81100
C  47.64800 27.98800 32.50000
C  48.88500 27.68400 33.18700
O  49.80000 26.99400 32.72000
O  48.74700 28.15400 34.46400
C  49.95000 27.87600 35.31000
H  44.97100 21.74900 31.94500
H  46.66000 21.86200 25.66300
H  47.93000 27.97400 26.00300
H  47.15000 25.08000 33.95700
H  44.57600 23.53800 33.42900
H  47.17900 23.08000 34.79200
H  46.89800 21.89900 33.47500
H  45.69500 22.11700 34.76900
H  44.27100 25.50200 34.39800
H  44.88800 27.00400 33.64000
H  46.04900 27.62100 35.58300
H  46.50800 25.96800 35.84300
H  45.42400 18.66300 30.23000
H  43.88000 19.25900 29.76000
H  44.39800 19.82100 31.17900
H  44.79600 17.99900 28.12700
H  46.53900 17.83400 28.41100
H  45.98200 17.26500 26.96800
H  47.00400 23.72600 23.98900
H  48.19800 26.30200 24.36700
H  49.43000 23.38900 25.63700
H  49.83300 24.46000 24.33400
H  49.31600 22.84700 23.89600
H  46.08600 25.61800 23.13900
H  46.17200 27.14600 23.76000
H  44.57400 27.16200 25.09400
H  44.79200 25.54200 25.79500
H  44.08500 25.72300 24.12200
H  47.90900 30.37500 27.33800
H  49.53400 29.98900 27.86100
H  48.50100 30.97300 28.90700
H  46.84800 28.32900 33.15700
H  50.93300 28.18600 34.95400
H  50.02500 26.83800 35.63200
H  49.73400 28.55400 36.13600

