158

Mg 36.92600 49.36100 25.64700
C  36.77100 47.62400 28.77100
C  35.33000 51.92600 27.20500
C  36.53200 50.79000 22.60000
C  38.00500 46.47000 24.12600
N  36.03700 49.67200 27.70300
C  36.24400 48.91100 28.86400
C  35.98500 49.70200 30.14900
C  35.23700 50.94900 29.57800
C  35.67100 50.91200 28.11300
C  33.71000 50.95800 29.84800
C  37.31700 49.96000 30.99800
C  37.34500 49.40200 32.40200
H  36.05900 49.19500 33.15000
N  36.04500 51.11500 24.99900
C  35.45800 51.99800 25.78600
C  34.92500 53.05500 24.96900
C  35.26700 52.78100 23.59700
C  36.03300 51.52800 23.68600
C  34.21100 54.22500 25.50200
C  34.95400 53.60400 22.37800
O  35.37900 53.32200 21.26300
C  34.22000 54.90000 22.44600
N  37.52600 48.91500 23.71500
C  37.18500 49.61700 22.62200
C  37.31200 48.73500 21.28900
C  38.21400 47.62100 21.81600
C  37.83600 47.64100 23.29100
C  36.00200 48.29100 20.56100
C  39.70100 47.73000 21.45900
C  40.42000 48.97700 21.96900
N  37.37200 47.46100 26.26900
C  37.82100 46.39700 25.49100
C  38.02800 45.28400 26.38700
C  37.74600 45.72300 27.63200
C  37.27400 47.05400 27.56200
C  38.54200 43.92100 26.00300
C  37.68100 45.32700 28.97600
O  37.95500 44.26200 29.49100
C  37.25900 46.55600 29.74900
C  36.04700 46.14800 30.62900
O  34.89400 46.49400 30.39000
O  36.37300 45.33700 31.68500
C  35.30800 44.85400 32.52800
H  34.96100 52.82200 27.70700
H  36.20900 51.16500 21.62700
H  38.23800 45.46700 23.76300
H  35.27600 49.04000 30.64600
H  35.61700 51.79900 30.14400
H  33.53100 51.93600 30.29600
H  33.38200 50.10300 30.43900
H  33.11500 50.87000 28.93900
H  37.69100 50.96400 30.79800
H  38.04200 49.41700 30.39200
H  38.05800 50.02300 32.94500
H  37.84800 48.43500 32.38600
H  34.90900 55.06100 25.51600
H  33.85400 54.04500 26.51600
H  33.27400 54.42500 24.98300
H  34.17700 55.39800 21.47700
H  34.70800 55.56200 23.16100
H  33.18800 54.81000 22.78800
H  37.91000 49.31800 20.58900
H  37.84100 46.63100 21.55400
H  35.72400 47.27100 20.29500
H  35.96000 48.76800 19.58200
H  35.17100 48.77200 21.07600
H  39.85200 47.57900 20.39000
H  40.21100 46.88000 21.91100
H  39.68800 49.78500 22.00900
H  41.18300 49.18400 21.21900
H  40.85300 48.69100 22.92800
H  39.35900 43.70500 26.69100
H  38.97500 43.96500 25.00300
H  37.69200 43.23900 25.98700
H  38.07100 46.72100 30.45700
H  34.47900 45.55400 32.42300
H  35.72100 45.17800 33.48300
H  34.91200 43.84200 32.43600
Mg -12.37900 17.03100 42.24100
C  -9.24900 15.36700 42.08400
C  -10.73200 19.77000 40.90700
C  -15.34200 18.07300 41.42700
C  -13.73400 13.99100 43.46500
N  -10.20600 17.48000 41.58600
C  -9.09400 16.66000 41.53100
C  -7.80300 17.40600 41.15700
C  -8.36200 18.89700 41.11500
C  -9.86100 18.78800 41.15500
C  -7.80800 19.72600 42.22900
C  -7.23100 16.88600 39.84400
C  -5.72900 16.63700 39.86000
H  -5.25100 15.34600 39.18700
N  -12.95500 18.77600 41.39200
C  -12.12600 19.79500 40.97100
C  -13.05300 20.79200 40.36500
C  -14.36400 20.42200 40.58800
C  -14.30500 19.06600 41.21700
C  -12.59200 22.06700 39.55500
C  -15.58100 21.10400 40.08000
O  -15.54800 22.21800 39.49200
C  -16.93900 20.59000 40.37000
N  -14.21800 16.20300 42.54500
C  -15.34500 16.87700 42.14000
C  -16.64400 16.21300 42.58900
C  -16.16100 14.82300 43.17500
C  -14.58600 15.01600 43.05100
C  -17.46900 17.01100 43.56800
C  -16.66800 13.55200 42.47600
C  -17.67100 12.60800 43.20200
N  -11.69700 15.14600 42.70700
C  -12.33500 14.03800 43.25300
C  -11.34200 13.00700 43.61500
C  -10.15800 13.53700 43.18800
C  -10.42200 14.79100 42.61600
C  -11.63800 11.61600 44.17100
C  -8.81800 13.25000 43.09400
O  -8.18500 12.25400 43.45300
C  -8.16100 14.38300 42.36900
C  -7.08100 14.96300 43.31700
O  -7.41800 15.52800 44.31800
O  -5.86900 14.82300 42.81100
C  -4.77000 15.41400 43.65300
H  -10.29000 20.69500 40.53200
H  -16.33000 18.26200 41.00100
H  -14.07800 13.04900 43.89800
H  -7.00600 17.19500 41.87000
H  -8.14300 19.52200 40.24900
H  -7.35100 19.11200 43.00500
H  -8.65900 20.16100 42.75300
H  -7.13900 20.50100 41.85300
H  -7.41000 17.59800 39.03900
H  -7.76900 15.97100 39.59400
H  -5.36000 16.57900 40.88300
H  -5.31400 17.50900 39.35500
H  -13.04500 22.10700 38.56400
H  -11.50600 22.06600 39.46100
H  -12.76500 22.99200 40.10500
H  -17.73300 21.33600 40.33200
H  -16.80200 20.32100 41.41700
H  -17.13500 19.78600 39.66000
H  -17.23500 15.99000 41.70100
H  -16.39400 14.72300 44.23500
H  -17.55600 16.58500 44.56700
H  -18.43800 17.11700 43.07900
H  -17.05800 18.01200 43.70100
H  -15.75700 12.98700 42.27900
H  -17.10800 13.86500 41.53000
H  -17.14900 11.65600 43.28900
H  -18.51800 12.55300 42.51800
H  -17.84000 13.11700 44.15200
H  -11.96900 11.80400 45.19300
H  -10.71200 11.04200 44.14100
H  -12.41800 11.04600 43.66700
H  -7.74500 13.93100 41.46900
H  -5.16000 15.73300 44.62000
H  -4.34100 16.29200 43.17100
H  -3.96400 14.68500 43.73800

