158

Mg 2.99300 0.74900 44.09700
C  5.87800 2.55600 43.62700
C  1.29500 3.23000 42.35000
C  0.48200 -1.40700 43.61900
C  5.05700 -1.95400 45.13000
N  3.58700 2.57200 43.00300
C  4.79400 3.20700 43.01400
C  4.79200 4.54300 42.26300
C  3.28100 4.80900 42.06900
C  2.63800 3.46700 42.56800
C  2.70300 6.11700 42.75600
C  5.70300 4.55400 40.94100
C  6.17800 3.26000 40.23800
H  6.25600 3.15000 38.65000
N  1.11500 0.97500 43.35800
C  0.59900 2.04700 42.68900
C  -0.78000 1.85600 42.47100
C  -1.10100 0.56700 42.91400
C  0.16500 -0.04200 43.28300
C  -1.56500 2.93000 41.89500
C  -2.47500 -0.09600 42.97800
O  -3.45800 0.53300 42.62100
C  -2.67900 -1.53800 43.34100
N  2.84900 -1.38300 44.22700
C  1.61300 -1.98000 44.14400
C  1.67900 -3.46700 44.53100
C  3.19300 -3.63600 44.90500
C  3.74500 -2.24400 44.78700
C  0.63400 -3.83900 45.70100
C  3.97900 -4.73800 44.12000
C  4.57500 -5.77500 45.09200
N  4.98900 0.35300 44.44500
C  5.70800 -0.77400 44.87200
C  7.11700 -0.38400 45.03300
C  7.19800 0.86600 44.57800
C  5.89400 1.29900 44.21600
C  8.21400 -1.24800 45.65000
C  8.11100 1.95400 44.32300
O  9.38000 1.93900 44.47100
C  7.31900 3.14100 43.80500
C  7.40900 4.25200 44.86600
O  8.39800 4.90700 45.22900
O  6.13600 4.60400 45.28900
C  5.89700 5.84300 46.12200
H  0.79000 4.01600 41.78500
H  -0.23100 -2.23200 43.67300
H  5.60400 -2.84400 45.45000
H  5.24200 5.27900 42.92900
H  3.12100 4.91400 40.99600
H  3.32700 6.93600 42.39700
H  2.69500 6.06800 43.84500
H  1.69200 6.29900 42.39000
H  6.56700 5.18400 41.15100
H  5.16300 5.00300 40.10800
H  5.68800 2.37700 40.64800
H  7.16400 3.00100 40.62300
H  -2.62900 2.90200 42.13000
H  -1.23500 2.90300 40.85600
H  -1.23600 3.88100 42.31300
H  -2.23400 -1.79300 44.30300
H  -2.18700 -2.14700 42.58200
H  -3.75100 -1.73200 43.34900
H  1.31600 -4.05400 43.68800
H  3.23600 -3.79400 45.98300
H  -0.35300 -4.02900 45.27800
H  0.56500 -3.07600 46.47600
H  0.97000 -4.72700 46.23600
H  4.81700 -4.28800 43.58800
H  3.32500 -5.13200 43.34300
H  4.19800 -5.69700 46.11200
H  5.65000 -5.61400 45.17300
H  4.40600 -6.78400 44.71700
H  8.19700 -1.28200 46.73900
H  9.19000 -0.83900 45.39000
H  8.17200 -2.27500 45.28800
H  7.85000 3.46400 42.91000
H  6.28100 6.68700 45.55000
H  6.38300 5.84900 47.09900
H  4.84200 6.08100 46.25400
Mg 46.45500 25.04300 28.45000
C  46.74600 27.21100 31.09800
C  45.49300 22.58100 30.81300
C  46.44000 23.01200 26.00300
C  47.45100 27.58700 26.19800
N  46.11700 24.98900 30.78500
C  46.29200 25.98200 31.65300
C  46.05200 25.58100 33.13900
C  45.79400 24.04700 32.96300
C  45.71900 23.81300 31.41900
C  46.94800 23.09300 33.53400
C  44.83500 26.34800 33.76200
C  45.07800 27.05800 35.10900
H  43.88500 27.16800 36.14800
N  45.98000 23.14300 28.40100
C  45.48200 22.33900 29.39800
C  45.13200 21.08200 28.78400
C  45.37600 21.18700 27.43500
C  46.01500 22.49300 27.20700
C  44.45400 19.90500 29.50500
C  45.24000 20.08800 26.37200
O  45.73000 20.15600 25.24600
C  44.74900 18.77000 26.67900
N  47.27800 25.18300 26.40900
C  47.04000 24.18300 25.58100
C  47.09000 24.60900 24.11400
C  47.18700 26.12500 24.19000
C  47.35500 26.32600 25.69300
C  48.19500 23.92200 23.25300
C  45.92400 26.77600 23.65100
C  44.68700 26.65100 24.50600
N  46.95400 26.98100 28.54700
C  47.39100 27.89200 27.61800
C  47.80800 29.13800 28.25800
C  47.55700 28.90500 29.61000
C  47.05900 27.58400 29.71800
C  48.64000 30.25200 27.64600
C  47.75600 29.42100 30.93200
O  48.22100 30.49500 31.32600
C  47.20400 28.40800 31.87500
C  48.33700 28.13200 32.76100
O  49.40800 27.72300 32.38600
O  47.93000 28.34400 34.07400
C  48.95000 28.02200 35.09200
H  45.17200 21.73700 31.42600
H  46.08400 22.39700 25.17400
H  47.52200 28.41800 25.49300
H  46.94700 25.81200 33.71500
H  44.87600 23.75000 33.47000
H  47.84200 23.68000 33.74200
H  47.30000 22.37900 32.78900
H  46.54200 22.70700 34.46900
H  44.04400 25.63500 33.99600
H  44.39700 27.08100 33.08500
H  45.28900 28.10600 34.89500
H  45.92900 26.59600 35.61100
H  43.53700 19.73300 28.94200
H  44.19600 20.18700 30.52600
H  44.99700 18.96000 29.51900
H  44.72200 18.18800 25.75700
H  43.71400 19.00400 26.92900
H  45.21700 18.19700 27.47900
H  46.05300 24.37100 23.87500
H  48.08100 26.59800 23.78600
H  48.47200 24.58900 22.43600
H  47.83000 22.98600 22.83000
H  49.09700 23.66900 23.80900
H  45.62500 26.43200 22.66100
H  46.01000 27.85900 23.56100
H  43.87000 26.36800 23.84300
H  44.40100 27.50300 25.12100
H  44.93500 25.92100 25.27700
H  48.03500 31.13500 27.44000
H  49.09800 30.00100 26.68900
H  49.43100 30.52000 28.34700
H  46.41800 28.82900 32.50200
H  48.82100 27.11800 35.68800
H  49.06500 28.88700 35.74500
H  49.98300 27.92500 34.75500

