158

Mg 49.11500 46.86100 42.59700
C  45.90900 47.81600 41.54800
C  48.73700 44.15500 40.61400
C  52.38300 46.08600 43.14800
C  49.65900 50.05900 43.65700
N  47.52100 46.09400 41.11700
C  46.26600 46.63700 40.95800
C  45.43800 45.79200 39.94700
C  46.31100 44.46800 39.78300
C  47.60000 44.91900 40.53800
C  45.67300 43.14600 40.29000
C  45.16000 46.46900 38.58300
C  43.71600 46.65300 38.20200
H  43.29600 46.18000 36.76100
N  50.31400 45.19500 42.09200
C  49.91300 44.24000 41.24400
C  50.92600 43.25900 41.30700
C  52.06300 43.76500 41.99900
C  51.59100 45.09200 42.49900
C  50.84700 41.93000 40.49600
C  53.44400 43.07500 42.20600
O  53.57900 41.84400 41.92300
C  54.65100 43.78500 42.83400
N  50.77400 47.93400 43.25800
C  51.99500 47.38700 43.49400
C  53.06900 48.42300 43.90300
C  52.18200 49.64000 44.15500
C  50.80200 49.20200 43.57000
C  54.00800 48.06200 45.00600
C  52.74400 51.00400 43.65400
C  52.70600 52.12400 44.68200
N  47.99400 48.58800 42.78600
C  48.33500 49.77000 43.32800
C  47.24000 50.66000 43.24300
C  46.19300 49.83400 42.66700
C  46.78600 48.70300 42.29400
C  47.15900 52.01900 43.79100
C  44.78100 49.86000 42.26600
O  43.89300 50.72500 42.36200
C  44.56300 48.50500 41.36000
C  43.37500 47.88700 41.95200
O  42.24600 48.17600 41.68000
O  43.73000 46.93100 42.86800
C  42.67400 46.20600 43.60300
H  48.57300 43.28000 39.98100
H  53.40800 45.77100 43.35300
H  49.87900 51.04700 44.06700
H  44.45200 45.64400 40.38700
H  46.62400 44.30700 38.75100
H  45.64300 42.40400 39.49200
H  44.67000 43.48200 40.55300
H  46.12600 42.76100 41.20400
H  45.82100 45.95900 37.88200
H  45.67100 47.43200 38.61300
H  43.34700 47.67900 38.21500
H  43.00700 46.22500 38.91100
H  51.74000 41.54000 40.00800
H  50.17400 42.11400 39.65800
H  50.44600 41.13700 41.12800
H  55.53800 43.28200 42.44900
H  54.51200 43.81200 43.91400
H  54.69400 44.74800 42.32400
H  53.68100 48.59900 43.01800
H  51.93700 49.73300 45.21300
H  53.76400 47.17600 45.59100
H  53.99000 48.98000 45.59400
H  55.06600 48.01300 44.74800
H  52.16000 51.29300 42.78100
H  53.74600 50.85400 43.25300
H  53.69400 52.41200 45.04000
H  52.13100 51.87300 45.57300
H  52.13500 52.98300 44.32900
H  48.10400 52.54400 43.64800
H  46.90500 51.99300 44.85100
H  46.29200 52.45000 43.29200
H  44.47700 48.92200 40.35700
H  42.49800 46.59700 44.60500
H  43.03100 45.17800 43.67000
H  41.74300 46.16100 43.03800
Mg 29.91800 58.17600 41.21600
C  26.97200 56.63900 39.89700
C  31.73000 55.45600 39.80300
C  32.62500 59.91400 41.69500
C  27.94400 61.01800 42.01300
N  29.42600 56.20600 40.04000
C  28.13600 55.90300 39.63200
C  28.16700 54.55400 38.78700
C  29.62200 54.01100 39.17300
C  30.35500 55.33900 39.70400
C  29.55800 52.87200 40.26500
C  28.04500 54.85000 37.28100
C  27.35200 53.82100 36.36800
H  27.92500 53.57200 34.95300
N  31.88300 57.66200 40.98400
C  32.43500 56.56300 40.33300
C  33.89100 56.77900 40.31700
C  34.17600 58.03800 40.84300
C  32.85800 58.56300 41.23500
C  34.89100 55.66100 39.98400
C  35.61700 58.54200 41.14600
O  36.61300 57.88400 40.94700
C  35.87300 59.92700 41.75100
N  30.13400 60.23100 41.71200
C  31.41300 60.63500 41.90700
C  31.56800 62.11800 42.22800
C  30.02900 62.46300 42.32600
C  29.30400 61.14900 42.10100
C  32.45800 62.46300 43.47700
C  29.57700 63.64700 41.43400
C  29.10000 64.90300 42.22000
N  27.83400 58.73500 41.06900
C  27.25600 59.85200 41.57400
C  25.79600 59.70700 41.39300
C  25.66800 58.53700 40.63700
C  26.95400 57.91600 40.56100
C  24.76500 60.70800 41.92500
C  24.67700 57.59500 40.16000
O  23.46100 57.72600 40.20200
C  25.50000 56.37100 39.48500
C  24.95300 55.12000 40.13800
O  25.32500 54.70400 41.24900
O  24.09100 54.37700 39.33400
C  23.50600 53.21300 40.00700
H  32.34000 54.57600 39.59000
H  33.53800 60.50100 41.81800
H  27.45600 61.95900 42.27300
H  27.32000 53.92700 39.06500
H  30.15700 53.64600 38.29600
H  28.52700 52.85000 40.61500
H  30.25500 53.12900 41.06300
H  29.83600 51.88100 39.90500
H  29.07700 55.05800 36.99900
H  27.53300 55.81200 37.24900
H  26.36800 54.18000 36.06700
H  27.13500 52.89300 36.89800
H  35.75100 55.92100 39.36700
H  34.41600 54.86700 39.40700
H  35.18100 55.27200 40.95900
H  36.95300 60.05900 41.68900
H  35.45000 59.95200 42.75500
H  35.42400 60.62400 41.04300
H  32.00500 62.56700 41.33600
H  29.84500 62.54500 43.39700
H  32.57500 61.59500 44.12600
H  31.88400 63.22700 44.00300
H  33.38700 62.84200 43.05200
H  28.85300 63.27600 40.70900
H  30.31900 64.16200 40.82400
H  29.37000 65.87500 41.80600
H  29.39700 64.83200 43.26600
H  28.01100 64.86500 42.24300
H  24.74400 61.57200 41.26200
H  25.14500 61.04200 42.89100
H  23.80400 60.25800 42.17500
H  25.44500 56.31500 38.39800
H  24.26300 52.56300 40.44600
H  22.88000 52.59100 39.36700
H  22.95700 53.63600 40.84800

