158

Mg 17.27900 -1.21300 27.75300
C  16.40300 0.92000 30.40700
C  19.09400 -3.07700 29.98500
C  18.67200 -2.78900 25.09800
C  15.87400 1.15600 25.50000
N  17.67500 -1.00800 29.98000
C  17.15800 -0.07900 30.86600
C  17.48300 -0.46300 32.27900
C  18.53400 -1.64300 32.08900
C  18.46900 -1.95100 30.58000
C  19.96900 -1.24200 32.55500
C  16.27200 -0.77900 33.13000
C  16.35000 -0.13000 34.54900
H  17.81500 0.07800 35.12200
N  18.57700 -2.72100 27.61200
C  19.14700 -3.40400 28.61200
C  19.70800 -4.56100 28.10000
C  19.59600 -4.46000 26.69700
C  18.93400 -3.30000 26.39800
C  20.26300 -5.64800 28.94600
C  20.07400 -5.55200 25.69600
O  19.95300 -5.42300 24.51500
C  20.92800 -6.70900 26.08900
N  17.09300 -0.90300 25.51900
C  17.94600 -1.60800 24.76600
C  17.88600 -1.07100 23.33900
C  16.67700 -0.07400 23.40300
C  16.64200 0.18900 24.91000
C  19.19500 -0.34000 23.03600
C  15.27000 -0.68700 22.84100
C  14.88700 -0.43400 21.32700
N  16.14400 0.55700 27.89000
C  15.61300 1.36000 26.88900
C  14.84800 2.38500 27.46100
C  15.16300 2.33600 28.87200
C  15.95000 1.20300 29.04900
C  13.89700 3.36400 26.87100
C  14.99300 2.99100 30.17800
O  14.32300 3.95800 30.53300
C  15.77400 2.04000 31.20900
C  16.87500 2.86900 31.87400
O  18.03800 2.96200 31.50900
O  16.30900 3.58000 32.87300
C  17.01500 4.45600 33.71800
H  19.61600 -3.64500 30.75800
H  19.32700 -3.17200 24.31200
H  15.46900 1.94900 24.86800
H  18.01500 0.44900 32.55100
H  18.34500 -2.53000 32.69400
H  19.90800 -0.23600 32.97000
H  20.64800 -1.17000 31.70500
H  20.36700 -1.91100 33.31700
H  15.92000 -1.81100 33.12700
H  15.45000 -0.23200 32.66900
H  15.86700 -0.75700 35.29900
H  15.80800 0.81600 34.54400
H  19.89300 -5.63900 29.97100
H  21.32300 -5.39400 28.94600
H  20.08400 -6.68300 28.65500
H  20.43500 -7.53000 26.60900
H  21.78200 -6.44300 26.71100
H  21.29900 -7.20400 25.19100
H  17.79300 -1.96400 22.72000
H  16.97300 0.80000 22.82300
H  19.20200 0.73000 23.24300
H  19.38400 -0.34300 21.96200
H  20.01600 -0.70800 23.65100
H  14.48100 -0.25000 23.45300
H  15.05900 -1.73500 23.05400
H  15.37600 0.49000 21.01900
H  13.82900 -0.30700 21.09700
H  15.26800 -1.26300 20.73000
H  13.32600 3.91200 27.61900
H  13.24300 2.86100 26.15800
H  14.58400 4.07000 26.40500
H  15.07200 1.69300 31.96700
H  16.63100 5.47500 33.67300
H  18.08600 4.29600 33.59400
H  16.79200 4.24400 34.76300
Mg 8.73500 48.14300 25.30700
C  6.62100 48.60400 28.06700
C  11.37400 49.15500 27.21000
C  10.62300 47.56000 22.73000
C  5.82900 47.89100 23.19800
N  8.95300 48.75200 27.40800
C  7.95700 48.91100 28.42200
C  8.56700 49.10700 29.78700
C  9.85500 49.86500 29.23600
C  10.11600 49.18600 27.85700
C  9.58100 51.40900 29.15500
C  8.76400 47.88600 30.65000
C  8.31400 48.11000 32.12800
H  8.23000 46.78300 32.99600
N  10.66900 48.32900 24.99700
C  11.62500 48.72400 25.87600
C  12.95000 48.60700 25.32600
C  12.81400 48.04100 24.03000
C  11.32700 47.96800 23.80100
C  14.26800 48.75800 26.15700
C  13.82000 47.65500 22.94500
O  13.53400 47.25000 21.80500
C  15.25900 47.99400 23.11400
N  8.20200 47.90200 23.23300
C  9.26500 47.52500 22.45100
C  8.74700 47.09300 21.04200
C  7.18300 47.00400 21.20200
C  7.02500 47.67800 22.60600
C  9.34900 47.89200 19.83900
C  6.59900 45.52400 21.16600
C  5.43700 45.17900 20.28400
N  6.71800 48.34600 25.54500
C  5.70000 48.19000 24.59200
C  4.44500 48.06800 25.37800
C  4.86200 48.22600 26.72000
C  6.17200 48.45300 26.76000
C  3.07900 47.67700 24.86100
C  4.31900 48.22400 27.98800
O  3.13500 48.07500 28.30800
C  5.43800 48.56300 28.96300
C  5.56000 47.35200 29.86600
O  6.12200 46.27900 29.62900
O  4.94400 47.66700 30.99500
C  4.67400 46.66000 32.05500
H  12.22300 49.35700 27.86700
H  11.23100 47.15600 21.91800
H  4.97900 47.55200 22.60200
H  7.81800 49.74600 30.25500
H  10.70200 49.68100 29.89700
H  9.97200 51.80200 28.21600
H  10.23100 51.79100 29.94200
H  8.55000 51.70000 29.35400
H  9.82700 47.64800 30.70000
H  8.26900 47.05600 30.14600
H  7.33900 48.59300 32.06600
H  8.99400 48.81700 32.60300
H  14.15000 48.49100 27.20800
H  14.62300 49.78800 26.12200
H  15.02300 48.03000 25.86200
H  15.79400 47.26200 23.71900
H  15.23900 48.99500 23.54400
H  15.84400 47.92200 22.19800
H  9.08500 46.06400 20.91900
H  6.72200 47.63600 20.44300
H  10.27500 48.40100 20.10500
H  8.59700 48.61800 19.53100
H  9.55000 47.20800 19.01400
H  6.48900 45.15100 22.18500
H  7.38700 44.95300 20.67500
H  5.65000 44.35200 19.60700
H  5.12200 45.96600 19.59800
H  4.56200 44.93100 20.88400
H  2.88500 47.86200 23.80400
H  2.45400 48.27000 25.52800
H  2.83000 46.68000 25.22600
H  5.34500 49.40900 29.64500
H  4.99700 47.09200 33.00200
H  5.13800 45.69200 31.86700
H  3.58900 46.56800 32.11100

