158

Mg 40.51700 7.44900 29.22600
C  42.23100 8.94900 32.01400
C  38.65200 5.84700 31.43700
C  39.28900 5.95600 26.68000
C  43.03500 8.83700 27.23200
N  40.45000 7.50900 31.50300
C  41.12600 8.30000 32.40800
C  40.61800 8.00900 33.81500
C  39.66500 6.78600 33.61300
C  39.59200 6.66300 32.12600
C  39.85100 5.52200 34.47000
C  39.97100 9.23100 34.58900
C  40.02500 9.09100 36.10400
H  40.85600 10.13600 36.89700
N  39.06900 6.12500 29.05100
C  38.32200 5.64100 30.06200
C  37.39300 4.69500 29.49300
C  37.54100 4.67300 28.08300
C  38.63500 5.60800 27.85300
C  36.48200 3.93700 30.43800
C  36.85000 3.80700 27.04500
O  37.16100 3.75000 25.85700
C  35.62800 2.97800 27.59100
N  41.19500 7.24400 27.28900
C  40.36800 6.73300 26.36300
C  40.95400 6.81100 24.95800
C  41.94300 7.96400 25.14900
C  42.03200 8.05500 26.67800
C  41.59000 5.61400 24.33700
C  41.44500 9.31100 24.56100
C  40.37000 10.10100 25.35500
N  42.27100 8.59600 29.51500
C  43.17000 9.07700 28.56100
C  44.22000 9.93000 29.22600
C  43.78700 9.97900 30.54500
C  42.67900 9.12000 30.66000
C  45.36900 10.67800 28.56400
C  44.16300 10.47800 31.84600
O  45.13700 11.16300 32.16700
C  43.06800 9.90100 32.85700
C  43.80200 9.14500 33.95600
O  44.49800 8.15000 33.79200
O  43.77100 9.84500 35.20200
C  44.81100 9.48600 36.16700
H  38.14000 5.26200 32.20400
H  38.74900 5.53200 25.83100
H  43.60900 9.45000 26.53300
H  41.45000 7.54800 34.34800
H  38.67200 7.18400 33.82200
H  40.62100 5.61200 35.23700
H  40.06800 4.59400 33.94200
H  38.92800 5.28500 34.99800
H  38.91100 9.14000 34.35100
H  40.35600 10.19500 34.25600
H  40.47000 8.17600 36.49400
H  39.00300 8.87300 36.41400
H  36.43300 4.35400 31.44400
H  36.68900 2.86800 30.48700
H  35.44200 4.15800 30.19900
H  35.02300 2.52900 26.80300
H  34.93100 3.69000 28.03200
H  35.99700 2.16400 28.21500
H  40.16300 7.12400 24.27700
H  42.89400 7.72700 24.67300
H  40.75700 4.91000 24.34600
H  42.35400 5.25600 25.02700
H  42.03600 5.70600 23.34600
H  40.90700 9.09200 23.63900
H  42.22600 10.05600 24.41000
H  39.57700 10.35100 24.65000
H  40.78700 11.02600 25.75500
H  39.90600 9.48300 26.12300
H  45.60500 11.48900 29.25300
H  44.94900 11.03800 27.62500
H  46.15000 9.91700 28.53300
H  42.47300 10.69900 33.30100
H  44.59200 8.49500 36.56400
H  44.84500 10.28300 36.90900
H  45.74200 9.36500 35.61400
Mg 35.90300 49.57200 25.51700
C  36.00800 48.01500 28.57800
C  34.75700 52.47600 27.05700
C  35.43500 50.95900 22.42100
C  36.69400 46.45800 23.96500
N  35.29100 50.10700 27.51800
C  35.52200 49.32200 28.65000
C  35.33600 50.07100 29.94700
C  34.64000 51.47900 29.38800
C  34.89000 51.37400 27.91300
C  33.19800 51.76100 29.91500
C  36.63500 50.28900 30.78400
C  36.44300 50.25200 32.33700
H  35.00400 50.66100 32.93700
N  35.26300 51.51100 24.81300
C  34.86600 52.52800 25.59900
C  34.74100 53.73300 24.71800
C  35.01300 53.32500 23.34600
C  35.27100 51.88300 23.50000
C  34.46400 55.08600 25.34200
C  35.10900 54.13300 22.07900
O  35.26100 53.66000 21.00100
C  34.62300 55.61200 22.22600
N  36.07600 48.85300 23.47900
C  35.78400 49.58900 22.38300
C  36.01600 48.82700 21.13200
C  36.62600 47.40700 21.67000
C  36.46900 47.58700 23.12800
C  34.68500 48.82900 20.25300
C  38.13200 47.19500 21.22800
C  39.15400 48.27000 21.62100
N  36.29300 47.64100 26.10400
C  36.64600 46.52900 25.37300
C  36.95300 45.43300 26.28300
C  36.69300 45.97100 27.61100
C  36.31400 47.29600 27.39300
C  37.39700 44.14900 25.77800
C  36.69400 45.62900 29.08500
O  37.06900 44.64400 29.69700
C  36.20200 46.98300 29.74500
C  34.90200 46.68800 30.40600
O  33.85300 46.59100 29.78200
O  35.07900 46.66200 31.76300
C  33.91700 46.53700 32.60400
H  34.40000 53.37500 27.56400
H  35.45500 51.28600 21.38000
H  37.06000 45.50500 23.57900
H  34.67400 49.61100 30.68000
H  35.27200 52.28400 29.76200
H  32.83400 50.85900 30.40500
H  32.53000 52.10400 29.12500
H  33.14100 52.58000 30.63200
H  37.05900 51.27500 30.59300
H  37.34900 49.54400 30.43600
H  37.18800 50.97800 32.66300
H  36.74900 49.28300 32.73000
H  35.01500 55.78100 24.70800
H  34.79400 55.27900 26.36300
H  33.37800 55.15800 25.29200
H  35.46400 56.18700 22.61400
H  33.80000 55.71900 22.93200
H  34.31600 55.90200 21.22100
H  36.71100 49.42800 20.54500
H  36.05300 46.61400 21.18900
H  33.83500 49.11700 20.87300
H  34.48100 47.85900 19.80100
H  34.72000 49.62100 19.50500
H  38.18300 47.32800 20.14700
H  38.46900 46.18600 21.46600
H  38.75600 49.07200 22.24300
H  39.69900 48.56400 20.72400
H  39.87400 47.78300 22.27900
H  37.60600 43.54600 26.66200
H  38.31300 44.24000 25.19500
H  36.55800 43.70700 25.24000
H  36.99100 47.34700 30.40400
H  33.08100 47.07000 32.15100
H  34.27100 46.98700 33.53200
H  33.68000 45.49400 32.81400

