158

Mg 34.95900 3.17200 30.01700
C  32.54000 4.03000 32.38600
C  37.26500 3.42100 32.63600
C  37.38200 2.57100 27.71800
C  32.57300 3.35200 27.58500
N  34.79800 3.51100 32.26200
C  33.77600 3.91200 32.96500
C  34.04300 3.87700 34.44300
C  35.59100 4.06600 34.50200
C  35.90800 3.60900 33.05600
C  36.06400 5.50500 34.99200
C  33.46200 2.67800 35.18800
C  32.99600 2.87200 36.60500
H  33.54400 4.07500 37.42100
N  37.01300 3.09800 30.11400
C  37.78300 3.13100 31.32400
C  39.10800 2.79700 31.01100
C  39.26300 2.53000 29.60800
C  37.82600 2.73800 29.07100
C  40.26400 2.78500 32.06400
C  40.51000 2.05100 28.76300
O  40.35400 1.90500 27.58300
C  41.92100 1.83600 29.40400
N  34.91700 2.89200 27.95100
C  36.06500 2.60300 27.21000
C  35.74000 2.37700 25.70800
C  34.23000 2.78000 25.65200
C  33.88000 3.11700 27.17100
C  36.64200 3.16500 24.79200
C  33.37700 1.60300 25.00500
C  32.47000 2.00100 23.78100
N  32.90300 3.56300 29.96100
C  32.05800 3.60200 28.86900
C  30.75000 3.90600 29.32700
C  30.83800 4.09600 30.70500
C  32.23200 3.83600 31.02200
C  29.58400 4.24200 28.47400
C  30.15500 4.47500 31.92300
O  28.98600 4.77800 32.12100
C  31.22200 4.36300 33.11000
C  31.29800 5.59700 33.90900
O  31.73200 6.65200 33.43200
O  30.75300 5.43700 35.22500
C  30.16700 6.62600 35.86400
H  38.03600 3.46000 33.40800
H  38.16900 2.35900 26.99200
H  31.72100 3.44100 26.90800
H  33.55600 4.76800 34.83800
H  36.00600 3.39400 35.25200
H  36.22100 5.49100 36.07100
H  35.29000 6.24800 34.79700
H  36.95800 5.79000 34.43800
H  34.15600 1.83800 35.21500
H  32.55100 2.38200 34.66800
H  33.25100 1.97300 37.16600
H  31.90800 2.93600 36.62200
H  40.04000 3.17100 33.05800
H  41.06700 3.36500 31.60700
H  40.69300 1.79700 32.22900
H  42.47200 2.76600 29.53700
H  42.54600 1.34500 28.65800
H  41.85100 1.21300 30.29600
H  35.85200 1.31100 25.50800
H  34.22000 3.69700 25.06300
H  36.94800 4.06900 25.31700
H  36.06400 3.55600 23.95500
H  37.40900 2.50200 24.39100
H  32.65200 1.30100 25.76100
H  33.95500 0.76900 24.60600
H  32.60200 1.35700 22.91200
H  32.87500 2.93700 23.39500
H  31.43800 2.20100 24.07200
H  29.12800 5.09700 28.97400
H  28.87400 3.41800 28.41200
H  29.90700 4.53500 27.47500
H  30.96800 3.53200 33.76900
H  29.98800 7.29100 35.01900
H  30.66200 7.11100 36.70600
H  29.19900 6.25700 36.20100
Mg 42.47900 41.78500 26.92000
C  41.81900 44.33300 29.24600
C  43.37700 39.76700 29.50900
C  43.17600 39.51600 24.65000
C  41.82200 44.07500 24.24700
N  42.65000 42.07300 29.03100
C  42.18300 43.10200 29.81900
C  42.17900 42.75400 31.28700
C  42.92600 41.38000 31.31000
C  42.97600 41.03600 29.84800
C  44.25500 41.33100 32.02500
C  40.72800 42.87400 31.85600
C  40.44800 43.69800 33.05600
H  39.87800 43.02800 34.33900
N  43.18000 39.89400 27.06200
C  43.43700 39.18500 28.23900
C  43.79200 37.78700 27.86800
C  43.75500 37.69100 26.43600
C  43.33500 39.08100 25.96500
C  43.98400 36.76600 28.87700
C  44.05500 36.49000 25.52000
O  43.93900 36.46700 24.27500
C  44.43500 35.10700 26.10900
N  42.47300 41.81700 24.68200
C  42.77700 40.68600 24.03200
C  42.58600 40.77600 22.51500
C  42.04500 42.27900 22.35600
C  42.05600 42.78300 23.85600
C  43.88700 40.53800 21.74300
C  40.65600 42.51100 21.62600
C  39.55700 41.70800 22.29500
N  42.05400 43.88400 26.73300
C  41.70500 44.59000 25.57500
C  41.34500 45.90600 25.96500
C  41.29900 45.82200 27.44100
C  41.73600 44.56400 27.80300
C  41.05700 47.07400 25.01100
C  40.99500 46.59900 28.64400
O  40.55800 47.72600 28.83500
C  41.27300 45.62900 29.86600
C  42.28900 46.31300 30.72300
O  43.42500 46.71200 30.43000
O  41.69300 46.39200 31.99500
C  42.38400 47.28400 33.00600
H  43.56700 39.08900 30.34400
H  43.33000 38.64500 24.01000
H  41.58600 44.82100 23.48500
H  42.77000 43.55200 31.73600
H  42.19500 40.73500 31.79700
H  44.37800 40.72300 32.92100
H  44.53300 42.36300 32.23900
H  44.99600 40.98800 31.30400
H  40.20200 41.92900 31.99200
H  40.11000 43.29000 31.06100
H  39.73700 44.49300 32.82700
H  41.45100 44.05600 33.28600
H  43.96600 37.13000 29.90400
H  44.94100 36.27000 28.71400
H  43.19400 36.04500 28.67200
H  43.50300 34.56400 26.26400
H  44.95200 35.12200 27.06900
H  45.17900 34.56500 25.52500
H  41.87300 40.04800 22.12700
H  42.78500 42.86000 21.80500
H  44.73800 40.27200 22.36900
H  44.18400 41.48400 21.29100
H  43.72000 39.79700 20.96100
H  40.72400 42.12200 20.61000
H  40.43600 43.57800 21.64500
H  39.25900 40.94100 21.58000
H  38.73500 42.31700 22.67200
H  39.86100 41.23300 23.22800
H  40.32100 47.84400 25.24300
H  40.73300 46.76600 24.01700
H  41.99500 47.61600 24.89100
H  40.35200 45.50200 30.43600
H  43.23300 47.78400 32.54100
H  42.74700 46.69600 33.84900
H  41.60700 47.90300 33.45500

