158

Mg 36.02000 49.71400 24.86300
C  36.09700 47.64800 27.84100
C  35.31500 52.39200 26.95100
C  35.54400 51.41100 22.10700
C  36.61200 46.65500 23.10500
N  35.74100 50.00600 27.12300
C  35.87400 49.06300 28.10300
C  35.65900 49.71400 29.52700
C  35.15000 51.12900 29.10700
C  35.39500 51.21300 27.61700
C  33.73700 51.41000 29.69300
C  37.03400 49.77200 30.41300
C  36.82000 49.39800 31.92600
H  35.59600 49.87700 32.61500
N  35.54800 51.67800 24.53200
C  35.39300 52.66000 25.55400
C  35.25800 53.93200 24.91400
C  35.15500 53.68600 23.48800
C  35.38900 52.19300 23.30000
C  35.35900 55.23500 25.67700
C  34.83800 54.72600 22.35100
O  34.76200 54.39300 21.15900
C  34.57800 56.12900 22.63600
N  35.89100 49.04000 22.84400
C  35.90600 50.01200 21.93200
C  36.35600 49.44900 20.56100
C  36.87500 47.97900 20.95000
C  36.40400 47.87000 22.40100
C  35.21400 49.52900 19.36800
C  38.44000 47.90700 20.71100
C  38.93300 47.05300 19.56600
N  36.22600 47.59800 25.28400
C  36.41500 46.49300 24.48800
C  36.67000 45.31900 25.28200
C  36.46100 45.67700 26.55200
C  36.26500 47.08300 26.57600
C  36.86200 43.90100 24.78600
C  36.37200 45.24000 27.92900
O  36.44500 44.14500 28.42700
C  36.23900 46.47900 28.75500
C  35.08200 46.35700 29.65000
O  33.87400 46.30800 29.24700
O  35.43500 46.11000 30.92800
C  34.46200 45.67000 31.85800
H  35.24400 53.25500 27.61600
H  35.42700 51.93900 21.15800
H  37.02900 45.94200 22.39100
H  34.86300 49.12500 29.98300
H  35.81500 51.90300 29.49000
H  32.91900 51.20300 29.00200
H  33.66700 52.46100 29.97400
H  33.59000 50.74000 30.54100
H  37.40500 50.79300 30.32300
H  37.76700 49.14700 29.90300
H  37.66400 49.82100 32.47000
H  36.84600 48.31200 32.02600
H  34.39100 55.72400 25.57400
H  36.13200 55.82600 25.18500
H  35.72900 55.20700 26.70200
H  35.28100 56.63800 23.29500
H  33.60900 56.05600 23.12900
H  34.63000 56.67500 21.69400
H  37.17300 50.11200 20.27800
H  36.29300 47.23200 20.41100
H  34.18700 49.78800 19.62700
H  35.18000 48.59600 18.80600
H  35.54200 50.33100 18.70800
H  38.91500 47.57100 21.63400
H  38.84200 48.91000 20.57100
H  38.43300 47.33000 18.63700
H  38.78600 45.97500 19.62300
H  39.98200 47.28700 19.38100
H  35.88300 43.46600 24.58600
H  37.40400 43.33200 25.54100
H  37.44300 43.95300 23.86500
H  37.09300 46.70500 29.39300
H  33.98100 46.40600 32.50300
H  34.97500 45.08000 32.61800
H  33.60900 45.10000 31.48900
Mg -4.41700 24.70100 26.44300
C  -3.25700 26.38400 29.10200
C  -5.88400 22.45600 28.52000
C  -6.02100 23.24400 23.79300
C  -2.79000 26.82400 24.37100
N  -4.55800 24.44900 28.54900
C  -4.13400 25.39000 29.49800
C  -4.64800 25.04400 30.88600
C  -5.25200 23.62000 30.77900
C  -5.23900 23.44200 29.20500
C  -4.57200 22.48400 31.58900
C  -5.50700 26.19300 31.39800
C  -5.18400 26.61800 32.85200
H  -4.92300 25.55600 33.92000
N  -5.65000 23.04900 26.20400
C  -6.13600 22.26700 27.19600
C  -6.90900 21.16100 26.64500
C  -6.86900 21.34400 25.29900
C  -6.13300 22.59500 25.03900
C  -7.36100 20.06600 27.59700
C  -7.53500 20.40600 24.23800
O  -7.47600 20.54100 23.00100
C  -8.18400 19.13200 24.66400
N  -4.25900 24.91600 24.38200
C  -5.08400 24.25100 23.51300
C  -4.98700 24.89800 22.07500
C  -4.03100 26.05500 22.25900
C  -3.53600 25.88000 23.74400
C  -4.56500 23.86300 20.97700
C  -4.76400 27.44300 22.04400
C  -3.82100 28.60600 21.54800
N  -3.24400 26.26800 26.67600
C  -2.59200 27.01900 25.69900
C  -1.91500 28.18100 26.40400
C  -2.07400 27.86500 27.76000
C  -2.87600 26.76600 27.81900
C  -1.16900 29.37700 25.82900
C  -1.73800 28.23500 29.10100
O  -1.05800 29.21600 29.45500
C  -2.47800 27.36500 30.06400
C  -1.50800 26.70000 30.98400
O  -0.87800 25.61900 30.83500
O  -1.47400 27.40900 32.18900
C  -0.97600 26.59700 33.32000
H  -6.49700 21.85300 29.19400
H  -6.60000 22.78400 22.99000
H  -2.38300 27.56000 23.67400
H  -3.82300 24.96700 31.59400
H  -6.26500 23.64700 31.18200
H  -5.31600 22.09200 32.28200
H  -3.77100 22.87100 32.21800
H  -4.20500 21.70300 30.92200
H  -6.58300 26.02700 31.35800
H  -5.41000 27.11500 30.82600
H  -5.93800 27.24400 33.32800
H  -4.27500 27.21900 32.87700
H  -8.22700 19.54700 27.18700
H  -7.76100 20.41400 28.54900
H  -6.55000 19.35400 27.75500
H  -7.53500 18.60000 25.36000
H  -8.27700 18.54400 23.75100
H  -9.19400 19.35800 25.00700
H  -6.02100 25.23600 21.99600
H  -3.12700 26.03800 21.64900
H  -4.53500 22.86800 21.42200
H  -3.72600 24.31000 20.44500
H  -5.33200 23.90900 20.20400
H  -5.15600 27.77800 23.00500
H  -5.62100 27.36300 21.37400
H  -3.91600 28.83000 20.48600
H  -2.80800 28.32900 21.84100
H  -4.05300 29.40800 22.24900
H  -0.10800 29.25400 25.60800
H  -1.27100 30.32400 26.35800
H  -1.53900 29.48900 24.81000
H  -3.24700 27.96300 30.55400
H  0.06000 26.92000 33.42300
H  -1.04700 25.51000 33.27900
H  -1.56700 26.94200 34.16900

