158

Mg 16.25000 50.89700 25.27400
C  18.03200 49.62900 27.90600
C  13.62700 51.75400 27.48400
C  14.63300 52.16900 22.66800
C  18.90100 49.80100 23.11400
N  15.94100 50.80500 27.38800
C  16.90300 50.39800 28.30200
C  16.42100 50.60300 29.75800
C  14.89500 50.87500 29.55600
C  14.77400 51.15900 28.06800
C  13.92000 49.77700 30.05100
C  17.32500 51.63900 30.33800
C  17.32900 51.84800 31.86600
H  16.38800 51.03300 32.79100
N  14.37100 51.95100 25.11700
C  13.47600 52.16800 26.09800
C  12.37700 52.92400 25.53000
C  12.63000 52.96300 24.13500
C  13.90200 52.38000 23.89500
C  11.22800 53.45600 26.38100
C  11.82700 53.62000 23.10100
O  12.17100 53.74600 21.96000
C  10.44900 54.15600 23.46700
N  16.74000 50.97700 23.22000
C  15.82800 51.53600 22.38400
C  16.25900 51.27700 20.92200
C  17.72900 50.78400 21.13000
C  17.85900 50.54400 22.60900
C  15.30900 50.31300 20.17800
C  18.81600 51.78700 20.72800
C  19.64300 51.46900 19.37500
N  18.02700 49.84200 25.42400
C  19.00900 49.49600 24.51200
C  20.00900 48.66700 25.10800
C  19.66200 48.78300 26.45700
C  18.46100 49.49500 26.56100
C  21.15000 47.94000 24.52700
C  20.07600 48.32300 27.84300
O  20.92700 47.54800 28.20900
C  19.05500 48.86400 28.83100
C  18.45400 47.63800 29.40900
O  17.89300 46.75800 28.75900
O  18.52400 47.67100 30.79000
C  17.60900 46.81300 31.57100
H  12.84500 51.90100 28.23100
H  14.14200 52.38200 21.71600
H  19.62900 49.34600 22.44000
H  16.53000 49.66600 30.30400
H  14.73900 51.84800 30.02300
H  13.23400 50.38400 30.64300
H  14.40500 49.05300 30.70500
H  13.45100 49.20800 29.24800
H  17.13700 52.61900 29.90000
H  18.38900 51.49500 30.15100
H  17.30300 52.92700 32.02100
H  18.32700 51.57800 32.21200
H  10.97800 54.50800 26.24500
H  11.27000 53.17500 27.43400
H  10.36800 52.87900 26.04100
H  10.45100 54.99700 24.16000
H  9.88900 53.27400 23.77700
H  10.17000 54.72300 22.57900
H  16.28900 52.24900 20.43000
H  17.71600 49.83400 20.59500
H  15.83400 49.69300 19.45100
H  14.56200 50.82400 19.57100
H  14.78200 49.62000 20.83300
H  19.54400 51.83300 21.53900
H  18.36600 52.77800 20.78500
H  19.14300 51.28800 18.42300
H  20.46200 50.77600 19.57000
H  20.10400 52.43500 19.16800
H  22.09600 48.45100 24.70500
H  20.97900 47.64000 23.49300
H  21.13300 46.98900 25.05900
H  19.58800 49.50200 29.53700
H  16.95700 47.52100 32.08300
H  18.07600 46.21200 32.35100
H  16.91100 46.23900 30.96100
Mg -0.66600 42.67400 26.05300
C  1.98800 42.60100 28.32400
C  -2.82700 42.38300 28.69000
C  -3.15100 42.90800 23.86300
C  1.64700 43.31300 23.48400
N  -0.42100 42.40400 28.29100
C  0.74000 42.54900 28.96500
C  0.53600 42.68500 30.40900
C  -1.00900 42.41600 30.55800
C  -1.44700 42.37300 29.06800
C  -1.30800 41.18200 31.47400
C  0.93600 44.08500 30.93600
C  0.55000 44.46300 32.41600
H  0.49100 43.29000 33.42400
N  -2.66800 42.55400 26.25000
C  -3.38900 42.35800 27.41900
C  -4.76300 42.34600 27.07900
C  -4.95300 42.58200 25.72900
C  -3.56300 42.66400 25.19300
C  -5.80100 42.26100 28.09800
C  -6.25800 42.78700 24.91000
O  -6.26800 43.01000 23.66800
C  -7.67300 42.62400 25.55800
N  -0.71000 42.96900 23.91400
C  -1.89400 43.05400 23.27500
C  -1.80000 43.41900 21.79400
C  -0.18000 43.50200 21.66300
C  0.26100 43.30400 23.09800
C  -2.50300 42.43200 20.72700
C  0.30600 44.81300 20.93800
C  0.75400 45.98200 21.84200
N  1.42400 42.80000 25.87900
C  2.19600 43.09100 24.81000
C  3.54500 43.00100 25.17900
C  3.53300 42.73000 26.53100
C  2.18700 42.70600 26.91000
C  4.73000 43.17700 24.29700
C  4.34700 42.54400 27.70200
O  5.56600 42.48300 27.74500
C  3.35900 42.52700 28.95400
C  3.67600 41.44000 29.80800
O  3.61300 40.24700 29.49600
O  3.93600 41.88400 31.06000
C  4.08500 40.85900 32.12400
H  -3.50800 42.43300 29.54200
H  -3.99800 42.98600 23.17700
H  2.36000 43.56400 22.69500
H  1.13000 41.88700 30.85400
H  -1.52400 43.24900 31.03600
H  -2.11500 41.63000 32.05400
H  -0.49800 40.84400 32.11900
H  -1.70400 40.32900 30.92200
H  0.72400 44.89300 30.23600
H  2.01600 44.05400 31.08400
H  -0.36300 45.05500 32.36200
H  1.29300 45.21100 32.69000
H  -6.33100 43.21300 28.06100
H  -5.47300 42.04000 29.11400
H  -6.63600 41.60100 27.86200
H  -7.72900 41.59300 25.90600
H  -8.40800 42.90100 24.80200
H  -7.87100 43.27000 26.41400
H  -2.22400 44.42300 21.78900
H  0.17100 42.66500 21.05900
H  -1.86800 42.11300 19.90000
H  -3.37500 42.85900 20.23200
H  -2.83200 41.51500 21.21600
H  -0.56200 45.07100 20.33100
H  1.16900 44.49100 20.35700
H  0.53900 45.91700 22.90900
H  0.36600 46.93400 21.48000
H  1.81900 46.16600 21.69900
H  5.20300 44.06100 24.72400
H  4.50400 43.12200 23.23200
H  5.31000 42.26000 24.40100
H  3.53400 43.45200 29.50300
H  4.96400 40.22000 32.04300
H  3.16700 40.27600 32.20400
H  4.12500 41.51100 32.99700

