158

Mg 49.56300 45.01800 42.39400
C  45.94900 45.10300 42.17200
C  49.47400 41.65700 41.62800
C  52.87100 45.02700 42.20700
C  49.59400 48.45700 42.61300
N  47.79900 43.55000 41.82600
C  46.49600 43.80700 41.86600
C  45.68400 42.55700 41.66700
C  46.80900 41.48400 41.35700
C  48.13600 42.25200 41.58800
C  46.76500 40.08700 41.97400
C  44.50300 42.58100 40.59000
C  44.72500 43.40600 39.29000
H  44.83100 42.67400 37.96100
N  50.92000 43.54400 41.99000
C  50.68700 42.19700 41.75000
C  51.94600 41.56100 41.50000
C  52.99400 42.53400 41.67300
C  52.24600 43.79300 42.03400
C  52.06300 40.12000 41.21400
C  54.46100 42.26800 41.40500
O  54.83700 41.13600 41.12200
C  55.44200 43.41100 41.22600
N  51.03600 46.58900 42.17100
C  52.35200 46.33300 42.28700
C  53.21400 47.59500 42.67800
C  52.10600 48.70500 42.40800
C  50.82400 47.92600 42.44700
C  53.76200 47.60600 44.17100
C  52.24800 49.47900 41.02700
C  52.21500 50.99300 41.09600
N  48.07100 46.53200 42.44300
C  48.27300 47.89500 42.48000
C  46.97400 48.56300 42.52100
C  46.03900 47.46300 42.49300
C  46.74800 46.26300 42.40300
C  46.84200 49.99700 42.64600
C  44.61500 47.19800 42.55300
O  43.64100 48.00500 42.58200
C  44.54200 45.58800 42.45400
C  43.86100 44.78300 43.51800
O  42.76600 44.24900 43.45800
O  44.66400 44.79100 44.59000
C  44.41200 43.99000 45.80300
H  49.31900 40.59700 41.41600
H  53.90400 44.85500 42.51800
H  49.52400 49.52500 42.83000
H  45.27600 42.35700 42.65800
H  46.66000 41.34700 40.28600
H  47.18900 39.34200 41.30200
H  45.76200 39.79000 42.28100
H  47.43300 40.18200 42.83000
H  43.66500 42.94100 41.18700
H  44.31500 41.55500 40.27400
H  45.65500 43.96800 39.37800
H  43.94400 44.16500 39.24100
H  52.38000 40.01100 40.17700
H  51.11600 39.59000 41.31500
H  52.76100 39.62800 41.89100
H  55.77500 43.76800 42.20100
H  55.03700 44.26700 40.68500
H  56.38200 43.09200 40.77800
H  54.12400 47.67800 42.08300
H  52.12800 49.45000 43.20400
H  54.83000 47.80000 44.26900
H  53.69200 46.61900 44.62800
H  53.28300 48.37000 44.78300
H  51.36700 49.25200 40.42700
H  53.18100 49.22500 40.52400
H  52.46300 51.38900 40.11200
H  52.90900 51.33100 41.86600
H  51.23900 51.30400 41.46800
H  45.94800 50.33100 42.12100
H  47.69900 50.34700 42.07100
H  46.98200 50.29700 43.68500
H  44.02700 45.33300 41.52800
H  45.24700 43.30700 45.95700
H  43.53300 43.35400 45.69100
H  44.16400 44.66400 46.62400
Mg -11.91900 38.05700 42.33500
C  -9.85700 35.47400 41.05200
C  -9.90300 40.28400 40.48600
C  -14.34800 40.48500 42.50900
C  -14.06500 35.78300 43.57000
N  -10.09300 37.90700 40.92700
C  -9.48400 36.71500 40.56400
C  -8.27500 36.97400 39.63700
C  -8.07900 38.48300 39.87600
C  -9.41000 38.95000 40.39300
C  -6.78900 38.91500 40.78900
C  -8.49100 36.52600 38.19600
C  -7.50600 35.57600 37.46100
H  -6.64000 36.06600 36.28000
N  -12.05900 40.11400 41.77100
C  -11.12800 40.82800 41.02500
C  -11.47600 42.24400 41.00100
C  -12.74600 42.34500 41.57200
C  -13.17500 40.94900 41.96900
C  -10.64300 43.43600 40.38600
C  -13.57900 43.58800 41.68200
O  -13.14800 44.63900 41.19900
C  -14.93000 43.55700 42.26300
N  -13.91000 38.11300 42.81100
C  -14.74000 39.20200 42.93100
C  -16.04400 39.02900 43.57800
C  -15.84900 37.51900 43.95300
C  -14.48400 37.08600 43.39000
C  -16.34100 39.96900 44.78500
C  -17.09800 36.63700 43.41000
C  -17.61600 35.82500 44.59200
N  -12.02500 36.02600 42.31600
C  -12.92200 35.19100 42.92700
C  -12.48600 33.87200 42.88700
C  -11.34000 33.95000 42.06300
C  -11.04300 35.28100 41.74800
C  -13.17000 32.67200 43.67800
C  -10.29800 33.12900 41.41400
O  -10.13000 31.91800 41.38800
C  -9.30900 34.11800 40.73900
C  -7.96600 33.77500 41.21800
O  -7.16800 33.09200 40.56300
O  -7.70700 34.33500 42.49300
C  -6.42200 34.12400 43.15300
H  -9.29100 40.99100 39.92200
H  -15.18100 41.18900 42.57600
H  -14.75600 35.12300 44.09700
H  -7.38700 36.44800 39.98800
H  -7.86800 38.93900 38.90900
H  -6.18100 38.01300 40.73100
H  -7.10200 39.19600 41.79500
H  -6.19600 39.73600 40.38600
H  -8.60700 37.41800 37.58000
H  -9.46900 36.04400 38.18100
H  -8.00400 34.62600 37.26600
H  -6.68900 35.47800 38.17600
H  -11.16000 43.77100 39.48700
H  -9.64100 43.06300 40.17000
H  -10.51000 44.23200 41.11800
H  -15.35200 44.54900 42.42400
H  -14.93500 42.95600 43.17300
H  -15.53900 42.97300 41.57400
H  -16.75200 39.18600 42.76400
H  -15.65600 37.51600 45.02600
H  -16.74500 39.38000 45.60900
H  -16.96900 40.83100 44.56200
H  -15.42600 40.39600 45.19600
H  -16.76600 35.92600 42.65300
H  -17.90100 37.16900 42.90100
H  -18.56900 36.19100 44.97400
H  -16.90400 35.79600 45.41700
H  -17.76100 34.79200 44.27700
H  -14.18000 32.88200 44.03000
H  -12.48100 32.34100 44.45500
H  -13.40600 31.80400 43.06300
H  -9.38200 33.77700 39.70600
H  -6.04100 33.10300 43.14800
H  -6.45000 34.32800 44.22400
H  -5.82700 34.87100 42.62800

