158

Mg 53.87300 24.24000 45.05500
C  51.28600 26.34900 43.89900
C  51.89500 21.44200 43.92000
C  56.57600 22.39100 45.21000
C  55.75100 27.13600 45.91000
N  51.81900 23.92500 44.09100
C  50.97500 24.92200 43.72500
C  49.76400 24.40700 43.08800
C  49.69900 22.96300 43.71500
C  51.22300 22.70200 43.87000
C  48.83200 22.76500 45.00500
C  49.89600 24.41600 41.57000
C  48.53400 24.60100 40.92300
H  48.25600 23.94700 39.59900
N  54.12000 22.08200 44.79700
C  53.24800 21.21000 44.26200
C  53.93400 19.91400 44.30800
C  55.24200 20.15800 44.88700
C  55.37500 21.60500 44.94700
C  53.31300 18.55700 43.82700
C  56.29500 19.12900 45.18400
O  55.97700 17.94800 45.13400
C  57.76500 19.30800 45.57900
N  55.93200 24.71400 45.17500
C  56.83600 23.77900 45.29200
C  58.26200 24.31200 45.54400
C  57.97300 25.68900 46.13400
C  56.44900 25.89500 45.78500
C  59.24700 23.32200 46.27900
C  58.99700 26.86700 45.71400
C  60.22400 27.00400 46.64000
N  53.60000 26.36500 44.96900
C  54.44100 27.37500 45.45500
C  53.70000 28.68100 45.32300
C  52.45100 28.37800 44.70300
C  52.48000 26.92200 44.53900
C  54.23900 30.06800 45.78400
C  51.11800 28.77700 44.25400
O  50.66800 29.88400 44.24200
C  50.36300 27.52700 43.58200
C  50.23700 27.73000 42.08700
O  51.18400 27.80400 41.27800
O  48.86300 27.80800 41.73900
C  48.49100 28.21700 40.37800
H  51.26400 20.65200 43.50900
H  57.49900 21.83200 45.37400
H  56.22400 28.06000 46.25000
H  48.88700 24.92000 43.48300
H  49.28300 22.27500 42.97900
H  48.45200 21.74900 44.89600
H  47.99500 23.46300 45.01600
H  49.33900 22.78400 45.97000
H  50.34100 23.48000 41.23300
H  50.55700 25.21600 41.23500
H  48.42300 25.65500 40.66400
H  47.69300 24.39100 41.58300
H  53.94300 17.99000 43.14100
H  52.33700 18.82300 43.42100
H  53.14200 17.85500 44.64300
H  58.29400 18.35400 45.57600
H  57.92000 19.84100 46.51700
H  58.25500 19.93900 44.83800
H  58.67300 24.53800 44.56000
H  58.02700 25.60500 47.21900
H  59.82100 23.86800 47.02900
H  59.97300 22.96900 45.54600
H  58.74100 22.54400 46.85000
H  58.42000 27.76100 45.95200
H  59.22400 26.91500 44.64900
H  60.32600 28.04400 46.94700
H  60.96000 26.74200 45.87900
H  60.27500 26.26700 47.44200
H  55.32300 30.01000 45.69200
H  54.05600 30.27100 46.84000
H  53.84100 30.85400 45.14300
H  49.40100 27.41800 44.08300
H  49.35100 28.35200 39.72200
H  47.95000 29.16300 40.38700
H  47.95000 27.44400 39.83100
Mg -5.62100 24.32500 26.24900
C  -4.20600 25.95400 28.91400
C  -7.58100 22.47700 28.23000
C  -6.73300 22.52900 23.49400
C  -3.48000 26.12400 24.16400
N  -5.73700 24.24100 28.34800
C  -5.08200 25.03400 29.31800
C  -5.61000 24.65500 30.73900
C  -6.42800 23.31900 30.43500
C  -6.61300 23.33900 28.91700
C  -5.62800 22.01900 30.88600
C  -6.46700 25.81300 31.41400
C  -6.38400 26.02700 33.01300
H  -5.67500 24.94800 33.80500
N  -6.98700 22.71200 25.89300
C  -7.74000 22.19700 26.85300
C  -8.72600 21.31500 26.22100
C  -8.58200 21.36700 24.82000
C  -7.40000 22.21700 24.69200
C  -9.75700 20.47700 27.01700
C  -9.32700 20.64500 23.63500
O  -9.05300 20.76100 22.49900
C  -10.50100 19.67000 23.90000
N  -5.07400 24.24400 24.18300
C  -5.68100 23.39700 23.27600
C  -4.92800 23.33800 21.98700
C  -4.12200 24.66600 22.11800
C  -4.24800 25.10500 23.55200
C  -4.08400 22.09300 21.90100
C  -4.47800 25.78100 21.08700
C  -3.37400 26.62300 20.38800
N  -4.10500 25.76800 26.37900
C  -3.29500 26.39400 25.49600
C  -2.42300 27.33000 26.19700
C  -2.79200 27.20900 27.50900
C  -3.80300 26.22200 27.56500
C  -1.38400 28.10100 25.54800
C  -2.50700 27.71000 28.81600
O  -1.78300 28.63300 29.22400
C  -3.41900 26.87900 29.76800
C  -2.53100 26.08700 30.70600
O  -2.11800 24.96800 30.51300
O  -2.52000 26.77400 31.88200
C  -1.70400 26.09200 32.94300
H  -8.12100 21.83300 28.92600
H  -6.98200 21.95100 22.60100
H  -2.84400 26.70200 23.49100
H  -4.76700 24.35000 31.35900
H  -7.43200 23.18200 30.83600
H  -5.19500 21.57300 29.99100
H  -6.17700 21.27800 31.46800
H  -4.74500 22.28100 31.46800
H  -7.51900 25.62100 31.20400
H  -6.17600 26.77400 30.98900
H  -7.39100 26.20200 33.39400
H  -5.84400 26.95100 33.21700
H  -9.55200 19.41100 26.92100
H  -10.71400 20.65500 26.52600
H  -9.77700 20.60100 28.10000
H  -11.06300 19.34200 23.02500
H  -11.20500 20.12300 24.59800
H  -10.15900 18.75600 24.38400
H  -5.58900 23.31500 21.12100
H  -3.08300 24.37100 21.97500
H  -3.17200 22.44000 21.41500
H  -4.46900 21.26500 21.30500
H  -3.74200 21.74700 22.87600
H  -5.15200 26.50400 21.54700
H  -4.97600 25.32400 20.23300
H  -3.69400 26.89200 19.38200
H  -2.42400 26.09800 20.29600
H  -3.27000 27.55600 20.94200
H  -1.54100 29.17900 25.51900
H  -1.24700 27.76900 24.51800
H  -0.45700 27.80600 26.04000
H  -4.04400 27.59600 30.30100
H  -0.75700 26.63000 32.97200
H  -1.55200 25.02400 32.79200
H  -2.19900 26.11100 33.91400

