158

Mg 0.79200 7.25400 26.90600
C  1.45400 9.14200 29.68600
C  1.19100 4.38300 28.69500
C  0.99100 5.57600 24.01300
C  1.23700 10.33500 25.06800
N  1.34500 6.87700 28.90400
C  1.29300 7.75900 29.93100
C  1.21700 7.07500 31.25400
C  1.46200 5.58800 30.93700
C  1.34500 5.60000 29.41400
C  2.80200 4.89800 31.43500
C  -0.09200 7.38400 32.03800
C  0.05300 7.70800 33.50400
H  1.26600 7.10300 34.24400
N  0.88400 5.21000 26.41800
C  1.01800 4.13500 27.30000
C  0.96800 2.87300 26.54700
C  1.00700 3.23000 25.10400
C  0.96200 4.71100 25.12600
C  0.91000 1.57900 27.35400
C  1.04900 2.36600 23.98600
O  0.91700 2.78500 22.81400
C  1.18100 0.88300 24.15100
N  0.98800 7.88500 24.79800
C  0.98100 6.97200 23.79300
C  0.89300 7.60800 22.38300
C  0.93800 9.14100 22.78800
C  0.99900 9.12200 24.33600
C  1.97300 7.22900 21.38300
C  -0.30000 10.01800 22.33500
C  -0.04900 11.12000 21.32200
N  1.09700 9.30700 27.24100
C  1.31900 10.39500 26.39200
C  1.55600 11.62000 27.22400
C  1.66500 11.15300 28.50700
C  1.40300 9.74200 28.44000
C  1.59900 13.00500 26.75200
C  1.93100 11.49900 29.90600
O  2.28300 12.59300 30.36200
C  1.62400 10.27700 30.74500
C  2.66900 10.19300 31.73000
O  3.71400 9.68100 31.63000
O  2.29200 11.06300 32.69000
C  3.33700 11.35100 33.75300
H  1.33400 3.53700 29.37000
H  1.11600 5.09100 23.04200
H  1.45200 11.21600 24.46000
H  2.10100 7.42300 31.78800
H  0.69000 4.92400 31.32600
H  3.38300 5.58100 32.05500
H  3.45800 4.66400 30.59600
H  2.54000 4.02000 32.02500
H  -0.82300 6.58500 31.91700
H  -0.63700 8.15600 31.49600
H  -0.79700 7.31800 34.06200
H  0.06500 8.78600 33.66600
H  1.10700 1.76400 28.41000
H  1.84000 1.06900 27.10600
H  0.00100 0.99500 27.20900
H  0.32300 0.48700 24.69300
H  2.16900 0.63000 24.53500
H  1.14100 0.47600 23.14000
H  -0.08000 7.33200 21.97700
H  1.87100 9.59600 22.45600
H  2.80000 6.98500 22.05000
H  2.05800 8.14200 20.79400
H  1.58100 6.39300 20.80400
H  -0.85300 10.28200 23.23600
H  -1.01800 9.31700 21.91000
H  -0.51400 10.84900 20.37400
H  1.03000 11.14400 21.16600
H  -0.49800 12.06100 21.63900
H  1.70100 12.97600 25.66700
H  2.41500 13.55100 27.22700
H  0.63800 13.47100 26.97200
H  0.68500 10.56600 31.21700
H  2.90500 11.80700 34.64400
H  3.96100 12.10200 33.27000
H  3.80500 10.41500 34.06000
Mg 35.89600 1.80000 29.32600
C  33.90200 3.15400 31.81200
C  38.64700 1.99600 31.60400
C  38.07500 1.55900 26.72300
C  33.34000 2.36700 27.06000
N  36.18900 2.39600 31.50400
C  35.18100 2.84200 32.27800
C  35.67700 2.89900 33.74800
C  37.26800 2.80800 33.65800
C  37.37800 2.37300 32.16400
C  38.13400 4.03500 33.99700
C  34.99900 1.88600 34.69300
C  34.27300 2.46200 35.89200
H  35.05200 3.49000 36.67000
N  38.00500 1.49800 29.23100
C  38.92800 1.62000 30.24600
C  40.21000 1.21200 29.72600
C  40.10600 1.21800 28.26900
C  38.67200 1.36800 27.96600
C  41.44400 0.85700 30.56200
C  41.17200 1.13300 27.26300
O  40.92800 1.22100 26.09600
C  42.56000 1.29100 27.62400
N  35.70300 1.81200 27.18900
C  36.77300 1.66100 26.35500
C  36.33900 1.58300 24.89000
C  34.78600 1.56400 25.03000
C  34.54400 1.88100 26.50400
C  36.95400 2.72700 23.98600
C  34.14600 0.24300 24.64500
C  33.24600 0.08400 23.33900
N  34.04600 2.56000 29.38000
C  33.08700 2.70600 28.38900
C  31.90200 3.30700 28.93200
C  32.13800 3.42200 30.29100
C  33.48500 2.96500 30.48800
C  30.62800 3.60900 28.14400
C  31.55700 3.79000 31.54600
O  30.45900 4.27200 31.71700
C  32.69400 3.62800 32.55800
C  32.90500 4.95100 33.26300
O  33.62200 5.84300 32.92600
O  32.04200 5.05000 34.32900
C  32.19800 6.13900 35.26300
H  39.41400 1.87500 32.37200
H  38.58900 1.53600 25.76100
H  32.43500 2.34100 26.45000
H  35.39200 3.92800 33.96500
H  37.60100 2.02200 34.33600
H  37.56500 4.68200 34.66500
H  38.65100 4.47500 33.14300
H  39.00400 3.65900 34.53600
H  35.72200 1.27000 35.22800
H  34.34700 1.21700 34.13300
H  33.93600 1.66500 36.55400
H  33.34500 2.93600 35.57100
H  41.74100 -0.19200 30.56100
H  41.23000 0.99700 31.62100
H  42.28800 1.50700 30.33300
H  42.83700 0.43400 28.23800
H  42.81800 2.21800 28.13600
H  43.14300 1.27500 26.70300
H  36.66000 0.59000 24.57300
H  34.31300 2.37800 24.48000
H  37.95900 2.44400 23.67200
H  37.02100 3.65800 24.54800
H  36.36800 2.96200 23.09700
H  33.44900 -0.08900 25.41400
H  34.94300 -0.49500 24.55600
H  32.20500 0.25200 23.61600
H  33.33300 -0.86900 22.81700
H  33.47200 0.99000 22.77600
H  30.05200 2.71800 27.89400
H  30.79200 4.25700 27.28400
H  30.01900 4.09100 28.90800
H  32.35500 2.84200 33.23300
H  31.26500 6.05300 35.82000
H  32.14700 7.12200 34.79400
H  32.97700 6.02600 36.01700

