158

Mg 26.86000 50.43500 26.74600
C  24.76700 51.37900 29.32300
C  29.24100 49.80700 29.13700
C  29.01900 49.45700 24.23100
C  24.61800 51.38200 24.42500
N  26.96900 50.48900 28.94500
C  25.97800 50.96200 29.81300
C  26.42800 50.83600 31.27500
C  27.90000 50.59900 31.12200
C  28.07400 50.32100 29.62600
C  28.85100 51.79900 31.58000
C  25.60200 49.71000 32.10600
C  24.87400 50.24700 33.30900
H  24.78500 49.37900 34.54600
N  28.80800 49.66000 26.64300
C  29.64900 49.51900 27.76300
C  31.00000 49.04700 27.34700
C  30.90900 49.09600 25.90200
C  29.56000 49.37800 25.53700
C  31.97300 48.60100 28.34900
C  32.08000 48.95800 24.89600
O  32.01400 49.10300 23.67400
C  33.40600 48.74300 25.48400
N  26.82900 50.18200 24.62000
C  27.80300 49.83000 23.78700
C  27.26200 49.81200 22.31300
C  25.80100 50.37300 22.45000
C  25.72900 50.71700 23.93100
C  28.05900 50.50600 21.25600
C  24.65500 49.36300 21.96500
C  23.80300 49.80700 20.75900
N  25.09000 51.25300 26.82800
C  24.27000 51.61800 25.77400
C  23.14600 52.34100 26.38100
C  23.18700 52.18100 27.75000
C  24.43300 51.51300 27.93000
C  22.00400 53.01900 25.52300
C  22.52400 52.48200 29.04800
O  21.43900 53.05600 29.21500
C  23.58500 51.91200 30.13300
C  23.93800 53.13500 30.86000
O  24.65800 54.04600 30.45700
O  23.31800 53.03900 32.09600
C  23.76600 53.96700 33.16200
H  29.91100 49.59400 29.97300
H  29.66300 48.98600 23.48600
H  23.83900 51.58200 23.68700
H  26.23300 51.82000 31.70100
H  28.13900 49.79600 31.81900
H  29.28700 51.59800 32.55800
H  28.34600 52.75800 31.70200
H  29.67800 51.93000 30.88300
H  26.18800 48.88500 32.50900
H  24.87400 49.32300 31.39200
H  23.85800 50.44400 32.96500
H  25.32300 51.16900 33.67700
H  32.93300 49.11100 28.28300
H  32.21500 47.53800 28.34500
H  31.65600 48.82500 29.36800
H  33.84200 49.57000 26.04500
H  34.02600 48.45000 24.63700
H  33.30900 47.86300 26.12000
H  27.30300 48.75400 22.05200
H  25.62000 51.32100 21.94500
H  28.93900 50.92500 21.74500
H  27.50100 51.36800 20.89100
H  28.31200 49.83200 20.43700
H  24.10700 49.11900 22.87600
H  25.05700 48.42200 21.58900
H  24.04600 50.85300 20.57000
H  22.73700 49.80000 20.98500
H  24.06300 49.19700 19.89400
H  22.20200 52.79500 24.47500
H  22.06400 54.05300 25.86200
H  21.00700 52.66900 25.79200
H  23.05600 51.21500 30.78300
H  24.69700 53.69600 33.65900
H  23.03000 54.30100 33.89300
H  24.01300 54.97800 32.83800
Mg 7.14000 55.39100 41.68000
C  5.98800 52.27600 40.56700
C  10.14000 54.57800 40.78600
C  7.75200 58.74400 41.52700
C  3.91500 56.18200 42.58500
N  7.91700 53.60800 40.76900
C  7.33000 52.46200 40.43300
C  8.34600 51.38700 40.06100
C  9.73600 52.04600 40.45100
C  9.28400 53.48800 40.70600
C  10.47900 51.25900 41.60900
C  8.29000 50.88100 38.59500
C  8.89200 49.51000 38.39600
H  9.53700 49.44500 36.98500
N  8.75900 56.57600 41.28600
C  9.96900 55.96700 40.90900
C  10.93900 56.99900 40.77100
C  10.21500 58.22400 40.79100
C  8.82600 57.88200 41.20900
C  12.41800 56.69900 40.56400
C  10.71700 59.60900 40.49900
O  11.89700 59.79300 40.12600
C  9.97500 60.89600 40.68300
N  5.96600 57.26700 42.14300
C  6.48000 58.49000 42.02900
C  5.39200 59.49800 42.47700
C  4.24100 58.68500 43.03200
C  4.65100 57.33200 42.47800
C  6.09900 60.47700 43.47100
C  2.80100 59.17000 42.53700
C  1.73100 58.94600 43.59300
N  5.30500 54.43300 41.62900
C  4.08700 54.85300 42.05100
C  3.16400 53.77200 41.99600
C  3.79500 52.69700 41.25200
C  5.12300 53.19400 41.12800
C  1.79800 53.73200 42.61000
C  3.71200 51.30800 40.75300
O  2.83300 50.43300 40.86800
C  5.13400 51.01900 40.17400
C  4.85100 51.00400 38.74000
O  4.47300 52.02000 38.14800
O  5.13100 49.74600 38.15500
C  4.96400 49.70100 36.67900
H  11.20400 54.42500 40.59500
H  7.95000 59.81800 41.51300
H  2.93200 56.23500 43.05700
H  8.17100 50.54000 40.72400
H  10.31200 51.98300 39.52800
H  10.20500 51.57900 42.61400
H  11.50900 51.34900 41.26200
H  10.19900 50.21400 41.47300
H  8.93200 51.58900 38.07000
H  7.26800 50.93900 38.22100
H  8.04300 48.85100 38.57900
H  9.66600 49.29000 39.13100
H  12.45900 56.11200 39.64700
H  12.79000 56.12600 41.41400
H  13.00000 57.62100 40.55400
H  10.00100 61.21400 41.72500
H  8.95500 60.86100 40.29900
H  10.64800 61.60200 40.19700
H  5.29500 60.09600 41.57100
H  4.26400 58.57300 44.11600
H  7.18000 60.35400 43.54100
H  5.52200 60.48200 44.39500
H  5.94400 61.47200 43.05200
H  2.62800 58.46900 41.72100
H  2.90700 60.13600 42.04400
H  1.96300 58.25400 44.40300
H  0.92500 58.38400 43.12200
H  1.20500 59.85900 43.87300
H  1.40100 54.73900 42.73700
H  1.80000 53.22200 43.57400
H  1.13600 53.24400 41.89500
H  5.57100 50.04400 40.38900
H  5.48000 50.53400 36.20100
H  3.89800 49.90900 36.59300
H  5.15600 48.69100 36.31600

