158

Mg -11.86000 38.48500 42.02400
C  -9.62300 36.04800 40.74900
C  -9.70700 40.95800 40.70100
C  -14.35700 40.77500 42.28700
C  -13.98800 35.90700 42.97300
N  -9.93900 38.43200 40.88300
C  -9.23600 37.33700 40.48900
C  -8.03900 37.78000 39.64000
C  -8.05600 39.28900 39.76900
C  -9.35400 39.61800 40.45100
C  -6.83900 39.89700 40.57300
C  -8.04100 37.27900 38.16900
C  -6.94900 36.33300 37.66800
H  -5.88100 36.91400 36.73900
N  -11.96300 40.55400 41.59100
C  -10.90200 41.40300 41.23100
C  -11.39600 42.84200 41.13900
C  -12.77800 42.78100 41.58300
C  -13.11400 41.35200 41.82900
C  -10.50200 44.09600 40.85200
C  -13.72500 44.03100 41.70400
O  -13.39000 45.13600 41.29300
C  -15.08600 43.92600 42.26700
N  -13.86400 38.38800 42.44800
C  -14.64500 39.47600 42.68900
C  -16.13100 39.02900 43.26600
C  -15.95600 37.50100 43.24100
C  -14.51100 37.24300 42.77900
C  -16.40300 39.60300 44.70800
C  -17.01100 36.83200 42.28400
C  -17.03000 37.13500 40.76500
N  -11.86100 36.37700 41.91400
C  -12.69100 35.46700 42.44000
C  -12.14300 34.10700 42.40200
C  -10.93100 34.26700 41.67000
C  -10.81700 35.67700 41.39000
C  -12.79900 32.85000 42.92000
C  -9.74600 33.62100 41.04600
O  -9.38800 32.45700 40.95700
C  -8.90300 34.79600 40.46700
C  -7.58900 34.68400 41.17700
O  -7.33200 35.19100 42.23400
O  -6.76300 33.98200 40.34100
C  -5.34900 34.00100 40.66100
H  -9.16900 41.70900 40.11900
H  -15.21600 41.42200 42.48000
H  -14.63100 35.16600 43.45200
H  -7.18100 37.33700 40.14500
H  -8.30900 39.75100 38.81500
H  -6.88200 40.97300 40.74200
H  -5.87000 39.71400 40.10800
H  -6.84200 39.27300 41.46700
H  -8.13100 38.03000 37.38400
H  -8.97900 36.72800 38.11200
H  -7.43300 35.43800 37.27700
H  -6.25000 35.98900 38.43000
H  -9.53800 43.91900 41.32900
H  -10.94400 44.93200 41.39600
H  -10.44800 44.24200 39.77300
H  -15.70100 43.32200 41.60200
H  -15.51800 44.92600 42.22100
H  -15.08400 43.51900 43.27900
H  -16.87200 39.41200 42.56400
H  -16.00500 37.19800 44.28700
H  -16.01100 40.61200 44.83600
H  -16.01500 38.94200 45.48200
H  -17.44500 39.63300 45.02900
H  -17.98200 37.11200 42.69000
H  -17.00200 35.74300 42.33200
H  -15.99500 37.34600 40.49600
H  -17.73200 37.93100 40.51800
H  -17.39700 36.24000 40.26200
H  -12.15500 32.05400 42.54600
H  -13.82000 32.80700 42.54200
H  -12.61800 32.86000 43.99500
H  -8.89600 34.63900 39.38800
H  -4.67100 33.65600 39.88000
H  -5.17700 33.25100 41.43200
H  -5.10300 34.98400 41.06200
Mg -6.21100 25.21500 26.30700
C  -4.74300 27.10400 28.99900
C  -7.59600 23.07000 28.49300
C  -7.38900 23.42600 23.67200
C  -4.26400 27.21500 24.11600
N  -6.19300 25.19500 28.45300
C  -5.49300 25.98800 29.38700
C  -5.66900 25.45300 30.84900
C  -6.22700 23.97000 30.61700
C  -6.76000 24.11100 29.11000
C  -5.19600 22.92600 30.94600
C  -6.59300 26.37800 31.76200
C  -6.02700 26.86000 33.11900
H  -6.25700 26.04300 34.36900
N  -7.53800 23.67200 26.11800
C  -8.01400 22.94800 27.16900
C  -8.96800 21.94100 26.67200
C  -8.92700 22.02400 25.24200
C  -7.95500 23.09900 24.92000
C  -9.89200 21.23400 27.62300
C  -9.60500 21.18800 24.17600
O  -9.56400 21.50900 22.96900
C  -10.36800 19.99300 24.72100
N  -5.81000 25.27400 24.23800
C  -6.48900 24.45500 23.32900
C  -6.23000 24.91500 21.90000
C  -5.46100 26.24300 21.92300
C  -5.18600 26.27800 23.53400
C  -5.59800 23.79500 21.05800
C  -6.08000 27.46500 21.28000
C  -5.28300 28.14400 20.07500
N  -4.69000 26.79600 26.48100
C  -4.03200 27.48700 25.50600
C  -3.40100 28.65000 26.07700
C  -3.57600 28.49100 27.44900
C  -4.40700 27.39000 27.65500
C  -2.69800 29.74500 25.29900
C  -3.30200 29.12700 28.75500
O  -2.69700 30.15100 29.15500
C  -3.99300 28.14100 29.80200
C  -2.85800 27.42700 30.40900
O  -1.98600 26.89300 29.77500
O  -2.76800 27.69700 31.74700
C  -1.50800 27.40600 32.43500
H  -8.00200 22.35400 29.21100
H  -7.71600 22.91000 22.76600
H  -3.77200 27.89100 23.41400
H  -4.73000 25.41800 31.40100
H  -7.06300 23.82600 31.30100
H  -4.34600 23.31700 31.50600
H  -4.92300 22.39400 30.03500
H  -5.62000 22.19600 31.63500
H  -7.42200 25.79800 32.16700
H  -7.03700 27.18500 31.17900
H  -6.35900 27.88700 33.26500
H  -4.95200 26.74500 32.97700
H  -10.90400 21.00900 27.28500
H  -10.05200 21.69700 28.59600
H  -9.48900 20.26300 27.91100
H  -9.71500 19.45600 25.40900
H  -10.67400 19.36100 23.88700
H  -11.27300 20.27100 25.26100
H  -7.20800 25.02500 21.43200
H  -4.48300 26.02900 21.49200
H  -5.06800 23.07300 21.67800
H  -4.80400 24.20500 20.43300
H  -6.37100 23.34400 20.43600
H  -6.07700 28.23400 22.05300
H  -7.03800 27.15900 20.86100
H  -6.07100 28.02600 19.33100
H  -4.43500 27.58600 19.67800
H  -5.16300 29.21000 20.26500
H  -3.42100 30.53400 25.09500
H  -2.27300 29.44600 24.34100
H  -1.81700 30.06800 25.85500
H  -4.48600 28.47400 30.71500
H  -0.64600 27.99700 32.12500
H  -1.35800 26.34200 32.25400
H  -1.68400 27.60500 33.49200

