158

Mg 25.81200 0.83100 29.29900
C  27.84800 0.31500 32.18400
C  23.10800 0.91800 31.38600
C  23.98400 1.28000 26.61400
C  28.71100 0.19100 27.22200
N  25.56000 0.61600 31.48300
C  26.50700 0.57000 32.46100
C  25.83600 0.74100 33.89200
C  24.25300 0.58900 33.55100
C  24.34200 0.73200 32.03200
C  23.57100 -0.71800 34.10300
C  26.34600 2.03500 34.67000
C  26.50900 1.80100 36.21800
H  25.78200 2.82400 37.16300
N  23.78400 1.18300 29.11200
C  22.80900 1.21700 30.02000
C  21.54500 1.48700 29.42700
C  21.76800 1.46800 28.02200
C  23.24600 1.23000 27.83400
C  20.20600 1.47600 30.14800
C  20.71300 1.58900 26.91800
O  20.99000 1.47900 25.70400
C  19.22500 1.81600 27.19200
N  26.31400 0.70200 27.20000
C  25.30700 1.07300 26.31000
C  25.82300 1.29900 24.87500
C  27.25800 0.73900 25.05400
C  27.48000 0.48000 26.56300
C  24.99000 0.73500 23.69200
C  28.36700 1.61100 24.43800
C  28.42400 3.04900 24.96700
N  27.84000 0.20500 29.59000
C  28.86900 0.06200 28.66900
C  30.12600 -0.22800 29.42100
C  29.75900 0.01600 30.82200
C  28.42100 0.24400 30.84300
C  31.38000 -0.54800 28.79800
C  30.31500 0.04900 32.20500
O  31.44600 -0.08000 32.61700
C  29.04800 0.38400 33.07800
C  29.07000 -0.49700 34.27100
O  28.58000 -1.61400 34.28900
O  29.77700 0.03200 35.27300
C  29.87600 -0.83300 36.46300
H  22.20100 0.96400 31.99200
H  23.31600 1.61200 25.81600
H  29.67300 0.15100 26.70800
H  26.09700 -0.15300 34.45800
H  23.66000 1.45200 33.85300
H  24.33600 -1.39100 34.49200
H  22.80800 -1.22600 33.51400
H  22.98900 -0.45500 34.98600
H  25.61800 2.84600 34.70700
H  27.27400 2.38800 34.22000
H  27.59600 1.85100 36.28100
H  26.17200 0.80200 36.49500
H  19.55400 2.33800 30.01200
H  20.30200 1.42300 31.23300
H  19.65300 0.65300 29.69500
H  18.76000 1.04800 27.81000
H  18.53000 1.96600 26.36600
H  19.03400 2.75100 27.71900
H  25.84600 2.38700 24.81700
H  27.28300 -0.17200 24.45700
H  24.36900 -0.08500 24.05200
H  25.62700 0.32500 22.90800
H  24.36100 1.49900 23.23600
H  28.00400 1.64100 23.41000
H  29.31900 1.08300 24.37400
H  29.49700 3.24200 24.98000
H  27.96600 3.07000 25.95600
H  27.79700 3.67800 24.33600
H  31.56400 -0.19400 27.78400
H  31.46700 -1.63300 28.74600
H  32.15200 -0.06400 29.39700
H  29.09100 1.38700 33.50200
H  30.63000 -0.36200 37.09400
H  30.12400 -1.87700 36.27400
H  28.97600 -0.94500 37.06800
Mg 7.09600 53.30300 42.00500
C  6.53500 49.84500 41.90200
C  10.08300 52.84700 40.62800
C  6.97700 56.60900 41.36900
C  3.52800 53.55700 42.88000
N  8.24700 51.54100 41.35600
C  7.74300 50.24300 41.35100
C  8.86100 49.27400 40.88700
C  10.14100 50.19000 40.82000
C  9.51300 51.59600 40.97500
C  11.03800 49.82200 42.00700
C  8.64500 48.64000 39.38400
C  7.75300 49.48500 38.41600
H  8.21100 49.62800 36.91700
N  8.36500 54.55400 41.27200
C  9.58500 54.16600 40.77900
C  10.27100 55.34900 40.39500
C  9.46500 56.46100 40.63200
C  8.15300 55.93100 41.05600
C  11.78500 55.33200 39.97700
C  9.90900 57.91100 40.40800
O  10.99600 58.06800 39.86900
C  9.03900 59.04000 40.79600
N  5.53900 54.76900 42.21800
C  5.83800 56.05700 41.93600
C  4.64700 56.86200 42.32300
C  3.44000 55.92200 42.40100
C  4.23600 54.66600 42.60000
C  4.81200 57.80900 43.51600
C  2.52100 55.92500 41.14200
C  0.94900 56.03800 41.32400
N  5.27800 51.95000 42.43200
C  4.04500 52.22900 42.90500
C  3.33200 50.98600 43.04200
C  4.32100 50.05800 42.71400
C  5.46200 50.64400 42.36500
C  1.97100 50.92100 43.51200
C  4.59300 48.66600 42.78600
O  3.83700 47.72500 43.09100
C  6.02400 48.42400 42.22200
C  5.79300 47.58100 41.07200
O  5.10400 47.88300 40.10900
O  6.39900 46.34400 41.29800
C  6.11400 45.39500 40.22100
H  11.05000 52.65900 40.15700
H  6.90900 57.67700 41.15400
H  2.49900 53.72300 43.20600
H  9.00000 48.46600 41.60500
H  10.76200 50.01500 39.94200
H  10.40800 49.72200 42.89000
H  11.68200 50.67000 42.23900
H  11.61600 48.93500 41.74400
H  8.20600 47.64200 39.38100
H  9.62600 48.49200 38.93300
H  7.87800 50.50100 38.79200
H  6.70100 49.21700 38.52100
H  11.91800 55.75600 38.98200
H  12.16100 54.31900 39.83200
H  12.47600 55.78400 40.69000
H  8.39700 59.36700 39.97800
H  9.66500 59.83400 41.20400
H  8.46100 58.74700 41.67200
H  4.41000 57.49800 41.47100
H  2.91700 56.17400 43.32300
H  3.90200 57.76700 44.11400
H  4.82600 58.79000 43.04100
H  5.72800 57.59900 44.06900
H  2.69600 54.95900 40.66800
H  2.93000 56.60900 40.39800
H  0.56900 56.94100 40.84500
H  0.73400 56.04600 42.39300
H  0.52200 55.12100 40.92100
H  1.46200 51.88500 43.49400
H  1.99300 50.49300 44.51400
H  1.60300 50.24100 42.74400
H  6.66900 47.88200 42.91400
H  6.35300 45.84500 39.25800
H  5.09700 45.00400 40.20000
H  6.80200 44.55000 40.26800

