158

Mg 47.29400 45.25400 41.75000
C  43.98500 44.02600 42.39600
C  48.26400 41.98400 41.49000
C  50.20300 46.40600 40.40200
C  45.86500 48.45700 41.69600
N  46.20900 43.25800 41.72800
C  44.88600 42.99300 42.05500
C  44.54400 41.50700 42.16800
C  46.01200 40.92800 42.25700
C  46.91400 42.11100 41.88100
C  46.48600 40.44500 43.63000
C  43.69200 40.94000 41.04900
C  43.39600 41.83400 39.76900
H  43.47500 41.19500 38.36300
N  48.98600 44.31300 41.10600
C  49.22100 42.94300 41.11800
C  50.59900 42.74600 40.72000
C  51.07600 44.03900 40.27800
C  50.03800 44.99000 40.53100
C  51.30000 41.48500 40.61600
C  52.38200 44.18700 39.50100
O  53.16500 43.29500 39.29300
C  52.70600 45.55100 38.78500
N  47.94900 47.12100 41.12900
C  49.28900 47.37900 40.71800
C  49.52400 48.92500 40.77300
C  48.11400 49.44900 41.38100
C  47.20200 48.29100 41.27800
C  50.70200 49.25900 41.66200
C  47.80400 50.88100 40.89600
C  47.28200 51.77200 42.02400
N  45.32800 46.13600 41.96800
C  44.97100 47.49600 41.94100
C  43.57100 47.62800 42.35700
C  43.10300 46.24900 42.53000
C  44.19700 45.42500 42.28800
C  42.83100 48.89200 42.45500
C  41.97100 45.42900 42.84200
O  40.81700 45.70900 43.04000
C  42.54700 43.94800 42.82800
C  42.47700 43.53100 44.22000
O  42.80800 44.22400 45.18500
O  41.98900 42.25200 44.15700
C  41.93100 41.60500 45.52400
H  48.54400 40.93100 41.55900
H  51.17300 46.81800 40.11600
H  45.49600 49.46200 41.90800
H  43.99300 41.53700 43.10800
H  46.17900 40.13900 41.52300
H  46.69700 41.23600 44.35000
H  47.36100 39.80500 43.52400
H  45.67000 39.85700 44.05100
H  42.77400 40.50100 41.43900
H  44.29300 40.07200 40.77900
H  43.97100 42.75200 39.88900
H  42.35800 42.16800 39.78500
H  51.29700 41.05500 39.61400
H  50.74300 40.68800 41.10800
H  52.24500 41.32800 41.13700
H  52.03900 46.11900 38.13700
H  53.48600 45.09600 38.17500
H  53.16600 46.17200 39.55400
H  49.67300 49.31600 39.76700
H  48.30400 49.58000 42.44600
H  51.55300 48.83700 41.12800
H  50.59200 48.69500 42.58900
H  50.72200 50.30600 41.96300
H  47.22700 50.96100 39.97500
H  48.77900 51.27100 40.60500
H  48.02700 52.56700 42.02200
H  47.31300 51.44900 43.06400
H  46.26000 52.13500 41.91200
H  43.34500 49.69300 42.98600
H  41.88500 48.66600 42.94600
H  42.64000 49.22600 41.43500
H  41.89000 43.33700 42.20900
H  41.81600 40.54600 45.29500
H  41.21700 42.03600 46.22600
H  42.90100 41.70200 46.01200
Mg 41.48200 40.95000 26.63400
C  40.90000 43.46700 29.07600
C  42.23100 38.79500 29.41200
C  42.50000 38.71200 24.48500
C  40.92500 43.32100 24.13400
N  41.76900 41.15600 28.99900
C  41.24000 42.20700 29.68900
C  41.12000 41.80500 31.14000
C  41.82300 40.44100 31.22300
C  41.99400 40.10300 29.79100
C  43.18300 40.48300 31.98900
C  39.60000 41.83300 31.65200
C  39.28500 42.97700 32.63300
H  38.79900 42.59200 34.00500
N  42.17500 38.97700 26.89100
C  42.38500 38.26600 28.07300
C  42.73100 36.89500 27.76200
C  42.79600 36.75600 26.32600
C  42.52200 38.19800 25.79500
C  42.90200 35.81800 28.78600
C  43.09700 35.50000 25.41500
O  43.02200 35.58800 24.16100
C  43.46800 34.27500 26.09500
N  41.76200 41.04200 24.60300
C  42.08100 39.91200 23.94000
C  42.07500 40.17300 22.37400
C  41.39600 41.52600 22.35700
C  41.38000 42.02700 23.78200
C  43.47000 40.05700 21.72300
C  39.97800 41.53300 21.77200
C  38.91100 40.61500 22.42300
N  40.93600 42.95100 26.58900
C  40.78200 43.79000 25.45900
C  40.30700 45.04800 26.02600
C  40.31600 44.98900 27.36000
C  40.80500 43.72600 27.69300
C  40.18600 46.26100 25.15200
C  40.07500 45.78500 28.52900
O  39.67100 46.94000 28.66500
C  40.47000 44.82900 29.71600
C  41.58800 45.39200 30.49400
O  42.77800 45.39900 30.23600
O  41.05100 45.91300 31.63100
C  41.96100 46.78700 32.40300
H  42.35600 38.08400 30.23200
H  42.76200 38.04700 23.65900
H  40.73900 44.00100 23.30100
H  41.65300 42.53400 31.75100
H  41.23300 39.64200 31.67300
H  43.89400 40.67200 31.18500
H  43.49600 39.53600 32.42800
H  43.29900 41.32000 32.67700
H  39.27300 40.85700 32.01100
H  38.89900 42.03600 30.84200
H  38.48700 43.56800 32.18400
H  40.13600 43.63300 32.81800
H  42.18800 35.04000 28.51800
H  42.74800 36.15100 29.81200
H  43.89900 35.39700 28.65100
H  43.78400 33.56100 25.33400
H  42.76900 33.68400 26.68800
H  44.34800 34.52400 26.68800
H  41.51000 39.33000 21.97800
H  42.07300 42.17100 21.79600
H  43.90400 40.87400 21.14600
H  43.41600 39.17000 21.09100
H  44.19800 39.74200 22.47000
H  40.08700 41.36100 20.70200
H  39.59500 42.54900 21.67500
H  38.02800 41.22500 22.61200
H  39.34200 40.26800 23.36200
H  38.66100 39.76700 21.78400
H  40.61700 46.10000 24.16400
H  40.75400 46.99200 25.72900
H  39.17100 46.65700 25.19300
H  39.61000 44.67000 30.36700
H  42.67200 47.34700 31.79600
H  42.39700 46.26000 33.25200
H  41.38000 47.63500 32.76700

