158

Mg -10.28500 38.53900 41.60800
C  -8.77700 35.62700 40.32300
C  -7.95300 40.39800 39.89700
C  -12.12600 41.33400 42.23100
C  -12.84000 36.59200 42.98700
N  -8.67900 38.00500 40.08400
C  -8.18600 36.76300 39.86200
C  -7.02000 36.85900 38.83100
C  -6.51400 38.30500 39.19500
C  -7.81700 38.99400 39.75100
C  -5.35700 38.38400 40.20600
C  -7.61200 36.68600 37.40400
C  -7.00900 35.53000 36.51200
H  -6.46300 35.98000 35.14400
N  -9.99800 40.54800 41.24000
C  -8.96600 41.10900 40.55300
C  -9.16600 42.59300 40.53200
C  -10.31500 42.96600 41.26100
C  -10.91400 41.61200 41.64500
C  -8.10400 43.57000 39.87500
C  -10.79600 44.25500 41.61700
O  -10.05700 45.24500 41.46300
C  -12.03600 44.42900 42.45900
N  -12.19300 38.81800 42.32400
C  -12.72200 40.12200 42.52100
C  -14.13000 40.12600 43.08300
C  -14.35400 38.53600 43.22800
C  -13.05700 37.94200 42.82500
C  -14.49400 40.95000 44.34100
C  -15.51500 38.06600 42.40300
C  -16.86100 38.12900 43.11100
N  -10.73700 36.51100 41.69100
C  -11.74800 35.83300 42.40500
C  -11.47300 34.40100 42.32700
C  -10.39900 34.31300 41.46300
C  -9.97100 35.61400 41.08700
C  -12.15400 33.28100 43.09800
C  -9.51400 33.29800 40.80600
O  -9.51700 32.12800 40.90500
C  -8.41100 34.12800 40.00300
C  -7.04400 33.79700 40.51500
O  -6.57800 34.31600 41.53300
O  -6.37900 32.95600 39.66600
C  -4.96700 32.61600 39.99500
H  -7.14800 40.91600 39.37100
H  -12.77500 42.19400 42.40700
H  -13.62900 35.96300 43.40400
H  -6.36500 36.00000 38.98000
H  -6.20900 38.83600 38.29300
H  -4.97300 37.36400 40.21200
H  -5.60300 38.57300 41.25100
H  -4.59800 39.08000 39.84800
H  -7.51600 37.66100 36.92600
H  -8.68100 36.47800 37.44000
H  -7.85500 34.86800 36.32600
H  -6.18700 35.03400 37.02800
H  -7.95200 44.44200 40.51100
H  -8.45500 43.89300 38.89500
H  -7.13300 43.07400 39.89900
H  -11.80900 43.87800 43.37200
H  -12.95900 44.14500 41.95500
H  -12.12500 45.48900 42.69500
H  -14.61900 40.56900 42.21500
H  -14.54500 38.37000 44.28900
H  -15.33200 40.64000 44.96500
H  -14.82700 41.93600 44.01800
H  -13.53600 40.92100 44.86100
H  -15.36500 37.07500 41.97400
H  -15.69100 38.83000 41.64500
H  -17.63300 38.76900 42.68300
H  -16.86700 38.28400 44.19000
H  -17.26600 37.12500 42.99100
H  -13.22500 33.14800 42.95100
H  -11.89400 33.32600 44.15500
H  -11.67700 32.36700 42.74300
H  -8.57500 34.02600 38.93000
H  -4.45000 33.42200 40.51600
H  -4.35100 32.42600 39.11600
H  -4.87000 31.70600 40.58700
Mg -0.14800 43.90100 26.13900
C  1.87100 44.04400 28.98400
C  -2.88700 43.04900 27.96200
C  -1.75300 43.33500 23.18100
C  2.81300 44.51000 24.22600
N  -0.45700 43.49300 28.21200
C  0.49200 43.57500 29.20000
C  -0.17600 43.46900 30.60600
C  -1.60300 43.01400 30.26800
C  -1.66600 43.17400 28.72400
C  -2.07300 41.56800 30.72100
C  -0.24200 44.70700 31.61900
C  0.30600 44.37700 32.97100
H  0.07600 42.97400 33.69300
N  -2.04800 43.32000 25.59500
C  -3.06600 43.09100 26.56900
C  -4.27600 42.88600 25.77300
C  -3.95100 42.80700 24.36800
C  -2.51300 43.08100 24.35100
C  -5.64100 42.73600 26.43400
C  -4.82200 42.48400 23.13500
O  -4.40400 42.23900 22.01200
C  -6.31900 42.42700 23.26500
N  0.51400 43.78300 24.01100
C  -0.42800 43.71100 23.02000
C  0.16200 43.80800 21.66700
C  1.63100 44.40500 21.99500
C  1.66800 44.23400 23.49500
C  0.15700 42.50200 20.80600
C  1.93400 45.82600 21.43700
C  1.41100 47.11900 22.11400
N  1.91400 44.25400 26.52500
C  3.00400 44.51400 25.66200
C  4.22700 44.69300 26.42500
C  3.80800 44.59600 27.77000
C  2.45000 44.28400 27.72700
C  5.60500 44.89800 25.97500
C  4.20400 44.58900 29.17100
O  5.29300 44.74400 29.60000
C  2.96500 44.33600 29.97800
C  3.31600 43.13900 30.81900
O  2.84800 41.98800 30.62600
O  4.22800 43.49400 31.89500
C  4.53400 42.41900 32.85600
H  -3.77100 42.73000 28.51900
H  -2.24700 43.27300 22.20800
H  3.62400 44.99000 23.67500
H  0.26400 42.64300 31.16500
H  -2.32200 43.75300 30.62000
H  -2.47600 41.06400 29.84200
H  -2.95400 41.50700 31.35900
H  -1.26900 41.00800 31.19800
H  -1.22300 45.16300 31.75500
H  0.41400 45.34000 31.02200
H  -0.09600 45.24000 33.50000
H  1.36600 44.60800 32.86200
H  -6.16500 43.68000 26.28300
H  -5.57600 42.77400 27.52200
H  -6.17500 41.86200 26.06200
H  -6.61500 41.60700 23.91900
H  -6.65600 42.09200 22.28400
H  -6.67600 43.42000 23.53600
H  -0.27500 44.70400 21.22600
H  2.50400 43.85300 21.64700
H  -0.54500 41.86400 21.34200
H  1.15400 42.06300 20.82300
H  0.03700 42.51100 19.72200
H  1.69900 45.92900 20.37700
H  3.02300 45.81800 21.40400
H  2.28900 47.59900 22.54600
H  0.65400 46.82300 22.84100
H  0.84000 47.81200 21.49600
H  5.93700 44.12400 25.28300
H  6.26300 45.16600 26.80100
H  5.81100 45.78800 25.38000
H  2.86300 45.12000 30.72900
H  3.72300 42.56500 33.57000
H  5.37600 42.80300 33.43200
H  4.55300 41.40600 32.45300

