158

Mg 47.20400 34.41600 27.67700
C  45.53700 32.62600 30.13100
C  47.51200 37.07900 29.95400
C  48.27500 36.25700 25.24700
C  46.24300 31.84500 25.36700
N  46.59300 34.74600 29.82300
C  45.96400 33.79900 30.63800
C  45.96400 34.25400 32.04900
C  46.32500 35.82400 31.95800
C  46.95100 35.86800 30.51900
C  45.15000 36.85000 32.20300
C  46.97000 33.41400 32.94300
C  46.72800 33.35600 34.50100
H  45.88200 34.51200 35.13700
N  47.77700 36.36400 27.58700
C  47.99400 37.31900 28.64000
C  48.60400 38.47100 28.13100
C  48.95500 38.16700 26.77300
C  48.33800 36.90000 26.49900
C  49.03400 39.63700 29.10300
C  49.77500 38.94200 25.83000
O  49.95400 38.68300 24.63000
C  50.43100 40.25000 26.29100
N  47.23700 34.07300 25.61100
C  47.73300 35.07300 24.80500
C  47.69500 34.57800 23.31200
C  46.94500 33.21300 23.34900
C  46.79200 33.00700 24.84400
C  47.04900 35.64500 22.45200
C  47.60600 32.04600 22.56900
C  48.73900 31.25900 23.31300
N  46.37200 32.46900 27.67900
C  45.95800 31.58600 26.74000
C  45.41600 30.39000 27.33600
C  45.14000 30.84000 28.65300
C  45.70800 32.10200 28.81000
C  44.96900 29.09200 26.67800
C  44.42200 30.50800 29.82400
O  43.79400 29.53400 30.10100
C  44.42100 31.70800 30.74400
C  44.38100 31.27700 32.12900
O  45.22700 30.58400 32.64400
O  43.21800 31.73800 32.70700
C  43.17000 31.75300 34.21300
H  47.43400 37.87500 30.69700
H  48.74800 36.74300 24.39100
H  46.06600 30.96700 24.74300
H  44.93400 34.19100 32.40200
H  47.09700 36.14700 32.65700
H  44.18500 36.34500 32.22700
H  44.99800 37.53300 31.36800
H  45.42300 37.29700 33.16000
H  48.01500 33.71600 32.86900
H  46.92800 32.40700 32.52700
H  47.68000 33.44400 35.02500
H  46.09400 32.52600 34.81500
H  48.54200 40.55100 28.77000
H  50.11700 39.76100 29.11600
H  48.79000 39.46800 30.15200
H  49.79100 40.86800 26.91900
H  50.63200 40.99100 25.51700
H  51.39500 40.00000 26.73600
H  48.73300 34.47600 22.99500
H  45.91800 33.37100 23.02000
H  47.84700 36.19400 21.95200
H  46.32600 36.22300 23.02900
H  46.50200 35.15300 21.64800
H  48.04800 32.45200 21.65900
H  46.90100 31.35500 22.10800
H  48.39800 30.29200 23.68100
H  49.19800 31.76900 24.16000
H  49.72100 31.23800 22.84100
H  44.37200 29.39100 25.81700
H  44.48200 28.46200 27.42300
H  45.87600 28.66000 26.25500
H  43.42100 32.06200 30.49400
H  42.33800 31.12500 34.53100
H  42.90300 32.77800 34.47000
H  44.07500 31.49800 34.76600
Mg 41.83600 40.50700 26.15700
C  41.51600 43.10300 28.51900
C  42.56600 38.33600 28.89500
C  42.50700 38.17500 24.04800
C  41.25000 42.84200 23.64300
N  42.07500 40.76000 28.42900
C  41.79600 41.92800 29.14800
C  41.75400 41.64800 30.63700
C  42.35300 40.20800 30.74500
C  42.27700 39.71300 29.28100
C  43.77500 40.03700 31.36700
C  40.31500 41.71500 31.27400
C  40.25600 41.48500 32.82600
H  39.62000 42.66400 33.68800
N  42.58000 38.58800 26.40100
C  42.78000 37.91200 27.59500
C  43.16900 36.59000 27.22500
C  43.07300 36.45000 25.82000
C  42.72800 37.73800 25.39000
C  43.69800 35.52500 28.23700
C  43.37200 35.16600 24.97600
O  43.48200 35.25800 23.76500
C  43.48000 33.77800 25.65400
N  41.96800 40.58000 24.16500
C  42.22400 39.43200 23.42300
C  41.88500 39.56700 21.96100
C  41.23500 41.04700 21.97800
C  41.56600 41.55300 23.32100
C  43.07800 39.19400 20.91600
C  39.77600 41.28000 21.54600
C  38.75200 40.75000 22.48600
N  41.47100 42.62200 26.02700
C  41.33100 43.45800 24.94100
C  41.20300 44.87600 25.36200
C  41.19000 44.80700 26.77800
C  41.43300 43.39800 27.12700
C  41.07300 46.13000 24.45200
C  41.03100 45.50200 27.98700
O  40.88800 46.68100 28.21500
C  41.10500 44.45900 29.12400
C  42.21600 44.95800 30.04700
O  43.38600 45.02400 29.76900
O  41.75400 45.01700 31.37800
C  42.81800 45.29400 32.40500
H  42.89500 37.68900 29.71100
H  42.45900 37.37900 23.30100
H  40.98800 43.33200 22.70300
H  42.43400 42.32900 31.14800
H  41.63700 39.61400 31.31400
H  44.18300 41.03700 31.51700
H  44.42500 39.45300 30.71500
H  43.75900 39.41700 32.26300
H  39.79200 40.87300 30.81900
H  39.69500 42.58700 31.06500
H  41.30300 41.40200 33.11500
H  39.83000 40.51500 33.08300
H  43.71700 35.88400 29.26700
H  44.69500 35.31300 27.85200
H  43.11100 34.63700 28.00100
H  42.49800 33.47600 26.01800
H  44.34300 33.81900 26.31800
H  43.74100 33.02900 24.90600
H  41.03900 38.87900 21.95800
H  41.78800 41.56900 21.19800
H  43.29500 40.00600 20.22100
H  42.90600 38.34100 20.26000
H  44.03700 39.09000 21.42400
H  39.62100 40.68800 20.64400
H  39.48400 42.30600 21.32400
H  39.18800 40.63500 23.47800
H  38.35600 39.76400 22.24400
H  37.92400 41.43900 22.65100
H  41.37000 47.11000 24.82500
H  40.02000 46.24900 24.19400
H  41.65700 46.13000 23.53200
H  40.23800 44.58700 29.77200
H  43.80600 45.46000 31.97600
H  42.86700 44.39200 33.01500
H  42.47700 46.18100 32.93800

