158

Mg 24.39600 -4.72900 45.64800
C  26.50700 -2.32700 44.41300
C  22.05500 -3.84600 43.06100
C  22.71800 -7.47300 46.33000
C  27.08700 -5.91000 47.77200
N  24.27500 -3.21100 43.90300
C  25.25700 -2.38300 43.67700
C  24.86900 -1.58500 42.38200
C  23.33800 -1.83200 42.25100
C  23.18200 -3.04400 43.08900
C  22.38900 -0.72000 42.78500
C  25.60300 -2.16200 41.03800
C  26.54700 -1.18200 40.42900
H  26.32700 -1.06300 38.94600
N  22.57900 -5.47600 44.89800
C  21.82800 -4.98800 43.87400
C  20.64500 -5.84200 43.81400
C  20.80200 -6.89900 44.70300
C  22.07100 -6.62700 45.39000
C  19.41800 -5.45200 42.92400
C  19.73900 -8.02200 44.91100
O  18.74900 -8.17900 44.20500
C  19.77900 -8.90400 46.16600
N  24.92900 -6.53000 46.79000
C  23.94000 -7.37000 46.94500
C  24.42800 -8.55000 47.79000
C  25.63700 -7.97800 48.54000
C  25.96200 -6.73800 47.66000
C  23.39500 -9.18100 48.84900
C  26.79700 -9.06800 48.74000
C  27.37400 -9.39000 50.11300
N  26.39200 -4.13000 46.18100
C  27.37300 -4.71500 46.99900
C  28.62600 -3.95500 46.90300
C  28.33900 -3.00000 45.85200
C  26.93900 -3.19500 45.44800
C  29.98300 -4.30700 47.66900
C  28.85100 -1.96000 45.08100
O  29.96100 -1.51300 45.07800
C  27.71000 -1.50100 44.08300
C  27.51000 -0.05000 44.31300
O  27.57300 0.51300 45.38700
O  27.50700 0.71600 43.10100
C  27.73200 2.14000 43.30000
H  21.31700 -3.68400 42.27300
H  22.17100 -8.35900 46.65800
H  27.87700 -6.07100 48.50800
H  25.21200 -0.57400 42.60000
H  23.00800 -2.01400 41.22800
H  22.96000 0.02000 43.34500
H  21.63700 -1.05700 43.49900
H  21.92600 -0.14700 41.98200
H  24.87300 -2.43900 40.27700
H  26.12500 -3.08100 41.30300
H  27.58400 -1.48800 40.56500
H  26.50000 -0.15700 40.79900
H  19.09400 -6.31300 42.33900
H  19.54100 -4.67400 42.17100
H  18.55100 -5.19100 43.53100
H  20.33700 -9.83500 46.06800
H  18.78600 -9.33200 46.30800
H  19.95400 -8.24900 47.01900
H  24.77600 -9.34300 47.12800
H  25.31000 -7.62800 49.51900
H  23.81400 -9.65400 49.73700
H  22.81000 -9.94900 48.34400
H  22.76600 -8.36800 49.21200
H  27.64300 -8.55900 48.27800
H  26.63700 -10.02400 48.24200
H  26.83000 -8.81300 50.86100
H  28.41300 -9.07100 50.20200
H  27.19700 -10.42800 50.39400
H  30.59200 -5.08200 47.20400
H  29.82100 -4.64300 48.69300
H  30.53300 -3.37600 47.81000
H  28.10400 -1.76600 43.10200
H  28.56200 2.29400 43.99000
H  26.93800 2.71500 43.77500
H  27.94000 2.57400 42.32200
Mg 9.77800 48.19500 25.98700
C  8.02300 48.24400 28.97200
C  12.54400 49.24700 27.73300
C  11.45400 48.19200 23.07200
C  6.79700 47.57700 24.21900
N  10.15500 48.71200 28.06400
C  9.44400 48.47800 29.15200
C  10.14000 48.74800 30.40700
C  11.29600 49.61500 29.92200
C  11.41500 49.15100 28.46700
C  11.30200 51.13800 30.14300
C  10.60000 47.56700 31.38100
C  10.35600 47.67100 32.84500
H  10.15700 46.38500 33.70700
N  11.72600 48.62900 25.45400
C  12.75900 49.00000 26.35300
C  14.03000 48.93900 25.66600
C  13.68100 48.62200 24.27600
C  12.28600 48.39700 24.18500
C  15.47800 49.24600 26.16400
C  14.61600 48.63400 23.01100
O  14.14300 48.50300 21.90000
C  16.06100 48.84100 23.15100
N  9.13900 48.01900 23.94100
C  10.05400 48.05700 22.95300
C  9.42900 47.74300 21.59200
C  7.99400 47.30400 21.93700
C  7.93100 47.68500 23.40800
C  9.51300 49.01100 20.62300
C  7.67200 45.78000 21.72200
C  8.12700 44.78600 22.82800
N  7.78700 48.07800 26.39500
C  6.67300 47.82100 25.61000
C  5.55400 47.65400 26.48700
C  6.01600 47.75200 27.80300
C  7.40600 48.07800 27.70400
C  4.13700 47.51700 26.01900
C  5.63800 47.75500 29.18400
O  4.53300 47.62100 29.73400
C  6.94500 47.92600 29.99500
C  7.24400 46.74400 30.79000
O  7.76800 45.72500 30.43600
O  6.90300 46.97600 32.06700
C  6.85200 45.84600 33.01800
H  13.45900 49.67500 28.14700
H  11.88400 48.19000 22.06800
H  5.83100 47.33500 23.77100
H  9.53000 49.39000 31.04300
H  12.16600 49.31400 30.50500
H  10.72600 51.41000 31.02800
H  11.00900 51.60900 29.20500
H  12.25700 51.61300 30.36500
H  11.68500 47.53000 31.28900
H  10.26200 46.61100 30.98100
H  9.40000 48.18700 32.93800
H  11.08400 48.26300 33.39900
H  15.36200 49.40400 27.23700
H  15.98700 50.13400 25.79000
H  16.07600 48.33500 26.14800
H  16.39000 49.72600 23.69600
H  16.30500 48.85900 22.08900
H  16.50100 47.96900 23.63400
H  10.06100 46.94000 21.21300
H  7.12100 47.78300 21.49300
H  10.20700 49.76300 20.99900
H  8.54100 49.46000 20.41800
H  9.87500 48.68600 19.64800
H  7.98800 45.51600 20.71300
H  6.58600 45.68900 21.71600
H  7.26900 44.16000 23.07400
H  8.61300 45.33600 23.63300
H  8.83900 44.11200 22.35200
H  3.86000 46.47200 25.87700
H  3.95400 48.10900 25.12300
H  3.36000 47.89500 26.68400
H  7.01000 48.82800 30.60300
H  7.02600 46.31000 33.98900
H  7.44100 44.93700 32.90200
H  5.78700 45.61900 33.05400

