158

Mg 0.51000 -1.62700 43.16200
C  3.75600 -0.97000 42.22500
C  -0.42900 1.27400 41.45700
C  -2.74700 -2.54900 43.31900
C  1.51400 -4.74800 44.36700
N  1.54600 -0.00500 41.94600
C  2.92600 0.00800 41.75600
C  3.30900 1.20900 40.93600
C  2.01900 2.01200 40.87100
C  0.95500 1.09600 41.52600
C  2.14100 3.44100 41.44100
C  3.91600 0.75500 39.56100
C  5.17700 1.42400 39.11800
H  5.70400 1.21300 37.69700
N  -1.32800 -0.73900 42.55000
C  -1.50600 0.44100 41.86600
C  -2.91500 0.74100 41.74900
C  -3.62600 -0.30600 42.35600
C  -2.57400 -1.32900 42.69300
C  -3.38800 2.10000 41.23400
C  -5.17200 -0.33300 42.55800
O  -5.87900 0.58800 42.21300
C  -5.87400 -1.43800 43.23800
N  -0.40300 -3.39000 43.51600
C  -1.72700 -3.52900 43.65900
C  -2.19900 -4.88200 44.05200
C  -0.87600 -5.59200 44.40600
C  0.17900 -4.50300 44.10100
C  -3.29700 -5.05900 45.22900
C  -0.66900 -6.94900 43.72800
C  0.04000 -8.06300 44.60100
N  2.31600 -2.58500 43.43700
C  2.59000 -3.88600 43.97600
C  4.06200 -4.11300 43.90000
C  4.57600 -2.96300 43.22500
C  3.41200 -2.10800 42.94700
C  4.86600 -5.30400 44.28800
C  5.71700 -2.34600 42.76300
O  6.91300 -2.67000 42.81500
C  5.26400 -1.05400 42.08700
C  6.15100 -0.02400 42.67400
O  7.24300 0.29200 42.25900
O  5.52200 0.60600 43.71600
C  6.25300 1.57000 44.48400
H  -0.67800 2.19400 40.92600
H  -3.75600 -2.89400 43.55000
H  1.78700 -5.75600 44.68500
H  4.10400 1.73400 41.46600
H  1.81500 2.24000 39.82500
H  1.45200 3.36300 42.28100
H  1.67800 4.15700 40.76100
H  3.16400 3.68500 41.72600
H  3.20700 1.08300 38.80000
H  3.83700 -0.32500 39.43800
H  5.91900 1.21300 39.88800
H  4.95800 2.48300 39.25400
H  -4.46500 2.20500 41.10800
H  -2.94300 2.39200 40.28200
H  -3.15800 2.82000 42.02000
H  -6.92600 -1.24500 43.44400
H  -5.38000 -1.60000 44.19700
H  -5.91400 -2.40500 42.73700
H  -2.63700 -5.46500 43.24200
H  -0.85400 -5.74200 45.48500
H  -4.12500 -5.70200 44.93000
H  -3.49900 -4.04600 45.57600
H  -2.95500 -5.58000 46.12400
H  -0.18400 -6.79600 42.76400
H  -1.65800 -7.40000 43.64200
H  0.96200 -8.41400 44.13800
H  -0.61100 -8.85700 44.96700
H  0.45800 -7.54800 45.46500
H  5.05300 -5.95000 43.42900
H  4.18600 -5.88000 44.91600
H  5.73000 -5.01400 44.88600
H  5.61500 -1.20000 41.06500
H  6.86100 1.13400 45.27700
H  5.48200 2.18000 44.95600
H  6.69900 2.40000 43.93600
Mg -2.02100 34.81800 27.12000
C  -3.81100 33.48800 29.83900
C  -0.27500 36.84100 29.18300
C  -1.35300 36.83500 24.51200
C  -3.92200 32.72900 24.95600
N  -1.96500 34.98300 29.25900
C  -2.84800 34.44100 30.22100
C  -2.49100 34.97600 31.63200
C  -1.33600 35.98300 31.40300
C  -1.13100 35.91800 29.86800
C  -1.62400 37.46200 31.91900
C  -2.23400 33.93900 32.69000
C  -2.99500 34.16400 33.96300
H  -2.34100 33.83400 35.30600
N  -0.72400 36.43600 26.77400
C  -0.04000 37.05600 27.77000
C  0.69200 38.19300 27.25200
C  0.32600 38.23200 25.88300
C  -0.62000 37.13600 25.64200
C  1.55800 39.12300 28.06400
C  0.83000 39.18100 24.77400
O  0.57200 39.02700 23.61800
C  1.68400 40.31600 25.11700
N  -2.58200 34.77500 25.07900
C  -2.07600 35.68100 24.18400
C  -2.55100 35.34200 22.70100
C  -2.82700 33.79800 22.86800
C  -3.12400 33.74600 24.39100
C  -3.88500 36.17800 22.37400
C  -1.71300 32.90800 22.43900
C  -1.50500 32.36800 20.96700
N  -3.58200 33.39300 27.33500
C  -4.21300 32.66100 26.33300
C  -5.11400 31.70600 26.95000
C  -5.03400 31.96900 28.38700
C  -4.08800 33.03000 28.53300
C  -5.86100 30.57700 26.17800
C  -5.49500 31.62300 29.67400
O  -6.32400 30.81100 30.09000
C  -4.79500 32.62000 30.61300
C  -5.79500 33.43500 31.34500
O  -6.17100 34.53500 31.04700
O  -6.22300 32.75900 32.44400
C  -7.20800 33.39800 33.28000
H  0.22800 37.54900 29.84600
H  -1.07000 37.41200 23.62800
H  -4.39300 32.03800 24.25400
H  -3.39400 35.55100 31.83700
H  -0.43500 35.64900 31.91800
H  -1.80500 38.20300 31.14000
H  -0.81500 37.94300 32.46700
H  -2.53000 37.40200 32.52200
H  -1.19700 33.69600 32.92400
H  -2.59000 32.99800 32.27200
H  -3.87400 33.52600 33.86500
H  -3.37800 35.17600 34.09200
H  1.13700 40.10900 27.86600
H  2.58700 39.24100 27.72400
H  1.40700 39.01700 29.13900
H  2.52700 40.05800 25.75800
H  1.01800 41.08100 25.51600
H  2.11200 40.66500 24.17700
H  -1.82700 35.57200 21.92000
H  -3.66500 33.47500 22.25000
H  -3.67000 36.79500 21.50100
H  -4.14600 36.94900 23.09900
H  -4.77300 35.56300 22.22700
H  -1.86800 32.00800 23.03300
H  -0.73300 33.31300 22.69300
H  -1.89800 31.35200 20.92400
H  -0.44500 32.35700 20.71300
H  -2.01400 32.98400 20.22600
H  -6.86900 30.54100 26.59000
H  -5.44200 29.57800 26.30400
H  -5.82200 30.77100 25.10600
H  -4.19100 32.05500 31.32200
H  -8.19900 33.25300 32.84800
H  -7.09700 34.48200 33.25800
H  -7.23600 32.96600 34.28100

