158

Mg 40.53500 9.62100 29.67600
C  42.47400 10.77000 32.25800
C  38.18400 8.40200 31.96600
C  38.83400 8.13300 27.15100
C  43.15700 10.44700 27.42200
N  40.32100 9.69300 31.85000
C  41.22700 10.19600 32.73000
C  40.73600 10.20700 34.19100
C  39.53600 9.18500 34.10700
C  39.31500 9.10400 32.58700
C  39.67200 7.74100 34.62500
C  40.43700 11.69200 34.68400
C  40.85100 12.13700 36.04700
H  39.61100 12.59600 36.91700
N  38.69400 8.49100 29.59900
C  37.83600 8.17400 30.61500
C  36.68300 7.48600 30.08300
C  36.93400 7.26100 28.74800
C  38.25900 7.93600 28.41700
C  35.53600 6.84200 30.88400
C  36.20400 6.43900 27.70900
O  36.65600 6.29900 26.52800
C  34.85400 5.85100 28.02500
N  41.04600 9.29600 27.61000
C  40.06100 8.71100 26.80500
C  40.53900 8.72800 25.33400
C  41.63400 9.81100 25.33900
C  41.98600 9.83000 26.84700
C  41.04300 7.39900 24.85200
C  41.17900 11.20200 24.75400
C  40.67000 12.20300 25.74700
N  42.45900 10.43700 29.81100
C  43.39300 10.74300 28.76400
C  44.58900 11.34900 29.39700
C  44.17200 11.39300 30.74800
C  42.92600 10.85400 30.94300
C  45.86900 11.85600 28.72900
C  44.60000 11.97300 32.01700
O  45.62000 12.60000 32.32200
C  43.53000 11.58000 33.07400
C  44.25000 10.74600 34.07000
O  44.81000 9.66100 33.76700
O  44.30200 11.37500 35.31400
C  45.09600 10.69900 36.43700
H  37.44600 8.14300 32.72800
H  38.28700 7.73600 26.29300
H  43.86400 10.88300 26.71300
H  41.46100 9.85200 34.92400
H  38.66100 9.62400 34.58400
H  39.83200 6.97700 33.86400
H  38.77600 7.43500 35.16500
H  40.52200 7.72600 35.30700
H  39.36100 11.77000 34.52500
H  40.90500 12.43400 34.03800
H  41.40300 13.05900 35.86100
H  41.47200 11.45800 36.63200
H  35.77800 7.03600 31.92900
H  35.35500 5.77100 30.79600
H  34.54100 7.25000 30.70400
H  34.12600 6.60300 28.33000
H  34.92700 5.04700 28.75800
H  34.35900 5.46600 27.13400
H  39.71300 9.14900 24.76200
H  42.58700 9.62500 24.84300
H  41.44600 6.83100 25.69100
H  41.73700 7.57500 24.03000
H  40.13400 6.91600 24.49500
H  40.47800 11.11600 23.92400
H  42.09300 11.48100 24.23000
H  41.49500 12.65200 26.29900
H  39.92800 11.70800 26.37400
H  40.18600 13.09200 25.34200
H  45.74300 12.76000 28.13200
H  46.10300 11.05000 28.03300
H  46.60300 11.97400 29.52500
H  43.20100 12.46000 33.62700
H  44.39800 10.40500 37.22100
H  45.72600 11.44900 36.91600
H  45.59900 9.81400 36.04700
Mg -11.90300 16.36800 42.37600
C  -8.85400 14.81800 41.59700
C  -10.66200 19.17200 40.61700
C  -15.04700 17.71500 42.17500
C  -13.17800 13.34200 43.24600
N  -10.02600 16.85800 41.21200
C  -8.94500 16.07700 41.08900
C  -7.84500 16.73100 40.22900
C  -8.36900 18.18700 40.09800
C  -9.79700 18.09700 40.71100
C  -7.57500 19.35800 40.81400
C  -7.61300 16.02200 38.86600
C  -6.30800 15.28400 38.68600
H  -5.38400 15.76900 37.55600
N  -12.70400 18.29000 41.82800
C  -12.02100 19.26700 41.02000
C  -12.90700 20.38700 40.89900
C  -14.16800 20.05600 41.55600
C  -14.03600 18.64100 41.84800
C  -12.37600 21.66700 40.36000
C  -15.31900 21.02500 41.58900
O  -15.25900 22.06500 40.97500
C  -16.50300 20.75800 42.31500
N  -13.88900 15.61300 42.49400
C  -14.99700 16.34800 42.43200
C  -16.26200 15.45900 42.63700
C  -15.63900 14.20700 43.32700
C  -14.17300 14.33700 42.94400
C  -17.42800 16.06000 43.48100
C  -16.30300 12.94300 42.89300
C  -16.62700 11.94300 44.08000
N  -11.17600 14.53000 42.63100
C  -11.78300 13.39500 42.95700
C  -10.81800 12.27200 43.05200
C  -9.68300 12.84300 42.53600
C  -9.92100 14.16800 42.29000
C  -11.17700 10.90600 43.50800
C  -8.37300 12.55900 42.16900
O  -7.76500 11.52700 42.20600
C  -7.68800 13.81800 41.60500
C  -6.54800 14.32400 42.51700
O  -6.62300 14.88200 43.63100
O  -5.34600 13.95900 42.01600
C  -4.16300 14.23700 42.80500
H  -10.30400 20.04100 40.06000
H  -16.00300 18.24100 42.13800
H  -13.66900 12.45200 43.64600
H  -6.92700 16.91100 40.78900
H  -8.52000 18.45900 39.05300
H  -7.78300 20.26300 40.24400
H  -6.51800 19.18300 40.61000
H  -7.71700 19.41500 41.89300
H  -7.69200 16.74000 38.04900
H  -8.45500 15.34900 38.70300
H  -6.49900 14.25100 38.39400
H  -5.81900 15.36300 39.65600
H  -13.14700 22.39000 40.09300
H  -11.92700 21.60300 39.36900
H  -11.64400 22.20600 40.96200
H  -17.10300 21.66600 42.38600
H  -16.27800 20.29500 43.27600
H  -16.98300 20.05500 41.63500
H  -16.57200 15.19800 41.62500
H  -15.66300 14.33400 44.40900
H  -16.98900 16.95400 43.92300
H  -17.80300 15.42400 44.28300
H  -18.22300 16.47400 42.86000
H  -15.85100 12.51700 41.99700
H  -17.26800 13.21500 42.46600
H  -16.45400 12.35800 45.07300
H  -15.83300 11.19700 44.08600
H  -17.62100 11.49500 44.10200
H  -10.31500 10.34700 43.87200
H  -11.80000 10.29700 42.85300
H  -11.74300 11.16400 44.40300
H  -7.29200 13.61800 40.60900
H  -4.14100 15.24100 43.22900
H  -3.33900 14.12100 42.10200
H  -4.08200 13.54900 43.64700

