158

Mg 8.67400 4.61900 27.44600
C  9.46000 2.56200 30.23400
C  6.28500 6.11100 29.36300
C  7.56300 6.07400 24.64200
C  10.12200 2.00100 25.43400
N  7.88300 4.24300 29.49900
C  8.54500 3.52700 30.57000
C  8.02400 4.08300 31.88300
C  6.84100 5.00600 31.55300
C  6.97800 5.10500 30.02500
C  5.43000 4.47700 31.91100
C  9.07400 4.87500 32.67600
C  9.18100 4.74700 34.20000
H  10.49200 4.73800 35.00700
N  7.17700 5.92700 27.06300
C  6.35500 6.51600 28.02900
C  5.48000 7.46800 27.41600
C  5.86500 7.51100 26.00700
C  6.95500 6.50700 25.86800
C  4.27100 8.23800 28.07400
C  5.30700 8.41100 24.88400
O  5.70500 8.39000 23.73900
C  4.18000 9.38500 25.17800
N  8.82200 4.06000 25.30100
C  8.30000 4.95300 24.38500
C  8.70100 4.45600 22.99600
C  9.46100 3.09800 23.19900
C  9.45900 3.02000 24.73500
C  7.63700 4.35500 21.96500
C  10.90100 3.14600 22.52800
C  11.20400 2.14700 21.34300
N  9.84800 2.77100 27.66200
C  10.28300 1.81100 26.83100
C  10.91500 0.74300 27.55500
C  10.71300 1.13100 28.93300
C  9.91400 2.25600 28.94800
C  11.58100 -0.48800 26.90400
C  11.04500 0.71800 30.25600
O  11.85300 -0.15200 30.66600
C  10.24300 1.67100 31.20100
C  9.26100 0.89700 32.06400
O  8.21000 0.38900 31.69700
O  9.68400 0.97500 33.36800
C  8.67700 0.39400 34.32500
H  5.63300 6.82900 29.86500
H  7.39000 6.69200 23.75900
H  10.44000 1.21700 24.74300
H  7.75500 3.20000 32.46100
H  6.91200 6.01400 31.96200
H  5.71900 3.59200 32.47800
H  4.81300 4.12100 31.08500
H  4.89700 5.19700 32.53100
H  9.01500 5.91500 32.35300
H  10.08000 4.60100 32.35700
H  8.47700 4.00800 34.58200
H  8.68300 5.64100 34.57600
H  4.08300 7.99900 29.12000
H  3.33200 7.96900 27.59000
H  4.13600 9.28200 27.79300
H  4.51700 10.10600 25.92300
H  3.24200 8.91000 25.46600
H  3.88400 9.93300 24.28300
H  9.45200 5.18100 22.68100
H  8.99400 2.20700 22.77700
H  6.62200 4.45700 22.34900
H  7.63700 3.39300 21.45200
H  7.86600 5.00900 21.12400
H  11.62300 2.98600 23.32800
H  11.24500 4.10800 22.14700
H  10.32000 1.53200 21.17700
H  11.95700 1.45100 21.71300
H  11.57700 2.60700 20.42800
H  11.14600 -0.57000 25.90800
H  11.37800 -1.34800 27.54200
H  12.64400 -0.27000 26.80000
H  10.91800 2.29200 31.79000
H  9.09600 0.66300 35.29500
H  8.68900 -0.69600 34.34300
H  7.67300 0.79400 34.18100
Mg 26.14500 50.69400 27.60000
C  24.05700 52.05800 29.98900
C  28.27900 49.66900 30.00900
C  28.30200 49.79000 25.18800
C  24.04500 52.05000 25.16000
N  26.10200 50.78200 29.70500
C  25.11100 51.29400 30.52700
C  25.40400 51.04600 32.03000
C  26.88800 50.73400 31.97300
C  27.10600 50.27600 30.46900
C  27.91000 51.83200 32.43000
C  24.50900 50.01900 32.65400
C  24.03300 50.19000 34.14500
H  24.83500 50.88500 35.29900
N  27.94800 49.83900 27.62100
C  28.66400 49.34500 28.72200
C  29.93500 48.77500 28.33600
C  30.04300 48.86800 26.87300
C  28.70600 49.49700 26.49300
C  31.01900 48.12200 29.27400
C  31.18800 48.41400 25.98400
O  31.09200 48.41900 24.78600
C  32.50900 47.94500 26.49800
N  26.27500 51.09600 25.47200
C  27.26800 50.53200 24.64100
C  26.92700 50.67200 23.16300
C  25.47700 51.37500 23.13700
C  25.21500 51.46500 24.68600
C  27.99000 51.36700 22.25900
C  24.38800 50.66900 22.35800
C  23.96900 49.23800 22.70100
N  24.35000 51.68500 27.48300
C  23.65800 52.15500 26.48800
C  22.54900 52.98500 26.91100
C  22.73400 53.02200 28.32000
C  23.78900 52.18400 28.60300
C  21.57500 53.72300 26.09700
C  22.19000 53.47900 29.58500
O  21.29500 54.26800 29.84000
C  23.03000 52.83200 30.74200
C  23.70600 53.90800 31.56000
O  24.68700 54.56100 31.25500
O  22.89800 54.23400 32.68000
C  23.52400 54.91800 33.85200
H  28.97400 49.34100 30.78400
H  28.91700 49.46600 24.34500
H  23.40000 52.41600 24.35900
H  25.37100 52.05500 32.44000
H  27.08500 49.82300 32.53700
H  28.59000 52.12300 31.62900
H  28.50500 51.33500 33.19600
H  27.42800 52.71100 32.85800
H  24.92400 49.01700 32.54400
H  23.59000 49.85800 32.08900
H  23.88200 49.14300 34.40900
H  23.12600 50.79400 34.17000
H  30.40100 47.82500 30.12200
H  31.77700 48.84700 29.57200
H  31.53800 47.25300 28.87000
H  32.92000 48.71900 27.14600
H  33.14800 47.88500 25.61700
H  32.47900 46.91400 26.85000
H  26.83300 49.64900 22.79800
H  25.60700 52.42500 22.87200
H  27.51500 52.19700 21.73500
H  28.25000 50.61800 21.51100
H  28.84100 51.82000 22.76700
H  24.67600 50.70000 21.30700
H  23.52900 51.31500 22.54100
H  24.28500 48.62800 21.85400
H  22.88900 49.12400 22.60300
H  24.35000 48.83400 23.63900
H  22.09600 54.59000 25.69200
H  20.68600 54.01000 26.65800
H  21.28900 53.00300 25.33000
H  22.46500 52.18300 31.41200
H  23.75400 55.97300 33.70400
H  24.42400 54.32800 34.02600
H  22.91600 54.80100 34.74900

