158

Mg -1.89500 16.80300 25.54100
C  -2.35800 14.32400 28.07600
C  -2.68400 19.12500 27.87600
C  -1.91700 18.96800 23.01700
C  -1.69900 14.12500 23.17800
N  -2.34400 16.69900 27.77200
C  -2.43300 15.63100 28.62900
C  -2.82800 16.07200 30.02100
C  -2.94400 17.64700 29.91300
C  -2.65000 17.85500 28.42500
C  -4.20000 18.36100 30.37900
C  -1.89300 15.56800 31.13500
C  -1.84200 16.32600 32.45100
H  -1.44500 15.47700 33.68100
N  -2.32000 18.79600 25.40800
C  -2.53100 19.58500 26.53100
C  -2.53800 20.92000 25.97800
C  -2.48100 20.87200 24.51600
C  -2.24000 19.49600 24.24700
C  -2.86300 22.06400 26.95100
C  -2.66200 21.99800 23.51900
O  -2.50500 21.85700 22.32600
C  -2.70600 23.49700 24.12600
N  -1.87300 16.53900 23.39300
C  -1.77600 17.67700 22.59000
C  -1.62100 17.19200 21.13900
C  -1.41700 15.71300 21.26500
C  -1.73500 15.45300 22.67600
C  -2.73000 17.69900 20.16600
C  -0.02800 15.08900 20.81500
C  1.09800 15.54300 21.73300
N  -2.03600 14.64400 25.57300
C  -2.00300 13.76600 24.50000
C  -2.16400 12.41900 24.96500
C  -2.20000 12.55100 26.40100
C  -2.12300 13.92600 26.69100
C  -2.35200 11.13900 24.31200
C  -2.31200 11.88100 27.58300
O  -2.55600 10.68800 27.79700
C  -2.20400 12.93300 28.73300
C  -0.94700 12.80300 29.45800
O  0.08700 13.46100 29.25500
O  -1.06500 11.82400 30.36700
C  -0.07100 11.79900 31.44500
H  -2.83800 19.94900 28.57600
H  -1.83100 19.70100 22.21200
H  -1.74600 13.27700 22.49100
H  -3.80400 15.75200 30.38600
H  -2.12800 18.06500 30.50300
H  -4.66300 18.84300 29.51900
H  -3.90100 19.08400 31.13900
H  -5.02300 17.74500 30.74200
H  -0.93400 15.58800 30.61700
H  -2.15900 14.54400 31.39500
H  -2.72600 16.95700 32.54600
H  -0.99600 17.01200 32.41100
H  -3.20900 21.79900 27.94900
H  -3.62000 22.76200 26.59400
H  -1.98000 22.69700 27.04400
H  -1.79000 23.53500 24.71600
H  -3.62300 23.68900 24.68400
H  -2.42600 24.27300 23.41500
H  -0.69600 17.64800 20.78600
H  -2.17900 15.18000 20.69700
H  -2.25700 18.08200 19.26100
H  -3.27000 18.52000 20.63800
H  -3.49800 16.95500 19.95700
H  0.15700 15.24000 19.75200
H  -0.18400 14.02800 21.01300
H  1.23700 14.84500 22.55900
H  0.89900 16.55300 22.09400
H  2.00700 15.50200 21.13300
H  -1.39200 10.64100 24.17500
H  -2.82800 11.30200 23.34500
H  -2.88500 10.45400 24.97200
H  -3.12800 12.76400 29.28600
H  -0.50800 11.89700 32.43800
H  0.76100 12.49100 31.31300
H  0.44800 10.84200 31.49600
Mg 35.49200 1.17100 29.04100
C  33.44300 2.49300 31.60000
C  38.09000 0.97200 31.45400
C  37.52300 0.44000 26.56000
C  32.84700 1.77700 26.77700
N  35.75500 1.72200 31.30500
C  34.72500 2.17000 32.07800
C  35.14100 2.24800 33.55900
C  36.63600 1.78800 33.53800
C  36.88200 1.50400 32.05100
C  37.67300 2.65400 34.25500
C  34.38000 1.55100 34.67700
C  34.18300 2.15000 36.11200
H  35.07700 3.29500 36.62300
N  37.47600 0.58600 29.00400
C  38.37000 0.56900 30.11100
C  39.66600 0.13200 29.57600
C  39.53100 0.07500 28.13100
C  38.14600 0.39200 27.82400
C  40.89700 -0.10900 30.45900
C  40.67200 -0.17000 27.05900
O  40.39900 -0.34400 25.84900
C  42.06100 -0.44900 27.42800
N  35.29600 1.06300 26.97700
C  36.29000 0.84300 26.15700
C  35.82100 0.71500 24.72400
C  34.30200 0.91700 24.73300
C  34.07100 1.28800 26.24500
C  36.50600 1.71200 23.73000
C  33.44800 -0.30600 24.27900
C  32.51600 -0.17100 23.07100
N  33.55700 1.84900 29.12800
C  32.62200 2.13600 28.10400
C  31.45000 2.78900 28.62300
C  31.76400 2.89700 29.99900
C  33.03200 2.39000 30.26200
C  30.34300 3.27700 27.87900
C  31.19700 3.32700 31.20800
O  30.10400 3.88000 31.44000
C  32.22200 3.00600 32.31800
C  32.55600 4.25300 33.02900
O  33.24300 5.19500 32.60700
O  31.82300 4.33100 34.17000
C  31.91600 5.54600 35.00700
H  38.90900 0.97800 32.17700
H  38.17400 0.06700 25.76600
H  32.00500 1.91500 26.09500
H  35.12200 3.31200 33.79600
H  36.75100 0.83000 34.04500
H  37.21900 3.59300 34.57200
H  38.49000 2.90500 33.57900
H  38.24300 2.23800 35.08600
H  34.71400 0.53300 34.87800
H  33.40500 1.24300 34.29900
H  34.36900 1.25100 36.70100
H  33.16000 2.46600 36.31500
H  41.43800 -0.92500 29.98000
H  40.58400 -0.39200 31.46400
H  41.45300 0.81300 30.63300
H  42.20900 -1.42600 27.88600
H  42.32400 0.34600 28.12500
H  42.65400 -0.33900 26.52000
H  36.14600 -0.26800 24.38400
H  34.01900 1.70200 24.03200
H  37.01900 2.52200 24.25000
H  35.77900 2.31500 23.18500
H  37.00800 1.13500 22.95400
H  32.83800 -0.56100 25.14600
H  34.02600 -1.21400 24.10800
H  31.51200 -0.46700 23.37600
H  32.81200 -0.80900 22.23800
H  32.48000 0.87900 22.78100
H  29.48700 2.62100 28.03300
H  30.53300 3.29300 26.80500
H  30.07100 4.30600 28.11300
H  31.66300 2.34500 32.98000
H  30.91800 5.94400 35.19500
H  32.55100 6.32800 34.59100
H  32.31800 5.04200 35.88600

