158

Mg 44.57600 5.53200 48.44400
C  42.80100 8.51800 47.85900
C  41.69000 3.77000 47.45400
C  46.32900 2.62500 48.44600
C  47.43900 7.34600 48.46700
N  42.49500 6.10600 47.79800
C  42.00200 7.39500 47.55700
C  40.58800 7.38300 47.01100
C  40.17800 5.83400 47.14800
C  41.51200 5.17800 47.52200
C  39.06400 5.47100 48.17100
C  40.50800 8.07800 45.61500
C  39.03200 8.40200 45.21700
H  38.48400 7.86300 43.94900
N  44.04800 3.43500 48.09300
C  42.87700 2.94500 47.67000
C  42.96400 1.44500 47.71200
C  44.30900 1.15000 48.11700
C  44.98500 2.42600 48.34300
C  41.84600 0.53400 47.23600
C  44.80500 -0.24100 48.28900
O  44.17600 -1.25000 47.91100
C  46.19800 -0.51700 48.76800
N  46.53000 5.05300 48.69600
C  46.99500 3.79900 48.59500
C  48.54800 3.78900 48.39800
C  48.93000 5.30300 48.65000
C  47.57400 5.95200 48.58100
C  49.31900 2.76300 49.31600
C  49.88200 5.82300 47.50100
C  51.34300 6.07500 47.90400
N  45.09900 7.59700 48.43200
C  46.31400 8.19900 48.43000
C  46.16000 9.62800 48.34500
C  44.73700 9.83100 48.16100
C  44.19100 8.55300 48.12300
C  47.15800 10.66900 48.43400
C  43.64400 10.78100 48.03900
O  43.67300 12.01800 48.18000
C  42.38700 9.95100 47.91600
C  41.30400 10.24700 48.88500
O  41.17300 9.73400 50.02500
O  40.40000 11.11200 48.27900
C  39.20500 11.39300 48.97100
H  40.80700 3.15600 47.26900
H  46.93200 1.73000 48.28000
H  48.33000 7.97600 48.51500
H  39.94600 7.95100 47.68300
H  39.88100 5.35000 46.21800
H  38.25600 4.92000 47.69000
H  38.61400 6.40600 48.50800
H  39.30100 5.01300 49.13100
H  41.20100 7.58700 44.93100
H  40.95200 9.06900 45.52300
H  38.88100 9.48200 45.21600
H  38.42700 7.92900 45.99100
H  40.89800 1.07000 47.27300
H  41.69100 -0.35000 47.85500
H  42.07100 0.19200 46.22600
H  46.44700 -1.53500 49.06800
H  46.40000 0.10200 49.64200
H  46.81000 -0.35000 47.88200
H  48.56800 3.38300 47.38700
H  49.38200 5.45500 49.63100
H  48.66300 1.95600 49.64200
H  49.71400 3.26400 50.20000
H  50.15300 2.29300 48.79600
H  49.48700 6.68800 46.96700
H  49.86000 5.08800 46.69700
H  51.93100 5.18800 47.67000
H  51.54100 6.17000 48.97200
H  51.72300 6.95000 47.37700
H  47.86500 10.61700 47.60700
H  47.60000 10.72800 49.42900
H  46.69700 11.64200 48.26700
H  42.10800 10.29300 46.91900
H  38.48700 11.91900 48.34100
H  39.47300 12.12900 49.73000
H  38.79300 10.49200 49.42700
Mg 49.47100 34.86700 26.99300
C  47.24500 33.71900 29.52900
C  50.29000 37.46100 29.06600
C  51.04200 36.16600 24.39700
C  48.34600 32.16300 24.98300
N  48.67000 35.61100 29.06200
C  47.89100 34.93300 29.95900
C  48.03000 35.60100 31.33000
C  48.58600 37.00300 31.01000
C  49.24900 36.66700 29.63100
C  47.59000 38.17500 30.79400
C  48.98000 34.76400 32.26900
C  48.59500 34.62800 33.71700
H  49.42500 35.55100 34.69800
N  50.58600 36.57700 26.76900
C  50.86000 37.48000 27.82000
C  51.79500 38.39800 27.31500
C  51.92700 38.21900 25.88500
C  51.17700 36.95700 25.60900
C  52.44500 39.41300 28.27200
C  52.84500 38.99300 24.85500
O  52.83700 38.71500 23.62900
C  53.83900 40.06700 25.18000
N  49.75600 34.21200 25.04000
C  50.43500 34.94200 24.14100
C  50.36300 34.33100 22.68600
C  49.78300 32.94200 23.05900
C  49.23100 33.11900 24.41200
C  49.52500 35.22500 21.67700
C  50.82000 31.73900 23.08000
C  51.26200 31.16400 21.76200
N  48.05000 33.28600 27.16700
C  47.72100 32.30200 26.24900
C  46.80100 31.39400 26.85700
C  46.51000 31.96900 28.11900
C  47.27600 33.11300 28.26400
C  46.15100 30.21600 26.24900
C  45.73700 31.74900 29.36900
O  44.97500 30.87100 29.77500
C  46.18600 32.94000 30.29400
C  46.73000 32.48300 31.58900
O  47.74900 31.87800 31.73500
O  45.77400 32.73700 32.53200
C  45.90100 32.05400 33.86500
H  50.55000 38.28400 29.73500
H  51.53900 36.60200 23.52800
H  48.00700 31.38000 24.30100
H  47.04200 35.68600 31.78200
H  49.36300 37.36100 31.68600
H  47.70700 38.70400 29.84800
H  47.78000 38.93100 31.55600
H  46.56600 37.94000 31.08400
H  49.88900 35.36300 32.32100
H  49.23300 33.86000 31.71500
H  48.76600 33.58700 33.99100
H  47.53100 34.76000 33.91600
H  52.96000 38.91600 29.09400
H  51.69300 40.12700 28.61100
H  53.18600 40.05300 27.79300
H  53.99900 40.62600 24.25900
H  54.81600 39.62000 25.36800
H  53.60000 40.71300 26.02500
H  51.36700 34.29700 22.26400
H  48.87900 32.68500 22.50800
H  50.19700 35.50500 20.86700
H  49.28700 36.11000 22.26700
H  48.67700 34.69300 21.24600
H  50.39600 30.98100 23.73800
H  51.75700 32.12000 23.48700
H  51.23800 30.08900 21.93700
H  52.26200 31.38700 21.38900
H  50.42400 31.44200 21.12300
H  45.91400 30.47500 25.21700
H  45.24500 29.96400 26.80100
H  46.76300 29.31900 26.16100
H  45.29700 33.57100 30.29500
H  46.66400 32.53000 34.48200
H  46.20900 31.04000 33.61200
H  44.91100 32.05700 34.32100

