158

Mg 0.66500 8.26700 26.73400
C  1.07700 10.31200 29.62100
C  0.66500 5.48200 28.90700
C  0.91400 6.34900 24.11700
C  1.15900 11.09600 24.73300
N  0.86400 7.95100 29.00800
C  0.89200 8.98300 29.97400
C  0.74800 8.32600 31.36200
C  0.84600 6.78700 31.11800
C  0.80100 6.67800 29.61300
C  2.18400 6.20800 31.65600
C  -0.51100 8.86800 32.05700
C  -0.94200 8.04400 33.28200
H  -0.01200 7.83700 34.41200
N  0.64500 6.13900 26.54100
C  0.69200 5.19700 27.51600
C  0.69600 3.91500 26.84100
C  0.83400 4.15600 25.49400
C  0.76200 5.55800 25.28500
C  0.77200 2.62200 27.57700
C  0.90800 3.18800 24.29600
O  0.90000 3.54800 23.12600
C  0.86300 1.72900 24.52700
N  0.98900 8.65300 24.77300
C  0.96800 7.69100 23.81400
C  1.07000 8.34000 22.42600
C  0.87600 9.84900 22.65300
C  1.01900 9.89300 24.12900
C  2.41300 7.88300 21.80700
C  -0.41400 10.35700 22.14800
C  -0.42000 11.64400 21.25100
N  0.96300 10.30000 27.05000
C  1.18400 11.34900 26.12100
C  1.35000 12.57300 26.79600
C  1.26200 12.21600 28.20900
C  1.09800 10.82900 28.28200
C  1.40900 13.90900 26.13900
C  1.32600 12.73600 29.56200
O  1.48100 13.85900 29.98900
C  1.15600 11.47200 30.53100
C  2.24900 11.57400 31.58400
O  3.49100 11.50800 31.41500
O  1.71300 11.86600 32.79800
C  2.63900 11.86400 33.93300
H  0.74700 4.64700 29.60600
H  0.84100 5.78000 23.18800
H  1.13600 11.97400 24.08500
H  1.65200 8.60000 31.90600
H  -0.01600 6.21300 31.45600
H  2.04000 5.20300 32.05200
H  2.47100 6.78900 32.53300
H  2.92500 6.24200 30.85800
H  -1.31100 9.08200 31.34900
H  -0.06400 9.72800 32.55700
H  -1.48400 7.12800 33.04800
H  -1.62600 8.68600 33.83700
H  -0.09200 2.01600 27.30700
H  0.63900 2.68300 28.65700
H  1.64900 2.00400 27.37900
H  0.78500 1.16300 23.59900
H  -0.09900 1.58900 25.02000
H  1.78900 1.50100 25.05300
H  0.26200 8.01200 21.77200
H  1.68700 10.35000 22.12500
H  2.95400 8.79600 21.56000
H  2.27000 7.25600 20.92700
H  2.89200 7.30200 22.59500
H  -0.98500 10.53300 23.06000
H  -1.05900 9.69800 21.56800
H  0.61900 11.93700 21.10200
H  -0.95000 12.42400 21.79800
H  -0.88800 11.48800 20.27900
H  0.47000 14.43400 26.31500
H  1.59800 13.96700 25.06700
H  2.11500 14.52600 26.69500
H  0.27200 11.64200 31.14500
H  3.66300 11.56300 33.71000
H  2.19500 11.07200 34.53500
H  2.71400 12.80700 34.47500
Mg 45.21100 3.75800 48.02200
C  43.50000 6.65600 47.47200
C  42.37700 2.00300 47.36700
C  47.18200 1.05400 47.77000
C  48.19100 5.69600 47.94000
N  43.24000 4.25000 47.55500
C  42.69300 5.49000 47.39400
C  41.24800 5.42700 46.89500
C  40.81600 3.99100 47.44100
C  42.23500 3.40900 47.40200
C  40.28400 3.92100 48.84700
C  41.22700 5.56900 45.34700
C  40.02100 6.37700 44.89600
H  40.13100 6.79700 43.41100
N  44.80200 1.77100 47.72400
C  43.56100 1.24300 47.39000
C  43.72500 -0.20500 47.24400
C  45.07500 -0.56000 47.45900
C  45.78900 0.75700 47.68700
C  42.48000 -1.06500 46.93100
C  45.64600 -2.03700 47.52100
O  44.92800 -3.02100 47.29200
C  47.08600 -2.30700 47.88600
N  47.37200 3.44000 47.62600
C  47.87500 2.17600 47.82300
C  49.36700 2.17100 48.01800
C  49.68900 3.68600 47.63700
C  48.34700 4.31000 47.79400
C  49.91800 1.62100 49.30700
C  50.33700 3.87700 46.26200
C  51.84300 3.98800 46.24000
N  45.78100 5.78000 47.92400
C  46.97600 6.42000 47.95100
C  46.71500 7.87200 47.94600
C  45.35300 7.99300 47.79600
C  44.84900 6.69900 47.72500
C  47.79000 8.97100 47.91900
C  44.17600 8.91500 47.55400
O  44.19900 10.12500 47.51100
C  42.98000 8.12200 47.32300
C  41.98600 8.55800 48.34000
O  41.94900 8.27800 49.48000
O  41.13700 9.42800 47.75300
C  40.13600 9.94100 48.64200
H  41.48000 1.39400 47.23300
H  47.75700 0.12500 47.76500
H  49.12000 6.26800 47.90800
H  40.65600 6.18300 47.41000
H  40.15700 3.34700 46.85800
H  40.06100 4.96600 49.06300
H  40.86300 3.46900 49.65200
H  39.26100 3.54700 48.85700
H  41.30100 4.57000 44.91600
H  42.12800 6.06600 44.98700
H  39.99700 7.22700 45.57800
H  39.15100 5.75700 45.11200
H  42.73300 -1.81200 46.17800
H  41.58400 -0.65100 46.46700
H  42.14000 -1.53800 47.85200
H  47.14600 -3.29300 48.34600
H  47.21800 -1.59500 48.70000
H  47.65800 -2.09400 46.98300
H  49.79000 1.51900 47.25300
H  50.30300 4.01300 48.47600
H  50.83800 2.12700 49.60000
H  50.21000 0.57200 49.26100
H  49.15000 1.64300 50.08000
H  49.92500 4.75400 45.76400
H  50.00800 3.07500 45.60100
H  52.30800 3.20900 45.63500
H  52.28100 3.84200 47.22800
H  52.15800 4.97200 45.89300
H  48.43700 8.93400 47.04400
H  48.37100 8.96500 48.84100
H  47.32600 9.94800 47.78400
H  42.51000 8.36600 46.37100
H  40.44400 10.98500 48.70000
H  39.85900 9.45600 49.57800
H  39.24200 9.88900 48.02100

