158

Mg 35.69500 0.83100 30.16100
C  33.31800 1.99800 32.39400
C  38.00200 1.07800 32.54700
C  37.75800 -0.08200 27.88800
C  33.22600 1.35300 27.57800
N  35.71200 1.75800 32.25200
C  34.59500 1.83400 33.03700
C  34.97500 1.75800 34.54700
C  36.52700 1.87800 34.47100
C  36.76400 1.51500 33.01900
C  36.98500 3.33200 34.74600
C  34.50700 0.40200 35.17700
C  33.51300 0.57600 36.37400
H  33.99900 1.63300 37.42300
N  37.62500 0.42000 30.22300
C  38.41500 0.59200 31.30000
C  39.74600 0.11900 30.92500
C  39.68900 -0.24000 29.49800
C  38.28600 0.05200 29.14500
C  40.88100 -0.08900 31.86000
C  40.76400 -0.93300 28.54400
O  40.52600 -1.40900 27.42400
C  42.19000 -1.15700 29.04900
N  35.49300 0.57600 28.03900
C  36.51200 0.17100 27.35300
C  36.16300 0.00900 25.85900
C  34.63500 0.36000 25.82900
C  34.42600 0.77700 27.26200
C  37.07400 0.93500 24.94400
C  33.65900 -0.79500 25.36700
C  32.84300 -0.60400 24.07500
N  33.70400 1.62700 29.96000
C  32.87500 1.84300 28.84900
C  31.60000 2.38900 29.31300
C  31.68200 2.23000 30.73900
C  33.02100 1.94200 31.02800
C  30.42600 2.70800 28.48300
C  30.96400 2.30700 31.96100
O  29.77400 2.49200 32.04900
C  31.96100 2.19100 33.09700
C  32.02100 3.46600 33.81800
O  32.59500 4.49000 33.51100
O  31.33000 3.25800 34.97800
C  31.23000 4.40900 35.88600
H  38.82300 1.14600 33.26400
H  38.40800 -0.47100 27.10100
H  32.46000 1.30100 26.80200
H  34.61600 2.67200 35.02100
H  37.11200 1.11200 34.97900
H  36.74900 3.98400 33.90600
H  38.04800 3.29800 34.98500
H  36.56700 3.71200 35.67800
H  35.29900 -0.29100 35.46100
H  34.02500 -0.17900 34.39100
H  33.54400 -0.31800 36.99800
H  32.49000 0.70400 36.02000
H  41.72600 0.41300 31.38900
H  41.09000 -1.12300 32.13600
H  40.77900 0.46500 32.79300
H  42.74300 -1.71500 28.29300
H  42.15300 -1.86300 29.87900
H  42.51200 -0.17000 29.37900
H  36.17000 -1.06700 25.68900
H  34.29700 1.19300 25.21200
H  37.50400 1.65800 25.63800
H  36.39500 1.40500 24.23300
H  37.73500 0.35000 24.30500
H  32.98100 -1.07900 26.17200
H  34.16900 -1.75200 25.26200
H  33.31100 0.27300 23.62900
H  31.77500 -0.45300 24.23200
H  32.88300 -1.38300 23.31400
H  30.64200 2.58900 27.42100
H  30.14500 3.74600 28.65800
H  29.56100 2.12500 28.79700
H  31.70300 1.34600 33.73600
H  32.25400 4.46400 36.25700
H  30.54500 4.16300 36.69800
H  30.83900 5.33100 35.45500
Mg 47.82000 45.32400 42.74500
C  44.50400 44.25800 42.72500
C  48.71900 41.85400 42.60000
C  50.92600 46.13200 41.90700
C  46.73200 48.64500 42.60100
N  46.78300 43.33700 42.73200
C  45.43200 43.18000 42.71900
C  45.09700 41.68500 42.76500
C  46.41300 40.87800 42.91400
C  47.36100 42.07100 42.76500
C  46.58800 40.07400 44.30000
C  44.13300 41.04100 41.68400
C  44.74000 41.13900 40.19900
H  43.76900 41.00300 38.94400
N  49.60500 44.20200 42.39400
C  49.77200 42.80500 42.38400
C  51.23500 42.49100 42.24300
C  51.83600 43.71700 42.00100
C  50.85500 44.74900 42.08200
C  51.76900 41.10500 42.05400
C  53.29000 43.88700 41.62000
O  54.00200 42.89200 41.49900
C  53.91000 45.18900 41.41600
N  48.61800 47.03800 42.34000
C  49.97000 47.19000 42.05200
C  50.39100 48.66100 41.97900
C  49.20700 49.39500 42.52700
C  48.08500 48.30400 42.47500
C  51.68100 49.12900 42.67800
C  48.87000 50.68500 41.71600
C  48.55200 51.92200 42.54600
N  46.04000 46.26000 42.91100
C  45.68500 47.66800 42.65900
C  44.29700 47.79800 42.56800
C  43.74800 46.46500 42.69600
C  44.85700 45.59900 42.83600
C  43.49200 49.00400 42.16900
C  42.53400 45.71200 42.70900
O  41.34100 46.03800 42.61400
C  42.95900 44.18900 42.85200
C  42.37500 43.67900 44.15100
O  41.40500 42.90300 44.27200
O  42.89300 44.48400 45.12900
C  42.35200 44.43700 46.43600
H  49.03500 40.81300 42.69400
H  51.86500 46.60600 41.61400
H  46.44400 49.69400 42.69600
H  44.58300 41.61000 43.72400
H  46.66700 40.11600 42.17600
H  45.57400 40.01700 44.69400
H  47.15300 40.74700 44.94500
H  47.11700 39.12200 44.34000
H  43.08500 41.30700 41.82600
H  44.03900 39.98900 41.95500
H  45.37200 40.25300 40.26400
H  45.30300 42.05900 40.04700
H  52.24400 40.97400 41.08100
H  51.02100 40.34800 42.28800
H  52.63000 40.95800 42.70500
H  53.67800 45.64500 40.45300
H  54.98700 45.03800 41.48800
H  53.52700 45.80000 42.23400
H  50.49500 48.69900 40.89500
H  49.40500 49.65600 43.56700
H  51.63500 50.20200 42.86600
H  52.58900 48.86000 42.13700
H  51.76000 48.59700 43.62600
H  48.10900 50.40000 40.99000
H  49.71500 50.94300 41.07600
H  47.52800 52.27200 42.41800
H  49.10000 52.77900 42.15600
H  48.84900 51.73900 43.57900
H  42.61200 48.72700 41.58800
H  44.11900 49.69700 41.60800
H  43.25800 49.53800 43.08900
H  42.44500 43.67700 42.03900
H  41.52000 43.73700 46.51900
H  41.98600 45.38200 46.83600
H  43.21000 44.12700 47.03200

