158

Mg 53.38400 25.47800 44.79300
C  50.96100 27.71700 43.54300
C  51.41500 22.86300 43.81800
C  56.10700 23.27700 45.06600
C  55.51200 28.14800 45.36700
N  51.54000 25.41600 43.58900
C  50.67400 26.35600 43.23400
C  49.53300 25.84700 42.41900
C  49.41000 24.36800 43.07800
C  50.90000 24.18200 43.55100
C  48.43200 24.19900 44.28200
C  49.70100 25.68000 40.84500
C  48.70300 26.26300 39.89800
H  49.21300 26.61100 38.49700
N  53.77500 23.30000 44.44200
C  52.77200 22.47400 44.10300
C  53.31000 21.17000 44.20100
C  54.63500 21.21700 44.57500
C  54.94000 22.59500 44.67000
C  52.38600 19.92500 43.98600
C  55.50700 19.97100 44.87300
O  55.03000 18.86200 44.87000
C  57.01800 20.01100 45.17800
N  55.57400 25.62600 45.08300
C  56.42700 24.56900 45.23900
C  57.80400 25.11700 45.74100
C  57.62900 26.67300 45.74900
C  56.17000 26.87200 45.32700
C  58.32400 24.38100 47.01700
C  58.58100 27.41600 44.75500
C  59.70100 28.15300 45.46700
N  53.21600 27.50500 44.72000
C  54.20000 28.48100 45.03800
C  53.46700 29.74800 45.05100
C  52.22200 29.47600 44.35600
C  52.16100 28.12700 44.16600
C  53.98900 31.01700 45.61600
C  51.00800 30.09300 43.80900
O  50.77500 31.30300 43.69300
C  50.06000 28.91400 43.24900
C  49.67700 29.14400 41.89600
O  50.45200 29.08700 40.93300
O  48.35100 29.44900 41.86600
C  47.81000 29.85800 40.55600
H  50.61700 22.12700 43.69700
H  56.95100 22.63500 45.32600
H  56.12000 28.97800 45.73400
H  48.69900 26.50000 42.67500
H  49.28100 23.61900 42.29700
H  47.83700 23.31000 44.07200
H  47.72500 25.02700 44.34000
H  48.98100 24.09200 45.21800
H  49.89700 24.65300 40.53900
H  50.52600 26.34200 40.58300
H  48.28700 27.16800 40.34100
H  47.87200 25.56000 39.85000
H  52.88900 19.00400 43.69100
H  51.59300 20.21100 43.29600
H  51.86700 19.71800 44.92200
H  57.31600 18.98900 45.40900
H  57.29100 20.69600 45.98100
H  57.53400 20.46500 44.33300
H  58.56800 24.90200 44.99400
H  57.71900 27.04600 46.76900
H  58.91200 25.03900 47.65800
H  58.92200 23.47800 46.89600
H  57.44300 24.10200 47.59500
H  58.03800 28.12000 44.12400
H  59.15300 26.69700 44.16800
H  60.58400 27.52800 45.33800
H  59.52200 28.19900 46.54200
H  59.87000 29.14900 45.05600
H  54.99400 30.85600 46.00600
H  53.39000 31.34800 46.46500
H  54.00800 31.76300 44.82300
H  49.25400 28.69900 43.95100
H  47.32900 29.02000 40.05300
H  48.61700 30.32700 39.99200
H  46.96700 30.53100 40.71600
Mg 26.63800 49.91400 26.62300
C  24.66100 50.90900 29.33400
C  28.97900 48.83900 28.66400
C  28.41100 48.80000 23.90500
C  24.16800 51.32400 24.43300
N  26.75900 49.92900 28.75600
C  25.83700 50.33200 29.73700
C  26.45000 50.16400 31.12300
C  27.82600 49.52500 30.90200
C  27.87300 49.45300 29.32800
C  29.09400 50.26000 31.49600
C  25.50300 49.24900 31.98600
C  24.90700 49.83500 33.29900
H  25.88400 50.02000 34.51100
N  28.52500 48.92500 26.36100
C  29.34300 48.59300 27.37200
C  30.57600 48.05300 26.81100
C  30.40400 48.17700 25.40100
C  29.04700 48.62500 25.13000
C  31.73500 47.62900 27.68900
C  31.47900 47.96100 24.35400
O  31.32600 48.23900 23.15100
C  32.81600 47.68000 24.80800
N  26.40300 50.14200 24.42800
C  27.21400 49.51000 23.57000
C  26.80600 49.75600 22.10500
C  25.50900 50.60300 22.26000
C  25.34700 50.72100 23.82000
C  27.81400 50.63600 21.30200
C  24.20900 50.01300 21.58000
C  23.24200 51.15200 21.18800
N  24.86300 50.89400 26.77600
C  23.96800 51.40900 25.80600
C  22.87500 52.07600 26.44600
C  23.04500 51.80300 27.80500
C  24.23800 51.09700 27.99900
C  21.81200 52.97900 25.80900
C  22.44300 52.13600 29.05400
O  21.44000 52.76300 29.29800
C  23.53500 51.52300 30.13800
C  23.91600 52.64000 31.04900
O  24.86000 53.35300 30.93500
O  22.97100 52.81000 32.00700
C  23.32700 53.64700 33.14700
H  29.68500 48.42400 29.38700
H  28.85600 48.42400 22.98100
H  23.41400 51.88200 23.87500
H  26.43400 51.16100 31.56300
H  27.71600 48.48500 31.21100
H  28.82800 51.30200 31.67300
H  29.93000 50.24200 30.79700
H  29.47300 49.84200 32.42800
H  26.07000 48.35600 32.24700
H  24.71200 48.93100 31.30600
H  24.09200 49.20400 33.65300
H  24.55000 50.82200 33.00300
H  32.63200 48.22100 27.50400
H  31.98200 46.63000 27.33000
H  31.52200 47.55800 28.75500
H  33.07000 48.45700 25.52900
H  33.51900 47.72200 23.97600
H  32.85000 46.63600 25.12100
H  26.73400 48.80300 21.58100
H  25.68200 51.65300 22.02400
H  28.51400 51.22000 21.89900
H  27.34500 51.39700 20.67800
H  28.25700 49.95600 20.57500
H  23.70000 49.42800 22.34600
H  24.41000 49.44400 20.67300
H  22.34800 51.22400 21.80900
H  23.04900 51.06200 20.11900
H  23.85000 52.05500 21.23700
H  21.19900 52.34900 25.16400
H  22.21700 53.82800 25.25900
H  21.25000 53.48100 26.59600
H  23.09600 50.75500 30.77600
H  24.16100 53.12900 33.62000
H  22.47300 53.67500 33.82300
H  23.56700 54.65600 32.81100

