158

Mg 16.51100 51.55500 26.79900
C  18.31000 50.39300 29.63200
C  13.98800 52.43900 28.91000
C  14.65300 52.70100 24.07500
C  18.88700 50.14300 24.86000
N  16.13200 51.09300 29.06000
C  17.03600 50.77100 30.00900
C  16.44600 51.05000 31.44900
C  14.94100 51.53800 31.11800
C  14.99100 51.77200 29.62100
C  13.95400 50.38400 31.50000
C  17.27900 52.17000 32.19600
C  17.83100 51.89900 33.63700
H  16.92200 52.48100 34.72500
N  14.59400 52.38700 26.49000
C  13.74700 52.68900 27.53900
C  12.65100 53.51600 27.05900
C  12.80200 53.60200 25.69300
C  14.11100 52.96000 25.33900
C  11.46300 53.98400 27.92200
C  11.87300 54.17300 24.64200
O  12.27000 54.31600 23.48200
C  10.44400 54.74300 24.95300
N  16.71400 51.41800 24.76500
C  15.77800 51.90600 23.78200
C  16.41900 51.84300 22.41300
C  17.91900 51.09600 22.68100
C  17.88300 50.82700 24.17800
C  15.49300 51.23500 21.34400
C  19.12200 51.97700 22.24400
C  19.35800 53.35100 22.93700
N  18.20200 50.57200 27.10800
C  19.06100 49.97700 26.22800
C  20.25800 49.36700 26.87100
C  19.93800 49.53000 28.20700
C  18.72300 50.23300 28.32500
C  21.39300 48.63100 26.28200
C  20.37900 49.24400 29.54300
O  21.36900 48.62600 29.86100
C  19.46300 49.87200 30.51800
C  19.09300 48.85600 31.54300
O  18.31800 47.88500 31.49100
O  19.68500 49.21000 32.72900
C  19.44900 48.36200 33.93500
H  13.23600 52.79800 29.61400
H  14.15000 52.93800 23.13500
H  19.58700 49.77600 24.10800
H  16.39300 50.12300 32.01900
H  14.66100 52.47000 31.60900
H  13.08300 50.80100 32.00600
H  14.33800 49.72700 32.28100
H  13.75600 49.76700 30.62400
H  16.63900 53.03200 32.38400
H  18.03600 52.46500 31.46900
H  18.83400 52.32300 33.69600
H  17.90400 50.82200 33.78300
H  11.47100 55.06400 27.77700
H  11.49200 53.81400 28.99800
H  10.52500 53.49900 27.64900
H  9.65700 54.00100 24.81900
H  10.29300 55.48500 24.17000
H  10.45700 55.23900 25.92400
H  16.62000 52.88700 22.17300
H  18.04900 50.20500 22.06800
H  14.48700 51.26300 21.76300
H  15.81500 50.20600 21.18500
H  15.36000 51.84800 20.45200
H  18.77000 52.23800 21.24600
H  20.01500 51.35300 22.19800
H  18.74300 53.53800 23.81800
H  19.02400 54.15300 22.27700
H  20.43000 53.43000 23.11400
H  21.80600 47.90200 26.97900
H  22.15400 49.32900 25.93400
H  21.10900 48.13100 25.35600
H  19.87300 50.71600 31.07300
H  19.60500 47.31400 33.67700
H  18.44900 48.45200 34.36000
H  20.16100 48.64600 34.71000
Mg 0.58400 43.49400 25.97800
C  2.86700 43.54600 28.63700
C  -1.99300 43.06800 28.28700
C  -1.45200 42.91700 23.43000
C  3.30900 44.02900 23.86400
N  0.50900 43.21600 28.21100
C  1.51700 43.39400 29.04600
C  1.06500 43.26200 30.50400
C  -0.50500 42.94200 30.35000
C  -0.68300 43.10700 28.88500
C  -0.86700 41.43800 30.81900
C  1.38300 44.61500 31.23500
C  1.77500 44.54900 32.73000
H  1.45000 43.36800 33.61900
N  -1.47500 43.11300 25.85200
C  -2.37900 42.98400 26.94500
C  -3.73200 42.75200 26.41900
C  -3.48200 42.51400 25.02600
C  -2.11300 42.86100 24.71100
C  -5.01800 42.67600 27.27300
C  -4.39700 41.91800 24.01500
O  -4.03500 41.67900 22.87500
C  -5.81600 41.81500 24.37700
N  0.93600 43.38500 23.97200
C  -0.09300 43.12500 23.12500
C  0.37800 43.24600 21.66400
C  1.86700 43.84600 21.77500
C  2.09200 43.78000 23.29900
C  0.38900 42.00800 20.77800
C  1.98000 45.34300 21.31300
C  1.74100 45.57700 19.84500
N  2.64400 43.86600 26.14000
C  3.62300 44.00700 25.20300
C  4.87900 44.27000 25.78800
C  4.69800 43.95800 27.16400
C  3.31700 43.69300 27.36400
C  6.16400 44.71500 25.05600
C  5.30000 43.74700 28.51600
O  6.51200 43.71100 28.84200
C  4.13100 43.51700 29.50400
C  4.31500 42.28500 30.34800
O  3.85400 41.22600 30.08200
O  5.14600 42.62400 31.43100
C  5.47700 41.50500 32.33200
H  -2.73700 42.99300 29.08300
H  -2.05600 42.96500 22.52200
H  4.04400 44.31000 23.10700
H  1.57100 42.38200 30.90000
H  -1.05500 43.72300 30.87500
H  0.02500 41.01100 31.27700
H  -1.28900 40.83900 30.01200
H  -1.59100 41.47000 31.63300
H  0.60000 45.37300 31.20200
H  2.19900 45.09500 30.69500
H  1.43700 45.36600 33.36700
H  2.86300 44.60900 32.71400
H  -5.84500 43.25700 26.86600
H  -4.88400 43.21600 28.21000
H  -5.36600 41.67500 27.53000
H  -5.87600 41.27800 25.32400
H  -6.26500 41.15800 23.63200
H  -6.31700 42.78200 24.34700
H  -0.31000 43.92600 21.16000
H  2.61400 43.20300 21.30900
H  -0.35700 42.06700 19.98500
H  0.05000 41.17400 21.39300
H  1.36500 41.75100 20.36800
H  2.94500 45.80600 21.52000
H  1.22900 45.92800 21.84400
H  0.70200 45.89500 19.76000
H  1.82100 44.62800 19.31500
H  2.35400 46.37100 19.41600
H  6.47500 45.73800 25.27000
H  6.01600 44.64200 23.97800
H  6.93100 43.99900 25.34900
H  4.12900 44.41000 30.12700
H  6.23200 41.67300 33.09900
H  5.71700 40.55700 31.85000
H  4.56900 41.29700 32.89900

