158

Mg 48.02700 34.90500 26.85500
C  46.48800 33.37300 29.64900
C  48.63400 37.66700 28.74200
C  49.05100 36.24400 24.07400
C  46.92500 31.93900 25.01600
N  47.61800 35.46300 28.99600
C  47.05800 34.65300 29.97500
C  47.11900 35.40900 31.36900
C  47.45700 36.88400 30.92700
C  47.94600 36.64900 29.49200
C  46.24100 37.85500 30.89400
C  48.23600 34.81300 32.19700
C  47.87800 34.66700 33.65300
H  48.95800 34.96900 34.74400
N  48.87800 36.67000 26.43900
C  49.16400 37.66200 27.35200
C  49.93600 38.66100 26.69600
C  49.91400 38.40900 25.26400
C  49.16900 37.10300 25.24700
C  50.35900 39.94600 27.43100
C  50.48300 39.23700 24.18100
O  50.33400 39.02000 22.97000
C  51.37100 40.40500 24.53000
N  48.00000 34.11400 24.90400
C  48.47600 34.96800 23.92600
C  48.44100 34.29500 22.56000
C  47.86000 32.82800 22.89300
C  47.51000 32.96400 24.38700
C  47.72600 35.18300 21.56700
C  48.95500 31.73700 22.65000
C  48.41900 30.32800 22.39700
N  46.92500 32.99500 27.23900
C  46.62100 31.92000 26.33600
C  45.92500 30.83400 27.13900
C  45.77200 31.41100 28.39600
C  46.42300 32.71800 28.38000
C  45.43800 29.51300 26.67700
C  45.29600 31.14400 29.74700
O  44.73900 30.13200 30.19200
C  45.70400 32.47500 30.55700
C  46.31800 32.04900 31.89100
O  47.49200 31.70200 31.97300
O  45.45200 31.96300 32.93500
C  45.97300 31.13400 34.03100
H  48.76900 38.68300 29.11900
H  49.63500 36.63700 23.23900
H  46.58100 31.04000 24.49900
H  46.18900 35.46100 31.93500
H  48.28700 37.34600 31.46300
H  46.32700 38.59800 31.68600
H  45.35100 37.27700 31.14200
H  46.08800 38.41500 29.97200
H  49.07600 35.50600 32.22600
H  48.52500 33.86800 31.73600
H  47.69300 33.59300 33.66700
H  46.96900 35.20900 33.91600
H  50.01400 40.81300 26.86800
H  51.44200 39.85600 27.52500
H  50.01700 40.08500 28.45600
H  50.78500 41.26500 24.85700
H  51.91700 40.69800 23.63300
H  52.12200 40.09400 25.25600
H  49.49700 34.20000 22.30700
H  47.03400 32.68200 22.19700
H  47.22800 35.91400 22.20400
H  46.98000 34.62200 21.00400
H  48.36400 35.77300 20.90800
H  49.59100 31.58100 23.52100
H  49.55300 32.06300 21.79900
H  48.83100 29.58900 23.08400
H  48.56200 30.00200 21.36600
H  47.33200 30.33700 22.48400
H  45.81400 28.77300 27.38400
H  45.93600 29.34100 25.72200
H  44.38200 29.60400 26.42600
H  44.77500 33.00400 30.77100
H  45.40100 31.51500 34.87700
H  47.03100 31.35800 34.16700
H  45.76400 30.06600 33.96200
Mg 8.80200 48.06400 28.48100
C  7.25000 47.19100 31.49900
C  11.82600 47.93800 30.18300
C  10.25700 49.00300 25.58300
C  5.71000 48.59100 27.05800
N  9.41300 47.88500 30.67700
C  8.66000 47.34900 31.67800
C  9.47000 47.28700 33.03400
C  10.94000 47.58700 32.59600
C  10.72000 47.86200 31.04800
C  11.70500 48.77400 33.33000
C  9.29800 45.91000 33.70400
C  10.30900 45.41800 34.78300
H  9.81700 44.94900 36.23900
N  10.66000 48.43000 27.96400
C  11.85000 48.27600 28.81700
C  13.00300 48.33500 27.94100
C  12.57500 48.65100 26.63800
C  11.13700 48.65500 26.64900
C  14.45100 48.17100 28.45400
C  13.38700 48.90600 25.33300
O  12.89800 49.21200 24.23200
C  14.86600 48.82600 25.50200
N  8.09100 48.66300 26.62400
C  8.82900 49.06100 25.54400
C  8.05800 49.49800 24.30800
C  6.60800 49.29500 24.78000
C  6.82600 48.92100 26.26500
C  8.26200 50.98200 23.88800
C  5.88200 48.16900 24.08700
C  5.61700 48.28700 22.53300
N  6.83700 47.82500 29.07100
C  5.65900 48.05200 28.37000
C  4.54900 47.64200 29.17000
C  5.10500 47.34300 30.46300
C  6.49000 47.49900 30.34000
C  3.16000 47.42400 28.66900
C  4.77600 47.01300 31.83500
O  3.69600 46.94800 32.34500
C  6.19300 46.73800 32.59600
C  6.22000 45.33100 32.95300
O  6.65100 44.38900 32.23400
O  5.87400 45.25400 34.32700
C  6.02600 43.98900 35.02300
H  12.75500 47.66800 30.69000
H  10.62400 49.30900 24.60100
H  4.73200 48.75300 26.60100
H  9.06500 48.14400 33.57300
H  11.55200 46.69800 32.74700
H  12.77100 48.70200 33.11000
H  11.76400 48.71800 34.41700
H  11.30000 49.73900 33.02700
H  9.38700 45.20700 32.87600
H  8.34900 45.76900 34.22200
H  11.06000 46.17700 35.00200
H  10.90100 44.57400 34.42900
H  15.04600 49.08400 28.45600
H  14.90600 47.39200 27.84200
H  14.46100 47.90900 29.51200
H  15.23000 48.99400 24.48900
H  15.19700 47.84600 25.84500
H  15.19200 49.74100 25.99700
H  8.29500 48.87600 23.44500
H  5.98100 50.18600 24.81000
H  8.59700 51.00800 22.85100
H  8.98200 51.42700 24.57500
H  7.36300 51.59500 23.95100
H  5.02300 47.90700 24.70500
H  6.58400 47.33500 24.05500
H  6.25900 49.01100 22.03000
H  4.54200 48.43400 22.42800
H  5.85700 47.33100 22.06800
H  2.57000 46.88300 29.40900
H  3.08400 46.82700 27.75900
H  2.60300 48.34000 28.47100
H  6.22000 47.41900 33.44700
H  5.12900 43.39800 34.84200
H  5.97300 44.23900 36.08200
H  6.95400 43.50500 34.72000

