158

Mg -2.12100 17.49400 26.65200
C  -2.58300 15.30600 29.56500
C  -2.31900 20.11300 28.85100
C  -2.15800 19.62700 24.06200
C  -2.44400 14.81900 24.64900
N  -2.29200 17.65100 29.02600
C  -2.39700 16.65500 29.92800
C  -2.53400 17.29300 31.36700
C  -2.45600 18.81300 31.10000
C  -2.33000 18.89700 29.56000
C  -3.62300 19.72900 31.66300
C  -1.51900 16.72800 32.40100
C  -0.93500 17.60900 33.57200
H  -0.56300 16.81700 34.86000
N  -1.99900 19.62600 26.47300
C  -2.11600 20.48900 27.44100
C  -1.94700 21.81900 26.88900
C  -1.79300 21.78200 25.51200
C  -2.00300 20.30000 25.33300
C  -1.80300 23.04800 27.73100
C  -1.52500 22.78200 24.48100
O  -1.52200 22.54300 23.27100
C  -1.15300 24.19700 24.75400
N  -2.36800 17.23300 24.65600
C  -2.33000 18.26700 23.72400
C  -2.51200 17.76800 22.29400
C  -2.18700 16.23300 22.53800
C  -2.32700 16.06200 24.04700
C  -3.85400 18.13700 21.71300
C  -0.81800 15.73900 21.99100
C  0.46400 15.80100 22.91100
N  -2.43400 15.44400 27.01200
C  -2.58200 14.45000 26.03200
C  -2.64900 13.16700 26.65600
C  -2.60700 13.48700 28.05700
C  -2.54300 14.83900 28.18500
C  -2.70800 11.88400 25.94000
C  -2.60700 12.91300 29.42000
O  -2.55300 11.76200 29.75900
C  -2.65400 14.06000 30.44000
C  -1.45000 13.72700 31.26900
O  -0.32500 14.05200 30.93600
O  -1.85400 13.25400 32.50600
C  -0.71900 12.86100 33.32900
H  -2.19300 20.95100 29.53900
H  -2.07300 20.23900 23.16100
H  -2.41700 13.91800 24.03200
H  -3.51000 16.99700 31.75100
H  -1.50600 19.31800 31.27500
H  -3.33500 20.77000 31.51300
H  -3.57900 19.47300 32.72100
H  -4.55600 19.32600 31.27000
H  -0.68700 16.34700 31.80800
H  -1.87700 15.86000 32.95400
H  -1.44200 18.55300 33.77200
H  0.03600 17.98600 33.25000
H  -0.88600 23.62400 27.60200
H  -1.96900 22.82400 28.78500
H  -2.66100 23.67000 27.47600
H  -0.16500 24.09200 25.20300
H  -1.90200 24.62100 25.42300
H  -1.06200 24.70100 23.79100
H  -1.68000 18.25200 21.78200
H  -2.98500 15.63700 22.09500
H  -4.34900 18.80800 22.41500
H  -4.36100 17.18900 21.53400
H  -3.67100 18.58200 20.73500
H  -0.64800 16.31300 21.07900
H  -0.94700 14.68400 21.75000
H  0.69200 14.77000 23.17800
H  0.33000 16.33100 23.85400
H  1.34300 16.20000 22.40500
H  -1.85900 11.21300 25.81000
H  -3.21100 11.94400 24.97400
H  -3.44300 11.34900 26.54200
H  -3.55900 14.21300 31.02800
H  -0.49700 11.81700 33.11100
H  -0.97500 13.01500 34.37700
H  0.23600 13.37600 33.22400
Mg 2.40300 42.16800 24.82000
C  3.35400 42.16600 28.21700
C  -0.67400 41.00100 25.80000
C  1.72200 41.51800 21.63200
C  5.64000 43.18500 23.94300
N  1.36200 41.78300 26.85100
C  1.97400 41.78000 28.11300
C  0.98600 41.59400 29.19900
C  -0.23500 41.03000 28.34200
C  0.14300 41.25800 26.90700
C  -0.85700 39.68400 28.74500
C  0.71500 42.91500 30.08100
C  0.64700 42.80300 31.63700
H  -0.40300 41.86400 32.30400
N  0.75300 41.48100 23.89100
C  -0.41100 40.97900 24.43400
C  -1.28900 40.46500 23.34400
C  -0.62800 40.62100 22.12100
C  0.64300 41.25200 22.49800
C  -2.71500 39.99600 23.62900
C  -1.03900 40.37300 20.74900
O  -0.34100 40.62500 19.76700
C  -2.47900 39.91200 20.49400
N  3.47300 42.37200 23.07500
C  3.02700 42.01600 21.88700
C  3.98900 42.28400 20.72700
C  5.01600 43.15400 21.53200
C  4.69400 42.91900 22.91000
C  4.67200 40.96100 20.28100
C  5.10700 44.64900 21.20200
C  3.83700 45.46700 20.97000
N  4.15600 42.54400 25.75700
C  5.39800 42.99600 25.29600
C  6.22100 43.31800 26.40900
C  5.52000 42.88700 27.61700
C  4.26600 42.43700 27.14300
C  7.60500 43.76500 26.39600
C  5.56300 42.68400 29.10100
O  6.44100 42.80900 29.89300
C  4.19900 42.20300 29.55400
C  4.29900 40.98400 30.27800
O  4.80000 40.01400 29.75400
O  3.66100 41.02400 31.45400
C  3.50300 39.74000 32.12000
H  -1.68700 40.78800 26.14600
H  1.74300 41.19700 20.58900
H  6.55000 43.72200 23.67100
H  1.26100 40.75200 29.83300
H  -0.98100 41.82500 28.37200
H  -1.86200 39.81300 29.14600
H  -0.16500 39.18400 29.42300
H  -0.99500 39.02500 27.88700
H  -0.20600 43.40000 29.76100
H  1.44800 43.70000 29.89300
H  0.76300 43.78700 32.09300
H  1.64000 42.47500 31.94300
H  -3.02300 39.03000 23.22800
H  -3.36300 40.79800 23.27700
H  -2.88300 39.97600 24.70600
H  -2.51500 38.84200 20.69700
H  -2.65900 39.91000 19.41900
H  -3.26100 40.56800 20.87700
H  3.39700 42.77800 19.95700
H  6.04700 42.80300 21.48600
H  5.30700 40.54000 21.06100
H  5.23900 41.28200 19.40700
H  3.98100 40.17300 19.98200
H  5.66200 44.67000 20.26400
H  5.77500 45.14600 21.90600
H  3.01500 44.78000 21.17200
H  3.86800 46.01300 20.02700
H  3.84100 46.14900 21.82000
H  7.91500 44.23900 27.32700
H  7.76800 44.40600 25.53000
H  8.18900 42.84700 26.32900
H  3.84700 42.99700 30.21300
H  4.41200 39.39400 32.61400
H  3.10100 38.94900 31.48700
H  2.75300 39.91100 32.89200

