158

Mg 26.51100 0.43000 29.71700
C  28.17200 0.16300 32.77900
C  23.63500 1.07800 31.49900
C  24.66700 0.40900 26.73700
C  29.19600 -0.99600 28.00400
N  25.99400 0.62600 31.90700
C  26.86900 0.58900 32.98500
C  26.21100 0.94100 34.27500
C  24.76600 1.35200 33.81200
C  24.78800 0.98900 32.31400
C  23.64300 0.42500 34.47800
C  26.94700 2.04800 35.10700
C  27.45700 1.80000 36.50000
H  27.21500 2.90300 37.48700
N  24.46500 0.78500 29.15400
C  23.47600 0.96700 30.06500
C  22.22800 1.16600 29.38200
C  22.53800 1.09700 28.01200
C  23.96100 0.75100 27.94100
C  20.92900 1.50700 29.98100
C  21.62300 1.29600 26.76500
O  22.00100 1.01900 25.64600
C  20.31000 1.85900 26.91000
N  26.85600 -0.21600 27.65900
C  25.99400 -0.06500 26.64800
C  26.59600 -0.27400 25.22300
C  28.06000 -0.79900 25.70200
C  28.06100 -0.70400 27.17700
C  25.87100 -1.23500 24.25400
C  29.30300 -0.10800 25.11400
C  29.28900 1.37000 25.06100
N  28.37200 -0.30900 30.26100
C  29.33800 -0.80600 29.44300
C  30.44700 -1.14500 30.26600
C  30.09000 -0.67800 31.55800
C  28.74500 -0.20000 31.52000
C  31.65000 -1.79400 29.71900
C  30.53300 -0.50900 32.92700
O  31.59300 -0.89800 33.35300
C  29.32700 0.04600 33.81200
C  29.09300 -0.95600 34.88400
O  28.37600 -1.93500 34.85300
O  29.84700 -0.61700 35.94800
C  29.94100 -1.68500 36.94000
H  22.78100 1.49200 32.03800
H  24.35000 0.42100 25.69200
H  30.03900 -1.43400 27.46500
H  26.38400 0.02000 34.83100
H  24.39400 2.36800 33.94200
H  24.09200 -0.11200 35.31400
H  23.22000 -0.33100 33.81800
H  22.81100 1.05500 34.79200
H  26.23700 2.87500 35.08200
H  27.81800 2.44800 34.58800
H  28.54400 1.75600 36.42000
H  26.85500 0.95600 36.83600
H  20.88700 1.30000 31.05000
H  20.12100 0.94800 29.50900
H  20.72200 2.55500 29.76300
H  20.03400 2.34600 25.97500
H  20.30100 2.60300 27.70700
H  19.69600 1.00700 27.20400
H  26.67800 0.71800 24.78000
H  28.18600 -1.85600 25.46500
H  24.91100 -1.47600 24.71100
H  26.44300 -2.15100 24.11000
H  25.61700 -0.82600 23.27600
H  29.25500 -0.42000 24.07100
H  30.15400 -0.59000 25.59500
H  28.60200 1.82600 25.77400
H  29.40600 1.73200 24.03900
H  30.28800 1.51100 25.47200
H  32.08500 -2.46800 30.45700
H  32.43600 -1.07500 29.48600
H  31.42100 -2.24400 28.75300
H  29.58400 0.96400 34.34100
H  29.33100 -1.53500 37.83100
H  30.93300 -1.63700 37.38800
H  29.78100 -2.67900 36.52100
Mg 35.69700 48.81700 25.15100
C  35.92900 46.78300 28.15500
C  34.36700 51.19100 27.13800
C  35.33000 50.38400 22.49800
C  36.43300 45.83800 23.46100
N  35.27500 48.98200 27.41300
C  35.52600 48.12500 28.42400
C  35.08100 48.69800 29.76800
C  34.48400 50.15000 29.40600
C  34.75200 50.09700 27.91900
C  33.01100 50.37700 29.83400
C  36.32400 48.83400 30.70500
C  35.98300 48.55200 32.21400
H  34.57800 48.56100 32.84100
N  35.00500 50.56500 24.87000
C  34.48000 51.41200 25.71400
C  34.15300 52.65000 25.07700
C  34.43000 52.47500 23.64900
C  34.99200 51.05600 23.62500
C  33.52400 53.91900 25.80600
C  34.27600 53.40500 22.45000
O  34.63300 53.15000 21.27200
C  33.53200 54.69900 22.58800
N  36.05800 48.21100 23.17200
C  35.72000 49.08500 22.20600
C  35.95800 48.46300 20.85300
C  36.43800 47.01000 21.19900
C  36.27700 46.98700 22.71500
C  34.69000 48.67400 19.94000
C  38.06000 46.70400 20.85800
C  38.41300 45.33500 20.26200
N  36.09700 46.71300 25.63600
C  36.35600 45.62700 24.85500
C  36.52400 44.44100 25.63600
C  36.39000 44.84200 26.97100
C  36.13400 46.22300 26.91300
C  36.77200 43.07100 25.10600
C  36.39600 44.34300 28.30500
O  36.59500 43.18500 28.82100
C  36.10300 45.60500 29.20000
C  34.90400 45.29500 29.98900
O  33.73400 45.58300 29.65700
O  35.28100 44.68100 31.11300
C  34.20100 44.33000 32.12600
H  33.85600 51.90200 27.79100
H  35.21100 50.87100 21.52800
H  36.49500 44.94700 22.83200
H  34.33200 48.03900 30.20500
H  35.14700 50.96100 29.70800
H  32.21400 50.22100 29.10700
H  32.89200 51.33300 30.34300
H  32.80900 49.65300 30.62400
H  36.81200 49.78500 30.49400
H  37.03800 48.07000 30.39800
H  36.58800 49.28000 32.75500
H  36.41200 47.56700 32.39600
H  32.45800 54.04300 25.61600
H  34.06700 54.78400 25.42400
H  33.50500 53.97100 26.89400
H  32.59600 54.64900 23.14400
H  33.22200 55.13100 21.63600
H  34.14000 55.39600 23.16300
H  36.82300 48.95300 20.40500
H  35.76900 46.29700 20.71700
H  33.91600 49.29500 20.38900
H  34.17700 47.71900 19.82300
H  35.00100 49.19600 19.03500
H  38.66900 46.85300 21.75000
H  38.44000 47.44600 20.15500
H  39.46300 45.18400 20.51500
H  38.09200 45.22300 19.22600
H  37.84700 44.51700 20.70900
H  37.15200 43.30500 24.11100
H  35.85100 42.49100 25.05200
H  37.49300 42.52400 25.71300
H  36.93000 45.95200 29.82000
H  33.42400 45.09400 32.15000
H  34.54300 44.11100 33.13700
H  33.82200 43.42300 31.65700

