158

Mg 45.06700 3.65900 47.03800
C  43.17000 6.55800 46.93400
C  42.39700 1.78400 47.16200
C  47.14600 1.02600 46.28700
C  48.07300 5.89000 46.74200
N  43.03200 4.14800 46.88100
C  42.41500 5.35300 46.86800
C  40.90000 5.23700 46.93400
C  40.72900 3.68800 47.07800
C  42.14000 3.16500 47.05200
C  39.94900 3.10600 48.35500
C  40.07800 5.75200 45.72300
C  40.69600 5.68100 44.38700
H  40.98900 6.92400 43.59600
N  44.75800 1.70100 46.68900
C  43.56100 0.99600 46.87900
C  43.81300 -0.42600 46.69200
C  45.20200 -0.59800 46.35400
C  45.73600 0.78900 46.34900
C  42.76700 -1.48500 46.82500
C  45.85500 -1.88700 45.99300
O  45.24600 -2.94800 46.15400
C  47.25400 -1.94600 45.51600
N  47.36000 3.53100 46.76900
C  47.86000 2.30900 46.43900
C  49.40000 2.42500 46.27700
C  49.71500 3.91800 46.40800
C  48.31500 4.48700 46.71000
C  50.13800 1.53600 47.41000
C  50.50200 4.56400 45.20000
C  51.98400 4.77700 45.38000
N  45.60800 5.77300 46.99000
C  46.74500 6.49100 46.89300
C  46.49000 7.92600 46.87500
C  45.10000 8.04400 46.98600
C  44.61100 6.70500 46.94100
C  47.59600 8.99300 46.74000
C  43.95200 8.87900 47.06100
O  43.79500 10.08100 46.95800
C  42.67500 7.87500 46.98500
C  41.69700 8.22700 48.11100
O  41.67500 7.60800 49.17600
O  40.71700 9.00300 47.57300
C  39.49200 9.05300 48.33400
H  41.55300 1.10200 47.28200
H  47.93600 0.27700 46.19700
H  48.93100 6.54000 46.55400
H  40.38800 5.70100 47.77700
H  40.19900 3.21500 46.25100
H  39.26000 3.89000 48.67000
H  40.71700 2.89200 49.09800
H  39.44500 2.18200 48.07200
H  39.88800 6.82300 45.80200
H  39.09300 5.29300 45.81500
H  39.97900 5.01800 43.90300
H  41.65000 5.16600 44.50500
H  42.83000 -2.08500 45.91700
H  41.77100 -1.05600 46.71100
H  42.91600 -2.15200 47.67400
H  47.39800 -2.97800 45.19900
H  47.94800 -1.76400 46.33700
H  47.34600 -1.21500 44.71300
H  49.73700 2.18500 45.26800
H  50.28700 4.04400 47.32700
H  50.87700 2.21300 47.83900
H  50.67200 0.65500 47.05300
H  49.50000 1.23400 48.24000
H  50.11600 5.57000 45.03800
H  50.36600 4.04100 44.25300
H  52.22100 5.83800 45.46300
H  52.44000 4.32300 44.50000
H  52.33800 4.20000 46.23400
H  48.17500 8.70100 45.86400
H  48.17300 9.06600 47.66100
H  47.16900 9.99700 46.74600
H  42.14900 8.24800 46.10600
H  39.11200 8.03200 48.37200
H  38.74700 9.73700 47.93000
H  39.78500 9.40100 49.32400
Mg 54.81800 24.18100 44.28000
C  52.37500 26.67900 43.93400
C  52.46300 21.85500 43.36900
C  57.30700 22.03200 43.98800
C  57.16000 26.75900 44.87100
N  52.77100 24.27700 43.61100
C  51.95000 25.37600 43.46400
C  50.45900 25.02000 43.15600
C  50.50000 23.47100 43.42900
C  51.97200 23.10900 43.52700
C  49.69800 22.83500 44.65200
C  50.00200 25.40700 41.68700
C  51.11100 25.36300 40.62900
H  50.64000 25.12600 39.17300
N  54.83300 22.17900 43.86800
C  53.80000 21.37400 43.52200
C  54.22500 20.04800 43.51300
C  55.66300 20.08400 43.68400
C  56.00000 21.47100 43.89200
C  53.33000 18.85600 43.16400
C  56.56600 18.78900 43.79500
O  56.05200 17.67800 43.57100
C  58.02600 18.85000 44.12400
N  56.96000 24.36400 44.31800
C  57.77000 23.33500 44.11700
C  59.26200 23.72200 44.25100
C  59.16200 25.18600 44.51000
C  57.69000 25.48300 44.59700
C  60.11200 22.92100 45.35000
C  59.91600 26.04600 43.44800
C  59.10900 26.44100 42.14800
N  54.81400 26.25900 44.55900
C  55.78700 27.20500 44.84800
C  55.25800 28.49900 45.01800
C  53.88400 28.30700 44.66500
C  53.66700 26.99600 44.34800
C  56.02200 29.72800 45.32900
C  52.62800 28.98600 44.56600
O  52.32600 30.14500 44.79200
C  51.57200 27.96600 44.04100
C  50.98100 28.46600 42.76900
O  51.60500 28.54000 41.70000
O  49.67500 28.83200 42.95900
C  49.12900 29.40100 41.72700
H  51.60100 21.18900 43.29700
H  58.11400 21.32200 43.79300
H  57.90100 27.55600 44.96400
H  49.74300 25.48000 43.83800
H  50.23100 22.99300 42.48800
H  49.25100 23.63100 45.24700
H  50.34800 22.34600 45.37700
H  48.89200 22.18500 44.31100
H  49.59600 26.41800 41.66500
H  49.33200 24.62900 41.32100
H  51.90400 24.71000 40.99300
H  51.66700 26.30000 40.65200
H  53.67900 18.18700 42.37800
H  52.26600 19.07600 43.07500
H  53.39900 18.20400 44.03500
H  58.31300 17.90400 44.58400
H  58.14100 19.63100 44.87500
H  58.71600 19.05000 43.30400
H  59.71900 23.62200 43.26700
H  59.59600 25.49000 45.46300
H  60.99300 22.52100 44.84700
H  59.53200 22.04600 45.64200
H  60.26400 23.46900 46.28000
H  60.75200 25.42200 43.13300
H  60.44500 26.91000 43.85100
H  59.46800 27.46500 42.04600
H  58.02200 26.50600 42.20400
H  59.39600 26.03600 41.17700
H  55.44600 30.57600 44.95700
H  56.97900 29.77400 44.81000
H  56.32100 29.80100 46.37400
H  50.77900 27.87200 44.78300
H  48.09600 29.05200 41.74500
H  49.36300 29.00800 40.73800
H  49.23500 30.48200 41.63700

