158

Mg 54.03000 24.73500 44.11300
C  51.38300 26.97500 44.01700
C  51.86700 22.29700 42.81900
C  56.61600 22.67300 43.75300
C  56.16600 27.47600 44.75600
N  51.94800 24.71400 43.44400
C  51.03200 25.72300 43.49500
C  49.57500 25.25900 43.11300
C  49.71500 23.68900 43.31200
C  51.24200 23.54700 43.19400
C  49.26300 23.10100 44.72700
C  48.99800 25.64800 41.72300
C  49.91400 26.17900 40.61400
H  50.26700 25.14400 39.49500
N  54.22000 22.76200 43.35100
C  53.22100 21.92800 42.93600
C  53.77700 20.59200 42.72300
C  55.14700 20.55000 43.07100
C  55.38800 21.98200 43.48000
C  52.88100 19.36700 42.27400
C  56.16100 19.43000 42.97100
O  55.82200 18.30200 42.64000
C  57.60600 19.65000 43.18000
N  56.21800 25.11200 43.96200
C  57.02400 24.05100 43.94400
C  58.48000 24.57800 44.16200
C  58.35300 26.06900 44.35200
C  56.80600 26.27900 44.40900
C  59.35300 23.77400 45.19900
C  59.04300 27.11000 43.33800
C  59.99800 28.24700 43.84900
N  53.87700 26.80300 44.40300
C  54.77700 27.72900 44.84600
C  54.14900 28.95300 45.18400
C  52.79800 28.70200 44.91300
C  52.69100 27.39800 44.32200
C  54.87200 30.16900 45.77300
C  51.39300 29.25000 44.91400
O  51.05100 30.43700 45.14100
C  50.46000 28.15600 44.19400
C  50.08800 28.85200 42.96600
O  50.87400 29.40900 42.23400
O  48.68800 28.97300 42.76500
C  48.43000 29.60800 41.44900
H  51.21600 21.44600 42.60800
H  57.48300 22.08600 44.06500
H  56.76700 28.34200 45.04200
H  48.86800 25.67000 43.83300
H  49.27800 23.14700 42.47400
H  50.13400 22.83400 45.32500
H  48.68900 22.21100 44.47000
H  48.58800 23.75200 45.28300
H  48.24600 26.42500 41.85900
H  48.53900 24.81100 41.19700
H  50.77400 26.66600 41.07300
H  49.38700 26.99500 40.12000
H  53.11600 18.56000 42.96700
H  52.90300 19.14100 41.20700
H  51.84100 19.67800 42.37200
H  58.06700 18.77200 42.72700
H  57.84200 19.65800 44.24400
H  57.96500 20.59800 42.77900
H  58.87900 24.43300 43.15800
H  58.78100 26.32400 45.32200
H  58.65200 23.52500 45.99600
H  60.16300 24.39300 45.58400
H  59.67000 22.83900 44.73800
H  58.21300 27.52900 42.77000
H  59.57300 26.51000 42.59800
H  60.93000 28.10100 43.30200
H  60.21700 28.24400 44.91700
H  59.62800 29.22000 43.52700
H  55.27300 29.80500 46.71900
H  54.16200 30.93300 46.08900
H  55.75900 30.44200 45.20100
H  49.63000 28.03600 44.89000
H  48.59700 29.11300 40.49300
H  48.77900 30.62600 41.27500
H  47.36600 29.84100 41.49100
Mg 42.01900 41.63900 27.97300
C  40.89000 44.02200 30.47500
C  43.11800 39.67000 30.44300
C  43.25900 39.69100 25.66000
C  41.41000 44.16600 25.52900
N  41.84600 41.82500 30.15600
C  41.40600 42.83200 30.98300
C  41.54400 42.40000 32.45000
C  42.38600 41.04000 32.46600
C  42.50400 40.85800 30.90700
C  43.75400 41.31400 33.11900
C  40.06900 42.28000 33.05100
C  39.92700 43.15000 34.32700
H  39.26900 42.42300 35.54400
N  42.99800 39.82100 28.03200
C  43.35700 39.18300 29.13400
C  43.99500 37.93400 28.78300
C  43.89300 37.86900 27.33500
C  43.32800 39.14900 26.96500
C  44.49900 36.92600 29.83400
C  44.38100 36.75900 26.36100
O  44.54300 36.96000 25.19200
C  44.66100 35.39400 26.92700
N  42.50500 41.98500 25.92600
C  42.92300 40.94300 25.21500
C  42.96000 41.30100 23.71800
C  42.37600 42.70600 23.65900
C  42.12900 43.03000 25.15800
C  44.36300 41.23400 23.03000
C  41.06500 42.81300 22.87200
C  39.87700 42.11800 23.41600
N  41.26200 43.67500 27.98000
C  41.04300 44.49800 26.89100
C  40.34400 45.63100 27.33900
C  40.25900 45.53100 28.73700
C  40.92600 44.36000 29.08700
C  39.74500 46.75500 26.50100
C  39.81400 46.13700 30.02100
O  39.08800 47.08300 30.22300
C  40.30100 45.22200 31.17800
C  41.33500 45.86800 31.94500
O  42.46100 46.19900 31.54900
O  40.89800 45.97100 33.25100
C  41.69300 46.75100 34.26100
H  43.49900 39.00500 31.22100
H  43.48300 39.01200 24.83500
H  41.25200 44.93100 24.76500
H  42.12900 43.19500 32.91300
H  41.95400 40.11800 32.85700
H  43.95300 40.53000 33.85100
H  43.74200 42.25100 33.67600
H  44.50500 41.16100 32.34500
H  39.88000 41.25400 33.36700
H  39.32700 42.67600 32.35800
H  39.30500 43.99200 34.02300
H  40.90700 43.50000 34.65100
H  45.54900 36.84800 29.55400
H  43.97600 35.97100 29.78900
H  44.46400 37.25700 30.87200
H  43.77000 35.01200 27.42500
H  45.43800 35.45700 27.68800
H  44.98800 34.68600 26.16500
H  42.26100 40.58700 23.28200
H  43.02600 43.52900 23.36000
H  44.72000 42.26300 23.06200
H  44.23300 40.81500 22.03200
H  44.96400 40.55700 23.63800
H  41.17800 42.44200 21.85300
H  40.84700 43.85700 22.64300
H  39.19900 42.95300 23.59500
H  39.98700 41.45700 24.27500
H  39.44800 41.58700 22.56600
H  39.16100 46.29500 25.70300
H  40.56600 47.32100 26.06000
H  39.11000 47.34200 27.16400
H  39.46700 44.81200 31.74800
H  41.10800 47.64900 34.46200
H  42.66300 47.17200 33.99500
H  41.85600 46.07400 35.09900

