158

Mg 25.70800 0.80600 29.60400
C  27.55900 0.53000 32.47300
C  22.77400 0.96700 31.40500
C  23.98900 0.74100 26.64900
C  28.61900 0.27000 27.72100
N  25.24100 0.76200 31.72100
C  26.19900 0.79100 32.73600
C  25.52400 0.90700 34.09800
C  24.04400 0.76000 33.77000
C  23.97400 0.81600 32.19600
C  23.35000 -0.47600 34.38200
C  25.92200 2.20400 34.93000
C  26.46700 1.91300 36.38700
H  26.05100 2.88500 37.52600
N  23.77700 0.83400 29.12100
C  22.64300 0.92300 30.02500
C  21.39300 1.13200 29.30400
C  21.70800 1.07900 27.93000
C  23.22500 0.83000 27.85100
C  19.93800 1.04200 29.95900
C  20.78900 1.16200 26.66900
O  21.25400 1.05300 25.50100
C  19.33100 1.39900 26.89100
N  26.25100 0.63300 27.48100
C  25.35100 0.65000 26.46400
C  26.03800 0.72300 25.12000
C  27.60200 0.56500 25.51400
C  27.46800 0.48800 27.00800
C  25.46400 -0.26800 24.09600
C  28.44300 1.75000 25.10400
C  29.93600 1.46700 24.62200
N  27.71600 0.59000 30.03000
C  28.77000 0.35700 29.14800
C  29.97300 0.10400 29.93600
C  29.51400 0.22000 31.25600
C  28.17300 0.39700 31.24100
C  31.29900 -0.31000 29.41300
C  29.94900 0.15100 32.58600
O  31.09200 -0.08900 33.01700
C  28.70500 0.45400 33.46100
C  28.64300 -0.80100 34.42600
O  28.32200 -1.93800 34.15200
O  29.07600 -0.46300 35.69300
C  28.74900 -1.38100 36.82200
H  21.84400 0.83700 31.96100
H  23.43200 1.10500 25.78300
H  29.42100 -0.06200 27.05800
H  25.86500 -0.00400 34.59100
H  23.46000 1.61700 34.10300
H  22.93200 -1.19700 33.68000
H  22.51900 -0.20600 35.03500
H  24.11300 -1.01100 34.94600
H  24.99400 2.74000 35.12500
H  26.69000 2.86900 34.53400
H  27.54900 1.88200 36.25800
H  26.26200 0.90800 36.75800
H  19.34500 0.23200 29.53400
H  19.24100 1.84700 29.72400
H  19.87500 0.83900 31.02800
H  18.78100 1.76100 26.02200
H  19.14000 2.12300 27.68300
H  18.74800 0.50100 27.09500
H  25.89300 1.73100 24.73300
H  28.09600 -0.29400 25.06000
H  24.74900 -1.04200 24.37500
H  26.25200 -0.91400 23.70900
H  24.89600 0.33600 23.38800
H  28.45400 2.64000 25.73400
H  27.97500 2.24100 24.25100
H  30.24000 0.42100 24.58000
H  30.67800 1.94100 25.26600
H  30.05200 1.81200 23.59500
H  31.36500 -1.34900 29.09000
H  31.97700 -0.18600 30.25800
H  31.68900 0.29200 28.59200
H  28.84900 1.31900 34.10900
H  28.39300 -2.38300 36.58100
H  28.02800 -0.85000 37.44300
H  29.67300 -1.41500 37.40100
Mg 26.81500 51.64200 26.59900
C  25.13400 52.49100 29.42400
C  29.38600 50.37400 28.45700
C  28.63700 50.89400 23.67500
C  24.74300 53.56300 24.75300
N  27.19500 51.51300 28.77400
C  26.29200 51.82400 29.75600
C  26.84400 51.54800 31.13700
C  28.29800 50.86800 30.77400
C  28.35400 50.96600 29.25600
C  29.43100 51.66500 31.36200
C  25.92900 50.68100 32.08300
C  26.52300 50.28700 33.38600
H  26.19600 51.12300 34.63600
N  28.73000 50.68800 26.20100
C  29.65300 50.27800 27.04700
C  30.77300 49.71100 26.41100
C  30.45600 49.70000 25.01900
C  29.22100 50.41300 24.91100
C  32.01700 49.08100 27.13900
C  31.26300 49.14100 23.88000
O  30.90800 49.22400 22.74000
C  32.54800 48.47800 24.10900
N  26.77300 52.18900 24.50900
C  27.58800 51.75200 23.52600
C  27.18800 52.30600 22.12600
C  25.88900 53.19500 22.52800
C  25.76200 52.90600 24.02300
C  28.27900 53.16500 21.32500
C  24.62300 53.08200 21.64300
C  23.80900 51.81100 21.83200
N  25.21500 52.75400 26.97100
C  24.35700 53.39700 26.09400
C  23.25500 53.98800 26.83600
C  23.53600 53.70000 28.18700
C  24.72100 52.92600 28.19500
C  22.11100 54.74100 26.29100
C  23.02900 53.82800 29.52200
O  22.05000 54.41300 29.96800
C  24.05900 53.06100 30.38700
C  24.51300 54.06000 31.40300
O  25.26400 55.00900 31.17400
O  23.78200 53.91600 32.54700
C  23.98800 54.91300 33.61900
H  30.14200 49.92000 29.10100
H  29.11900 50.58000 22.74700
H  23.93000 53.96500 24.14600
H  26.93300 52.57500 31.49100
H  28.31100 49.82500 31.09100
H  29.17800 52.03700 32.35500
H  29.68000 52.52400 30.73900
H  30.21500 50.93600 31.56700
H  25.57800 49.83400 31.49200
H  25.11200 51.38900 32.22500
H  27.60800 50.37400 33.33200
H  26.27700 49.23100 33.49100
H  31.93900 47.99500 27.19900
H  32.00100 49.53800 28.12800
H  32.96800 49.37600 26.69400
H  33.28800 49.03900 24.68000
H  32.94100 48.30600 23.10600
H  32.49200 47.44100 24.44000
H  26.83100 51.41900 21.60300
H  26.14600 54.25300 22.58200
H  29.31500 52.99800 21.61800
H  27.97800 54.16400 21.00800
H  28.28600 52.54500 20.42800
H  25.03700 53.03300 20.63600
H  24.00700 53.96600 21.80600
H  22.83300 52.07700 22.23900
H  24.15800 51.17900 22.64900
H  23.72400 51.21700 20.92200
H  21.52400 54.11000 25.62400
H  22.53300 55.44700 25.57700
H  21.39800 55.09900 27.03400
H  23.53600 52.25000 30.89500
H  23.76800 54.40900 34.56100
H  23.19600 55.65400 33.51000
H  24.97300 55.36400 33.73400

