158

Mg -1.82800 17.75300 26.34700
C  -2.11000 15.43000 29.03100
C  -2.30200 20.29300 28.56400
C  -2.27100 19.85900 23.73400
C  -1.79600 15.02900 24.24200
N  -2.18200 17.83100 28.56000
C  -2.10000 16.79900 29.47600
C  -2.27700 17.29400 30.92000
C  -2.43500 18.85200 30.75100
C  -2.33000 19.03200 29.18500
C  -3.62800 19.57800 31.44200
C  -1.09200 16.77100 31.82500
C  -0.48600 17.62000 32.96800
H  -0.15400 16.90100 34.27800
N  -2.11700 19.69100 26.21600
C  -2.26300 20.65800 27.22900
C  -2.12100 22.02700 26.66100
C  -2.13900 21.85800 25.23600
C  -2.15500 20.41700 25.02700
C  -1.84300 23.21200 27.59000
C  -1.98500 22.92400 24.17000
O  -1.78700 22.69500 22.98300
C  -2.23900 24.34100 24.58100
N  -2.17200 17.47600 24.26100
C  -2.18100 18.48500 23.36100
C  -2.03600 18.00400 21.90200
C  -1.99800 16.47200 22.10900
C  -1.92900 16.28300 23.63700
C  -3.31500 18.46800 21.11300
C  -0.74700 15.77400 21.39200
C  0.64600 16.02700 21.95700
N  -1.98700 15.66700 26.56200
C  -1.91700 14.68200 25.60500
C  -1.98300 13.39600 26.24200
C  -2.10000 13.62600 27.60300
C  -2.01300 15.01200 27.74600
C  -1.96600 12.18500 25.46600
C  -2.21600 12.93900 28.85600
O  -2.25000 11.78600 29.23400
C  -2.25400 14.11700 29.77500
C  -1.15900 13.74300 30.65400
O  -0.01600 13.96700 30.45800
O  -1.62300 13.05700 31.74200
C  -0.64100 12.75500 32.83500
H  -2.27200 20.99800 29.39800
H  -2.35700 20.57000 22.91000
H  -1.71600 14.17800 23.56300
H  -3.19300 16.84900 31.31000
H  -1.47000 19.26600 31.04100
H  -3.20000 20.49900 31.83700
H  -4.20800 19.06100 32.20600
H  -4.32000 19.90400 30.66500
H  -0.27300 16.62000 31.12100
H  -1.43500 15.81200 32.21400
H  -1.21300 18.39600 33.20700
H  0.40200 18.03900 32.49700
H  -1.05300 23.88700 27.26200
H  -1.57600 23.00200 28.62600
H  -2.72300 23.85600 27.60000
H  -3.00700 24.34500 25.35500
H  -2.52700 25.08600 23.84000
H  -1.33700 24.68500 25.08600
H  -1.09700 18.43300 21.55300
H  -2.96600 16.06200 21.82100
H  -3.09500 19.00800 20.19200
H  -4.06000 19.14200 21.53500
H  -3.78500 17.56200 20.72900
H  -0.64900 16.31900 20.45300
H  -0.95300 14.71000 21.27700
H  0.93700 15.05000 22.34400
H  0.61700 16.69600 22.81600
H  1.38700 16.41700 21.26000
H  -1.54600 11.31800 25.97700
H  -1.23900 12.38100 24.67900
H  -2.96000 11.97700 25.07100
H  -3.15500 14.27700 30.36700
H  -0.00300 12.02100 32.34000
H  -1.01800 12.31900 33.76000
H  -0.06700 13.65200 33.06500
Mg -1.94100 35.13100 26.34700
C  -3.52800 33.02500 28.73100
C  -0.88900 36.96800 29.01200
C  -0.62700 37.17700 24.17600
C  -3.60300 33.33900 23.84200
N  -2.25600 34.99900 28.62500
C  -2.82500 34.02600 29.36600
C  -2.74700 34.20700 30.88100
C  -1.90700 35.55500 30.87800
C  -1.62400 35.85900 29.41100
C  -2.58000 36.69200 31.69100
C  -2.20200 32.93900 31.58100
C  -2.97000 32.26600 32.71100
H  -2.25900 32.24700 34.06300
N  -0.88300 36.88600 26.60100
C  -0.48100 37.43300 27.76000
C  0.46100 38.38000 27.48500
C  0.57300 38.47000 26.04000
C  -0.35700 37.51300 25.54500
C  1.27300 39.06100 28.62400
C  1.55700 39.22000 25.19600
O  1.59600 39.19600 23.94000
C  2.56600 40.11800 25.88900
N  -2.27600 35.27700 24.30700
C  -1.52600 36.23100 23.62500
C  -1.84800 36.24700 22.16500
C  -2.80800 34.97500 22.04600
C  -2.90300 34.47800 23.45600
C  -2.44200 37.65000 21.60700
C  -2.28400 33.95600 21.02900
C  -1.01400 33.06600 21.47900
N  -3.27000 33.42900 26.24300
C  -3.83700 32.84900 25.12700
C  -4.71000 31.74700 25.51000
C  -4.56300 31.72300 26.95100
C  -3.70400 32.84100 27.28100
C  -5.51900 30.80600 24.81100
C  -4.97300 31.04400 28.15900
O  -5.89500 30.27900 28.38200
C  -4.22800 31.77200 29.33700
C  -5.40100 32.09600 30.14900
O  -6.23900 32.98000 29.95700
O  -5.48100 31.15300 31.16000
C  -6.52200 31.44300 32.19300
H  -0.48200 37.39800 29.93000
H  -0.26000 37.84300 23.39100
H  -4.06100 32.70700 23.07900
H  -3.73000 34.30300 31.34300
H  -0.95900 35.42700 31.39900
H  -3.43100 36.28900 32.24100
H  -2.87200 37.47400 30.99100
H  -1.88700 37.11400 32.41900
H  -1.21500 33.27700 31.89700
H  -1.96800 32.13500 30.88300
H  -3.13500 31.26300 32.32000
H  -3.94100 32.76200 32.72900
H  2.35000 39.06400 28.45700
H  1.10500 38.54400 29.56900
H  0.91100 40.08000 28.75800
H  2.98000 40.79000 25.13700
H  3.30000 39.45000 26.34100
H  1.99800 40.72900 26.59000
H  -1.02100 36.12500 21.46500
H  -3.80700 35.32900 21.79100
H  -1.64800 38.02700 20.96300
H  -2.53900 38.27900 22.49100
H  -3.44400 37.58000 21.18200
H  -2.04900 34.48500 20.10600
H  -3.01200 33.21200 20.70300
H  -0.71500 33.34600 22.48900
H  -0.24800 33.25300 20.72600
H  -1.27200 32.01200 21.36900
H  -5.40600 31.01300 23.74700
H  -6.57900 30.86000 25.05600
H  -5.10700 29.81400 25.00000
H  -3.60300 31.07800 29.90000
H  -6.17700 32.07400 33.01200
H  -6.83700 30.43900 32.47800
H  -7.44200 31.94600 31.89300

