158

Mg 45.45200 3.61400 48.12600
C  43.59600 6.47900 47.35400
C  42.57800 1.69500 47.31900
C  47.41800 0.79200 47.89800
C  48.28600 5.50200 48.15500
N  43.22100 4.11800 47.64200
C  42.73200 5.33600 47.31000
C  41.15900 5.24900 46.98100
C  40.88500 3.72200 47.29400
C  42.31100 3.12400 47.41300
C  40.10300 3.47000 48.58100
C  40.75400 5.65500 45.50600
C  39.59200 6.62800 45.27700
H  38.70000 6.35800 43.99800
N  45.03400 1.54600 47.68800
C  43.84300 0.97200 47.36800
C  43.94200 -0.49800 47.25000
C  45.33600 -0.82200 47.52100
C  46.02800 0.54100 47.74400
C  42.75300 -1.36700 46.93400
C  45.93400 -2.22400 47.49500
O  45.21700 -3.19200 47.26100
C  47.42300 -2.48600 47.68200
N  47.55200 3.15400 48.23000
C  48.11100 1.96000 48.04300
C  49.62300 2.06200 48.24900
C  49.90100 3.61500 48.10300
C  48.49300 4.10800 48.27400
C  49.99000 1.41900 49.57300
C  50.57300 4.05100 46.75200
C  51.93400 4.70700 46.76800
N  45.90800 5.61400 47.89300
C  47.05200 6.29300 47.98100
C  46.89100 7.67200 47.56600
C  45.52000 7.77400 47.32200
C  44.98700 6.55700 47.61000
C  48.00300 8.71400 47.56700
C  44.40900 8.66000 46.98200
O  44.36700 9.91500 46.81300
C  43.11000 7.83000 46.91800
C  42.13600 8.44500 47.88200
O  41.86800 8.03400 49.01900
O  41.51200 9.47100 47.18900
C  40.53600 10.36100 47.91000
H  41.75300 1.05000 47.00900
H  48.12600 -0.03700 47.83600
H  49.07500 6.23700 47.97600
H  40.62700 5.92400 47.65100
H  40.36200 3.23400 46.47100
H  39.64800 4.39800 48.92700
H  40.74100 3.01200 49.33700
H  39.19400 2.88700 48.44100
H  40.40400 4.76400 44.98400
H  41.68800 5.94000 45.02300
H  39.93900 7.65400 45.15900
H  38.96200 6.44600 46.14800
H  42.82400 -1.64400 45.88200
H  41.79000 -0.89300 47.12300
H  42.96000 -2.20800 47.59600
H  48.04400 -2.36700 46.79400
H  47.33600 -3.54900 47.90400
H  47.66800 -1.94900 48.59800
H  50.12900 1.43300 47.51600
H  50.45200 4.06600 48.92800
H  50.72100 2.04400 50.08500
H  50.45900 0.46100 49.34900
H  49.09700 1.23500 50.17100
H  49.92700 4.71700 46.18100
H  50.67600 3.19500 46.08400
H  52.63800 4.07900 46.22300
H  52.34100 4.81300 47.77300
H  51.86900 5.65800 46.23800
H  47.92200 9.57800 46.90800
H  49.04500 8.40300 47.63900
H  47.90900 9.10700 48.58000
H  42.63600 7.87100 45.93800
H  39.97300 9.83300 48.68000
H  39.83600 10.71200 47.15100
H  41.02200 11.27000 48.26300
Mg -2.18700 35.03200 27.48600
C  -3.71500 33.17300 29.98600
C  -1.21100 37.33000 29.78600
C  -0.81500 36.80900 25.03800
C  -3.43600 32.75300 25.18200
N  -2.48000 35.27200 29.70500
C  -3.06800 34.33300 30.49200
C  -2.92500 34.75400 31.97300
C  -2.16400 36.08500 31.84100
C  -1.90500 36.26300 30.38300
C  -2.88100 37.32100 32.54200
C  -2.21200 33.64500 32.86500
C  -2.97200 33.23100 34.11400
H  -2.05700 33.07400 35.28700
N  -1.12200 36.77000 27.45200
C  -0.82000 37.60000 28.47200
C  -0.22600 38.82900 27.98300
C  0.12100 38.61800 26.64700
C  -0.61100 37.38200 26.31200
C  0.22700 39.99000 28.90100
C  0.89000 39.55900 25.65600
O  1.00200 39.32700 24.46400
C  1.51300 40.93700 26.13200
N  -2.29600 34.91900 25.36200
C  -1.42700 35.60000 24.67900
C  -1.17300 34.89200 23.25000
C  -1.78200 33.43400 23.48300
C  -2.63300 33.72000 24.70800
C  -1.99600 35.62300 22.07200
C  -0.66700 32.38100 23.63700
C  -0.26500 31.60900 22.30000
N  -3.33400 33.38600 27.47400
C  -3.74500 32.56600 26.52400
C  -4.49500 31.44500 27.06400
C  -4.65100 31.70900 28.41200
C  -3.84700 32.83800 28.63600
C  -5.10000 30.36300 26.27700
C  -5.24900 31.20700 29.68700
O  -6.08200 30.36500 29.87000
C  -4.59000 32.22600 30.74700
C  -5.74600 32.71200 31.58000
O  -6.48100 33.59000 31.18500
O  -5.82500 32.01100 32.82900
C  -6.75500 32.55800 33.82200
H  -0.80700 38.00800 30.54000
H  -0.28400 37.23500 24.18400
H  -3.60800 31.87700 24.55300
H  -3.94300 34.80800 32.35800
H  -1.19200 35.93600 32.31100
H  -2.91700 38.24000 31.95700
H  -2.42100 37.57800 33.49600
H  -3.92200 37.05400 32.72400
H  -1.20400 33.99700 33.08200
H  -2.20500 32.71900 32.29000
H  -3.28200 32.19000 34.02700
H  -3.77100 33.90800 34.41600
H  1.27100 40.26800 28.75700
H  -0.06300 39.76800 29.92800
H  -0.30800 40.89000 28.59800
H  2.14600 40.73000 26.99500
H  0.69600 41.61900 26.36800
H  2.16200 41.45400 25.42600
H  -0.10100 34.94700 23.05800
H  -2.46500 33.12500 22.69100
H  -1.58900 35.42200 21.08100
H  -2.14000 36.69600 22.19800
H  -3.01800 35.24500 22.08400
H  -1.12200 31.62600 24.27800
H  0.22600 32.73600 24.15100
H  -0.59900 31.98100 21.33200
H  -0.76900 30.64300 22.30300
H  0.82200 31.58900 22.22400
H  -6.08100 30.73700 25.98300
H  -5.35500 29.44900 26.81400
H  -4.55600 30.05700 25.38400
H  -4.01800 31.67100 31.49100
H  -7.42600 31.82900 34.27500
H  -7.48600 33.22800 33.37000
H  -6.32100 33.08800 34.67000

