158

Mg 47.38600 34.19000 26.48500
C  45.90200 32.69600 29.32800
C  47.99600 36.98900 28.33400
C  48.37500 35.73300 23.63100
C  46.61200 31.24100 24.72400
N  46.84800 34.79200 28.56700
C  46.40000 33.97100 29.51700
C  46.47600 34.67600 30.89800
C  46.72900 36.13200 30.48400
C  47.23900 36.01300 29.06200
C  45.50800 37.15900 30.54800
C  47.68700 34.16500 31.73000
C  47.48300 34.20300 33.29400
H  46.75400 35.40000 33.91600
N  48.30600 35.99900 26.07000
C  48.42700 37.01700 26.97200
C  49.28300 38.06600 26.37800
C  49.34900 37.75400 24.95000
C  48.55600 36.53400 24.82400
C  49.76500 39.28300 27.14900
C  50.04900 38.60900 23.89900
O  50.17200 38.07000 22.81500
C  50.79200 39.92600 24.14500
N  47.26900 33.63300 24.40000
C  47.89500 34.40700 23.46600
C  48.10900 33.56800 22.20900
C  47.86900 32.14500 22.67400
C  47.19900 32.30900 24.01000
C  47.41300 34.21100 20.99900
C  49.04000 31.18500 22.54200
C  49.95100 30.94000 23.72400
N  46.41700 32.32900 26.87100
C  46.23300 31.25900 26.08700
C  45.62500 30.24000 26.83100
C  45.40900 30.78200 28.08300
C  45.95800 32.07900 28.12400
C  45.25500 28.92500 26.28800
C  44.79900 30.44600 29.37100
O  44.38300 29.34600 29.78400
C  45.08100 31.67300 30.22100
C  45.47100 31.32200 31.60200
O  46.58700 31.12700 32.06000
O  44.30600 31.25800 32.42400
C  44.36300 30.83900 33.84800
H  48.27400 37.80300 29.00600
H  48.82500 36.18700 22.74600
H  46.61000 30.31400 24.14700
H  45.51700 34.50200 31.38500
H  47.45600 36.62600 31.12800
H  44.61400 36.59600 30.81600
H  45.26700 37.58000 29.57200
H  45.58700 38.05900 31.15700
H  48.60500 34.73300 31.57600
H  48.00500 33.16200 31.44700
H  48.46000 34.12400 33.77100
H  46.97300 33.32000 33.67800
H  50.80400 39.51900 26.91400
H  49.98000 39.15400 28.21000
H  49.05000 40.07000 26.90900
H  50.19800 40.71500 24.60600
H  51.17500 40.31900 23.20300
H  51.70700 39.70300 24.69300
H  49.17600 33.78300 22.16600
H  47.06000 31.73400 22.07000
H  46.74200 35.02900 21.26000
H  46.88400 33.42300 20.46200
H  48.15200 34.56500 20.28100
H  49.67800 31.67200 21.80400
H  48.66900 30.24900 22.12400
H  49.72100 31.34600 24.70900
H  50.99000 31.17600 23.49300
H  49.91900 29.85300 23.80500
H  44.67500 28.29900 26.96600
H  46.12300 28.30500 26.06200
H  44.68600 29.03900 25.36500
H  44.09300 32.11600 30.34200
H  44.57700 31.53900 34.65600
H  44.98300 29.94800 33.95100
H  43.37900 30.48300 34.15100
Mg -4.29600 24.69100 26.59200
C  -3.21000 26.77500 29.13900
C  -5.65200 22.59800 28.91300
C  -5.51000 22.80100 24.15200
C  -3.17200 27.03200 24.26300
N  -4.40900 24.75800 28.81100
C  -3.93300 25.66700 29.66600
C  -4.37400 25.25200 31.12500
C  -4.87200 23.78400 31.08300
C  -5.08100 23.69500 29.52300
C  -3.77300 22.76800 31.54800
C  -5.52100 26.22600 31.64100
C  -5.57400 26.58800 33.10500
H  -4.95200 25.54000 34.00700
N  -5.35600 22.89700 26.58000
C  -5.78200 22.19900 27.57400
C  -6.49600 20.95800 27.14300
C  -6.46700 21.01600 25.70800
C  -5.78300 22.27100 25.42900
C  -7.18000 20.03000 28.14000
C  -6.97600 20.02100 24.66900
O  -6.79200 20.06200 23.43400
C  -7.84600 18.88100 25.24600
N  -4.19200 24.89200 24.46300
C  -4.73400 23.90700 23.72200
C  -4.71400 24.25400 22.19400
C  -4.10700 25.72000 22.16200
C  -3.88600 25.94600 23.66000
C  -3.98800 23.21900 21.32500
C  -5.02800 26.78700 21.63000
C  -4.92700 26.95000 20.09500
N  -3.38400 26.51200 26.61500
C  -2.94200 27.36900 25.59500
C  -2.20700 28.47600 26.13600
C  -2.25000 28.28400 27.56000
C  -3.01900 27.12100 27.79000
C  -1.47400 29.44500 25.41300
C  -1.81000 28.73200 28.86600
O  -1.06400 29.65300 29.16200
C  -2.49600 27.81300 29.91800
C  -1.40200 27.42700 30.82000
O  -0.61700 26.50500 30.60900
O  -1.60600 27.90000 32.08800
C  -0.84100 27.24300 33.14300
H  -5.90100 21.87700 29.69400
H  -5.99100 22.28700 23.31700
H  -2.81200 27.83900 23.62200
H  -3.53600 25.37400 31.81100
H  -5.83400 23.59800 31.56100
H  -3.74400 21.95100 30.82600
H  -4.06000 22.30000 32.48900
H  -2.74500 23.12800 31.49600
H  -6.54500 25.92900 31.41300
H  -5.46700 27.14000 31.04900
H  -6.57700 26.63200 33.52900
H  -5.05100 27.54200 33.16400
H  -6.83500 20.11100 29.17100
H  -6.98400 18.99100 27.87500
H  -8.23600 20.27600 28.02700
H  -8.13300 18.29500 24.37300
H  -8.76600 19.38200 25.54900
H  -7.42100 18.27300 26.04500
H  -5.75000 24.33600 21.86500
H  -3.19400 25.63500 21.57300
H  -4.73100 22.73700 20.68900
H  -3.40700 22.57800 21.98800
H  -3.25000 23.66900 20.66100
H  -4.82200 27.71700 22.16000
H  -6.05800 26.55400 21.90000
H  -4.29100 26.18800 19.64500
H  -4.51400 27.92500 19.83500
H  -5.90100 26.87700 19.61300
H  -1.02700 29.10400 24.48000
H  -0.70600 29.87900 26.05300
H  -2.05900 30.32800 25.15200
H  -3.22500 28.30300 30.56400
H  0.19800 27.56700 33.19600
H  -0.86600 26.15400 33.18900
H  -1.34600 27.55300 34.05700

