158

Mg 17.02700 -2.20500 27.90100
C  15.60500 -0.16200 30.49100
C  18.81200 -3.81800 30.29600
C  18.74100 -3.73300 25.38700
C  15.35600 -0.21700 25.64600
N  17.41800 -1.84800 30.15700
C  16.57600 -1.08000 30.99000
C  17.13900 -1.25100 32.44600
C  18.20700 -2.32600 32.32800
C  18.21300 -2.66600 30.83500
C  19.60400 -2.16700 32.90900
C  15.94400 -1.46500 33.48800
C  16.16400 -0.87900 34.92300
H  16.98300 -1.75600 35.91800
N  18.50700 -3.62700 27.88600
C  19.09800 -4.13500 28.93300
C  19.99800 -5.26800 28.57700
C  19.79300 -5.38800 27.19200
C  19.09100 -4.16900 26.71800
C  20.86100 -6.12700 29.60200
C  20.20900 -6.53700 26.33100
O  20.13600 -6.48600 25.16200
C  20.76800 -7.78800 26.83700
N  17.02900 -2.07600 25.83800
C  17.87000 -2.76000 25.02300
C  17.66400 -2.31600 23.60700
C  16.60300 -1.13100 23.64200
C  16.28600 -1.14700 25.14900
C  19.00600 -1.91800 22.99400
C  15.27600 -1.24500 22.72600
C  15.39700 -0.72600 21.31900
N  15.64900 -0.57400 27.99800
C  15.02600 0.05900 27.00100
C  14.23500 1.22000 27.56500
C  14.53800 1.18700 28.94500
C  15.34800 0.08900 29.14100
C  13.57800 2.35000 26.85200
C  14.28500 1.85400 30.17400
O  13.54300 2.84500 30.37200
C  15.01100 1.05600 31.32200
C  16.04500 1.92000 31.92800
O  17.06300 2.22300 31.37600
O  15.79400 2.20900 33.22900
C  16.64800 3.23300 33.89500
H  19.45900 -4.20400 31.08700
H  19.20700 -4.35700 24.62200
H  14.91700 0.50100 24.95000
H  17.60400 -0.32000 32.77100
H  17.71000 -3.21200 32.72100
H  19.67800 -3.07900 33.50200
H  19.67200 -1.22200 33.44700
H  20.20800 -2.12800 32.00300
H  15.86700 -2.55100 33.55100
H  14.98700 -1.09800 33.11600
H  15.16800 -0.66700 35.31100
H  16.67800 0.07800 34.84000
H  21.13400 -5.46200 30.42100
H  21.80900 -6.50400 29.21700
H  20.33100 -6.99700 29.99100
H  21.79400 -7.65600 27.18100
H  20.75700 -8.48000 25.99500
H  20.18200 -8.29300 27.60500
H  17.25500 -3.21400 23.14300
H  16.99900 -0.14800 23.38700
H  19.55200 -2.79700 22.65400
H  19.78000 -1.71500 23.73400
H  18.90200 -1.09700 22.28400
H  14.39600 -0.77300 23.16400
H  15.13800 -2.32000 22.60800
H  16.31800 -0.77000 20.73800
H  15.00200 0.28700 21.25400
H  14.83200 -1.43200 20.71100
H  12.68500 1.92600 26.39500
H  14.23900 2.73300 26.07400
H  13.33500 3.20100 27.48900
H  14.27900 0.68200 32.03800
H  16.14900 3.91200 34.58600
H  17.17400 3.85100 33.16700
H  17.52600 2.72500 34.29300
Mg 40.46400 8.76100 29.02400
C  42.39900 10.04300 31.71400
C  38.63000 6.97300 31.24700
C  38.84600 7.45800 26.42100
C  42.88600 10.07800 26.88000
N  40.48300 8.62000 31.17300
C  41.29400 9.25800 32.05400
C  40.84900 9.03200 33.52800
C  39.81200 7.87800 33.35900
C  39.57300 7.85000 31.80500
C  40.16900 6.48900 34.05800
C  40.33100 10.30700 34.25800
C  39.80600 10.07300 35.68000
H  40.67700 10.50200 36.88500
N  38.93600 7.41300 28.88500
C  38.22200 6.79000 29.89800
C  37.14500 6.05800 29.30700
C  37.19600 6.19400 27.85300
C  38.29200 7.07900 27.68800
C  36.17100 5.31300 30.16900
C  36.22300 5.63600 26.70400
O  36.34600 5.93400 25.52300
C  35.27200 4.68000 27.10400
N  40.83800 8.78600 26.98700
C  40.01800 8.18900 26.08500
C  40.49100 8.28500 24.60100
C  41.79600 9.11900 24.79800
C  41.85500 9.39200 26.29700
C  40.78700 6.90700 23.91000
C  41.95500 10.34600 23.93100
C  41.23200 11.63000 24.33800
N  42.24900 9.82800 29.21000
C  43.07800 10.37600 28.26600
C  44.23000 10.97300 28.83100
C  43.95400 10.95600 30.17400
C  42.75600 10.22400 30.34900
C  45.41900 11.42200 28.02600
C  44.44900 11.38000 31.46500
O  45.40800 12.10600 31.79200
C  43.40500 10.90600 32.52600
C  44.12100 10.12600 33.53900
O  44.47100 8.94000 33.47700
O  44.35200 10.89700 34.64300
C  44.94500 10.13300 35.76000
H  37.96900 6.46000 31.94900
H  38.31000 7.00500 25.58400
H  43.67100 10.35000 26.17200
H  41.75800 8.76800 34.06800
H  38.84600 8.15800 33.78000
H  39.52500 6.54700 34.93500
H  41.22200 6.52900 34.33700
H  40.00400 5.64700 33.38500
H  39.49800 10.77000 33.72900
H  41.17600 10.99100 34.34400
H  39.69500 8.99800 35.81800
H  38.82000 10.52200 35.80000
H  35.13800 5.49300 29.87200
H  36.22800 5.63700 31.20800
H  36.28300 4.24900 29.95600
H  34.43400 5.14500 27.62400
H  35.75100 3.83700 27.60100
H  34.88300 4.32200 26.15100
H  39.71600 8.86400 24.09800
H  42.65400 8.47900 24.59100
H  40.55000 6.71700 22.86300
H  40.12900 6.11800 24.27200
H  41.82700 6.60200 24.03100
H  41.37600 10.11600 23.03700
H  43.01400 10.54300 23.76000
H  40.50500 11.98100 23.60600
H  41.83700 12.48200 24.64700
H  40.65100 11.38300 25.22700
H  45.21600 12.31900 27.44200
H  45.76500 10.61400 27.38200
H  46.33300 11.61600 28.58900
H  43.05900 11.78800 33.06600
H  45.75700 9.43200 35.56500
H  44.13100 9.47600 36.06600
H  45.20100 10.71400 36.64600

