158

Mg 25.68200 0.53400 29.67500
C  27.85900 0.25800 32.30900
C  23.06600 0.84500 31.91100
C  23.61900 0.66900 27.05000
C  28.29500 -0.49700 27.40100
N  25.53100 0.53700 31.86800
C  26.55400 0.53500 32.75100
C  26.02500 0.76100 34.17800
C  24.51100 0.91400 33.99200
C  24.36800 0.81500 32.48500
C  23.72800 -0.14700 34.87100
C  26.66000 1.99300 34.88000
C  27.07200 1.85200 36.32700
H  26.61100 2.96500 37.24600
N  23.63300 0.60500 29.53400
C  22.72100 0.78500 30.55600
C  21.39400 0.79600 30.00400
C  21.51200 0.76000 28.53700
C  23.00600 0.67500 28.36400
C  20.17900 0.80100 30.86000
C  20.38800 0.63700 27.40800
O  20.75800 0.54600 26.24100
C  18.97500 0.74100 27.74600
N  25.92300 0.19200 27.51400
C  24.93300 0.45600 26.64400
C  25.40800 0.21800 25.23800
C  26.88700 -0.12200 25.37800
C  27.00100 -0.23000 26.88600
C  24.56000 -0.82000 24.43000
C  27.78900 0.91000 24.71700
C  28.77900 0.35300 23.67500
N  27.62700 0.05000 29.70300
C  28.54500 -0.40900 28.76800
C  29.86300 -0.55800 29.37600
C  29.64800 -0.25600 30.78200
C  28.22500 -0.00400 30.93800
C  31.13700 -0.86000 28.68200
C  30.30500 -0.14800 32.07100
O  31.46400 -0.12800 32.41900
C  29.18900 0.21300 33.11800
C  29.13200 -0.88900 34.15100
O  28.93500 -2.05900 33.88100
O  29.52200 -0.32800 35.41600
C  29.33800 -1.19500 36.57500
H  22.19800 0.99300 32.55700
H  23.04100 0.87500 26.14700
H  29.06600 -0.81900 26.69800
H  26.33700 -0.14500 34.69600
H  24.23700 1.90600 34.35100
H  22.87000 0.36100 35.31100
H  24.41100 -0.58300 35.59900
H  23.52300 -1.00000 34.22400
H  26.08100 2.90900 34.76600
H  27.52800 2.31500 34.30500
H  28.15600 1.96200 36.37200
H  26.76800 0.85900 36.66000
H  19.85900 1.83600 30.97900
H  20.11300 0.40300 31.87200
H  19.29200 0.34000 30.42400
H  18.52200 -0.24600 27.82800
H  18.43500 1.36500 27.03400
H  18.75000 1.27900 28.66700
H  25.22100 1.24900 24.93700
H  27.02800 -1.14700 25.03400
H  25.18400 -1.64000 24.07500
H  24.16700 -0.31000 23.55100
H  23.70900 -1.13400 25.03400
H  28.32700 1.58700 25.38100
H  27.16900 1.54300 24.08400
H  28.43100 0.53200 22.65800
H  28.90800 -0.71600 23.84800
H  29.72200 0.89900 23.66600
H  31.06300 -0.82700 27.59500
H  31.24100 -1.90100 28.98600
H  31.97400 -0.27200 29.05900
H  29.31100 1.21300 33.53300
H  28.78700 -2.09300 36.29400
H  28.95300 -0.61800 37.41600
H  30.34300 -1.53600 36.82400
Mg 47.15100 24.99200 28.98600
C  48.26500 27.38400 31.45100
C  46.20500 23.00200 31.63200
C  46.89700 22.49400 26.69600
C  48.67700 26.98600 26.61800
N  47.15700 25.25400 31.32500
C  47.49100 26.34500 32.05200
C  47.00400 26.14900 33.49300
C  46.54500 24.65900 33.52700
C  46.60500 24.26600 32.08700
C  47.33800 23.73900 34.47600
C  45.81400 27.21800 33.91000
C  45.86000 27.78000 35.37600
H  46.65000 26.95500 36.39800
N  46.51400 23.12200 29.13400
C  46.19700 22.48300 30.29700
C  45.75400 21.20400 29.92200
C  45.90000 20.96400 28.52500
C  46.44200 22.24900 28.02900
C  45.26400 20.20100 30.98400
C  45.55500 19.82200 27.66900
O  45.71900 19.82600 26.45200
C  44.83700 18.67000 28.24700
N  47.82100 24.78800 27.08100
C  47.44600 23.72300 26.28900
C  47.91100 23.85800 24.84900
C  48.21700 25.33700 24.79500
C  48.22200 25.75600 26.22100
C  49.06400 22.89300 24.60700
C  47.24500 26.19700 23.92800
C  47.89600 27.00400 22.75200
N  48.26200 26.85600 28.90300
C  48.75500 27.57100 27.88300
C  49.57300 28.61400 28.37400
C  49.37300 28.58700 29.74400
C  48.58800 27.49400 30.04500
C  50.35000 29.60600 27.46700
C  49.72500 29.29900 30.96000
O  50.43300 30.25900 31.13200
C  49.00200 28.54500 32.05700
C  50.04000 28.04700 32.92900
O  50.75700 27.05200 32.76600
O  49.97100 28.81700 34.04300
C  50.90200 28.34100 35.09100
H  45.81200 22.24900 32.31900
H  46.75300 21.78200 25.88100
H  49.09800 27.48800 25.74400
H  47.80100 26.26500 34.22800
H  45.48500 24.60000 33.77600
H  47.82400 24.34500 35.24000
H  48.23600 23.24500 34.10300
H  46.68000 22.98600 34.91100
H  44.86800 26.75500 33.62800
H  46.04000 28.11200 33.32800
H  44.81700 27.99300 35.60900
H  46.39300 28.72100 35.24300
H  45.84800 19.32000 30.71700
H  44.18700 20.04000 30.95600
H  45.54000 20.36300 32.02600
H  45.49100 18.08100 28.88900
H  44.50300 18.06900 27.40100
H  43.94600 18.99400 28.78500
H  47.12600 23.52400 24.17000
H  49.20100 25.61000 24.41500
H  48.81400 22.40600 23.66400
H  49.22400 22.20900 25.44000
H  49.98500 23.47200 24.53700
H  46.87400 26.92200 24.65300
H  46.38800 25.67000 23.50800
H  47.44800 26.91700 21.76200
H  48.93100 26.66500 22.70400
H  47.80100 28.06500 22.98300
H  51.25400 29.04000 27.24200
H  50.62600 30.46100 28.08500
H  49.72700 30.00400 26.66700
H  48.35500 29.33300 32.44200
H  51.96800 28.35900 34.86600
H  50.59200 27.31200 35.27300
H  50.69600 28.87400 36.02000

