158

Mg 49.03300 34.76400 28.33900
C  47.33100 33.24700 31.03300
C  49.28500 37.61700 30.32000
C  50.28400 36.37000 25.53600
C  48.15200 32.03900 26.28300
N  48.38100 35.32400 30.44400
C  47.82700 34.58300 31.36500
C  48.09200 35.15700 32.77500
C  48.33800 36.67500 32.41800
C  48.75600 36.54700 30.96300
C  47.11300 37.60500 32.82900
C  49.38000 34.46100 33.38300
C  49.42700 34.27800 34.93200
H  48.73900 35.31400 35.85900
N  49.75000 36.65800 27.97700
C  49.81800 37.68000 28.96800
C  50.47700 38.86500 28.40600
C  50.63800 38.61200 27.00300
C  50.17000 37.15400 26.79100
C  50.93900 39.96900 29.30000
C  51.26100 39.49200 25.99100
O  51.46600 39.05600 24.90800
C  51.48400 40.87700 26.28500
N  49.26500 34.28600 26.21100
C  49.93300 35.01500 25.31300
C  50.45100 34.09100 24.16900
C  49.58800 32.82300 24.27100
C  48.98700 33.02700 25.67300
C  50.46200 34.79600 22.75400
C  50.21700 31.43200 24.03100
C  51.50400 31.35700 23.08500
N  47.98000 33.02400 28.56000
C  47.73700 31.97900 27.67100
C  47.01800 30.83200 28.33900
C  46.91200 31.29600 29.68000
C  47.39300 32.62700 29.72500
C  46.74800 29.42800 27.72400
C  46.35300 30.95300 30.97600
O  45.71900 29.98100 31.33400
C  46.47500 32.27800 31.82600
C  46.87900 31.91400 33.19900
O  47.85300 31.22700 33.51400
O  45.93900 32.25500 34.08000
C  46.19600 31.90200 35.49600
H  49.33100 38.52500 30.92500
H  50.80800 36.85600 24.71100
H  48.11400 31.10000 25.72700
H  47.19500 35.04600 33.38500
H  49.17000 37.06900 33.00200
H  47.39400 38.25600 33.65700
H  46.23000 37.03000 33.10700
H  46.82300 38.20500 31.96600
H  50.27000 34.98100 33.02900
H  49.43900 33.50600 32.86200
H  50.49100 34.25300 35.16600
H  49.20300 33.23600 35.16200
H  50.24800 40.80900 29.22700
H  51.93700 40.16900 28.91100
H  51.01000 39.76500 30.36800
H  52.32800 41.13000 26.92500
H  50.59100 41.26400 26.77700
H  51.56500 41.44300 25.35700
H  51.44100 33.82800 24.54300
H  48.74800 32.92000 23.58300
H  51.32600 35.43900 22.58300
H  49.54700 35.38100 22.65600
H  50.40700 34.12500 21.89700
H  49.47800 30.71200 23.68000
H  50.41500 31.06400 25.03800
H  51.21600 30.54100 22.42200
H  52.35200 31.21300 23.75500
H  51.74200 32.26700 22.53400
H  47.02600 28.65300 28.43900
H  47.24900 29.16500 26.79300
H  45.67100 29.30400 27.60300
H  45.46300 32.67900 31.88600
H  46.59900 30.89400 35.59500
H  45.25000 31.92200 36.03600
H  46.93700 32.59700 35.89200
Mg -2.48000 34.29500 26.59500
C  -3.88700 32.72700 29.31300
C  -0.53500 36.25700 28.58800
C  -1.51800 36.04300 23.81500
C  -4.46500 32.21800 24.47400
N  -2.30500 34.47000 28.73600
C  -2.92700 33.73500 29.68800
C  -2.25600 33.98400 31.06000
C  -1.22800 35.20600 30.78800
C  -1.37600 35.39200 29.27200
C  -1.46300 36.55200 31.54300
C  -1.59900 32.72600 31.69100
C  -1.47700 32.91000 33.23000
H  -2.35200 32.13100 34.22000
N  -1.20900 35.98500 26.25600
C  -0.46300 36.56000 27.20400
C  0.27700 37.65700 26.54900
C  -0.09500 37.62000 25.17900
C  -0.92000 36.52200 25.03400
C  1.35800 38.50100 27.30300
C  0.20700 38.61400 24.11700
O  -0.17000 38.49600 22.91900
C  0.94800 39.82700 24.42000
N  -2.95400 34.15400 24.44400
C  -2.35600 34.92100 23.47800
C  -2.69100 34.51800 22.01700
C  -3.51700 33.22600 22.34500
C  -3.74200 33.21800 23.80300
C  -3.58800 35.59700 21.24700
C  -2.81500 31.91900 21.85400
C  -3.65100 30.78300 21.29900
N  -3.96800 32.89800 26.78700
C  -4.58400 32.03300 25.81700
C  -5.34400 31.02000 26.51000
C  -5.18500 31.30500 27.86500
C  -4.29400 32.42700 27.97700
C  -6.14200 29.91900 25.94000
C  -5.53600 30.92200 29.21500
O  -6.32200 30.08300 29.61700
C  -4.80300 31.85500 30.17900
C  -5.81200 32.48100 31.02200
O  -6.76900 33.15000 30.60800
O  -5.54000 32.27300 32.32800
C  -6.34200 32.85500 33.33600
H  0.14100 36.73100 29.30200
H  -1.18800 36.47000 22.86600
H  -5.09700 31.67300 23.77000
H  -2.99600 34.37600 31.75700
H  -0.26100 34.89500 31.18300
H  -2.02800 37.32200 31.01700
H  -0.50600 36.88400 31.94600
H  -2.13300 36.44800 32.39700
H  -0.57700 32.62700 31.32500
H  -2.09300 31.79600 31.41000
H  -1.51300 33.96700 33.49200
H  -0.44100 32.64100 33.43500
H  2.32500 38.42900 26.80400
H  1.47900 38.21000 28.34700
H  1.03700 39.54100 27.24900
H  0.37500 40.44900 25.10800
H  0.96300 40.37500 23.47700
H  1.91200 39.52900 24.83100
H  -1.72400 34.34300 21.54600
H  -4.54200 33.29000 21.97800
H  -3.70100 36.50200 21.84400
H  -4.60600 35.33000 20.96200
H  -3.04100 35.99000 20.39000
H  -2.41600 31.51800 22.78600
H  -1.99300 32.10200 21.16100
H  -2.96900 30.48400 20.50300
H  -4.62500 31.19900 21.04300
H  -3.78400 29.97800 22.02200
H  -7.15800 30.31300 25.90600
H  -6.14300 29.06500 26.61700
H  -5.61900 29.63500 25.02700
H  -4.16700 31.24600 30.82200
H  -7.10700 32.09200 33.48200
H  -6.82700 33.79100 33.05900
H  -5.67100 33.09200 34.16200

