158

Mg 1.58100 -1.47400 45.78200
C  4.93400 -0.97500 45.17100
C  0.71300 0.94200 43.49300
C  -1.81400 -2.42700 45.71900
C  2.40200 -4.39200 47.48500
N  2.62900 -0.17800 44.60900
C  4.04700 -0.10900 44.48700
C  4.46500 1.06900 43.58000
C  3.05900 1.79800 43.30600
C  2.06300 0.77100 43.84700
C  2.87700 3.23300 43.86600
C  5.20800 0.62300 42.27100
C  6.44000 1.44600 42.04100
H  6.54800 2.08200 40.63700
N  -0.33300 -0.82000 44.69700
C  -0.37600 0.17700 43.83400
C  -1.74600 0.37800 43.36500
C  -2.50800 -0.56500 44.07700
C  -1.60000 -1.32100 44.90100
C  -2.14000 1.28000 42.36300
C  -4.06200 -0.76200 44.00500
O  -4.69200 -0.10600 43.16400
C  -4.88500 -1.74800 44.87200
N  0.44900 -3.16900 46.44300
C  -0.88600 -3.26300 46.44300
C  -1.38800 -4.48300 47.13000
C  -0.04400 -5.11900 47.63300
C  1.05800 -4.20600 47.15800
C  -2.58900 -4.35800 48.19000
C  0.18100 -6.65800 47.28500
C  -0.10400 -7.65100 48.39800
N  3.26700 -2.41100 46.40300
C  3.43300 -3.55400 47.09400
C  4.85800 -3.86800 47.22900
C  5.46300 -2.89100 46.46600
C  4.45300 -1.98400 46.04800
C  5.55400 -4.96300 48.10000
C  6.71800 -2.36000 45.91600
O  7.83900 -2.77500 46.14700
C  6.44700 -1.05900 45.19500
C  7.09100 0.11600 45.90500
O  7.40300 0.13000 47.06900
O  7.43100 1.07100 45.05600
C  8.18700 2.23700 45.53400
H  0.56100 1.75100 42.77500
H  -2.84400 -2.73500 45.91300
H  2.77000 -5.20800 48.11000
H  5.07500 1.77200 44.14700
H  2.91900 1.89300 42.22900
H  3.82000 3.61800 44.25500
H  2.23500 3.28100 44.74600
H  2.50300 3.90100 43.09000
H  4.70100 0.61500 41.30700
H  5.52800 -0.41400 42.37600
H  7.24700 0.71800 42.13000
H  6.61200 2.22900 42.77900
H  -2.46100 2.16500 42.91200
H  -2.92600 0.77800 41.79900
H  -1.27900 1.57200 41.76100
H  -4.86600 -1.54900 45.94400
H  -4.51500 -2.77200 44.82300
H  -5.89000 -1.61700 44.47100
H  -1.71900 -5.16000 46.34200
H  -0.04300 -4.99800 48.71600
H  -2.26200 -4.73000 49.16100
H  -3.42500 -4.92200 47.77600
H  -2.89100 -3.31600 48.29800
H  1.21100 -6.76500 46.94200
H  -0.57000 -6.96400 46.55700
H  -1.14600 -7.95200 48.29300
H  0.14300 -7.13900 49.32700
H  0.53500 -8.53000 48.30900
H  5.62100 -4.50900 49.08800
H  6.55100 -5.13500 47.69300
H  5.00800 -5.89700 48.23100
H  6.82600 -1.08900 44.17300
H  8.74300 2.65000 44.69300
H  8.83900 2.06900 46.39100
H  7.50300 3.00800 45.88800
Mg 16.17900 -2.07700 28.05300
C  15.30400 0.22400 30.72800
C  18.05600 -3.81200 30.30600
C  17.16000 -3.84000 25.42900
C  14.57300 0.30600 25.81800
N  16.72700 -1.70600 30.29600
C  16.17800 -0.83600 31.16900
C  16.77600 -0.97700 32.58700
C  17.75300 -2.26600 32.34400
C  17.46200 -2.65000 30.87600
C  19.26700 -2.02100 32.51100
C  15.67500 -1.09400 33.76800
C  15.95200 -0.35800 35.10700
H  17.40400 0.01500 35.40500
N  17.49200 -3.67800 27.86800
C  18.07800 -4.28900 28.91100
C  18.59100 -5.54000 28.40200
C  18.35300 -5.53900 26.95400
C  17.65500 -4.32800 26.67300
C  19.27900 -6.48700 29.29900
C  18.76500 -6.57500 25.99000
O  18.54300 -6.50800 24.75800
C  19.39600 -7.81500 26.44400
N  15.97400 -1.68800 25.89000
C  16.46800 -2.64200 25.04100
C  16.22100 -2.13400 23.55000
C  15.58900 -0.69200 23.64500
C  15.25400 -0.72000 25.15600
C  17.52200 -2.22400 22.66800
C  14.31200 -0.59800 22.79100
C  13.91900 0.85900 22.51200
N  14.98600 -0.30000 28.19700
C  14.49100 0.54500 27.19400
C  13.81400 1.60500 27.87700
C  14.15700 1.58800 29.22000
C  14.91600 0.38200 29.34000
C  12.90300 2.58600 27.27700
C  13.97000 2.25000 30.49100
O  13.22200 3.19300 30.71600
C  14.80400 1.44700 31.49100
C  15.81700 2.46700 31.96900
O  16.47900 3.18100 31.23500
O  15.73500 2.56800 33.35200
C  16.50500 3.74900 33.91900
H  18.53100 -4.48200 31.02500
H  17.51100 -4.39100 24.55400
H  14.08900 1.08900 25.23100
H  17.33700 -0.07000 32.81200
H  17.50700 -3.12700 32.96500
H  19.59400 -1.40200 33.34700
H  19.68400 -1.61900 31.58700
H  19.63400 -3.03900 32.64100
H  15.32600 -2.12300 33.86100
H  14.81100 -0.55800 33.37800
H  15.67500 -0.91300 36.00400
H  15.39700 0.57900 35.06400
H  20.00300 -7.21300 28.92800
H  18.65200 -7.05600 29.98600
H  19.86600 -5.91100 30.01400
H  18.76700 -8.26600 27.21200
H  20.43600 -7.71100 26.75200
H  19.31900 -8.54100 25.63500
H  15.49900 -2.82300 23.11100
H  16.19800 0.19900 23.49500
H  17.81700 -1.24200 22.29900
H  17.30700 -2.81200 21.77600
H  18.39600 -2.59400 23.20400
H  13.55200 -1.04100 23.43500
H  14.42200 -1.20900 21.89600
H  12.93100 1.09500 22.90600
H  13.95700 0.87700 21.42200
H  14.63000 1.64800 22.75500
H  13.46600 3.31400 26.69400
H  12.26800 2.95000 28.08500
H  12.19800 2.05800 26.63400
H  14.15400 1.12300 32.30400
H  15.93100 4.02100 34.80600
H  16.64200 4.67800 33.36500
H  17.51200 3.41700 34.17000

