158

Mg 0.51600 7.94300 26.34100
C  1.36800 9.85500 28.97500
C  0.26000 5.15400 28.49200
C  -0.12600 5.97600 23.54900
C  0.91400 10.68100 24.20500
N  0.69300 7.56500 28.41700
C  0.98900 8.53900 29.33400
C  0.86800 8.08000 30.78600
C  0.72700 6.51400 30.61200
C  0.55200 6.40000 29.04900
C  2.04500 5.64100 31.06800
C  -0.45400 8.64200 31.40900
C  -0.80900 8.27800 32.87800
H  0.44400 7.92400 33.75300
N  0.22500 5.83600 26.01000
C  0.00200 4.91600 27.06700
C  -0.38500 3.66700 26.53000
C  -0.44000 3.82800 25.08500
C  -0.14500 5.27600 24.80100
C  -0.69500 2.45600 27.45300
C  -0.76500 2.78400 24.06100
O  -0.85300 2.99300 22.84200
C  -0.81000 1.36900 24.48600
N  0.28200 8.25900 24.24000
C  0.00900 7.32500 23.29400
C  -0.19800 7.97400 21.93600
C  -0.04700 9.55300 22.16200
C  0.35400 9.55400 23.62300
C  0.89600 7.44600 20.97500
C  -1.32300 10.36500 21.91000
C  -1.23500 11.58200 21.02200
N  1.02800 9.92400 26.49400
C  1.22900 10.93100 25.57100
C  1.78700 12.13400 26.22400
C  1.79400 11.78000 27.62100
C  1.36300 10.44900 27.70400
C  2.04900 13.50600 25.59300
C  2.18500 12.31100 28.95500
O  2.65900 13.40600 29.29400
C  1.76700 11.11700 29.83700
C  2.85200 10.75500 30.81100
O  3.70000 9.95700 30.59900
O  2.70700 11.50400 31.90800
C  3.91900 11.49000 32.73700
H  0.25800 4.32800 29.20500
H  -0.26200 5.39800 22.63200
H  1.05100 11.58700 23.61200
H  1.71700 8.41600 31.38200
H  -0.19200 6.23900 31.12900
H  2.45700 6.23700 31.88200
H  2.80200 5.42800 30.31400
H  1.74700 4.72000 31.56900
H  -1.31700 8.33500 30.81800
H  -0.38800 9.72900 31.36100
H  -1.50300 7.44200 32.96200
H  -1.27700 9.21500 33.17800
H  -1.48900 1.86300 27.00000
H  -1.07500 2.80400 28.41400
H  0.15300 1.80800 27.67300
H  0.02700 1.17700 25.15800
H  -0.71000 0.72900 23.60900
H  -1.76700 1.09400 24.92900
H  -1.22800 7.84800 21.60300
H  0.79900 9.91300 21.57600
H  1.24800 8.22900 20.30200
H  0.55000 6.56400 20.43600
H  1.75800 7.09000 21.53900
H  -1.83800 10.56200 22.85000
H  -2.00400 9.65800 21.43800
H  -0.31300 11.47100 20.45200
H  -1.06900 12.44900 21.66100
H  -2.02000 11.69000 20.27300
H  1.10700 13.84000 25.15800
H  2.72200 13.42400 24.73900
H  2.40100 14.24100 26.31700
H  0.95400 11.37900 30.51500
H  4.80800 11.85400 32.22100
H  4.10300 10.53000 33.22000
H  3.68100 12.09500 33.61100
Mg 44.57400 5.23000 48.46600
C  42.86900 8.14500 47.44100
C  41.69600 3.48800 47.79500
C  46.34300 2.35400 48.75000
C  47.47100 7.10300 48.91100
N  42.55500 5.74700 47.74600
C  42.10800 6.98600 47.37500
C  40.66200 6.98400 46.94300
C  40.23100 5.50100 47.22100
C  41.51600 4.85800 47.64100
C  39.04100 5.37200 48.22700
C  40.48900 7.34600 45.40000
C  39.34300 8.29700 45.18700
H  38.26200 7.99900 44.03800
N  44.11600 3.14700 48.25500
C  42.83900 2.67600 48.05800
C  42.91300 1.27800 48.04800
C  44.24000 0.84600 48.18700
C  44.98000 2.12500 48.34000
C  41.76700 0.43500 47.80800
C  44.70600 -0.57300 48.26400
O  43.91800 -1.48500 48.19200
C  46.10100 -0.82500 48.34900
N  46.62400 4.78200 48.71700
C  47.12500 3.52200 48.90700
C  48.70900 3.44400 49.12200
C  49.02200 4.97500 49.04300
C  47.59400 5.70300 48.93100
C  49.08300 2.80500 50.49400
C  50.05200 5.38200 47.88800
C  51.37500 6.04300 48.26000
N  45.10300 7.24700 48.33900
C  46.28500 7.87500 48.52400
C  46.13500 9.28200 48.34700
C  44.81600 9.36100 47.96800
C  44.21200 8.16000 47.93300
C  47.26100 10.25500 48.55500
C  43.81000 10.25500 47.40500
O  43.97200 11.43400 47.17400
C  42.52100 9.55800 47.09200
C  41.46700 10.15600 47.94700
O  41.16700 9.66900 49.05400
O  40.75900 11.11800 47.23300
C  39.43300 11.42700 47.79900
H  40.77900 3.00300 47.45600
H  47.08100 1.54900 48.78100
H  48.34600 7.75700 48.90200
H  40.02500 7.63500 47.54000
H  39.93200 4.99800 46.30100
H  39.35000 4.82500 49.11800
H  38.36800 4.79600 47.59200
H  38.64100 6.33200 48.55300
H  40.40200 6.41000 44.84800
H  41.40100 7.86400 45.10200
H  39.77400 9.29100 45.06400
H  38.80100 8.19800 46.12800
H  42.15400 -0.42000 47.25300
H  40.95100 0.92100 47.27300
H  41.40900 0.14700 48.79600
H  46.27100 -1.88700 48.52400
H  46.47400 -0.32100 49.24100
H  46.47200 -0.41300 47.41100
H  49.08400 2.87400 48.27200
H  49.52500 5.23900 49.97300
H  49.23600 1.74000 50.32100
H  48.33300 3.00800 51.25900
H  49.99600 3.22600 50.91600
H  49.57000 6.10600 47.23000
H  50.14700 4.43800 47.35200
H  52.23100 5.48600 47.88100
H  51.43600 6.14400 49.34400
H  51.38300 7.02200 47.78100
H  47.85300 9.93200 49.41100
H  46.83200 11.23900 48.74000
H  47.91500 10.27000 47.68300
H  42.34200 9.72700 46.03000
H  38.89400 10.48500 47.89300
H  38.79200 11.97000 47.10500
H  39.53300 11.93400 48.75900

