158

Mg -11.13200 16.24700 42.45000
C  -7.83200 17.31800 42.33300
C  -12.10200 19.65200 42.24100
C  -14.41600 15.42100 42.29900
C  -10.24500 12.95500 42.60600
N  -10.05800 18.23000 41.93800
C  -8.75900 18.37900 42.10400
C  -8.37800 19.90900 42.01100
C  -9.72300 20.52800 42.39000
C  -10.73200 19.44100 42.11200
C  -9.76900 21.31700 43.74400
C  -7.86700 20.28600 40.57500
C  -6.31700 20.57900 40.22800
H  -5.53500 19.54600 39.38300
N  -13.04200 17.34300 42.20800
C  -13.20600 18.73100 42.22900
C  -14.58300 19.01600 42.25400
C  -15.26500 17.83000 42.14000
C  -14.26200 16.74600 42.28600
C  -15.12400 20.44700 42.40500
C  -16.73800 17.70100 42.11000
O  -17.46900 18.70900 42.14400
C  -17.41400 16.34200 41.91800
N  -12.13400 14.45600 42.32100
C  -13.52900 14.39100 42.33400
C  -13.89600 12.91900 42.50100
C  -12.63100 12.16900 42.11900
C  -11.60100 13.23000 42.30200
C  -14.37100 12.65300 43.95300
C  -12.65100 11.54800 40.71600
C  -12.88600 10.02800 40.89100
N  -9.37200 15.31700 42.47500
C  -9.15900 13.96900 42.64300
C  -7.68800 13.72100 42.84700
C  -7.14100 15.03900 42.73600
C  -8.22300 15.94300 42.54900
C  -7.09500 12.37100 42.83500
C  -5.88300 15.85000 42.72500
O  -4.71900 15.55400 42.98100
C  -6.35300 17.29100 42.70400
C  -6.18900 17.81700 44.03700
O  -6.29000 17.20800 45.07900
O  -5.84600 19.12800 43.98600
C  -5.10500 19.62900 45.18700
H  -12.39300 20.67500 42.48600
H  -15.40200 14.96600 42.18400
H  -9.90300 11.95000 42.86500
H  -7.70900 20.13700 42.84100
H  -9.98900 21.35600 41.73200
H  -8.81600 21.47200 44.24900
H  -10.35100 20.71500 44.44200
H  -10.42900 22.18400 43.70700
H  -8.37900 21.21100 40.31000
H  -8.29000 19.53500 39.90900
H  -5.78700 20.53000 41.17900
H  -6.27500 21.50800 39.66000
H  -15.87200 20.63700 41.63500
H  -14.34900 21.19600 42.24600
H  -15.59500 20.53600 43.38400
H  -18.46300 16.38900 41.62700
H  -17.50800 15.78700 42.85100
H  -16.86100 15.85500 41.11500
H  -14.74400 12.72300 41.84500
H  -12.42200 11.43500 42.89800
H  -15.38300 12.24600 43.96700
H  -14.24200 13.53800 44.57500
H  -13.80200 11.84900 44.41800
H  -11.67900 11.67600 40.23900
H  -13.42000 12.07200 40.14900
H  -11.97000 9.56000 40.53100
H  -13.73900 9.68700 40.30300
H  -12.91400 9.61600 41.90000
H  -6.92200 12.09500 41.79500
H  -7.82300 11.71600 43.31300
H  -6.17200 12.53300 43.39100
H  -5.79500 17.90400 41.99600
H  -4.51900 18.78100 45.54000
H  -5.79800 19.93500 45.97100
H  -4.52600 20.52300 44.95300
Mg -5.34500 24.87400 25.94400
C  -3.65100 26.45500 28.61500
C  -6.96600 23.01100 28.13300
C  -6.51900 23.39700 23.23800
C  -3.06900 26.66100 23.77000
N  -5.23600 24.64400 28.10700
C  -4.64500 25.53600 28.98700
C  -5.03400 25.18300 30.44500
C  -5.61800 23.77000 30.26200
C  -5.98500 23.76800 28.77700
C  -4.70500 22.61700 30.64400
C  -6.12300 26.13200 30.91400
C  -6.03300 26.61000 32.40900
H  -6.03100 25.61900 33.56800
N  -6.71600 23.58000 25.74000
C  -7.38900 22.95400 26.72700
C  -8.34200 21.97800 26.18100
C  -8.26200 22.19100 24.71700
C  -7.17700 23.19200 24.48100
C  -9.23200 21.14500 26.95200
C  -9.18900 21.61500 23.60000
O  -9.22300 22.09100 22.41900
C  -10.18400 20.51200 23.94900
N  -4.84900 24.99400 23.78400
C  -5.56100 24.26500 22.83300
C  -4.96000 24.41600 21.42900
C  -4.10200 25.74800 21.64800
C  -4.03600 25.86300 23.16100
C  -4.11800 23.21400 20.91200
C  -4.52000 27.00100 20.85800
C  -3.61900 27.53000 19.72900
N  -3.64000 26.29400 26.09400
C  -2.90700 26.93600 25.14300
C  -2.06900 27.92600 25.83000
C  -2.42700 27.80600 27.17400
C  -3.28200 26.76500 27.33400
C  -1.33000 29.08200 25.14600
C  -2.28300 28.40600 28.52500
O  -1.61700 29.37800 28.96700
C  -3.00900 27.48900 29.46600
C  -2.17300 27.07800 30.54400
O  -1.19500 26.34100 30.41600
O  -2.69200 27.48100 31.77400
C  -1.90700 27.08200 32.93000
H  -7.46500 22.34000 28.83600
H  -6.83100 22.60900 22.54900
H  -2.36000 27.18800 23.12800
H  -4.18700 25.04600 31.11600
H  -6.51200 23.58800 30.86000
H  -3.69700 22.96000 30.87800
H  -4.57100 21.91100 29.82600
H  -5.00600 22.24400 31.62300
H  -7.12100 25.77500 30.66200
H  -6.05600 26.97300 30.22400
H  -6.68700 27.48200 32.42400
H  -5.13400 27.21100 32.54200
H  -10.24400 21.54400 26.87600
H  -8.90200 21.18900 27.99000
H  -9.27200 20.07300 26.76100
H  -9.64500 19.73200 24.48700
H  -10.62100 19.94500 23.12600
H  -11.02600 20.93300 24.49800
H  -5.79400 24.59700 20.75100
H  -3.07300 25.57000 21.33800
H  -4.35000 22.30200 21.46300
H  -3.05000 23.40200 21.01500
H  -4.32500 23.03400 19.85700
H  -4.66700 27.87000 21.49900
H  -5.50500 26.81500 20.42900
H  -3.22100 26.65700 19.21000
H  -2.74900 28.08900 20.07300
H  -4.07600 28.23800 19.03700
H  -0.25300 28.94100 25.04900
H  -1.59700 29.98100 25.70100
H  -1.75100 29.20800 24.14900
H  -3.80200 28.11500 29.87400
H  -1.03800 26.43600 32.80400
H  -2.63100 26.59300 33.58300
H  -1.47100 27.95000 33.42400

