158

Mg 34.05400 2.93400 29.45200
C  31.96100 3.78000 32.16600
C  36.79900 2.89100 31.54300
C  36.06000 2.19500 26.83000
C  31.26400 3.32200 27.35500
N  34.28600 3.18500 31.55300
C  33.33200 3.59000 32.50600
C  33.94100 3.62200 33.92000
C  35.50000 3.54200 33.62300
C  35.51800 3.15100 32.13400
C  36.18700 4.97300 33.94700
C  33.42200 2.37000 34.72500
C  32.95400 2.65400 36.22900
H  33.68100 3.70300 37.06900
N  36.20900 2.58500 29.18200
C  37.16600 2.62200 30.16800
C  38.36100 2.10500 29.62500
C  38.16700 1.75000 28.25500
C  36.80700 2.18300 28.02900
C  39.58600 1.81500 30.50300
C  39.07600 1.22300 27.25600
O  38.75700 1.02600 26.06900
C  40.53300 0.89600 27.61200
N  33.72600 2.96400 27.43900
C  34.68700 2.51300 26.58200
C  34.14900 2.46900 25.18700
C  32.59500 2.55700 25.37400
C  32.50000 3.05600 26.79400
C  34.74300 3.42600 24.16700
C  31.81800 1.29100 25.13300
C  31.61200 0.64800 23.71800
N  32.04200 3.49500 29.67500
C  31.02700 3.49500 28.74600
C  29.79500 3.79100 29.44700
C  30.13600 3.88300 30.82100
C  31.48400 3.63500 30.85100
C  28.47900 3.98200 28.89300
C  29.59100 4.22800 32.09600
O  28.41900 4.42300 32.47400
C  30.78600 4.10000 33.04800
C  30.99300 5.36600 33.74300
O  31.11300 6.39800 33.10300
O  30.95600 5.28700 35.13700
C  30.83400 6.53700 35.77000
H  37.55400 2.82900 32.33000
H  36.58100 1.84900 25.93500
H  30.36700 3.40600 26.73800
H  33.71100 4.54500 34.45200
H  35.99700 2.77700 34.21900
H  37.08700 5.18800 33.37100
H  36.62700 4.88100 34.94000
H  35.59400 5.88600 33.88600
H  34.19300 1.59900 34.74500
H  32.53900 1.89100 34.30300
H  33.08600 1.64400 36.61800
H  31.92800 3.02100 36.21400
H  40.51800 2.14800 30.04600
H  39.62300 0.76100 30.77800
H  39.49500 2.23900 31.50400
H  40.45700 0.15300 28.40600
H  41.05900 1.78200 27.96600
H  41.00900 0.42200 26.75400
H  34.29100 1.45000 24.82600
H  32.13800 3.28700 24.70600
H  35.33100 4.24500 24.58000
H  33.93900 3.82100 23.54700
H  35.46400 2.79500 23.64600
H  30.84000 1.46100 25.58300
H  32.41700 0.52900 25.63200
H  32.55600 0.85100 23.21300
H  30.84700 1.10100 23.08700
H  31.46700 -0.42500 23.84000
H  27.90500 3.05600 28.84900
H  28.55500 4.35000 27.87000
H  27.89800 4.66600 29.51100
H  30.60400 3.44500 33.90000
H  30.84900 6.31500 36.83700
H  29.84000 6.90700 35.52000
H  31.54900 7.32000 35.51600
Mg 46.86400 17.20300 28.62600
C  44.80400 17.03700 31.49800
C  49.26300 18.67200 30.62300
C  48.68500 17.63900 25.77400
C  44.19200 15.91700 26.82200
N  47.00500 17.88700 30.80300
C  46.01500 17.62000 31.80800
C  46.56600 18.04500 33.21200
C  47.90200 18.80800 32.81200
C  48.05600 18.50100 31.28700
C  47.93700 20.34600 33.02500
C  46.78700 16.87800 34.21900
C  47.36700 17.25700 35.62100
H  46.91100 18.61900 36.26700
N  48.74700 17.90400 28.29300
C  49.62400 18.47700 29.20400
C  50.88000 18.73500 28.63700
C  50.78300 18.39800 27.21600
C  49.36700 17.93600 27.06100
C  51.99800 19.42400 29.27500
C  51.84900 18.42700 26.14200
O  51.65300 18.24800 24.94500
C  53.23400 18.76700 26.55700
N  46.40300 16.95900 26.57800
C  47.36600 17.19600 25.61500
C  46.73900 16.96800 24.25600
C  45.38200 16.17200 24.59700
C  45.31800 16.29300 26.06800
C  46.54200 18.20900 23.29300
C  45.27900 14.70600 23.99500
C  44.04800 14.35900 23.15600
N  44.88300 16.63800 28.96200
C  44.01200 16.07500 28.15600
C  42.77900 15.70800 28.89900
C  43.09700 16.09100 30.16800
C  44.38400 16.64100 30.18800
C  41.49700 15.20800 28.29500
C  42.60400 16.05500 31.55300
O  41.53800 15.55700 31.96000
C  43.69800 16.58200 32.37500
C  43.19600 17.72600 33.18600
O  42.95200 18.84800 32.80400
O  42.99700 17.26100 34.41700
C  42.67100 18.18800 35.45800
H  50.00100 19.25800 31.17400
H  49.30500 17.76100 24.88400
H  43.30400 15.61400 26.26500
H  45.75300 18.66300 33.59500
H  48.67600 18.36700 33.44100
H  48.32300 20.86100 32.14600
H  48.47200 20.63800 33.92800
H  46.94300 20.79000 33.06800
H  47.58800 16.32100 33.73400
H  46.01400 16.18600 34.55300
H  48.45600 17.22900 35.57200
H  47.08900 16.41600 36.25600
H  52.84400 18.80500 29.57300
H  51.67100 19.89300 30.20300
H  52.21700 20.33100 28.71100
H  53.60300 18.30600 27.47400
H  53.26200 19.85600 26.60000
H  53.91700 18.56100 25.73300
H  47.39100 16.22000 23.80400
H  44.61500 16.85900 24.23900
H  45.52700 18.43500 22.96500
H  47.21900 18.27600 22.44100
H  46.90800 19.02200 23.91900
H  45.27000 14.00100 24.82600
H  46.16300 14.42600 23.42200
H  44.26400 13.83900 22.22200
H  43.33900 15.16300 22.96000
H  43.46700 13.67700 23.77800
H  41.43700 14.12000 28.28800
H  41.47400 15.47300 27.23800
H  40.61400 15.52100 28.85300
H  44.08900 15.86500 33.09700
H  42.87200 19.24300 35.27000
H  43.23500 17.97400 36.36600
H  41.60800 18.13800 35.69200

