158

Mg 2.15500 -1.69500 44.06600
C  5.45800 -0.78000 43.51000
C  1.23200 1.14800 42.30600
C  -1.09600 -2.63900 44.34900
C  3.17100 -4.79900 45.29700
N  3.21900 -0.03700 42.92700
C  4.54200 0.10100 42.90400
C  4.95900 1.30900 41.95800
C  3.61900 2.00100 41.68700
C  2.63800 1.05100 42.39500
C  3.51800 3.48500 42.27600
C  5.75200 0.86700 40.70600
C  7.15500 1.41500 40.48600
H  7.32800 2.15700 39.05700
N  0.31700 -0.90100 43.38000
C  0.20800 0.30100 42.79200
C  -1.18300 0.60500 42.56800
C  -1.94200 -0.44400 43.12900
C  -0.91100 -1.37700 43.72100
C  -1.62500 1.71400 41.72500
C  -3.41600 -0.55000 43.25100
O  -4.06100 0.34500 42.71800
C  -4.08200 -1.58000 44.10900
N  1.20100 -3.53700 44.66400
C  -0.15500 -3.62400 44.70000
C  -0.60000 -4.91400 45.33400
C  0.73600 -5.68100 45.58200
C  1.80100 -4.64700 45.11400
C  -1.54800 -4.82100 46.57700
C  0.96800 -7.00700 44.83900
C  1.85500 -8.00200 45.60200
N  3.96300 -2.64100 44.40200
C  4.17500 -3.87900 44.89700
C  5.62700 -4.03200 44.99700
C  6.19100 -2.85800 44.47800
C  5.11700 -2.02500 44.11600
C  6.41100 -5.34000 45.42600
C  7.46700 -2.09200 44.23600
O  8.62400 -2.28800 44.47500
C  6.94900 -0.82900 43.53800
C  7.49700 0.29900 44.27800
O  7.16300 0.68400 45.44800
O  8.46000 0.82500 43.41100
C  9.06700 2.10000 43.79100
H  0.94000 2.00900 41.70000
H  -2.13000 -2.99000 44.31700
H  3.44300 -5.75100 45.75700
H  5.65200 1.95200 42.50100
H  3.33100 2.08600 40.63900
H  4.52800 3.86700 42.41800
H  2.83100 3.59600 43.11600
H  3.08200 4.19000 41.56900
H  5.15000 1.05600 39.81700
H  5.87700 -0.21300 40.78700
H  7.84300 0.57100 40.52600
H  7.39800 2.18400 41.22000
H  -1.76300 2.55500 42.40500
H  -2.61500 1.52800 41.30900
H  -0.86000 1.86400 40.96400
H  -5.15000 -1.41700 44.25200
H  -3.59700 -1.61300 45.08500
H  -3.90200 -2.50700 43.56500
H  -1.18800 -5.58300 44.70500
H  0.82500 -5.96100 46.63100
H  -1.39100 -5.56000 47.36300
H  -2.62500 -4.76700 46.42200
H  -1.44400 -3.81100 46.97400
H  1.33100 -6.69000 43.86200
H  0.01400 -7.48600 44.62000
H  2.89500 -8.04200 45.27900
H  1.45300 -8.99900 45.42100
H  1.82600 -7.89300 46.68600
H  6.59000 -5.88800 44.50100
H  5.88100 -5.99200 46.12100
H  7.37900 -5.08600 45.85800
H  7.38400 -0.84900 42.53900
H  9.73700 2.03100 44.64800
H  8.21300 2.71100 44.08200
H  9.56500 2.56600 42.94100
Mg 25.73600 0.11700 28.43600
C  27.45800 -0.32300 31.56600
C  22.74400 0.23500 30.25700
C  24.14500 0.21700 25.55500
C  28.58500 -0.92500 26.81900
N  25.15400 -0.08900 30.67400
C  26.08800 -0.12000 31.75900
C  25.31300 0.15800 33.05100
C  23.78900 0.29000 32.64600
C  23.85000 0.16900 31.10900
C  22.65900 -0.66500 33.35400
C  25.80800 1.41000 33.91100
C  26.37600 1.05000 35.29000
H  25.70300 1.77400 36.49500
N  23.75600 0.25100 28.00000
C  22.68300 0.33700 28.82700
C  21.52900 0.46800 28.05100
C  21.88400 0.52200 26.71300
C  23.28700 0.31500 26.71500
C  20.13600 0.58400 28.67900
C  20.99300 0.70700 25.56900
O  21.27100 0.38300 24.43600
C  19.54000 1.01400 25.78000
N  26.32500 -0.39500 26.45200
C  25.47900 -0.06100 25.44200
C  26.16400 -0.09500 24.03600
C  27.66000 -0.28400 24.50100
C  27.55400 -0.53600 25.99500
C  25.63300 -1.24300 23.16500
C  28.73100 0.79000 24.13800
C  29.44800 0.83300 22.72500
N  27.55000 -0.52100 29.02700
C  28.67700 -0.82800 28.24200
C  29.83100 -1.02100 29.01800
C  29.36800 -0.87500 30.34600
C  28.01700 -0.58400 30.30800
C  31.27200 -1.11900 28.57800
C  29.79900 -0.87600 31.71400
O  30.93600 -1.08000 32.08400
C  28.61400 -0.43000 32.58000
C  28.46700 -1.37000 33.67300
O  27.93800 -2.45700 33.68800
O  28.83900 -0.76100 34.79400
C  28.73900 -1.54600 36.01000
H  21.81200 0.32400 30.81800
H  23.65700 0.47000 24.61200
H  29.44800 -1.19400 26.20600
H  25.31900 -0.76000 33.63900
H  23.40100 1.25900 32.96100
H  23.14200 -1.42000 33.97400
H  22.30400 -1.30000 32.54300
H  21.82000 -0.16700 33.84000
H  24.92600 2.03600 34.05300
H  26.52200 2.00100 33.33800
H  27.45700 1.15100 35.38900
H  26.23000 0.00100 35.54700
H  19.61300 1.54100 28.69400
H  20.14400 0.19800 29.69800
H  19.57000 -0.12500 28.07500
H  19.06700 0.12900 26.20500
H  19.03200 1.26400 24.84800
H  19.58200 1.82500 26.50800
H  25.94700 0.84000 23.51900
H  28.07600 -1.18400 24.04800
H  24.89300 -1.72500 23.80400
H  26.36400 -2.04000 23.02400
H  25.13700 -0.99600 22.22600
H  29.44800 0.98100 24.93600
H  28.14400 1.70400 24.05400
H  30.47100 1.16300 22.91000
H  28.91500 1.50200 22.05000
H  29.38300 -0.13900 22.23600
H  31.26700 -0.78300 27.54100
H  31.66100 -2.13700 28.58500
H  31.90000 -0.47200 29.19200
H  28.74600 0.57600 32.97700
H  29.24500 -2.50600 35.91000
H  27.74800 -1.86200 36.33600
H  29.19900 -0.98500 36.82300

