158

Mg 6.56000 53.02200 42.21600
C  6.37100 49.53000 41.74500
C  9.82800 52.95100 41.05100
C  6.51600 56.46300 42.16300
C  3.23100 52.94300 43.21400
N  7.95700 51.42000 41.48800
C  7.66100 50.07500 41.34000
C  8.92900 49.37300 40.84100
C  10.11300 50.43200 41.04000
C  9.30600 51.68800 41.33200
C  11.12700 50.04400 42.14900
C  8.88900 48.79500 39.37700
C  8.69100 49.77300 38.21700
H  7.76800 49.40700 37.07400
N  7.95000 54.54500 41.65900
C  9.26400 54.24300 41.22700
C  9.88000 55.51600 41.02500
C  8.89000 56.47000 41.13200
C  7.73500 55.84600 41.72800
C  11.34600 55.60500 40.55600
C  9.08300 57.92500 40.72000
O  10.19900 58.39900 40.38200
C  8.03200 58.96000 40.74100
N  5.08000 54.47300 42.58300
C  5.31400 55.80500 42.58600
C  3.99400 56.51700 42.81400
C  3.06700 55.44700 43.35900
C  3.80300 54.19000 42.95700
C  4.09000 57.68800 43.89200
C  1.65600 55.58600 42.63700
C  0.52300 56.12900 43.52700
N  5.08400 51.55400 42.43600
C  3.80400 51.69700 42.90500
C  3.24600 50.42900 43.18800
C  4.19000 49.57900 42.55700
C  5.29000 50.29500 42.19900
C  1.86900 50.13000 43.82800
C  4.32100 48.16400 42.23400
O  3.55200 47.22800 42.34300
C  5.92200 48.10500 41.67900
C  5.82800 47.58600 40.22400
O  5.39700 48.23300 39.26300
O  6.31300 46.24900 40.21900
C  6.49000 45.53400 38.98600
H  10.87600 52.88000 40.75100
H  6.51200 57.53700 42.36100
H  2.18700 52.84900 43.52300
H  9.10300 48.55300 41.53800
H  10.60900 50.56400 40.07900
H  11.12800 50.85100 42.88000
H  12.11300 50.01200 41.68400
H  10.92100 49.16800 42.76400
H  8.30400 47.87800 39.32100
H  9.91200 48.51100 39.12600
H  9.62100 50.16100 37.80100
H  8.25500 50.66300 38.67100
H  11.82200 56.52300 40.90000
H  11.22100 55.49000 39.47900
H  11.85100 54.69400 40.87900
H  7.07500 58.49300 40.50900
H  8.27100 59.83100 40.13000
H  7.83000 59.29300 41.75900
H  3.75800 56.98500 41.85800
H  2.98500 55.52800 44.44300
H  4.99000 57.65200 44.50700
H  3.21900 57.74000 44.54500
H  4.24300 58.68900 43.48800
H  1.34100 54.60300 42.28700
H  1.72500 56.25900 41.78300
H  0.78700 56.22900 44.58000
H  -0.41300 55.57500 43.59000
H  0.34700 57.17800 43.28900
H  1.60000 49.13900 43.46200
H  1.10300 50.77700 43.40100
H  1.96900 50.20400 44.91100
H  6.51600 47.43800 42.30400
H  7.47500 45.07100 38.94600
H  6.30200 46.14200 38.10100
H  5.71400 44.77100 39.05800
Mg 10.03600 47.86700 25.78100
C  8.00800 48.27800 28.70200
C  12.58300 49.41800 27.55500
C  11.97700 47.77200 23.02100
C  7.28400 47.07500 23.92500
N  10.17000 48.87200 27.90600
C  9.31800 48.67300 28.93000
C  9.99400 49.15200 30.23800
C  11.37500 49.77900 29.79400
C  11.40400 49.29400 28.32700
C  11.55800 51.31600 29.81700
C  10.17900 48.03400 31.34700
C  9.62000 48.24800 32.76400
H  9.41700 46.93500 33.57500
N  12.02800 48.53900 25.36700
C  12.91900 49.11200 26.19800
C  14.21800 49.17400 25.55600
C  14.02600 48.85600 24.15800
C  12.67300 48.33700 24.15600
C  15.48900 49.55800 26.30800
C  14.95900 48.86000 22.90100
O  14.61200 48.60800 21.76900
C  16.41600 49.20200 23.14300
N  9.71300 47.48900 23.74400
C  10.65500 47.35600 22.85300
C  10.13500 46.86900 21.49200
C  8.56200 47.12200 21.68900
C  8.53800 47.13700 23.20300
C  10.62000 47.59700 20.20400
C  7.56400 46.04600 21.11600
C  6.33700 46.55000 20.46000
N  8.04900 47.58700 26.18000
C  6.98900 47.32300 25.29500
C  5.74200 47.46400 26.00100
C  6.10400 47.76200 27.34000
C  7.53300 47.87400 27.36500
C  4.34900 47.20500 25.51400
C  5.52900 47.95700 28.65300
O  4.40300 47.86700 29.02400
C  6.76100 48.13200 29.62600
C  6.86400 47.00800 30.59400
O  7.45200 45.95500 30.49600
O  5.89600 47.18000 31.55500
C  5.61100 46.09900 32.44600
H  13.46300 49.79600 28.08100
H  12.58900 47.66600 22.12200
H  6.38500 46.87300 23.33900
H  9.44300 49.95800 30.72200
H  12.26500 49.33400 30.23900
H  11.49400 51.57200 30.87400
H  10.80200 51.74100 29.15700
H  12.62100 51.46700 29.62600
H  11.22000 47.87900 31.63100
H  9.94400 47.08500 30.86600
H  8.66200 48.76200 32.68800
H  10.26600 49.00400 33.21000
H  15.32400 50.03600 27.27400
H  16.19400 50.20500 25.78700
H  15.89500 48.57300 26.54000
H  16.36700 50.11100 23.74200
H  16.96100 49.46000 22.23500
H  16.86000 48.35600 23.66800
H  10.25100 45.78700 21.42100
H  8.14900 48.09600 21.42500
H  11.07500 48.56300 20.42300
H  9.84800 47.86900 19.48400
H  11.36000 47.05000 19.62100
H  7.31300 45.39900 21.95600
H  8.19200 45.51000 20.40500
H  5.55700 45.96900 20.95200
H  6.44200 46.22600 19.42500
H  6.04900 47.59500 20.57800
H  4.22900 46.13300 25.35700
H  4.29400 47.79800 24.60200
H  3.60800 47.60000 26.20900
H  6.58100 49.08200 30.13000
H  5.45600 46.45500 33.46400
H  6.46200 45.45200 32.65900
H  4.68700 45.56100 32.23100

