158

Mg 50.87200 45.43800 42.37900
C  47.54700 46.21800 41.51600
C  50.24100 42.22500 41.25200
C  54.08600 44.72900 42.69200
C  51.39000 48.76500 43.00600
N  49.10300 44.42500 41.30300
C  47.85600 44.92500 41.13800
C  46.90600 43.79900 40.68000
C  47.74500 42.51200 40.96200
C  49.17100 43.06800 41.13700
C  47.31300 41.59500 42.13100
C  46.51500 43.97200 39.19600
C  45.03900 43.74900 38.87700
H  44.70800 42.90600 37.69200
N  51.97000 43.68900 42.05200
C  51.56600 42.47200 41.66600
C  52.62300 41.51100 41.64900
C  53.81100 42.20000 42.06300
C  53.32800 43.61800 42.28100
C  52.34500 40.09100 41.35700
C  55.17900 41.64500 42.27400
O  55.31400 40.42200 42.08500
C  56.38300 42.47200 42.91800
N  52.45900 46.61400 42.65400
C  53.65700 46.03700 43.01100
C  54.65000 47.10600 43.53800
C  53.91200 48.43000 43.36200
C  52.49900 47.93400 42.97700
C  55.16800 46.89100 45.04400
C  54.52200 49.40200 42.28000
C  54.65700 50.91100 42.82900
N  49.74400 47.16900 42.43300
C  50.09400 48.45600 42.68600
C  48.92000 49.35700 42.64700
C  47.88800 48.46600 42.20800
C  48.48800 47.18200 41.97500
C  48.90900 50.79500 42.91600
C  46.51000 48.47100 41.87600
O  45.63200 49.38100 41.88000
C  46.26200 46.98200 41.26500
C  44.97500 46.45800 41.83400
O  44.89600 45.87800 42.91800
O  43.94800 46.72900 40.96300
C  42.61000 46.15900 41.35400
H  50.10400 41.18700 40.94200
H  55.15600 44.57600 42.84500
H  51.50500 49.79900 43.33700
H  45.95000 43.77700 41.20400
H  47.67300 41.72800 40.20800
H  46.43500 41.97500 42.65200
H  48.21400 41.49200 42.73600
H  46.99600 40.58500 41.87400
H  47.08100 43.21100 38.65800
H  46.85000 44.95300 38.86000
H  44.75900 44.78800 38.70000
H  44.48200 43.39700 39.74500
H  51.87700 39.95300 40.38300
H  51.75000 39.63100 42.14600
H  53.27800 39.52700 41.37700
H  56.00500 42.94700 43.82400
H  56.51400 43.26000 42.17500
H  57.29600 41.88700 43.02800
H  55.56900 47.09900 42.95100
H  53.66000 48.97000 44.27400
H  56.25500 46.90200 45.12200
H  54.74700 45.93100 45.34200
H  54.65200 47.54100 45.75100
H  53.84600 49.53700 41.43600
H  55.50600 49.05800 41.96100
H  54.62600 51.05800 43.90900
H  53.92500 51.57500 42.37000
H  55.67400 51.23000 42.60200
H  49.81200 51.00200 43.49000
H  47.92000 51.07100 43.28100
H  49.03200 51.46100 42.06100
H  46.06000 47.04400 40.19500
H  41.97200 46.26500 40.47600
H  42.17700 46.69800 42.19700
H  42.68300 45.08700 41.53700
Mg 30.03900 57.54800 40.55900
C  27.33500 55.55100 39.93400
C  32.19800 55.17800 39.46200
C  32.68600 59.71700 40.75100
C  27.96100 60.05100 41.77900
N  29.77700 55.65700 39.61400
C  28.55500 54.98000 39.61300
C  28.77600 53.55400 39.19000
C  30.30400 53.46900 39.21700
C  30.81400 54.79800 39.51300
C  30.90500 52.41300 40.13900
C  28.06900 53.28700 37.82100
C  28.49200 54.10000 36.61500
H  27.47600 54.95700 35.76700
N  32.11300 57.50100 39.94300
C  32.76400 56.40200 39.50700
C  34.13600 56.64200 39.27600
C  34.30000 57.94400 39.66600
C  33.01200 58.50200 40.18100
C  35.10500 55.76900 38.65100
C  35.55700 58.78000 39.51400
O  36.64100 58.23300 39.33100
C  35.58500 60.34800 39.67900
N  30.26700 59.63900 40.94200
C  31.47600 60.26600 41.03500
C  31.27500 61.74300 41.37800
C  29.89400 61.73100 42.08300
C  29.29200 60.34600 41.56300
C  32.32100 62.53200 42.22900
C  28.99500 62.94700 41.81200
C  28.55700 63.61800 43.16200
N  28.07700 57.77900 40.79700
C  27.35700 58.87200 41.31800
C  25.91500 58.50500 41.38800
C  25.84800 57.24200 40.77200
C  27.22600 56.81200 40.44600
C  24.72600 59.48100 41.62400
C  25.04400 56.09300 40.27300
O  23.83800 56.04400 40.24800
C  25.92400 55.01800 39.81300
C  25.56400 53.83900 40.61000
O  25.97700 53.59800 41.72000
O  24.61200 53.07400 39.92100
C  24.05000 51.92600 40.51100
H  32.97800 54.46000 39.19700
H  33.57000 60.30300 41.01000
H  27.36600 60.79900 42.30600
H  28.34200 52.90600 39.95200
H  30.50900 53.27000 38.16500
H  30.60900 51.38900 39.91100
H  30.49900 52.67200 41.11700
H  31.98200 52.46400 40.29400
H  26.98000 53.26200 37.86200
H  28.32900 52.24900 37.61100
H  28.97300 53.41800 35.91400
H  29.19500 54.86900 36.93600
H  35.82200 56.31100 38.03500
H  34.73700 54.95400 38.02700
H  35.67300 55.18600 39.37600
H  34.67900 60.77700 39.25200
H  36.35600 60.58200 38.94500
H  35.77500 60.56900 40.73000
H  31.19200 62.19900 40.39100
H  30.05000 61.61100 43.15500
H  33.17000 61.85100 42.27900
H  31.92200 62.79100 43.21000
H  32.61300 63.45900 41.73700
H  28.09000 62.63000 41.29500
H  29.56900 63.67300 41.23600
H  28.95300 64.60800 43.38500
H  28.68500 63.04700 44.08100
H  27.47700 63.73700 43.25000
H  25.04900 60.27500 42.29700
H  23.88100 58.94300 42.05400
H  24.42300 59.91200 40.67000
H  25.63100 54.95100 38.76500
H  23.03200 51.92000 40.12200
H  24.12500 51.82100 41.59400
H  24.54900 50.99700 40.23400

