158

Mg 26.41100 50.38400 26.41600
C  24.15400 51.70300 28.91400
C  28.40200 49.44500 29.01100
C  28.43500 49.48900 24.12100
C  24.21200 51.80700 24.02600
N  26.36800 50.79900 28.63600
C  25.36300 51.16800 29.43200
C  25.61900 50.89200 30.93400
C  26.99100 50.12400 30.96400
C  27.28400 50.04800 29.42000
C  28.19300 50.69200 31.67500
C  24.53000 50.01000 31.67900
C  24.37300 50.45300 33.14800
H  23.70800 49.44700 34.11600
N  28.23500 49.58800 26.52400
C  28.90800 49.22100 27.65500
C  30.10100 48.43500 27.29800
C  30.18000 48.53800 25.82800
C  28.99700 49.26400 25.41800
C  31.09400 47.84100 28.29000
C  31.25200 48.09000 24.82900
O  31.19900 48.32200 23.60900
C  32.43700 47.21000 25.30800
N  26.37200 50.60000 24.37900
C  27.31800 50.08800 23.58100
C  26.92300 50.06300 22.11900
C  25.47600 50.68400 22.09600
C  25.32600 51.10700 23.60400
C  27.94600 50.72200 21.18000
C  24.30800 49.71500 21.55600
C  24.31200 48.26900 21.93200
N  24.56200 51.56700 26.43700
C  23.80600 52.06600 25.40100
C  22.61500 52.71700 25.87100
C  22.66500 52.60100 27.26500
C  23.85700 51.89400 27.55600
C  21.58300 53.38700 24.94900
C  22.04800 52.86200 28.45900
O  20.94400 53.34600 28.62100
C  22.96100 52.29300 29.63900
C  23.37100 53.44200 30.60900
O  24.45700 53.99800 30.54900
O  22.37600 53.71700 31.50800
C  22.85200 54.58700 32.60100
H  29.06200 48.97400 29.74200
H  29.02400 49.00200 23.34100
H  23.59700 52.19200 23.20900
H  25.64800 51.87900 31.39600
H  26.80900 49.10400 31.30000
H  28.67400 51.36300 30.96400
H  28.92500 49.97000 32.03500
H  27.85700 51.22400 32.56600
H  24.83300 48.96400 31.72200
H  23.58200 50.07700 31.14400
H  23.71100 51.31700 33.07900
H  25.29200 50.87700 33.55400
H  31.00400 48.29000 29.27900
H  32.13500 48.01500 28.01800
H  30.96700 46.76100 28.35300
H  32.05100 46.33400 25.82800
H  33.14300 47.80600 25.88600
H  32.99400 46.89300 24.42600
H  26.96700 48.98800 21.94400
H  25.49000 51.64400 21.57900
H  28.86300 51.08400 21.64400
H  27.64700 51.57600 20.57200
H  28.33100 49.90200 20.57300
H  24.33800 49.77500 20.46800
H  23.45500 50.25400 21.96700
H  23.40800 48.03700 22.49600
H  25.19200 47.91000 22.46600
H  24.29300 47.71800 20.99100
H  20.83300 52.61400 24.78400
H  21.95400 53.58200 23.94300
H  21.17200 54.32400 25.32600
H  22.46800 51.55500 30.27300
H  23.34400 55.47100 32.19500
H  23.50000 53.99100 33.24400
H  22.15200 55.02700 33.31200
Mg 9.13500 48.59300 26.02200
C  7.07900 48.95100 28.90700
C  11.76500 49.86300 27.80000
C  11.00700 48.59000 23.16600
C  6.13800 48.33700 24.04200
N  9.28700 49.21800 28.16700
C  8.41900 49.25100 29.17100
C  9.05100 49.55600 30.51000
C  10.41300 50.22000 30.02500
C  10.50900 49.73500 28.57500
C  10.41800 51.79400 30.08600
C  9.20700 48.27100 31.36900
C  8.81700 48.49000 32.85900
H  8.50000 47.32600 33.77200
N  11.16100 48.83500 25.60800
C  12.07300 49.40200 26.50300
C  13.38300 49.28700 25.90500
C  13.20000 48.76600 24.59200
C  11.73500 48.73800 24.40100
C  14.67800 49.65700 26.61600
C  14.20200 48.30500 23.52900
O  13.84400 47.84300 22.44400
C  15.66100 48.21300 23.91000
N  8.61500 48.75000 23.89000
C  9.61900 48.60200 22.93800
C  9.06000 47.97200 21.64200
C  7.49100 47.90300 21.88300
C  7.37400 48.51500 23.32600
C  9.44900 48.59100 20.25800
C  6.86800 46.46400 21.73800
C  7.45100 45.41400 22.72900
N  7.09300 48.56200 26.36300
C  6.02800 48.38200 25.44100
C  4.78900 48.36700 26.16600
C  5.15900 48.52900 27.55500
C  6.55900 48.58800 27.61800
C  3.40800 48.44800 25.61200
C  4.59600 48.71300 28.90000
O  3.40300 48.82800 29.10900
C  5.85100 48.94600 29.83900
C  5.70800 47.86600 30.89500
O  6.16700 46.73800 30.71200
O  4.96600 48.26200 31.94500
C  4.36300 47.17300 32.76800
H  12.61200 50.30300 28.33000
H  11.64000 48.60800 22.27600
H  5.22400 48.29900 23.44600
H  8.41200 50.31200 30.96600
H  11.24300 49.91400 30.66200
H  9.51300 52.08600 30.61900
H  10.44100 52.27300 29.10700
H  11.32600 51.99500 30.65400
H  10.27900 48.11600 31.24100
H  8.85700 47.34500 30.91400
H  7.87600 49.03300 32.76800
H  9.67900 48.95900 33.33300
H  15.25400 50.50300 26.24100
H  15.22000 48.72100 26.48300
H  14.56700 49.61200 27.69900
H  16.30800 47.69900 23.19900
H  15.82400 47.60100 24.79700
H  16.09700 49.20000 24.06700
H  9.33300 46.92500 21.51200
H  6.94100 48.60100 21.25200
H  10.22700 49.31600 20.49700
H  8.55400 49.11200 19.91900
H  9.61600 47.82300 19.50200
H  7.00100 46.13900 20.70600
H  5.78300 46.56500 21.75000
H  7.53100 45.85300 23.72300
H  8.37700 45.07600 22.26300
H  6.80800 44.53500 22.77300
H  3.08700 49.48900 25.61700
H  2.72700 47.87900 26.24500
H  3.45300 48.16900 24.55900
H  5.90900 49.91000 30.34300
H  3.50000 46.92000 32.15100
H  3.89500 47.49300 33.69900
H  4.98700 46.30200 32.97100

