158

Mg 40.88000 9.37200 30.09200
C  42.74600 10.59900 32.78500
C  38.58000 8.14400 32.32600
C  39.16400 8.12000 27.52200
C  43.65800 10.10300 27.94500
N  40.80900 9.19900 32.34400
C  41.56000 9.95500 33.20200
C  41.00100 9.83500 34.63600
C  39.73600 9.07000 34.48500
C  39.71000 8.73500 32.93100
C  39.56600 7.72800 35.38600
C  40.79100 11.23100 35.40400
C  40.16500 11.21600 36.81000
H  41.09100 11.81700 37.93200
N  39.08600 8.44700 29.95900
C  38.26100 8.03300 30.94300
C  36.93900 7.64900 30.36000
C  37.10300 7.66200 29.00600
C  38.47300 8.06100 28.77400
C  35.86200 7.25200 31.20100
C  36.09400 7.42400 27.83500
O  36.47200 7.59700 26.69400
C  34.77700 6.90400 28.06800
N  41.34500 9.15700 27.98800
C  40.45100 8.58800 27.12600
C  41.09300 8.46400 25.72100
C  42.33700 9.41700 25.86000
C  42.50200 9.56700 27.38500
C  41.47500 7.01300 25.35600
C  42.26300 10.74100 25.08800
C  41.50200 11.91600 25.75200
N  42.87700 10.01000 30.29800
C  43.82700 10.38900 29.34800
C  44.86800 11.17800 29.98400
C  44.53400 11.17500 31.35200
C  43.28800 10.55500 31.44100
C  46.05600 11.78700 29.26600
C  44.95300 11.62400 32.68900
O  46.01800 12.16700 33.03600
C  43.82200 11.34400 33.59000
C  44.51600 10.48800 34.53400
O  44.69800 9.26900 34.48700
O  44.89100 11.22100 35.67000
C  45.55100 10.41100 36.73100
H  37.90600 7.77300 33.10000
H  38.88300 7.52700 26.64900
H  44.47300 10.34100 27.25800
H  41.74400 9.25800 35.18600
H  38.82700 9.63300 34.69400
H  38.88700 7.86100 36.22900
H  40.51400 7.57300 35.90200
H  39.43400 6.80800 34.81700
H  40.21600 11.92800 34.79500
H  41.80300 11.59000 35.59100
H  39.99000 10.18400 37.11600
H  39.17700 11.65300 36.95200
H  35.91600 6.31600 31.75700
H  34.93700 7.31500 30.62800
H  35.67300 8.01300 31.95800
H  34.27400 6.56800 27.16200
H  34.20200 7.64800 28.62000
H  34.76400 6.01600 28.70000
H  40.38300 8.86700 24.99900
H  43.21700 8.96000 25.40700
H  41.08700 6.83800 24.35200
H  41.01600 6.26600 26.00300
H  42.56200 6.92800 25.34000
H  41.95600 10.55600 24.05900
H  43.29600 11.08800 25.06100
H  42.07100 12.82800 25.57500
H  41.19200 11.77600 26.78800
H  40.63500 12.04400 25.10400
H  46.01500 11.68300 28.18100
H  46.90000 11.34800 29.79800
H  46.16100 12.82700 29.57400
H  43.50200 12.21300 34.16400
H  45.51700 11.04100 37.61900
H  46.59600 10.22400 36.48400
H  44.99700 9.49800 36.95100
Mg -11.78600 17.68800 41.68400
C  -8.66500 16.30100 41.21800
C  -10.54900 20.79700 40.73300
C  -14.85700 18.89100 41.88300
C  -12.94500 14.39800 42.43800
N  -9.86200 18.44000 41.03300
C  -8.71100 17.66900 40.91300
C  -7.49200 18.53400 40.51400
C  -8.11700 20.02300 40.65500
C  -9.63500 19.75700 40.90800
C  -7.55500 20.73700 41.98300
C  -6.96200 18.18700 39.12700
C  -5.45900 18.26300 38.76200
H  -5.00200 18.42600 37.28900
N  -12.56800 19.55700 41.28900
C  -11.92000 20.65000 40.81300
C  -12.82100 21.76300 40.61600
C  -14.08800 21.26800 41.07300
C  -13.86100 19.83700 41.38900
C  -12.47300 23.05800 39.97100
C  -15.48100 22.08700 41.21000
O  -15.50700 23.26800 40.86900
C  -16.79500 21.45800 41.74300
N  -13.66400 16.76300 41.89200
C  -14.72200 17.58000 42.15000
C  -15.97300 16.65100 42.48900
C  -15.33500 15.36600 42.87500
C  -13.89600 15.44300 42.36200
C  -16.92900 17.29200 43.54800
C  -16.20700 14.05300 42.47900
C  -16.75900 13.21500 43.66400
N  -11.06900 15.68900 41.62700
C  -11.59500 14.45400 42.04800
C  -10.57000 13.35100 41.92100
C  -9.39700 14.12600 41.66000
C  -9.72200 15.48300 41.53100
C  -10.92700 11.95400 41.94500
C  -7.95600 14.02700 41.46600
O  -7.25300 13.00400 41.41600
C  -7.47500 15.41600 41.25800
C  -6.35400 15.91300 42.12200
O  -6.59000 16.54200 43.12300
O  -5.15100 15.28700 41.81400
C  -4.20600 15.28200 42.89000
H  -10.15100 21.75600 40.39700
H  -15.85400 19.29400 42.07400
H  -13.25000 13.43500 42.85200
H  -6.73300 18.34800 41.27300
H  -8.07000 20.61000 39.73800
H  -8.40600 21.04000 42.59300
H  -7.04400 21.67100 41.74900
H  -7.06000 20.09000 42.70700
H  -7.52400 18.73600 38.37100
H  -7.19500 17.17500 38.79500
H  -4.89000 17.36600 39.00600
H  -5.03300 19.14200 39.24700
H  -12.20600 23.76500 40.75600
H  -13.33200 23.46500 39.43700
H  -11.67600 22.86700 39.25300
H  -17.23300 20.70700 41.08400
H  -17.53400 22.25700 41.79800
H  -16.63700 21.06100 42.74600
H  -16.35000 16.66100 41.46600
H  -15.14200 15.34900 43.94800
H  -16.91900 16.69500 44.46000
H  -17.91800 17.50300 43.14300
H  -16.48700 18.21800 43.91600
H  -15.50600 13.36900 42.00100
H  -17.01500 14.34200 41.80800
H  -16.34000 12.22900 43.86200
H  -17.81000 13.03600 43.44000
H  -16.56600 13.77500 44.58000
H  -11.09900 11.72800 40.89300
H  -11.85400 11.82700 42.50300
H  -10.16800 11.29700 42.37000
H  -7.16900 15.38600 40.21300
H  -3.22100 15.39000 42.43700
H  -4.29100 14.36200 43.46800
H  -4.18500 16.08400 43.62800

