158

Mg 35.50100 48.65100 25.54400
C  35.64800 47.00800 28.53700
C  33.99700 51.37100 27.15400
C  35.16200 50.30200 22.58100
C  36.50100 45.81700 24.00700
N  34.81300 49.07400 27.53600
C  35.21400 48.34400 28.66400
C  35.04500 49.05400 30.00400
C  34.17800 50.29600 29.54500
C  34.31700 50.26800 27.98100
C  32.71000 50.20700 29.95700
C  36.45000 49.26100 30.72900
C  36.44500 49.26800 32.29200
H  35.05900 48.98600 33.00300
N  34.75100 50.55700 24.94600
C  34.23400 51.53300 25.78200
C  33.98300 52.72400 25.04500
C  34.31200 52.47400 23.72400
C  34.70500 51.02500 23.65600
C  33.39100 54.01400 25.54300
C  34.27700 53.38600 22.49200
O  34.39100 52.96300 21.35600
C  33.91900 54.89000 22.56400
N  35.71700 48.04600 23.57100
C  35.65200 48.94900 22.55700
C  36.20500 48.35300 21.32100
C  36.77700 46.96300 21.83200
C  36.33500 46.95700 23.20500
C  35.27100 48.34900 20.04100
C  38.33600 46.80600 21.73900
C  39.03900 46.71200 20.42100
N  35.96000 46.74300 26.08200
C  36.31400 45.64400 25.32200
C  36.59500 44.52100 26.17900
C  36.30600 44.99300 27.46100
C  35.93400 46.34000 27.34300
C  36.98800 43.11600 25.69900
C  36.27900 44.64800 28.81900
O  36.47600 43.56700 29.36400
C  35.91300 45.99500 29.63000
C  34.78500 45.64800 30.57500
O  33.60100 45.99300 30.49000
O  35.31500 44.90200 31.53200
C  34.38900 44.42300 32.54200
H  33.54100 52.25800 27.60000
H  35.36200 50.89400 21.68500
H  36.78800 44.91200 23.46800
H  34.51500 48.35900 30.65500
H  34.68800 51.23200 29.77300
H  31.96600 50.37400 29.17800
H  32.51100 51.00200 30.67600
H  32.44900 49.27100 30.45200
H  36.95600 50.17200 30.40900
H  37.12800 48.52600 30.29600
H  36.69900 50.30600 32.50600
H  37.19100 48.56700 32.66500
H  32.48400 54.10300 24.94500
H  34.07600 54.78100 25.18300
H  33.17000 54.14600 26.60200
H  32.85700 55.13200 22.60500
H  34.35500 55.17100 21.60500
H  34.55100 55.47700 23.23100
H  37.09400 48.96000 21.14900
H  36.32300 46.20700 21.19200
H  35.85000 48.64700 19.16700
H  34.34700 48.92300 20.11500
H  34.87400 47.35100 19.85900
H  38.66700 45.95100 22.32900
H  38.78300 47.68200 22.21000
H  40.03300 47.14700 20.52500
H  38.33000 47.04300 19.66200
H  39.19300 45.64200 20.28300
H  36.22700 42.90200 24.94800
H  36.98300 42.42900 26.54500
H  37.94300 43.14600 25.17400
H  36.67100 46.26500 30.36500
H  33.70500 43.69400 32.10700
H  33.88200 45.24700 33.04300
H  35.01800 43.89900 33.26100
Mg 26.25400 49.85000 26.48800
C  24.27900 51.12500 29.00200
C  28.57800 48.87200 28.77100
C  28.34200 49.21700 23.95700
C  24.14700 51.55300 24.13800
N  26.35200 49.92500 28.63800
C  25.39000 50.36300 29.49200
C  25.65600 49.97100 30.97700
C  27.19200 49.46900 30.83700
C  27.38200 49.45200 29.32900
C  28.13400 50.45800 31.68200
C  24.63600 48.93400 31.53800
C  23.92400 49.31400 32.82700
H  24.74900 49.98300 34.04400
N  28.17800 49.07300 26.40600
C  28.99600 48.67600 27.44800
C  30.18000 48.11700 26.94200
C  30.04600 48.08900 25.51900
C  28.86900 48.84000 25.22000
C  31.26000 47.54500 27.84100
C  31.00800 47.53800 24.49200
O  30.86400 47.58100 23.25400
C  32.16500 46.79900 24.93200
N  26.28200 50.32300 24.45600
C  27.19400 49.81400 23.56300
C  26.88900 49.92800 21.98600
C  25.48800 50.68200 22.19300
C  25.25200 50.81500 23.68300
C  27.92300 50.66500 21.07300
C  24.30700 49.84800 21.41300
C  23.94600 50.21400 19.91900
N  24.49100 50.98600 26.47200
C  23.80100 51.69100 25.46800
C  22.63100 52.34000 26.05900
C  22.83500 52.13400 27.39500
C  23.97400 51.35400 27.63100
C  21.53800 53.23000 25.37800
C  22.30400 52.48600 28.70800
O  21.29600 53.04500 29.04000
C  23.14200 51.68900 29.84400
C  23.50400 52.65000 30.91000
O  24.53100 53.26300 30.95400
O  22.58800 52.71000 31.94700
C  22.80500 53.73000 33.00400
H  29.23000 48.49400 29.56100
H  28.96100 48.77000 23.17700
H  23.51600 51.89200 23.31400
H  25.54600 50.86400 31.59200
H  27.35300 48.45000 31.18900
H  27.87100 51.49300 31.46400
H  29.07500 50.18000 31.20600
H  28.06200 50.16200 32.72900
H  25.19200 48.01500 31.72200
H  23.92800 48.75000 30.72900
H  23.45600 48.37400 33.11800
H  23.09700 49.99700 32.63100
H  32.25900 47.78600 27.47700
H  31.25100 46.46300 27.96800
H  31.17100 47.98400 28.83500
H  32.97600 47.41900 25.31400
H  32.51600 46.27100 24.04600
H  31.86800 46.03700 25.65400
H  26.89300 48.89900 21.62400
H  25.53300 51.64000 21.67400
H  28.51400 51.30300 21.73100
H  27.50800 51.38100 20.36300
H  28.58300 50.01100 20.50300
H  23.43600 50.02800 22.04200
H  24.50700 48.78200 21.51900
H  24.52900 49.51200 19.32300
H  24.27700 51.22600 19.68900
H  22.86800 50.14200 19.77100
H  21.38400 52.82400 24.37800
H  21.58700 54.31300 25.49400
H  20.57200 52.92100 25.77900
H  22.68800 50.79900 30.28000
H  23.73300 53.63000 33.56700
H  22.03100 53.74800 33.77200
H  22.76900 54.72500 32.56200

