158

Mg 1.74600 -1.71300 44.02200
C  5.02100 -0.76900 43.70700
C  0.75500 1.11000 42.38400
C  -1.42600 -2.73800 44.36700
C  2.92000 -4.92700 45.08400
N  2.82100 -0.19300 42.90100
C  4.11900 0.16200 43.15500
C  4.41800 1.41000 42.42400
C  3.07400 2.13000 42.03900
C  2.11400 0.92800 42.39100
C  2.72400 3.51300 42.70500
C  5.41200 1.20300 41.24000
C  6.46700 2.32200 41.15500
H  6.36300 3.19600 39.90400
N  -0.07700 -0.79300 43.65800
C  -0.28100 0.30700 42.82300
C  -1.64500 0.50500 42.70200
C  -2.35900 -0.56700 43.34700
C  -1.28200 -1.45200 43.80900
C  -2.20000 1.72600 42.01800
C  -3.83400 -0.69100 43.53600
O  -4.63900 0.14400 43.13100
C  -4.54300 -1.97100 44.07400
N  0.92000 -3.55900 44.73900
C  -0.48100 -3.62800 44.81100
C  -0.85800 -5.07000 45.20300
C  0.46900 -5.81900 45.34400
C  1.52300 -4.72700 45.06600
C  -1.54100 -4.92600 46.60700
C  0.67400 -7.03800 44.43300
C  1.21700 -8.30700 45.03900
N  3.59500 -2.79000 44.18100
C  3.87800 -3.99000 44.80500
C  5.32500 -4.05900 44.92500
C  5.85700 -2.82200 44.48200
C  4.73800 -2.06800 44.12600
C  6.07300 -5.33800 45.40300
C  6.99300 -1.96300 44.41300
O  8.13300 -2.23100 44.75000
C  6.47100 -0.53700 43.87700
C  6.86200 0.59600 44.79700
O  6.19100 1.10100 45.67400
O  8.04000 1.09900 44.28800
C  8.14800 2.58600 44.43600
H  0.43900 2.06400 41.95700
H  -2.41400 -3.20100 44.33800
H  3.24300 -5.91800 45.41200
H  4.97900 1.94400 43.19100
H  3.05300 2.38800 40.98000
H  2.36700 4.16500 41.90800
H  3.58500 3.90300 43.24700
H  1.89200 3.50600 43.40800
H  4.75400 1.29500 40.37500
H  6.01800 0.29800 41.26900
H  7.41700 1.79100 41.09200
H  6.57100 2.95300 42.03800
H  -1.62500 2.07800 41.16200
H  -1.95100 2.57800 42.65100
H  -3.25900 1.88600 41.81600
H  -5.62300 -1.86200 43.97300
H  -4.11000 -2.11200 45.06400
H  -4.27500 -2.88400 43.54100
H  -1.54300 -5.58500 44.52900
H  0.52800 -6.17600 46.37300
H  -1.66500 -5.92700 47.02200
H  -2.54700 -4.50500 46.62700
H  -0.88300 -4.31800 47.22600
H  1.34900 -6.84400 43.59900
H  -0.22800 -7.27200 43.86900
H  0.57900 -9.11400 44.67900
H  1.10600 -8.32700 46.12300
H  2.24800 -8.52000 44.75700
H  5.54900 -5.83200 46.22100
H  7.05300 -5.01600 45.75500
H  6.16500 -6.04900 44.58200
H  6.92400 -0.45300 42.88900
H  7.20900 3.13900 44.47000
H  8.71600 3.06800 43.64100
H  8.69100 2.72500 45.37100
Mg 27.27700 50.15600 25.71300
C  25.41000 51.51200 28.46700
C  29.50800 49.08300 28.10600
C  28.97200 48.99900 23.24100
C  25.02600 51.69100 23.45300
N  27.39600 50.25800 28.04700
C  26.47000 50.70500 28.92300
C  26.92900 50.46400 30.37600
C  28.25500 49.62700 30.17300
C  28.41900 49.67700 28.72000
C  29.36100 50.11100 31.06100
C  25.79200 49.71700 31.14500
C  25.22700 50.33300 32.51200
H  26.29100 50.61300 33.63900
N  28.98500 49.23400 25.63800
C  29.80600 48.93800 26.69300
C  30.91900 48.17300 26.18600
C  30.78000 48.07700 24.82600
C  29.58000 48.83700 24.47900
C  32.04900 47.65300 27.06000
C  31.55900 47.23000 23.84800
O  31.23400 47.16500 22.66400
C  32.87400 46.48300 24.28300
N  27.06600 50.40200 23.68300
C  27.85500 49.69500 22.80000
C  27.61800 50.11800 21.35400
C  26.15700 50.65200 21.41100
C  26.04500 50.97100 22.93700
C  28.59300 51.12300 20.85000
C  25.20600 49.59000 20.90300
C  24.59600 48.42100 21.79700
N  25.61900 51.42000 25.88700
C  24.76700 51.89900 24.84500
C  23.67900 52.64400 25.54700
C  23.89700 52.50200 26.93800
C  25.06000 51.70500 27.11000
C  22.53100 53.31000 24.90100
C  23.27600 52.84000 28.22100
O  22.30300 53.50200 28.48800
C  24.28900 52.21900 29.27600
C  24.80000 53.31600 30.10900
O  25.87100 53.92900 29.93000
O  23.90400 53.49600 31.16100
C  24.23300 54.44900 32.17800
H  30.17600 48.56100 28.79500
H  29.50800 48.76200 22.32000
H  24.30400 52.00800 22.69800
H  27.13200 51.41700 30.86200
H  28.06900 48.59400 30.46500
H  30.25300 50.10300 30.43400
H  29.61200 49.51000 31.93500
H  29.30100 51.17200 31.30200
H  26.17600 48.71300 31.32400
H  24.89300 49.57900 30.54400
H  24.58700 49.55200 32.91900
H  24.78800 51.23900 32.09400
H  32.96800 47.85200 26.50800
H  31.94800 46.58700 27.25900
H  32.13900 48.21400 27.99000
H  33.02600 45.91100 23.36800
H  32.64300 45.72100 25.02700
H  33.78200 47.06000 24.45700
H  27.69100 49.25400 20.69400
H  26.09000 51.54800 20.79500
H  29.29600 51.30100 21.66400
H  28.04300 51.99500 20.49600
H  29.21800 50.68500 20.07200
H  25.63800 49.02900 20.07400
H  24.34600 50.15700 20.54500
H  24.69800 48.55200 22.87400
H  25.15500 47.50700 21.59700
H  23.55300 48.27600 21.51700
H  21.66900 52.64400 24.92500
H  22.74100 53.59900 23.87100
H  22.35600 54.18900 25.52200
H  23.64800 51.59700 29.90100
H  25.12900 54.10900 32.69800
H  23.39800 54.67000 32.84300
H  24.48900 55.42300 31.76000

