158

Mg 10.27300 47.93500 25.56500
C  8.27500 48.20400 28.47600
C  12.83300 49.39600 27.21300
C  12.03700 47.89600 22.61100
C  7.41900 47.02200 23.80900
N  10.51300 48.74000 27.59400
C  9.64300 48.63900 28.65900
C  10.26400 49.13300 29.90700
C  11.43600 49.99300 29.46200
C  11.64800 49.45500 27.98800
C  11.18600 51.49800 29.58500
C  10.77400 47.93800 30.79200
C  10.96600 48.13100 32.33400
H  10.47000 47.03700 33.29000
N  12.16400 48.45200 25.02400
C  13.08800 48.88900 25.93600
C  14.37000 48.94800 25.30200
C  14.20800 48.64100 23.90100
C  12.74900 48.29300 23.77300
C  15.66600 49.46100 26.00900
C  15.14300 48.72900 22.77600
O  14.85200 48.35800 21.60000
C  16.60300 49.02100 22.96500
N  9.79200 47.70000 23.46500
C  10.65700 47.75400 22.37700
C  9.87200 47.37500 21.03900
C  8.57000 46.69800 21.61100
C  8.58600 47.16900 23.05800
C  9.43700 48.57500 20.10100
C  8.61200 45.11500 21.50600
C  9.38300 44.42900 22.64200
N  8.22900 47.64000 26.05500
C  7.16600 47.27500 25.19300
C  5.93700 47.31600 25.94900
C  6.39000 47.58800 27.22300
C  7.75900 47.82400 27.25800
C  4.50900 47.04100 25.39300
C  5.89300 47.82100 28.50800
O  4.70300 47.60000 28.95400
C  7.09400 48.12000 29.42000
C  7.08700 46.88600 30.21800
O  7.56000 45.80800 29.83500
O  6.63400 47.13600 31.46300
C  6.67000 46.08400 32.39700
H  13.67700 49.82300 27.76000
H  12.50700 47.70500 21.64400
H  6.59700 46.69600 23.16900
H  9.49200 49.64100 30.48500
H  12.39000 49.88400 29.97700
H  12.07700 51.95900 30.01200
H  10.31100 51.66300 30.21300
H  10.97100 51.93200 28.60800
H  11.78600 47.64300 30.51500
H  10.20800 47.03500 30.56200
H  10.56900 49.14400 32.40800
H  11.99700 48.30100 32.64200
H  15.57900 49.88200 27.01000
H  16.20600 50.24400 25.47700
H  16.39300 48.65300 26.10100
H  17.10100 48.88800 22.00400
H  17.03300 48.36600 23.72200
H  16.70500 50.04800 23.31400
H  10.51300 46.67900 20.49800
H  7.74400 47.00400 20.96800
H  10.08200 49.39700 20.41200
H  8.37500 48.81900 20.06400
H  9.67000 48.27200 19.08000
H  9.05100 44.90500 20.53000
H  7.65400 44.60200 21.41900
H  10.11400 44.92200 23.28300
H  9.91700 43.76800 21.96000
H  8.61000 43.95500 23.24600
H  4.21300 47.29600 24.37600
H  3.89000 47.75900 25.93100
H  4.05600 46.07400 25.61400
H  6.94900 49.00900 30.03400
H  7.67900 45.70000 32.55100
H  5.97700 45.29900 32.09700
H  6.23600 46.49400 33.30900
Mg -10.83300 38.07700 41.51200
C  -8.40000 35.55600 41.24100
C  -8.88200 40.08800 39.60300
C  -13.18100 40.34200 41.65300
C  -12.92900 35.61400 42.82200
N  -8.86500 37.78500 40.44700
C  -8.06600 36.70300 40.53100
C  -6.81300 36.94900 39.67800
C  -6.97700 38.39300 39.13900
C  -8.23600 38.83600 39.80800
C  -5.71700 39.30200 39.19400
C  -6.61000 35.73200 38.69400
C  -5.23800 35.01300 38.69100
H  -4.14300 35.48400 37.71900
N  -10.96600 39.98300 40.76800
C  -10.07700 40.62700 39.93900
C  -10.53700 41.97900 39.71800
C  -11.76400 42.13500 40.36500
C  -12.03000 40.80000 40.99400
C  -9.86000 42.99200 38.79700
C  -12.65800 43.40400 40.40000
O  -12.42100 44.46900 39.77900
C  -13.94800 43.49500 41.28400
N  -12.91500 37.86100 41.90100
C  -13.61800 39.02600 42.08500
C  -14.96400 38.74100 42.74400
C  -15.00800 37.17900 42.91600
C  -13.50300 36.82600 42.55800
C  -15.21400 39.57200 44.05200
C  -15.99600 36.32100 42.10700
C  -16.89400 35.42100 42.87400
N  -10.72300 35.96700 41.95900
C  -11.64100 35.16300 42.58300
C  -11.09200 33.76900 42.80600
C  -9.76400 33.94900 42.31200
C  -9.61600 35.22800 41.84900
C  -11.74400 32.54200 43.38000
C  -8.49500 33.30400 42.22400
O  -8.23200 32.14900 42.55400
C  -7.49100 34.32300 41.53000
C  -6.19200 34.52800 42.27500
O  -5.28200 33.76000 42.27100
O  -6.10000 35.76400 42.87600
C  -4.80000 36.18600 43.46700
H  -8.17400 40.68000 39.01900
H  -13.92400 41.08400 41.95200
H  -13.61500 34.96600 43.37100
H  -5.85900 36.90200 40.20300
H  -7.26700 38.23700 38.10000
H  -5.57300 39.56700 38.14700
H  -4.79800 38.87000 39.59200
H  -5.92500 40.17000 39.82000
H  -6.70200 36.24000 37.73300
H  -7.37100 34.95400 38.63000
H  -5.44200 33.95600 38.51800
H  -4.87000 35.08100 39.71400
H  -9.08300 43.56800 39.30000
H  -10.61300 43.72600 38.50700
H  -9.45900 42.45700 37.93700
H  -13.71000 43.19300 42.30400
H  -14.77300 42.97100 40.80100
H  -14.17000 44.54900 41.44700
H  -15.69500 38.99200 41.97500
H  -15.08500 36.85400 43.95400
H  -16.05900 39.26500 44.66800
H  -15.46100 40.55500 43.64900
H  -14.32600 39.63900 44.68000
H  -15.34100 35.87600 41.35800
H  -16.67700 36.94700 41.53000
H  -16.28300 34.65400 43.35000
H  -17.63700 34.99000 42.20300
H  -17.43800 36.09900 43.53100
H  -11.87800 31.68700 42.71800
H  -12.72600 32.84100 43.74600
H  -11.22900 32.30700 44.31100
H  -7.20900 33.99600 40.52900
H  -4.47600 36.98900 42.80500
H  -4.06600 35.39400 43.61700
H  -5.03100 36.79200 44.34400

