158

Mg 48.28100 34.77800 26.96400
C  46.48100 33.43400 29.69500
C  49.00100 37.58600 28.86600
C  49.79400 36.08200 24.28900
C  47.39800 31.94400 25.10000
N  47.86000 35.35400 29.03900
C  47.19300 34.64000 30.02200
C  47.42100 35.24100 31.41200
C  47.92200 36.66800 31.04100
C  48.30900 36.52800 29.54900
C  47.01100 37.80800 31.33000
C  48.49300 34.46400 32.28300
C  48.15000 34.32200 33.74800
H  47.09200 35.32700 34.33700
N  49.22400 36.61900 26.60100
C  49.47500 37.58700 27.52200
C  50.37200 38.54300 26.98100
C  50.63100 38.13600 25.67100
C  49.83600 36.93300 25.44200
C  50.99200 39.78300 27.74800
C  51.45900 38.81700 24.55300
O  51.45100 38.43000 23.42700
C  52.34200 40.00500 24.87700
N  48.48800 34.06900 24.95800
C  49.16400 34.91500 24.08100
C  49.36600 34.19500 22.72100
C  48.70900 32.74800 22.97700
C  48.06700 32.90000 24.40500
C  48.90600 34.95700 21.47500
C  49.65600 31.49600 22.99000
C  49.02800 30.22000 22.50800
N  47.26700 33.00600 27.27300
C  46.98200 31.90100 26.45400
C  46.21700 30.95800 27.16100
C  45.94800 31.53100 28.39500
C  46.61800 32.71900 28.49800
C  45.77800 29.61000 26.66400
C  45.24300 31.27300 29.67000
O  44.57800 30.31600 30.00500
C  45.65200 32.48700 30.65100
C  46.57400 31.86700 31.75300
O  47.64400 31.25900 31.63000
O  45.93100 32.03100 32.90900
C  46.39100 31.04400 34.01600
H  49.28000 38.46300 29.45400
H  50.43600 36.41600 23.47100
H  47.37300 31.02100 24.51700
H  46.48900 35.42100 31.94900
H  48.76900 36.99500 31.64400
H  46.56200 38.25700 30.44400
H  47.67700 38.55200 31.76700
H  46.14400 37.63000 31.96500
H  49.46000 34.96600 32.24100
H  48.71000 33.46500 31.90500
H  49.07500 34.51600 34.29000
H  47.74600 33.34800 34.02300
H  52.07700 39.70700 27.82600
H  50.59600 39.95600 28.74900
H  50.62800 40.62300 27.15600
H  52.78500 40.44200 23.98200
H  53.14300 39.79800 25.58700
H  51.71700 40.80500 25.27300
H  50.45100 34.09500 22.70800
H  47.97700 32.42100 22.23900
H  49.82100 35.16100 20.91800
H  48.32700 35.85700 21.68400
H  48.18700 34.35500 20.91800
H  50.05000 31.36500 23.99800
H  50.57100 31.71300 22.44000
H  49.48000 29.91100 21.56600
H  47.97300 30.32600 22.25200
H  49.03800 29.43600 23.26600
H  46.57800 29.13500 26.09600
H  44.96600 29.81300 25.96500
H  45.48100 29.10600 27.58300
H  44.80400 33.06500 31.01800
H  46.41800 30.00700 33.68100
H  45.87700 31.10000 34.97600
H  47.43100 31.32500 34.17600
Mg -5.19600 25.78400 26.98000
C  -3.66400 27.08200 29.88100
C  -6.70100 23.29400 28.74800
C  -5.86400 24.29500 24.05500
C  -2.82000 27.89600 25.09800
N  -5.01400 25.24800 29.04400
C  -4.54400 26.04700 30.11200
C  -5.11300 25.47200 31.43900
C  -6.04500 24.31800 31.04100
C  -5.82500 24.20800 29.47400
C  -5.85100 23.04300 31.83000
C  -5.60200 26.61900 32.41000
C  -6.72300 26.27700 33.44200
H  -6.39300 25.36400 34.69500
N  -6.25200 24.08600 26.44800
C  -6.87500 23.23300 27.34400
C  -7.70400 22.31200 26.63200
C  -7.49100 22.49900 25.21900
C  -6.51800 23.67700 25.19900
C  -8.76400 21.53200 27.34200
C  -8.03400 21.78900 24.05100
O  -7.78000 22.11200 22.86800
C  -9.07700 20.73600 24.05400
N  -4.50000 26.06200 24.92400
C  -4.97600 25.31800 23.89400
C  -4.57200 25.79700 22.52300
C  -3.50300 26.87000 22.93400
C  -3.61200 26.97400 24.38900
C  -4.01000 24.65500 21.56300
C  -3.70000 28.21400 22.18800
C  -3.68100 28.31900 20.66500
N  -3.61500 27.27200 27.36100
C  -2.76900 27.97900 26.51300
C  -2.09100 28.90900 27.31400
C  -2.27800 28.50500 28.65400
C  -3.28600 27.56900 28.60100
C  -1.12700 30.01300 26.82600
C  -1.91500 28.86100 29.97800
O  -1.10300 29.60600 30.48500
C  -2.81100 28.02600 30.86500
C  -2.00800 27.21900 31.85600
O  -1.21000 26.36200 31.56600
O  -2.14600 27.74100 33.13300
C  -1.10100 27.37500 34.06800
H  -7.11800 22.46500 29.32300
H  -6.16000 23.77800 23.14000
H  -2.16300 28.59100 24.57100
H  -4.37000 24.96600 32.05600
H  -7.09300 24.61700 31.01900
H  -6.71500 22.85500 32.46800
H  -5.02200 23.02300 32.53700
H  -5.64400 22.18900 31.18600
H  -5.99600 27.35900 31.71300
H  -4.86800 27.15400 33.01200
H  -7.54400 25.87400 32.84800
H  -7.11300 27.18700 33.89800
H  -8.83400 20.52700 26.92600
H  -9.70700 22.02500 27.10500
H  -8.61400 21.56400 28.42100
H  -8.55700 19.78300 24.14700
H  -9.77300 20.81500 23.21900
H  -9.63400 20.98000 24.95900
H  -5.46500 26.17400 22.02400
H  -2.59200 26.42000 22.54000
H  -4.71300 24.34700 20.78800
H  -3.86600 23.75600 22.16100
H  -3.06000 24.91900 21.09900
H  -2.91800 28.88900 22.53700
H  -4.68800 28.61500 22.41700
H  -4.70900 28.33000 20.30400
H  -3.30800 27.34200 20.35800
H  -3.11500 29.16400 20.27300
H  -0.27100 29.90600 27.49100
H  -1.70700 30.93600 26.84100
H  -0.77800 29.78900 25.81800
H  -3.36300 28.81500 31.37600
H  -1.17500 26.28700 34.09800
H  -1.23200 27.86800 35.03100
H  -0.19600 27.78800 33.62200

