158

Mg 24.26400 -4.82800 45.38900
C  26.29800 -2.38600 43.88200
C  21.72300 -3.82800 43.30600
C  22.45700 -7.47400 46.46300
C  27.12300 -5.86200 47.11600
N  24.07300 -3.29000 43.88700
C  24.99200 -2.44300 43.36600
C  24.52700 -1.75700 42.09300
C  22.98200 -1.90400 42.11500
C  22.91400 -3.05500 43.21000
C  22.14500 -0.68800 42.53800
C  25.14900 -2.30700 40.80300
C  25.69300 -1.21600 39.86800
H  25.22200 -1.25100 38.39900
N  22.31100 -5.48800 44.97000
C  21.40300 -4.92800 44.05400
C  20.22100 -5.76000 44.02100
C  20.40800 -6.82800 44.93600
C  21.78300 -6.61600 45.53400
C  19.01300 -5.28100 43.31500
C  19.34600 -7.88000 45.31500
O  18.17800 -7.85300 44.88900
C  19.53500 -9.01900 46.21600
N  24.84500 -6.49900 46.48000
C  23.82000 -7.39200 46.84400
C  24.45500 -8.42800 47.86400
C  25.93700 -7.96400 48.08200
C  26.00200 -6.65200 47.23600
C  23.60900 -8.42800 49.15600
C  27.07000 -8.95800 47.72500
C  27.87600 -9.35600 48.94900
N  26.40200 -4.29700 45.43900
C  27.32500 -4.76900 46.23000
C  28.57900 -4.05300 45.92500
C  28.28800 -3.08500 44.97800
C  26.89200 -3.26500 44.77800
C  29.93200 -4.25100 46.55900
C  28.69100 -1.96600 44.20100
O  29.79500 -1.42100 44.06200
C  27.40400 -1.41200 43.42700
C  27.21400 0.07700 43.74800
O  26.34000 0.50000 44.48700
O  28.01600 0.80900 42.88200
C  27.69800 2.24500 42.55400
H  20.93100 -3.46900 42.64500
H  22.03600 -8.42900 46.78400
H  28.00500 -6.24600 47.63400
H  24.71200 -0.68400 42.14900
H  22.61100 -2.25700 41.15200
H  22.78800 0.17100 42.73000
H  21.50000 -0.85500 43.40100
H  21.43800 -0.22900 41.84600
H  24.39800 -2.77200 40.16500
H  25.85500 -3.11400 41.00000
H  26.78200 -1.17600 39.87900
H  25.47000 -0.17200 40.08900
H  18.86300 -5.81200 42.37400
H  19.01600 -4.22300 43.05400
H  18.21600 -5.40700 44.04700
H  20.38000 -9.64600 45.93100
H  18.64900 -9.65100 46.26900
H  19.65800 -8.77300 47.27000
H  24.36700 -9.41700 47.41300
H  25.97500 -7.62200 49.11600
H  22.73900 -7.77200 49.12900
H  24.16300 -8.01200 49.99800
H  23.27400 -9.36300 49.60600
H  27.72400 -8.55600 46.95100
H  26.49700 -9.80100 47.33800
H  27.31300 -10.00900 49.61600
H  28.15100 -8.49900 49.56400
H  28.76300 -9.87800 48.59300
H  30.31200 -5.22400 46.24800
H  29.91700 -4.29700 47.64800
H  30.71200 -3.55400 46.25200
H  27.63700 -1.38600 42.36300
H  27.82100 2.73400 43.52000
H  26.78700 2.56600 42.04800
H  28.56300 2.55200 41.96500
Mg 30.00500 58.18800 40.42900
C  27.38100 56.17500 39.54200
C  32.24100 55.68300 39.28800
C  32.53000 60.26700 40.59500
C  27.79600 60.83400 40.97900
N  29.86800 56.25800 39.38900
C  28.63500 55.62700 39.26400
C  28.77400 54.27300 38.56300
C  30.31200 53.96300 38.94000
C  30.86700 55.40600 39.15800
C  30.43000 53.12900 40.20500
C  28.49000 54.54700 37.04200
C  27.78300 53.44500 36.18600
H  27.26100 53.97000 34.84900
N  32.11600 58.00500 40.21200
C  32.81900 56.92500 39.73800
C  34.22600 57.16700 39.68800
C  34.29800 58.57900 40.01200
C  32.96200 58.99900 40.29100
C  35.31300 56.16400 39.24300
C  35.53400 59.42600 39.93700
O  36.56200 58.91800 39.52000
C  35.70600 60.94100 40.34800
N  30.11100 60.26400 40.52300
C  31.30900 60.86100 40.83100
C  31.22300 62.28100 41.25300
C  29.59800 62.51400 41.18300
C  29.07600 61.11100 40.81500
C  31.82600 62.63300 42.61700
C  29.15500 63.61800 40.23300
C  27.77700 64.23400 40.49700
N  27.95700 58.53500 40.33400
C  27.18900 59.59800 40.68100
C  25.82900 59.24000 40.53500
C  25.88200 57.85300 40.07600
C  27.23000 57.50500 40.03300
C  24.62700 60.17000 40.62500
C  25.05200 56.73000 39.75600
O  23.82900 56.61600 39.68900
C  26.03100 55.67200 39.31300
C  25.69900 54.38000 40.05500
O  26.18200 54.01200 41.15400
O  24.72700 53.70100 39.35800
C  24.35200 52.40400 39.91000
H  32.94700 54.92200 38.95100
H  33.27200 61.05900 40.72000
H  27.13500 61.68700 41.14800
H  28.19900 53.45900 39.00400
H  30.83900 53.45900 38.12900
H  31.06400 53.49900 41.01200
H  30.82100 52.15400 39.91400
H  29.48300 53.07600 40.74200
H  29.42900 54.79200 36.54500
H  27.99800 55.51900 37.01100
H  27.00800 52.94900 36.77000
H  28.57900 52.75000 35.91900
H  35.21300 55.27400 39.86400
H  36.31100 56.46600 39.56000
H  35.23800 56.00700 38.16700
H  35.34900 61.01700 41.37500
H  35.03900 61.57900 39.76800
H  36.77000 61.17200 40.29400
H  31.76600 62.88400 40.52400
H  29.25600 62.69900 42.20200
H  31.04600 63.02000 43.27300
H  32.56300 63.43100 42.52700
H  32.20000 61.70900 43.05600
H  29.29400 63.33600 39.18900
H  29.80000 64.45600 40.49900
H  27.92400 65.31400 40.49500
H  27.37700 63.88800 41.45000
H  27.11400 63.98600 39.66800
H  24.94200 61.06500 40.08800
H  24.23400 60.33400 41.62800
H  23.84900 59.71100 40.01500
H  25.75900 55.47400 38.27600
H  24.05500 52.37100 40.95900
H  25.05600 51.61500 39.64600
H  23.42800 52.17800 39.37800

