158

Mg -3.18200 17.47100 26.75100
C  -2.97100 15.53100 29.77600
C  -3.19800 20.21600 28.69100
C  -3.53900 19.14100 23.98500
C  -3.38900 14.40900 24.94600
N  -2.98600 17.84900 28.95900
C  -2.87400 16.94300 29.96700
C  -2.83000 17.59200 31.35100
C  -2.70100 19.11800 30.96100
C  -3.09200 19.09800 29.49300
C  -3.57000 20.17800 31.73300
C  -1.70300 16.97700 32.35500
C  -1.07300 17.94400 33.45500
H  -1.01700 17.46900 34.87200
N  -3.18700 19.46600 26.41200
C  -3.28800 20.48100 27.30300
C  -3.36000 21.79300 26.57800
C  -3.27700 21.48600 25.19700
C  -3.31900 19.93600 25.16800
C  -3.29800 23.17400 27.08400
C  -3.04500 22.29300 23.91600
O  -2.88900 21.81500 22.77900
C  -3.00400 23.77200 24.01800
N  -3.52600 16.84800 24.79300
C  -3.74800 17.72900 23.77500
C  -3.93100 17.10600 22.42100
C  -3.74800 15.59000 22.76700
C  -3.52600 15.57900 24.27200
C  -5.09200 17.61000 21.58200
C  -2.74000 14.74700 21.84000
C  -1.30900 15.18700 22.08400
N  -3.33800 15.34700 27.20000
C  -3.34000 14.23600 26.34600
C  -3.40100 13.04200 27.17600
C  -3.45400 13.50000 28.51400
C  -3.25900 14.93000 28.44600
C  -3.45400 11.62800 26.77500
C  -3.46000 13.04800 29.85600
O  -3.59800 11.91100 30.29600
C  -3.13500 14.29600 30.74600
C  -1.91300 13.95500 31.48100
O  -0.74300 14.02200 31.06900
O  -2.34000 13.45600 32.70300
C  -1.25400 13.12300 33.58300
H  -3.05900 21.19800 29.14700
H  -3.78200 19.79500 23.14600
H  -3.45000 13.56700 24.25300
H  -3.80100 17.50300 31.83900
H  -1.63600 19.28500 31.12100
H  -2.84400 20.79500 32.26300
H  -4.24300 19.67200 32.42500
H  -4.14900 20.84900 31.09800
H  -0.92700 16.63600 31.67000
H  -2.13900 16.13600 32.89300
H  -1.43500 18.97000 33.38400
H  -0.04700 17.97500 33.08800
H  -2.43000 23.54200 26.53700
H  -3.16600 23.29200 28.15900
H  -4.14400 23.74200 26.69800
H  -3.90300 24.16900 24.49000
H  -3.01500 24.26800 23.04800
H  -2.07400 24.00900 24.53400
H  -3.04100 17.50700 21.93700
H  -4.69300 15.06200 22.63900
H  -5.72900 16.78500 21.26400
H  -4.81400 18.24900 20.74400
H  -5.75700 18.19400 22.21900
H  -3.00800 14.82600 20.78600
H  -2.92000 13.69000 22.03400
H  -0.94000 15.61900 21.15400
H  -0.69100 14.34500 22.39600
H  -1.30400 15.99200 22.81800
H  -2.46700 11.22500 26.54500
H  -4.28000 11.73900 26.07300
H  -3.87300 11.10600 27.63500
H  -3.94400 14.48300 31.45200
H  -1.67400 12.18700 33.95100
H  -1.36200 13.83600 34.40100
H  -0.22200 13.12500 33.23300
Mg -11.80800 37.81200 41.79000
C  -9.52600 35.36600 40.98000
C  -10.03700 39.84400 39.64600
C  -14.44000 39.91300 41.55000
C  -14.01100 35.40200 43.12300
N  -10.04700 37.58200 40.35000
C  -9.21600 36.48600 40.23900
C  -7.94000 36.77100 39.46400
C  -8.15000 38.26000 39.08900
C  -9.49700 38.60700 39.72500
C  -6.94600 39.14300 39.41700
C  -7.72800 35.88300 38.21900
C  -6.24100 35.29500 37.93700
H  -5.22700 36.17800 37.12800
N  -12.03500 39.72100 40.96800
C  -11.13600 40.40800 40.26400
C  -11.53600 41.76400 40.11200
C  -12.91300 41.82400 40.62900
C  -13.16800 40.43100 41.05100
C  -10.64400 42.85000 39.49500
C  -13.72000 43.09500 40.78800
O  -13.35500 44.13600 40.27100
C  -14.93200 43.08300 41.66900
N  -13.95300 37.67000 42.21000
C  -14.80200 38.71800 41.99500
C  -16.16500 38.46400 42.58500
C  -16.01000 36.93700 43.06800
C  -14.55900 36.59900 42.78600
C  -16.59700 39.41400 43.66500
C  -16.95600 35.87900 42.44900
C  -18.19200 35.43700 43.17500
N  -11.79300 35.77800 42.02800
C  -12.64600 34.95700 42.85300
C  -12.00600 33.64200 43.00200
C  -10.74200 33.79900 42.34200
C  -10.68400 35.08800 41.70800
C  -12.50100 32.42000 43.79800
C  -9.48700 33.12200 42.02900
O  -9.15500 32.00100 42.33400
C  -8.56400 34.09500 41.15800
C  -7.29500 34.23100 41.93900
O  -6.50800 33.27800 42.07700
O  -7.13900 35.55200 42.35600
C  -5.99700 35.85200 43.23800
H  -9.52600 40.51500 38.95300
H  -15.21100 40.68500 41.51400
H  -14.69800 34.77100 43.69100
H  -7.09700 36.63500 40.14200
H  -8.33300 38.42600 38.02700
H  -7.19900 39.89700 40.16300
H  -6.62900 39.63500 38.49800
H  -6.07900 38.60800 39.80200
H  -7.92000 36.56700 37.39200
H  -8.41100 35.05000 38.04900
H  -6.37700 34.30400 37.50500
H  -5.84100 35.19300 38.94600
H  -10.82800 43.77800 40.03600
H  -10.87400 43.03300 38.44600
H  -9.59600 42.66600 39.72900
H  -15.22600 44.06900 42.03000
H  -14.75900 42.48200 42.56200
H  -15.71500 42.73200 40.99700
H  -16.85800 38.44100 41.74400
H  -16.16500 36.85100 44.14300
H  -17.38700 40.09500 43.34900
H  -15.72200 39.91400 44.08100
H  -17.07100 38.84700 44.46700
H  -16.44800 34.99000 42.07400
H  -17.21300 36.25100 41.45700
H  -18.43700 36.18200 43.93200
H  -17.90700 34.54700 43.73600
H  -19.00900 35.16000 42.50900
H  -12.96100 31.69000 43.13200
H  -13.20500 32.79400 44.54200
H  -11.69200 31.86300 44.27000
H  -8.29600 33.77400 40.15100
H  -6.41800 36.47300 44.02900
H  -5.28700 36.35300 42.58000
H  -5.54400 34.97700 43.70400

