158

Mg 46.90700 16.42300 28.39900
C  44.59000 16.03300 30.95700
C  48.89600 18.23200 30.37700
C  48.96000 16.80800 25.81000
C  44.56700 14.80100 26.17600
N  46.76900 17.13000 30.39600
C  45.82800 16.72600 31.32600
C  46.23200 17.08200 32.74500
C  47.39600 18.05300 32.45900
C  47.69200 17.80800 30.98300
C  47.13000 19.53400 32.93900
C  46.60400 15.80900 33.57600
C  47.18700 16.09400 34.99800
H  47.09400 17.48100 35.64500
N  48.69300 17.35300 28.14100
C  49.41800 18.02600 29.11000
C  50.63900 18.62800 28.53400
C  50.69900 18.11400 27.17800
C  49.38800 17.31800 27.01500
C  51.59500 19.53700 29.38600
C  51.84000 18.26300 26.17800
O  51.90100 17.80200 25.04400
C  53.05400 19.05300 26.47200
N  46.63400 16.04500 26.24000
C  47.71800 16.27200 25.42900
C  47.32400 15.94500 23.97800
C  46.24400 14.82400 24.21700
C  45.77100 15.23300 25.61200
C  46.77100 17.25700 23.35700
C  46.78000 13.36400 24.18300
C  46.03600 12.47300 23.17800
N  45.00400 15.56900 28.47700
C  44.20000 14.96900 27.52500
C  43.00700 14.43500 28.22500
C  43.09500 14.81200 29.55500
C  44.34000 15.60400 29.58200
C  41.96500 13.57500 27.52000
C  42.43400 14.79000 30.84000
O  41.28900 14.39900 31.11500
C  43.37300 15.51800 31.72600
C  42.70000 16.53800 32.54300
O  41.78500 17.22600 32.09900
O  43.14900 16.49700 33.84800
C  42.69500 17.56900 34.74100
H  49.50200 18.82500 31.06600
H  49.67500 17.02500 25.01400
H  43.90400 14.15700 25.59500
H  45.50200 17.64400 33.32600
H  48.29800 17.72500 32.97500
H  47.05100 20.23500 32.10800
H  48.02100 19.93400 33.42300
H  46.34600 19.59300 33.69300
H  47.24200 15.24700 32.89400
H  45.74100 15.15900 33.72300
H  48.24000 15.87500 34.82200
H  46.86100 15.41900 35.78900
H  51.18400 19.72000 30.37900
H  51.68700 20.47300 28.83600
H  52.59900 19.11400 29.41300
H  52.85200 20.08300 26.76700
H  53.74400 18.86300 25.65000
H  53.71300 18.78600 27.29800
H  48.25600 15.58700 23.54100
H  45.33600 15.03600 23.65300
H  45.82200 17.47300 23.84800
H  46.72700 17.16800 22.27200
H  47.41600 18.08000 23.66500
H  46.70400 12.90200 25.16700
H  47.84100 13.44600 23.95100
H  45.45500 11.70300 23.68500
H  46.74700 11.87800 22.60300
H  45.31800 13.06800 22.61400
H  41.00200 13.93600 27.88100
H  42.14800 12.56300 27.88200
H  42.03100 13.77000 26.45000
H  43.74800 14.79300 32.44900
H  42.65600 17.17700 35.75700
H  41.67700 17.85800 34.47800
H  43.42800 18.37200 34.66400
Mg -10.76500 17.01400 40.43700
C  -7.32900 16.07900 40.61200
C  -9.90800 20.25400 39.75000
C  -14.03600 17.59700 39.48800
C  -11.55400 13.52000 40.79300
N  -8.84100 17.96200 40.18000
C  -7.55000 17.43000 40.35900
C  -6.45700 18.53800 40.10300
C  -7.31600 19.88600 40.20200
C  -8.82200 19.32400 40.04400
C  -7.13200 20.85900 41.45900
C  -5.82800 18.31800 38.71700
C  -4.48500 17.59900 38.79000
H  -4.12800 16.37900 37.92300
N  -11.82800 18.70100 39.72400
C  -11.25000 19.98400 39.58200
C  -12.31700 20.89600 39.45900
C  -13.54900 20.17200 39.41900
C  -13.23100 18.76800 39.52700
C  -12.08600 22.42000 39.26600
C  -14.93500 20.88900 39.26100
O  -15.10700 22.09600 39.07600
C  -16.11800 20.04400 39.27500
N  -12.53200 15.77200 40.31400
C  -13.75200 16.30500 39.90200
C  -14.82400 15.25300 39.84900
C  -13.97100 13.92800 40.06400
C  -12.63700 14.39000 40.47400
C  -16.06800 15.43100 40.72700
C  -14.03900 12.85600 38.95200
C  -14.10600 11.36200 39.34000
N  -9.74100 15.17500 40.77900
C  -10.15400 13.86200 40.83400
C  -9.01700 12.99800 41.23000
C  -7.93000 13.79600 41.02800
C  -8.35900 15.12600 40.81900
C  -8.96200 11.53900 41.48400
C  -6.45700 13.77400 40.97500
O  -5.62400 12.89400 41.00100
C  -6.05800 15.31300 40.98800
C  -5.44700 15.56000 42.26600
O  -4.24600 15.75400 42.36900
O  -6.29800 15.56000 43.42200
C  -5.58800 15.66000 44.67400
H  -9.51100 21.26900 39.82700
H  -15.06100 17.71600 39.12900
H  -11.97400 12.51700 40.89200
H  -5.70400 18.46700 40.88700
H  -7.12900 20.49100 39.31600
H  -6.38400 20.30600 42.02800
H  -8.10400 20.94700 41.94300
H  -6.62200 21.73700 41.06100
H  -5.63800 19.14600 38.03400
H  -6.43900 17.65300 38.10800
H  -4.18400 17.40400 39.81900
H  -3.72500 18.33600 38.53100
H  -12.48300 22.79900 38.32400
H  -11.03000 22.68400 39.22100
H  -12.40800 22.99400 40.13500
H  -17.00700 20.63800 39.05900
H  -16.12500 19.50400 40.22100
H  -16.05500 19.42500 38.38000
H  -15.17500 15.22700 38.81700
H  -14.41900 13.40500 40.90900
H  -16.15100 16.46800 41.05400
H  -16.10700 14.71200 41.54600
H  -16.84600 15.26300 39.98300
H  -13.13300 12.89900 38.34800
H  -14.90800 13.08900 38.33700
H  -15.08000 10.93500 39.09800
H  -14.00300 11.28700 40.42200
H  -13.31600 10.82600 38.81400
H  -8.07500 11.24200 42.04500
H  -8.87100 11.04400 40.51800
H  -9.85700 11.32900 42.07000
H  -5.27100 15.34800 40.23400
H  -5.92500 16.47100 45.31900
H  -4.50600 15.53400 44.69800
H  -5.97900 14.86700 45.31300

