158

Mg -0.01800 7.42100 26.14400
C  1.00900 9.10700 28.91800
C  -0.45400 4.69000 27.87700
C  -0.74700 5.90300 23.18300
C  0.86300 10.34200 24.23900
N  0.44200 6.91900 28.17300
C  0.64600 7.77000 29.17700
C  0.53800 7.06300 30.54900
C  0.40400 5.55300 30.16200
C  0.12500 5.71100 28.63500
C  1.68400 4.71100 30.44600
C  -0.68600 7.56400 31.42900
C  -0.49600 7.62800 32.90300
H  0.62800 6.79700 33.57800
N  -0.57400 5.53100 25.60200
C  -0.68400 4.52600 26.46800
C  -1.25100 3.37400 25.76500
C  -1.34800 3.77900 24.35300
C  -0.84200 5.09200 24.33200
C  -1.69500 2.11100 26.55700
C  -1.77500 2.87900 23.22400
O  -1.88900 3.16300 22.02700
C  -2.11900 1.37500 23.54800
N  0.10000 8.03100 24.05600
C  -0.19500 7.18000 23.07000
C  0.11600 7.76300 21.62800
C  0.32200 9.26600 21.92600
C  0.41400 9.24700 23.52700
C  1.26600 7.03300 20.87300
C  -0.69800 10.17400 21.34800
C  -2.17600 10.08700 21.93700
N  0.70600 9.37200 26.45200
C  1.03700 10.39900 25.61200
C  1.42900 11.60000 26.36400
C  1.51900 11.18300 27.65100
C  1.01200 9.79900 27.67600
C  1.73000 12.98200 25.88000
C  1.84800 11.52600 29.01200
O  2.38000 12.54300 29.54900
C  1.44700 10.22200 29.86500
C  2.60300 9.85300 30.77700
O  3.54600 9.14500 30.45600
O  2.51300 10.60600 31.88800
C  3.68300 10.87300 32.74300
H  -0.61500 3.75800 28.42200
H  -1.24600 5.37500 22.36800
H  0.99700 11.25400 23.65300
H  1.51500 7.23000 31.00200
H  -0.48300 5.13000 30.63400
H  2.28600 4.70000 29.53700
H  1.55700 3.67900 30.77100
H  2.30800 5.26200 31.15000
H  -1.59400 7.01700 31.17500
H  -0.89000 8.57200 31.06900
H  -1.34800 7.15100 33.38600
H  -0.46500 8.61700 33.36100
H  -2.66600 1.78100 26.18700
H  -1.79000 2.06000 27.64100
H  -1.03000 1.27300 26.34700
H  -1.19300 0.94600 23.93200
H  -2.37500 0.79600 22.66100
H  -2.95300 1.51400 24.23600
H  -0.77800 7.61600 21.02200
H  1.27800 9.56600 21.49600
H  1.25200 5.97300 21.12700
H  2.18700 7.44000 21.29100
H  1.22200 7.10000 19.78600
H  -0.72700 10.07200 20.26300
H  -0.35300 11.17300 21.61600
H  -2.42700 11.09100 22.28000
H  -2.20100 9.45200 22.82300
H  -2.97500 9.63200 21.35000
H  1.58400 13.70300 26.68500
H  1.13900 13.20800 24.99200
H  2.77100 13.05200 25.56300
H  0.53900 10.51800 30.38900
H  3.59500 10.28500 33.65700
H  3.56700 11.94400 32.90600
H  4.66400 10.64700 32.32500
Mg 34.73700 2.65900 29.37500
C  32.72400 3.71600 32.07600
C  37.47200 2.57400 31.48600
C  36.80300 2.46000 26.70700
C  32.11300 3.44400 27.17100
N  34.99900 3.27100 31.56000
C  34.05400 3.53200 32.48400
C  34.64700 3.38300 33.91000
C  36.17500 3.18100 33.68600
C  36.27100 3.03600 32.13000
C  37.06800 4.31800 34.28000
C  33.87100 2.24700 34.73800
C  33.58100 2.35800 36.27200
H  34.20300 3.53000 37.07500
N  36.81100 2.42600 29.11500
C  37.77000 2.37700 30.15100
C  39.08000 2.17000 29.54200
C  38.91700 2.02700 28.13200
C  37.47200 2.22000 27.91200
C  40.35100 2.12700 30.34900
C  39.93200 1.69800 27.06200
O  39.55700 1.60500 25.90300
C  41.38000 1.40500 27.37500
N  34.44800 2.90100 27.23400
C  35.47900 2.76800 26.32400
C  35.05300 3.03800 24.86900
C  33.48900 3.13000 25.08700
C  33.28900 3.11700 26.56500
C  35.70100 4.27500 24.25000
C  32.62200 2.04800 24.41800
C  31.16500 2.35200 24.16100
N  32.75700 3.16900 29.53600
C  31.83500 3.45400 28.54600
C  30.55200 3.91200 29.15100
C  30.92300 3.95700 30.52900
C  32.25600 3.55200 30.76500
C  29.21500 4.21700 28.44800
C  30.32100 4.31400 31.83800
O  29.18800 4.79000 32.13800
C  31.51300 4.13700 32.85400
C  31.69000 5.50000 33.58000
O  32.10200 6.58700 33.16300
O  31.23200 5.31500 34.80800
C  31.00700 6.51200 35.61600
H  38.33300 2.45800 32.14800
H  37.47300 2.47700 25.84400
H  31.27100 3.68600 26.52000
H  34.59700 4.27000 34.54300
H  36.53700 2.21500 34.03700
H  37.83100 3.88800 34.92900
H  36.66100 5.12800 34.88600
H  37.62600 4.78400 33.46800
H  34.48900 1.38200 34.49700
H  32.95300 1.96000 34.22600
H  33.82700 1.39800 36.72500
H  32.51100 2.55800 36.33400
H  40.21400 2.77100 31.21800
H  41.16900 2.56200 29.77600
H  40.58000 1.12000 30.69900
H  41.52200 0.78000 28.25700
H  41.87300 2.32100 27.69900
H  41.82800 0.97500 26.47900
H  35.11200 2.12400 24.27700
H  33.10100 4.07400 24.70400
H  36.49000 4.68000 24.88400
H  34.97900 5.05300 24.00200
H  36.32900 3.94400 23.42300
H  32.81200 1.14500 24.99800
H  32.94700 1.88800 23.39000
H  30.94300 2.12200 23.11900
H  30.82400 3.35100 24.43500
H  30.59600 1.66200 24.78300
H  28.43600 4.57900 29.11900
H  28.87700 3.22600 28.14500
H  29.30100 4.78000 27.51800
H  31.35700 3.30700 33.54300
H  29.97600 6.86300 35.56700
H  31.72200 7.33300 35.56900
H  31.11600 6.08500 36.61300

