158

Mg 7.01100 57.20500 41.73300
C  5.93600 53.75900 41.84600
C  9.89400 56.12200 40.21100
C  7.72100 60.49700 41.16600
C  3.75400 58.03200 42.65500
N  7.77700 55.12200 41.12500
C  7.24600 53.86900 41.21400
C  8.15400 52.78300 40.62500
C  9.55600 53.56900 40.56700
C  9.03600 55.03900 40.62100
C  10.54500 53.30300 41.70000
C  7.54800 52.34200 39.28000
C  7.48900 50.91800 38.88900
H  6.48400 50.44800 37.83700
N  8.69700 58.20400 40.88600
C  9.77300 57.54100 40.33500
C  10.61900 58.55200 39.83000
C  10.02700 59.84300 40.08400
C  8.71700 59.55300 40.72700
C  12.08900 58.21900 39.35400
C  10.71900 61.20800 39.92600
O  11.69500 61.34500 39.19200
C  10.05200 62.43000 40.31500
N  5.91700 58.97600 41.75800
C  6.44700 60.21300 41.70200
C  5.52400 61.34900 42.08000
C  4.23000 60.50100 42.38600
C  4.65600 59.05400 42.23700
C  6.12400 62.31000 43.13600
C  3.04500 60.87300 41.49700
C  2.18800 62.06700 42.10300
N  5.19600 56.13600 42.26900
C  3.99500 56.66500 42.62800
C  3.14200 55.60400 43.09900
C  3.91600 54.44700 42.81000
C  5.14800 54.78000 42.24100
C  1.67400 55.72000 43.73700
C  3.98700 52.99700 43.04800
O  3.24700 52.26500 43.65300
C  5.33300 52.45800 42.25500
C  4.83900 51.51500 41.14900
O  4.21200 51.76000 40.16500
O  5.05200 50.19300 41.57500
C  4.29300 49.11700 40.98000
H  10.86600 55.83000 39.80800
H  7.88600 61.56400 41.00100
H  2.86500 58.28600 43.23500
H  8.26300 51.92800 41.29400
H  10.15600 53.53100 39.65800
H  11.54500 53.04200 41.35600
H  10.08000 52.40300 42.10100
H  10.45800 54.09500 42.44300
H  8.16000 52.78600 38.49500
H  6.61600 52.89700 39.16900
H  7.15700 50.34000 39.75200
H  8.49100 50.66500 38.54300
H  12.01400 58.50400 38.30500
H  12.41000 57.21100 39.61600
H  12.75500 58.80500 39.98800
H  9.19300 62.62000 39.67200
H  10.77900 63.23800 40.24400
H  9.68200 62.25900 41.32600
H  5.41100 61.97400 41.19300
H  4.01000 60.67900 43.43900
H  7.20500 62.17600 43.16900
H  5.81600 62.07900 44.15600
H  5.90500 63.37200 43.02800
H  2.40000 60.00000 41.59100
H  3.32700 61.17700 40.48900
H  1.31300 61.52900 42.46800
H  1.92000 62.95300 41.52700
H  2.65300 62.41800 43.02400
H  1.68700 55.50200 44.80500
H  1.00200 55.02400 43.23500
H  1.36700 56.74600 43.53400
H  5.91300 51.91900 43.00500
H  3.99400 48.51400 41.83800
H  5.04100 48.55800 40.41800
H  3.42900 49.41900 40.38900
Mg 8.56500 47.03400 25.33600
C  6.86300 47.06100 28.30000
C  11.22300 48.27700 27.03600
C  10.26900 46.72600 22.48200
C  5.58300 46.87600 23.55400
N  8.92400 47.66200 27.37000
C  8.14200 47.50300 28.46900
C  8.79200 47.90500 29.81800
C  10.07400 48.57400 29.28700
C  10.09700 48.21200 27.78600
C  10.15800 50.13900 29.57700
C  9.04400 46.76800 30.81300
C  8.82000 47.12100 32.30500
H  8.48100 45.91900 33.19500
N  10.47800 47.43000 24.84000
C  11.48300 47.93800 25.63300
C  12.76400 47.78700 24.97300
C  12.53700 47.46500 23.59700
C  11.09500 47.23800 23.53900
C  14.10600 47.99200 25.71700
C  13.50500 47.08800 22.45600
O  13.18800 46.59200 21.39700
C  15.06600 47.41000 22.73600
N  7.98400 46.77400 23.27300
C  8.90300 46.59900 22.29600
C  8.30800 46.08400 21.02900
C  6.78900 46.48600 21.21900
C  6.72100 46.73200 22.77200
C  8.91800 46.56900 19.63800
C  5.93700 45.36000 20.67100
C  4.35800 45.50200 20.68900
N  6.64800 46.89200 25.75900
C  5.51000 46.87100 24.92700
C  4.25800 46.78300 25.75100
C  4.77900 46.77100 27.08900
C  6.24500 46.84800 27.03100
C  2.77300 46.59200 25.34800
C  4.38300 46.78900 28.47900
O  3.30700 46.73700 28.98800
C  5.73000 46.85300 29.27300
C  5.76200 45.59800 30.10200
O  6.08400 44.48600 29.73800
O  5.35300 45.82400 31.40700
C  5.46400 44.65800 32.31800
H  12.04700 48.57000 27.69000
H  10.82300 46.41400 21.59500
H  4.59800 46.90000 23.08300
H  8.19200 48.69500 30.27000
H  10.98600 48.09700 29.64500
H  10.70000 50.75100 28.85500
H  10.56500 50.24300 30.58300
H  9.13500 50.51100 29.53000
H  10.04500 46.36300 30.66400
H  8.40800 45.91600 30.57700
H  8.19700 48.01100 32.40200
H  9.82200 47.41500 32.61800
H  13.92400 48.35800 26.72700
H  14.67400 48.78500 25.23100
H  14.69000 47.07200 25.73100
H  15.41100 46.75300 23.53500
H  15.17300 48.47100 22.96100
H  15.69200 47.24500 21.85900
H  8.46900 45.00700 20.98800
H  6.64000 47.45500 20.74300
H  9.82500 47.14600 19.81600
H  8.18400 47.15300 19.08300
H  9.22800 45.68400 19.08300
H  6.25000 44.42400 21.13300
H  6.22700 45.31600 19.62100
H  4.16200 46.52300 21.01700
H  4.05200 44.77500 21.44200
H  3.83600 45.32200 19.75000
H  2.52800 45.62200 25.78100
H  2.58700 46.52500 24.27600
H  2.16600 47.40400 25.74700
H  5.55500 47.74400 29.87700
H  5.72000 45.06800 33.29500
H  6.34200 44.03200 32.15900
H  4.57500 44.03800 32.19700

