158

Mg 8.99200 3.00000 27.09200
C  10.36000 1.49200 30.00600
C  7.01700 4.96600 29.35100
C  7.23900 4.20000 24.49200
C  10.02100 0.26100 25.19300
N  8.70900 3.13100 29.43600
C  9.51500 2.56200 30.35900
C  9.27100 3.10400 31.73300
C  8.01600 4.04900 31.51100
C  7.81000 4.05200 30.00900
C  6.68500 3.64500 32.13900
C  10.50000 3.84100 32.45500
C  10.93200 3.36700 33.86000
H  11.22100 4.46700 34.93400
N  7.48900 4.47000 26.96500
C  6.86800 5.16400 27.93500
C  6.02300 6.12700 27.27000
C  6.20200 6.05700 25.84800
C  6.96700 4.86400 25.73200
C  5.07400 7.07500 28.06200
C  5.80300 6.92400 24.69900
O  5.98700 6.63900 23.53200
C  5.07900 8.17300 25.01000
N  8.79600 2.43000 25.14300
C  8.06400 3.12200 24.22800
C  8.21200 2.53400 22.86200
C  9.07800 1.30300 23.05900
C  9.34800 1.32600 24.57300
C  6.89900 2.24600 22.16500
C  10.35100 1.31200 22.25600
C  10.46900 0.13800 21.26000
N  10.03000 1.26200 27.47700
C  10.46400 0.31300 26.58200
C  11.32500 -0.57300 27.26500
C  11.29500 -0.16500 28.65200
C  10.53000 0.96200 28.71200
C  11.83700 -1.97400 26.64200
C  11.64800 -0.61900 29.93400
O  12.33100 -1.58100 30.22300
C  11.06900 0.49900 30.89800
C  10.17300 -0.11400 31.88800
O  8.95100 -0.29300 31.78500
O  10.98200 -0.28500 33.06000
C  10.24200 -0.56300 34.28000
H  6.42800 5.60700 30.01100
H  6.84100 4.50800 23.52300
H  10.36600 -0.56500 24.56600
H  9.08200 2.22000 32.34300
H  8.30600 5.00600 31.94400
H  6.60700 4.42100 32.90100
H  6.65500 2.70100 32.68400
H  5.88000 3.69200 31.40700
H  10.28400 4.90900 32.44700
H  11.39200 3.73100 31.83700
H  11.82900 2.75900 33.74500
H  10.06600 2.82200 34.23800
H  5.48900 8.08000 27.99100
H  4.95200 6.81800 29.11500
H  4.12400 7.13200 27.53200
H  5.69000 8.66100 25.76900
H  4.08900 7.96600 25.41600
H  4.99800 8.82200 24.13800
H  8.80600 3.30200 22.36600
H  8.57100 0.34000 23.00700
H  6.04300 2.59600 22.74400
H  6.71700 1.17300 22.10500
H  6.84200 2.79900 21.22700
H  11.19800 1.13100 22.91800
H  10.61600 2.26100 21.79100
H  9.50900 -0.18700 20.85800
H  11.00100 -0.73000 21.65000
H  11.00800 0.55700 20.41100
H  12.92400 -2.02900 26.70800
H  11.63800 -1.91600 25.57200
H  11.37200 -2.84600 27.10100
H  11.89700 1.02800 31.36900
H  9.17200 -0.66800 34.09900
H  10.53300 0.11300 35.08300
H  10.60300 -1.51900 34.66000
Mg 26.11500 0.02800 29.21100
C  27.90900 0.02100 32.09600
C  23.21200 -0.06900 31.23600
C  24.19300 -0.31600 26.47100
C  29.01700 -0.27000 27.30100
N  25.61300 -0.13700 31.47000
C  26.57600 0.08000 32.35000
C  25.92900 0.43900 33.72100
C  24.42000 0.24700 33.50500
C  24.35000 -0.06800 31.99200
C  23.90400 -0.82400 34.54500
C  26.24400 1.95200 34.39000
C  27.03800 1.87400 35.72500
H  26.40900 2.41900 37.02000
N  24.00300 -0.13500 28.88900
C  23.04200 -0.10600 29.83200
C  21.73500 -0.03800 29.21600
C  22.01700 -0.10000 27.80900
C  23.44600 -0.14700 27.66100
C  20.38000 0.06600 29.93900
C  20.97600 -0.13300 26.71200
O  21.32000 -0.15100 25.54000
C  19.51200 -0.16800 26.96100
N  26.55200 -0.37600 27.14000
C  25.57500 -0.49600 26.25300
C  26.19600 -0.66700 24.79700
C  27.70000 -0.25800 25.06500
C  27.78000 -0.24400 26.57000
C  25.85800 -2.06600 24.06700
C  28.04300 1.16900 24.45000
C  29.38600 1.22100 23.73500
N  28.10900 -0.04800 29.58400
C  29.18100 -0.17600 28.70100
C  30.41200 -0.19100 29.51100
C  29.94200 -0.18800 30.86100
C  28.53100 -0.06700 30.85000
C  31.80600 -0.55200 28.95100
C  30.41600 -0.17400 32.22100
O  31.54500 -0.26500 32.68800
C  29.15600 0.05200 33.09900
C  29.05900 -0.89800 34.25800
O  28.32300 -1.90100 34.25500
O  29.81300 -0.57500 35.30300
C  29.60900 -1.37300 36.55400
H  22.35600 0.35500 31.76500
H  23.67800 -0.31600 25.50800
H  29.86000 -0.39700 26.61900
H  26.32700 -0.22400 34.48900
H  23.79600 1.13200 33.62600
H  23.88700 -1.78100 34.02400
H  22.89500 -0.52300 34.82500
H  24.53200 -0.92300 35.43000
H  25.32200 2.51700 34.52400
H  26.76600 2.65600 33.74300
H  27.91800 2.48000 35.50800
H  27.37300 0.84600 35.86000
H  19.65800 0.77200 29.53000
H  20.51100 0.49500 30.93300
H  19.98000 -0.94600 30.01600
H  19.18000 -0.94800 27.64700
H  19.10200 -0.39500 25.97700
H  19.11700 0.80500 27.25100
H  25.65500 0.05200 24.18200
H  28.38100 -0.99000 24.63100
H  26.02200 -2.07300 22.98900
H  24.79600 -2.21700 24.26200
H  26.46800 -2.82400 24.55900
H  28.00800 1.95600 25.20400
H  27.24700 1.43700 23.75600
H  29.95000 0.32700 23.99800
H  29.95700 2.13100 23.91900
H  29.25000 1.04100 22.66800
H  31.91100 -0.34800 27.88600
H  32.01100 -1.58400 29.23400
H  32.55700 0.06900 29.43900
H  29.09800 1.03500 33.56700
H  30.51600 -1.19700 37.13300
H  29.34200 -2.42100 36.42100
H  28.74900 -0.90600 37.03400

