158

Mg 41.14200 41.53600 26.41000
C  40.43100 43.63100 28.95400
C  42.48400 39.31800 28.62800
C  41.74600 39.31900 23.82500
C  40.46000 44.06700 24.07700
N  41.49900 41.60000 28.50800
C  40.99700 42.51400 29.44900
C  41.15100 42.05500 30.95500
C  42.00600 40.78100 30.72600
C  42.03900 40.53000 29.18300
C  43.48100 41.00400 31.34100
C  39.66800 41.80800 31.55300
C  39.40800 42.48700 32.90100
H  39.10100 41.60800 34.07800
N  41.97600 39.59000 26.22500
C  42.46300 38.85800 27.29700
C  43.06200 37.60500 26.79300
C  42.87600 37.64400 25.39500
C  42.12800 38.91200 25.07600
C  43.85800 36.58700 27.66100
C  43.37800 36.63600 24.30700
O  42.96400 36.70600 23.13600
C  44.26200 35.58500 24.65600
N  41.42100 41.78300 24.21100
C  41.34300 40.62500 23.39300
C  41.02900 41.00200 21.90400
C  40.80300 42.51700 22.02700
C  40.90800 42.85900 23.56500
C  42.22600 40.68300 20.98500
C  39.53400 43.14400 21.33300
C  38.15000 43.14100 22.07500
N  40.53100 43.40900 26.43700
C  40.34400 44.37600 25.41900
C  39.96000 45.61600 26.08500
C  39.93200 45.34400 27.47600
C  40.31600 44.03100 27.59400
C  39.61600 46.94400 25.42300
C  39.60100 45.96200 28.75400
O  39.12400 47.03400 29.09900
C  39.91200 44.79300 29.76000
C  40.92000 45.39700 30.62800
O  42.04500 45.69500 30.39300
O  40.34500 45.60200 31.86300
C  41.19800 46.08700 32.94300
H  43.02500 38.63600 29.28800
H  41.76400 38.59700 23.00600
H  40.03600 44.84000 23.43300
H  41.70000 42.77600 31.56000
H  41.52500 39.95600 31.25100
H  44.30100 40.87800 30.63400
H  43.54000 40.15600 32.02300
H  43.64500 41.86400 31.99000
H  39.57600 40.73300 31.71200
H  38.96600 42.12400 30.78200
H  38.60800 43.22700 32.86200
H  40.26200 43.10300 33.18100
H  44.13400 36.94100 28.65400
H  44.85800 36.45500 27.24700
H  43.26400 35.67500 27.59500
H  43.64300 34.83100 25.14400
H  45.03900 36.02500 25.28100
H  44.79200 35.24900 23.76500
H  40.13900 40.43100 21.64100
H  41.68500 42.97800 21.58100
H  42.65600 41.48200 20.38000
H  41.93100 39.84200 20.35800
H  42.99700 40.26600 21.63300
H  39.48300 42.55800 20.41600
H  39.82300 44.18300 21.17400
H  38.25900 42.42000 22.88600
H  37.37300 43.05100 21.31600
H  37.90800 44.09000 22.55300
H  38.54900 47.05200 25.22800
H  40.16400 46.99100 24.48200
H  39.94800 47.85100 25.92900
H  39.06200 44.50300 30.37800
H  41.90900 46.80700 32.53600
H  41.51200 45.19300 33.48100
H  40.47800 46.62600 33.55900
Mg -10.90700 40.51900 39.10300
C  -9.98600 37.24500 38.46600
C  -7.58500 41.50900 38.35500
C  -11.90000 43.68000 38.63100
C  -14.22000 39.43600 39.38000
N  -9.09200 39.54900 38.31900
C  -8.92900 38.16100 38.26500
C  -7.46900 37.79300 37.87600
C  -6.67400 39.12600 38.31900
C  -7.85200 40.13800 38.33100
C  -5.94400 39.14500 39.66000
C  -7.38700 37.50200 36.31600
C  -7.16000 36.00900 35.93600
H  -8.04200 35.41900 34.90300
N  -9.88800 42.38900 38.65200
C  -8.52400 42.60200 38.34000
C  -8.27700 43.97700 38.17500
C  -9.50500 44.57700 38.31800
C  -10.52900 43.57200 38.46900
C  -6.92400 44.54600 37.99000
C  -9.65600 46.08100 38.28000
O  -8.73900 46.80700 37.92000
C  -10.94100 46.73000 38.56800
N  -12.87600 41.45500 39.02200
C  -12.98000 42.79500 38.92800
C  -14.44100 43.17100 38.96600
C  -15.25700 41.85600 39.25700
C  -14.05500 40.84100 39.24900
C  -14.91700 44.31300 39.93800
C  -16.40400 41.45300 38.26700
C  -17.70900 41.09300 38.95800
N  -11.93100 38.71500 39.16200
C  -13.29400 38.41600 39.13900
C  -13.43900 36.99400 39.03400
C  -12.16200 36.48300 38.74400
C  -11.30800 37.59500 38.78500
C  -14.80400 36.31600 39.12900
C  -11.43500 35.27000 38.38000
O  -11.84000 34.12600 38.24000
C  -9.91000 35.70400 38.24000
C  -9.15300 34.90200 39.26200
O  -9.51800 34.75400 40.43900
O  -8.18100 34.20800 38.62200
C  -7.43300 33.31600 39.50000
H  -6.53100 41.77800 38.26300
H  -12.26800 44.69600 38.47300
H  -15.23000 39.03800 39.49500
H  -7.05000 37.02800 38.53000
H  -6.05500 39.49400 37.50000
H  -4.95200 39.59400 39.60900
H  -5.59800 38.15500 39.95700
H  -6.53700 39.59700 40.45500
H  -6.60400 38.11700 35.87200
H  -8.37200 37.73500 35.91300
H  -7.22100 35.32600 36.78300
H  -6.15200 35.96200 35.52400
H  -6.48900 44.93100 38.91300
H  -6.83400 45.28600 37.19500
H  -6.27200 43.77600 37.57900
H  -10.89400 47.80800 38.71900
H  -11.16200 46.53800 39.61700
H  -11.74600 46.44000 37.89300
H  -14.70600 43.47500 37.95400
H  -15.60300 41.86900 40.29000
H  -14.08100 44.81400 40.42700
H  -15.64500 44.03300 40.69900
H  -15.36200 45.09500 39.32200
H  -16.20600 40.63800 37.57100
H  -16.65800 42.30300 37.63400
H  -17.81300 41.51500 39.95700
H  -17.89200 40.02000 39.00100
H  -18.45800 41.48600 38.27100
H  -14.73000 35.48100 39.82700
H  -15.04400 35.98800 38.11800
H  -15.52500 36.96600 39.62600
H  -9.62100 35.49600 37.21000
H  -8.04000 32.46200 39.80100
H  -6.91900 33.73000 40.36700
H  -6.63300 32.92000 38.87400

