158

Mg 40.53100 8.03500 29.17600
C  42.45100 9.43000 31.73800
C  38.34500 6.79400 31.54900
C  38.95600 6.50300 26.70500
C  43.37300 8.50300 26.93500
N  40.47400 7.99000 31.39600
C  41.27000 8.77700 32.18100
C  40.81100 8.76400 33.66000
C  39.58600 7.75200 33.56300
C  39.44700 7.47800 32.10500
C  39.60600 6.43200 34.32100
C  40.44300 10.17700 34.09800
C  39.74300 10.22200 35.50400
H  40.25800 11.10500 36.59600
N  38.88000 6.86100 29.08300
C  38.08200 6.50100 30.20800
C  36.96100 5.69500 29.62500
C  37.13200 5.67200 28.20100
C  38.33900 6.38400 27.91100
C  35.81300 5.13500 30.53000
C  36.12600 5.17400 27.20400
O  36.24800 5.37800 25.99800
C  34.79100 4.60100 27.63400
N  41.09400 7.56300 27.11800
C  40.21400 7.02800 26.29500
C  40.74100 6.72600 24.89400
C  42.13800 7.32300 24.98700
C  42.23700 7.85000 26.41800
C  40.78000 5.20800 24.56100
C  42.40800 8.32800 23.93300
C  41.91500 9.75100 24.20300
N  42.48600 8.89300 29.20300
C  43.48700 9.03400 28.23600
C  44.62200 9.63200 28.81800
C  44.30600 9.84100 30.21400
C  42.97500 9.36200 30.38600
C  45.99800 9.91200 28.17500
C  44.77500 10.34800 31.47100
O  45.86000 10.89700 31.72400
C  43.54600 10.17500 32.51200
C  43.98300 9.39700 33.66900
O  44.47300 8.26300 33.58900
O  43.95300 10.10100 34.83300
C  44.23300 9.36100 36.08900
H  37.70600 6.43200 32.35600
H  38.43100 5.97100 25.90900
H  44.21200 8.52300 26.23600
H  41.56300 8.36300 34.33900
H  38.72500 8.36400 33.83000
H  40.43900 6.37600 35.02200
H  39.56500 5.51800 33.72900
H  38.66800 6.49800 34.87300
H  39.83600 10.61300 33.30400
H  41.28500 10.85400 34.25100
H  39.63400 9.18600 35.82700
H  38.67100 10.40300 35.42300
H  36.09200 5.28400 31.57300
H  35.84100 4.09400 30.20700
H  34.86400 5.63900 30.34800
H  34.08700 5.27200 28.12500
H  35.13600 3.79700 28.28400
H  34.25900 4.16100 26.79100
H  40.13200 7.27200 24.17400
H  43.02100 6.69000 25.06900
H  40.28900 4.53000 25.25900
H  41.80300 4.89700 24.35200
H  40.38700 4.95600 23.57600
H  41.91400 8.00500 23.01700
H  43.48100 8.34300 23.74200
H  42.77000 10.41300 24.34000
H  41.30800 9.82000 25.10600
H  41.37300 10.20200 23.37100
H  46.38400 8.94800 27.84200
H  46.80600 10.11600 28.87800
H  45.94800 10.68500 27.40800
H  43.23100 11.16200 32.85100
H  43.55800 8.51100 36.18200
H  43.91800 10.09400 36.83200
H  45.25500 9.05200 36.30700
Mg 46.75900 34.63800 28.67900
C  45.19300 32.35100 30.72500
C  46.71800 36.89200 31.19100
C  47.83100 36.91700 26.45800
C  46.04100 32.41400 25.85900
N  46.16600 34.53600 30.71600
C  45.47900 33.52800 31.43500
C  45.30800 33.87700 32.91500
C  45.27800 35.43000 32.75300
C  46.15800 35.62000 31.48500
C  43.82900 35.99200 32.63500
C  46.41200 33.20000 33.90200
C  47.40900 33.94300 34.76000
H  46.91200 34.47700 36.15800
N  47.53300 36.57300 28.92400
C  47.46800 37.36100 30.04500
C  48.16400 38.53800 29.88900
C  48.49100 38.58500 28.48600
C  47.92700 37.37400 27.86000
C  48.46700 39.40800 31.04100
C  49.25100 39.59600 27.71100
O  49.55500 39.38600 26.52200
C  49.63300 40.95200 28.32000
N  46.89800 34.61800 26.47700
C  47.35500 35.72400 25.85700
C  47.39100 35.49900 24.32500
C  46.81800 34.06500 24.19800
C  46.63000 33.61800 25.60100
C  46.79300 36.65200 23.46000
C  47.61000 33.08600 23.25600
C  46.85200 32.56100 22.02000
N  45.86900 32.75500 28.33200
C  45.67400 31.93400 27.16900
C  44.90500 30.76400 27.49700
C  44.76700 30.83100 28.94300
C  45.22100 32.08200 29.34200
C  44.47200 29.71300 26.61800
C  44.27400 30.18600 30.14900
O  43.80900 29.10200 30.30300
C  44.37300 31.24600 31.25300
C  44.70900 30.63300 32.60300
O  45.73400 30.12500 32.97500
O  43.59400 30.86900 33.39900
C  43.79200 30.40700 34.81500
H  46.56700 37.68400 31.92800
H  48.15600 37.68800 25.75700
H  45.68000 31.78900 25.04000
H  44.40200 33.55900 33.43000
H  45.76100 35.94900 33.58100
H  43.31400 35.72600 33.55800
H  43.28300 35.61500 31.77100
H  43.89100 37.08000 32.64600
H  46.97600 32.48700 33.30200
H  45.76800 32.84000 34.70500
H  47.55100 34.88000 34.22200
H  48.39000 33.46800 34.76300
H  47.72200 40.20200 31.08500
H  49.37600 39.99400 30.90200
H  48.70800 39.00300 32.02400
H  48.87000 41.47800 28.89400
H  49.91200 41.51100 27.42700
H  50.45900 40.72300 28.99300
H  48.44700 35.42000 24.06600
H  45.75300 34.09400 23.97100
H  46.11200 37.28100 24.03200
H  46.12600 36.12100 22.78100
H  47.57900 37.15400 22.89500
H  47.90300 32.14400 23.72000
H  48.54300 33.55800 22.94900
H  47.54200 32.47400 21.18100
H  46.02600 33.12800 21.58900
H  46.56200 31.53500 22.24500
H  45.33900 29.24600 26.15000
H  43.80800 30.14000 25.86700
H  44.05900 28.84500 27.13200
H  43.38500 31.70000 31.33300
H  43.74600 29.32800 34.96000
H  43.08100 31.02500 35.36200
H  44.82100 30.52000 35.15600

