158

Mg 1.86200 -1.21000 44.27200
C  5.23400 -0.19100 43.47900
C  0.83700 1.62100 42.41400
C  -1.22500 -2.49000 44.02800
C  3.15300 -4.22300 45.22300
N  2.95800 0.43500 42.81700
C  4.27800 0.69600 42.92200
C  4.60800 2.08800 42.33300
C  3.19000 2.78200 42.21300
C  2.28200 1.61200 42.52500
C  3.01200 4.01300 43.12700
C  5.41700 2.02900 41.02100
C  6.88600 2.49800 41.07300
H  7.92300 1.60200 40.36800
N  -0.01800 -0.45400 43.45000
C  -0.21400 0.75700 42.80900
C  -1.63000 0.95200 42.62200
C  -2.27900 -0.26200 43.04600
C  -1.15400 -1.16400 43.52300
C  -2.29000 2.20500 42.05600
C  -3.73600 -0.59800 42.96600
O  -4.54100 0.25900 42.67500
C  -4.30700 -1.93100 43.33900
N  1.06500 -3.06300 44.69400
C  -0.24100 -3.38900 44.54700
C  -0.50500 -4.81400 44.93800
C  0.95300 -5.46300 45.10900
C  1.78500 -4.15300 44.99600
C  -1.49200 -5.05900 46.18500
C  1.44400 -6.53700 44.03600
C  1.66000 -7.91300 44.68200
N  3.71300 -2.08200 44.37000
C  4.08200 -3.29800 44.87600
C  5.49100 -3.38800 45.13600
C  5.93900 -2.15500 44.64400
C  4.85500 -1.45000 44.07300
C  6.26600 -4.41000 45.87900
C  7.05700 -1.28000 44.61100
O  8.18100 -1.48300 45.09000
C  6.67300 0.01000 43.73500
C  6.86400 1.12300 44.73400
O  6.09000 1.36300 45.65800
O  8.04800 1.78300 44.47100
C  8.28500 3.18000 45.07500
H  0.43200 2.53500 41.97400
H  -2.17000 -3.03200 44.10100
H  3.47200 -5.15100 45.70200
H  5.18400 2.65800 43.06100
H  3.10200 3.14100 41.18700
H  2.06500 3.90700 43.65500
H  2.92700 4.77500 42.35100
H  3.87200 4.15800 43.78100
H  4.83400 2.66600 40.35600
H  5.48700 1.00900 40.64300
H  7.24700 2.72000 42.07800
H  6.82700 3.49100 40.62700
H  -2.83300 2.07400 41.12100
H  -1.56300 2.96900 41.78100
H  -2.95100 2.65000 42.80000
H  -5.35000 -2.04100 43.04400
H  -4.17100 -2.12800 44.40200
H  -3.86900 -2.62200 42.61700
H  -1.01900 -5.27400 44.09400
H  1.05200 -5.75100 46.15600
H  -2.15200 -5.92400 46.11400
H  -2.12200 -4.19100 46.37700
H  -0.90200 -5.34300 47.05700
H  2.38300 -6.30700 43.53200
H  0.63500 -6.61000 43.30900
H  1.18900 -8.74700 44.16200
H  1.23700 -7.91800 45.68600
H  2.71000 -8.05400 44.93900
H  6.53000 -5.31100 45.32500
H  5.74400 -4.76200 46.76900
H  7.22700 -4.01300 46.20600
H  7.36200 0.17300 42.90700
H  7.59200 3.51800 45.84600
H  8.09600 3.87500 44.25700
H  9.34300 3.14400 45.33500
Mg 26.16800 50.32700 26.94600
C  24.04600 51.78900 29.56200
C  28.08500 49.14100 29.46800
C  28.26800 49.26300 24.68900
C  24.50200 52.25300 24.65100
N  25.99200 50.32200 29.26500
C  25.00000 50.91900 30.03500
C  25.19100 50.50900 31.48900
C  26.64400 50.03100 31.51200
C  27.03000 49.88700 29.98000
C  27.66500 51.01900 32.17500
C  24.04900 49.52300 31.98800
C  23.62500 49.62200 33.53100
H  24.44200 50.25200 34.67400
N  27.95500 49.30000 27.01200
C  28.57000 48.90700 28.17200
C  29.76400 48.15500 27.78100
C  29.88900 48.16200 26.38700
C  28.69100 48.86700 25.96200
C  30.60900 47.45000 28.77400
C  30.91100 47.62500 25.45400
O  30.71000 47.63900 24.19400
C  32.19900 47.03700 26.02600
N  26.34400 50.70200 25.00200
C  27.22200 50.03400 24.21600
C  26.96300 50.17200 22.71500
C  25.69200 51.02200 22.74100
C  25.51500 51.39300 24.21900
C  27.99600 50.57500 21.66300
C  24.46600 50.44500 22.08100
C  23.41500 51.40700 21.37000
N  24.56500 51.68000 27.02200
C  23.97500 52.47500 25.98300
C  22.82400 53.18200 26.44600
C  22.90500 53.00700 27.86700
C  23.96100 52.08700 28.20100
C  21.93300 53.98100 25.59700
C  22.19200 53.35200 29.12800
O  21.17200 53.98400 29.28300
C  23.01800 52.63600 30.29100
C  23.71100 53.59100 31.28400
O  24.65300 54.32500 30.99600
O  23.00100 53.68400 32.48300
C  23.65400 54.45700 33.48700
H  28.65900 48.71400 30.29300
H  28.77600 48.84200 23.81900
H  23.88000 52.65900 23.85000
H  25.17900 51.46300 32.01600
H  26.67900 49.03400 31.95100
H  27.10400 51.52800 32.95900
H  28.05800 51.82500 31.55600
H  28.42400 50.45700 32.71900
H  24.26200 48.45700 31.91500
H  23.15500 49.66300 31.38100
H  23.21500 48.63500 33.74900
H  22.83100 50.36400 33.44700
H  31.62600 47.81000 28.62200
H  30.59000 46.37900 28.57100
H  30.29000 47.59100 29.80700
H  32.69100 47.77200 26.66300
H  32.76800 46.59300 25.21000
H  31.81900 46.26400 26.69400
H  26.65300 49.14600 22.51600
H  25.74200 51.99900 22.26000
H  27.79700 51.56700 21.25800
H  27.79900 49.83400 20.88900
H  29.02100 50.49900 22.02700
H  23.90500 49.80400 22.76100
H  24.74300 49.69800 21.33700
H  23.28800 51.11700 20.32700
H  23.80700 52.42400 21.36700
H  22.45500 51.31300 21.87700
H  22.02200 53.77900 24.53000
H  22.01800 55.01600 25.92800
H  20.93600 53.69700 25.93300
H  22.35100 51.91300 30.75900
H  23.95100 55.43400 33.10500
H  24.62900 53.98400 33.61000
H  23.02100 54.48700 34.37400

