158

Mg 8.07600 2.91000 27.45300
C  9.49200 1.35500 30.26500
C  6.27100 5.01900 29.45900
C  6.73800 4.11100 24.71900
C  9.70400 0.34000 25.49500
N  7.66200 2.96600 29.70900
C  8.59500 2.42900 30.58700
C  8.37100 3.08800 32.00000
C  7.01000 3.95900 31.77300
C  7.00800 4.06300 30.19500
C  5.72700 3.53700 32.48100
C  9.51200 3.84800 32.67500
C  9.93100 3.36300 34.09900
H  10.40900 4.39000 35.17800
N  6.80800 4.50700 27.11000
C  6.15000 5.30600 28.07900
C  5.42800 6.35300 27.42100
C  5.44100 6.03100 26.05800
C  6.40100 4.86700 25.88900
C  4.80200 7.57000 28.11100
C  4.80600 6.67100 24.91300
O  4.92900 6.19200 23.80900
C  4.00800 7.95700 25.06600
N  8.09700 2.13400 25.48400
C  7.43900 2.90300 24.51300
C  7.68600 2.40300 23.10600
C  8.86000 1.30200 23.36500
C  8.88000 1.29000 24.89800
C  6.38300 1.88800 22.47100
C  10.24500 1.60700 22.73200
C  10.85700 0.51400 21.84400
N  9.11800 1.01700 27.78000
C  9.79800 0.18500 26.88200
C  10.65900 -0.74800 27.66000
C  10.59400 -0.28700 28.97400
C  9.61400 0.73500 28.98900
C  11.53400 -1.79000 27.14200
C  11.12600 -0.35700 30.32400
O  12.01400 -1.07300 30.69900
C  10.43400 0.70800 31.23700
C  9.78100 -0.16700 32.29400
O  9.09200 -1.13700 32.00900
O  10.29500 0.23600 33.50400
C  9.86000 -0.56200 34.71000
H  5.79900 5.74600 30.12300
H  6.38000 4.42200 23.73500
H  10.37200 -0.30300 24.91800
H  8.14800 2.24600 32.65500
H  7.19600 4.99800 32.04400
H  5.24100 4.40300 32.93100
H  5.96800 2.72200 33.16300
H  4.97300 3.21500 31.76200
H  9.31300 4.91400 32.78300
H  10.36000 3.74500 31.99700
H  10.78600 2.70200 33.95500
H  9.09300 2.87400 34.59400
H  5.38800 8.39300 27.70300
H  4.85000 7.46700 29.19600
H  3.73700 7.55900 27.87900
H  3.51800 8.04700 24.09600
H  4.75300 8.71500 25.30900
H  3.27600 7.75000 25.84600
H  7.92200 3.29500 22.52600
H  8.50900 0.33100 23.01500
H  6.38800 2.32100 21.47100
H  5.48400 2.27300 22.95200
H  6.55100 0.81200 22.42700
H  10.93800 1.82200 23.54500
H  10.23700 2.51100 22.12300
H  11.93300 0.39900 21.97700
H  10.63700 0.70400 20.79300
H  10.40200 -0.45000 22.07000
H  12.60000 -1.69900 27.35100
H  11.49200 -1.90900 26.06000
H  11.22700 -2.74500 27.56700
H  11.25900 1.31600 31.60900
H  9.45800 -1.56400 34.55600
H  9.44700 0.21500 35.35300
H  10.80900 -0.76800 35.20500
Mg 43.70500 3.81000 46.60500
C  41.81300 6.66400 47.07500
C  40.95800 1.86300 46.81300
C  45.83400 1.10400 46.32100
C  46.62800 5.90300 46.29800
N  41.62500 4.26500 46.81900
C  41.02900 5.45000 47.07500
C  39.56500 5.27200 47.52800
C  39.39200 3.72300 47.63800
C  40.76100 3.24900 47.01300
C  39.18000 3.09900 49.05300
C  38.39700 5.96900 46.68800
C  38.48800 5.82000 45.13100
H  38.96900 6.92700 44.14600
N  43.42300 1.79600 46.40900
C  42.17600 1.20000 46.46100
C  42.30900 -0.20600 46.39000
C  43.65700 -0.52400 46.25500
C  44.40800 0.81200 46.31500
C  41.19300 -1.19800 46.33300
C  44.24700 -1.88400 46.10500
O  43.44500 -2.86400 46.16600
C  45.62100 -2.08700 45.99200
N  45.94600 3.57200 46.37700
C  46.51200 2.35300 46.35800
C  48.03000 2.48200 46.30400
C  48.29700 4.03400 46.19400
C  46.87700 4.56200 46.31400
C  48.71500 1.76700 47.56400
C  48.85000 4.48600 44.82500
C  50.33800 4.96400 44.86500
N  44.17600 5.88000 46.53600
C  45.33700 6.50300 46.43800
C  45.07900 7.88500 46.60000
C  43.73200 8.03900 46.90300
C  43.19400 6.72800 46.85600
C  46.04600 8.97300 46.32000
C  42.59500 8.94500 47.21400
O  42.65400 10.18500 47.39000
C  41.24900 8.02200 47.33300
C  40.55000 8.27600 48.63200
O  40.65400 7.67100 49.66300
O  39.69100 9.34000 48.42700
C  38.78600 9.59200 49.53800
H  40.09300 1.22100 46.99700
H  46.51100 0.26100 46.17100
H  47.52000 6.51800 46.16400
H  39.49700 5.66200 48.54400
H  38.63500 3.33900 46.95400
H  39.79400 2.20400 49.15200
H  38.14900 2.80400 49.24900
H  39.51200 3.83500 49.78600
H  38.41200 7.01200 47.00400
H  37.45800 5.52200 47.01600
H  37.46300 5.63900 44.80800
H  39.18600 4.98500 45.05900
H  40.19400 -0.77100 46.41900
H  41.29800 -2.09900 46.93800
H  41.15800 -1.65100 45.34200
H  46.09200 -1.78800 46.92900
H  45.92500 -1.59900 45.06600
H  45.77400 -3.14800 45.79200
H  48.39000 1.90700 45.45100
H  48.85500 4.45100 47.03200
H  47.92200 1.13500 47.96300
H  48.90400 2.48800 48.35900
H  49.66500 1.26200 47.38900
H  48.30000 5.27800 44.31800
H  48.68200 3.68800 44.10200
H  50.46700 5.99500 44.53400
H  50.87800 4.32300 44.16800
H  50.80600 4.75300 45.82600
H  46.27700 8.93200 45.25600
H  47.02600 9.10000 46.78000
H  45.59000 9.95700 46.42900
H  40.51400 8.22800 46.55500
H  38.30800 10.57000 49.49300
H  39.27500 9.64100 50.51100
H  37.98700 8.85400 49.46900

