158

Mg 49.64800 34.45100 26.63200
C  47.42600 33.70900 29.35600
C  50.40900 37.33800 28.14900
C  51.25400 35.23900 23.94600
C  48.28400 31.52500 25.06900
N  48.94300 35.34000 28.60200
C  48.19700 34.83400 29.58600
C  48.14300 35.77900 30.82500
C  48.96600 37.03100 30.29600
C  49.42900 36.55100 28.92700
C  48.21500 38.35900 30.21000
C  48.70900 35.26200 32.22700
C  47.77000 35.37900 33.41600
H  48.18500 36.49100 34.40300
N  50.65400 36.15000 26.08100
C  50.92100 37.21000 26.83900
C  51.74900 38.16100 26.07900
C  52.09600 37.45700 24.84700
C  51.29400 36.22600 24.89700
C  52.26500 39.49200 26.64600
C  53.12700 37.83400 23.69400
O  53.18000 37.11700 22.67600
C  53.98800 39.14700 23.83800
N  49.80200 33.42000 24.85500
C  50.65500 33.97200 23.91900
C  50.65600 33.15500 22.58300
C  49.89300 31.85100 23.04800
C  49.32400 32.23200 24.45000
C  50.10700 33.97100 21.37500
C  50.90500 30.61300 23.27400
C  50.71400 29.35900 22.39300
N  48.21000 32.87000 27.06800
C  47.76400 31.79200 26.35000
C  46.71600 31.07000 27.13800
C  46.49600 31.91100 28.23100
C  47.45700 32.86800 28.21500
C  46.09000 29.78300 26.73100
C  45.72500 31.95000 29.47300
O  44.75900 31.29300 29.81500
C  46.36500 33.09900 30.31600
C  46.79600 32.40000 31.58500
O  47.79200 31.75600 31.78800
O  45.83200 32.71900 32.50300
C  45.89700 31.92800 33.73700
H  50.65500 38.20800 28.76100
H  51.86000 35.37300 23.04700
H  47.91800 30.62800 24.56600
H  47.12100 36.13100 30.96500
H  49.87300 37.11300 30.89500
H  48.80200 39.08600 30.76900
H  47.28500 38.39400 30.77700
H  48.04000 38.67900 29.18300
H  49.60300 35.85000 32.43100
H  49.10800 34.24800 32.19400
H  47.90100 34.44700 33.96400
H  46.72900 35.55000 33.13800
H  53.33900 39.51200 26.82900
H  51.80000 39.73000 27.60300
H  52.03100 40.36900 26.04200
H  53.47200 40.10700 23.84300
H  54.69400 39.05200 23.01400
H  54.42900 38.97600 24.82000
H  51.65700 32.79100 22.35100
H  49.10600 31.52200 22.36900
H  49.21500 33.43600 21.04800
H  50.86300 33.99000 20.59100
H  49.86400 34.99600 21.65600
H  50.75000 30.25600 24.29300
H  51.97100 30.82400 23.19200
H  51.64900 28.91200 22.05600
H  50.15200 29.55700 21.48000
H  50.16700 28.61600 22.97300
H  46.89000 29.04300 26.72500
H  45.52100 29.80300 25.80200
H  45.43900 29.46200 27.54300
H  45.59200 33.82000 30.58100
H  46.60900 31.10800 33.82700
H  44.93000 31.50000 33.99900
H  46.17200 32.65600 34.50100
Mg -2.88200 34.75800 26.99600
C  -4.79400 33.12400 29.43700
C  -1.77600 36.80500 29.47100
C  -1.12600 36.33800 24.58800
C  -4.32200 32.63500 24.58200
N  -3.41100 35.04200 29.26600
C  -4.11500 34.15300 30.01400
C  -3.82400 34.41700 31.56900
C  -2.86200 35.67400 31.56600
C  -2.60100 35.85600 30.01900
C  -3.36500 36.98000 32.27900
C  -3.19800 33.13000 32.35800
C  -3.97200 32.77700 33.61700
H  -3.10500 32.53500 34.90600
N  -1.59200 36.35300 27.00500
C  -1.30400 37.05900 28.12000
C  -0.41000 38.11600 27.70200
C  -0.16300 37.97300 26.28900
C  -0.94700 36.89400 25.88600
C  0.21100 39.14300 28.65500
C  0.64300 38.80600 25.35700
O  0.68700 38.59900 24.14200
C  1.35100 40.01000 25.78800
N  -2.89800 34.67000 24.78700
C  -1.95100 35.34000 24.01800
C  -1.81400 34.72500 22.60400
C  -2.89500 33.55400 22.65100
C  -3.34200 33.61400 24.10200
C  -2.16200 35.85500 21.51300
C  -2.23200 32.17200 22.22700
C  -3.17600 31.25300 21.34100
N  -4.41900 33.30200 26.91200
C  -4.87200 32.52800 25.85100
C  -5.74600 31.51900 26.44300
C  -5.76100 31.73800 27.81600
C  -4.90000 32.81900 28.05200
C  -6.56800 30.43000 25.71300
C  -6.31600 31.19600 28.94500
O  -7.03400 30.20800 29.12200
C  -5.75900 32.13600 30.13800
C  -6.97200 32.81100 30.75000
O  -7.55300 33.69900 30.22100
O  -7.29300 32.17300 31.97300
C  -8.38000 32.94100 32.64400
H  -1.31400 37.48300 30.19100
H  -0.68100 36.84000 23.72700
H  -4.73600 31.85500 23.93800
H  -4.79100 34.69900 31.98500
H  -1.93000 35.30400 31.99400
H  -2.47400 37.49200 32.64300
H  -4.00000 36.73800 33.13100
H  -3.88500 37.63300 31.57800
H  -2.16000 33.37200 32.58300
H  -3.14300 32.29800 31.65600
H  -4.51900 31.87700 33.33400
H  -4.68800 33.59200 33.72300
H  1.28500 38.96000 28.65100
H  -0.05800 38.97400 29.69800
H  0.02400 40.19000 28.41500
H  0.71200 40.79500 26.19100
H  1.88000 40.45300 24.94400
H  2.08500 39.57900 26.46900
H  -0.79700 34.38800 22.40100
H  -3.82100 33.65300 22.08400
H  -2.18700 36.83400 21.99200
H  -3.19900 35.66200 21.23800
H  -1.46300 35.63900 20.70500
H  -1.95100 31.50400 23.04100
H  -1.34000 32.32800 21.62100
H  -4.04900 31.75600 20.92700
H  -3.45300 30.44400 22.01800
H  -2.57400 30.76900 20.57200
H  -7.52000 30.26200 26.21500
H  -6.02700 29.48400 25.73500
H  -6.73800 30.65800 24.66100
H  -5.38700 31.38700 30.83700
H  -7.81600 33.69900 33.18800
H  -8.93700 32.31500 33.34100
H  -9.11300 33.51000 32.07400

