158

Mg -1.98100 16.98000 27.23700
C  -2.51500 14.86800 29.93500
C  -2.64300 19.61500 29.18700
C  -1.85900 18.95500 24.36300
C  -2.14000 14.16300 25.03100
N  -2.46800 17.22700 29.29200
C  -2.48100 16.21400 30.24900
C  -2.63400 16.84700 31.73300
C  -2.75100 18.40800 31.44500
C  -2.73600 18.42700 29.86500
C  -4.04600 19.07300 31.94600
C  -1.51200 16.31000 32.70100
C  -1.18000 17.29300 33.86000
H  -0.41300 16.68100 35.07100
N  -2.17900 18.99300 26.84500
C  -2.41000 19.93900 27.82300
C  -2.23600 21.28500 27.22300
C  -2.02200 21.11100 25.81000
C  -1.96600 19.60400 25.60700
C  -2.44900 22.59900 28.00300
C  -1.75000 22.20500 24.84200
O  -1.42800 21.97600 23.73700
C  -1.69700 23.72800 25.26400
N  -2.09500 16.61800 25.01500
C  -1.92200 17.62300 24.07100
C  -2.05000 17.12500 22.61000
C  -1.99100 15.59100 22.81600
C  -2.04100 15.43200 24.34300
C  -3.34100 17.63300 21.81800
C  -0.69900 14.88100 22.16600
C  0.70500 15.23900 22.65300
N  -2.14500 14.90600 27.37600
C  -2.20100 13.88900 26.45600
C  -2.38700 12.66700 27.11300
C  -2.54600 12.90400 28.49200
C  -2.33900 14.31800 28.57400
C  -2.54500 11.33900 26.38900
C  -2.70900 12.33700 29.81600
O  -2.85600 11.18000 30.15500
C  -2.76900 13.61900 30.82800
C  -1.64900 13.31000 31.85000
O  -0.45900 13.57100 31.64400
O  -2.04100 12.82300 33.08800
C  -1.08400 12.75600 34.23600
H  -2.65600 20.43900 29.90300
H  -1.85600 19.63400 23.50800
H  -2.31000 13.26900 24.42900
H  -3.56300 16.42200 32.11300
H  -1.83600 18.90900 31.76300
H  -3.68900 19.91400 32.54100
H  -4.66400 18.38700 32.52400
H  -4.73600 19.46300 31.19700
H  -0.59100 16.08500 32.16500
H  -1.85300 15.44200 33.26500
H  -2.01500 17.94900 34.10500
H  -0.48500 17.98700 33.38500
H  -1.71600 23.37500 27.78100
H  -2.45300 22.35400 29.06500
H  -3.42800 22.96700 27.69600
H  -1.77000 24.39600 24.40600
H  -0.74200 23.90000 25.76000
H  -2.56300 23.97700 25.87700
H  -1.11500 17.33900 22.09200
H  -2.90700 15.14200 22.43100
H  -3.89100 18.12600 22.62000
H  -3.88800 16.79800 21.38100
H  -3.09600 18.28000 20.97500
H  -0.89800 15.12000 21.12200
H  -0.93400 13.81600 22.16100
H  0.68700 16.15700 23.24000
H  1.47400 15.25300 21.88000
H  1.08400 14.43800 23.28700
H  -2.73600 11.51100 25.33000
H  -3.21000 10.62300 26.87200
H  -1.55900 10.87500 26.38100
H  -3.66200 13.61300 31.45400
H  -0.53800 13.69800 34.30200
H  -0.33400 11.98400 34.06800
H  -1.52900 12.50300 35.19800
Mg 35.16800 2.81700 30.41200
C  32.73400 3.81200 32.74700
C  37.51700 3.29100 32.91400
C  37.63800 2.48400 28.12600
C  32.87900 3.10000 27.88800
N  35.13200 3.49900 32.53900
C  33.99200 3.62600 33.30600
C  34.34900 3.78100 34.77000
C  35.94800 3.98200 34.85700
C  36.22600 3.51000 33.35500
C  36.56900 5.39900 35.20500
C  33.79600 2.69000 35.66100
C  33.88600 2.79700 37.19600
H  34.19300 4.10700 37.92600
N  37.27300 2.78400 30.54800
C  38.02200 2.95000 31.68300
C  39.43600 2.77900 31.30700
C  39.49800 2.39500 29.95700
C  38.07100 2.56100 29.46000
C  40.52400 2.89900 32.38500
C  40.65000 1.91800 29.08400
O  40.46700 1.42300 28.00800
C  42.05400 2.09400 29.60500
N  35.27000 2.74200 28.26900
C  36.35500 2.62700 27.56800
C  36.08200 2.38800 26.05700
C  34.54400 2.50400 26.04400
C  34.22100 2.87500 27.46700
C  36.76600 3.39000 25.08200
C  33.93600 1.14900 25.59500
C  32.58500 1.30600 24.88600
N  33.16300 3.30100 30.34200
C  32.41000 3.40600 29.17000
C  31.07500 3.81700 29.56900
C  31.09300 4.02100 30.96100
C  32.44000 3.77100 31.36900
C  29.84700 3.91300 28.71200
C  30.33400 4.37500 32.23100
O  29.26400 4.90200 32.37700
C  31.34100 4.13000 33.43000
C  31.40700 5.38200 34.13500
O  32.13000 6.34900 33.84000
O  30.60500 5.37300 35.24600
C  30.61200 6.46600 36.13600
H  38.28000 3.44500 33.68000
H  38.37900 2.35900 27.33400
H  32.06700 3.16700 27.16100
H  33.91900 4.72800 35.09500
H  36.38400 3.30500 35.59100
H  35.89700 5.85400 35.93200
H  36.53000 6.07700 34.35200
H  37.58700 5.27600 35.57500
H  34.32300 1.74900 35.50300
H  32.77000 2.54700 35.32100
H  34.51400 2.02500 37.64000
H  32.85700 2.55400 37.46100
H  40.31900 2.50500 33.38100
H  40.55400 3.97300 32.56900
H  41.58100 2.78600 32.14200
H  42.65300 1.96700 28.70400
H  42.32000 1.30000 30.30200
H  42.18700 3.06600 30.08000
H  36.46400 1.42300 25.72300
H  34.12500 3.29800 25.42500
H  36.80100 4.42700 25.41800
H  36.46900 3.40100 24.03300
H  37.80700 3.06700 25.09800
H  33.80200 0.49000 26.45300
H  34.55200 0.65900 24.84100
H  32.36800 2.31700 24.54200
H  31.74900 0.99100 25.51100
H  32.55700 0.56200 24.08900
H  29.05300 3.52800 29.35200
H  29.98700 3.23600 27.86900
H  29.64600 4.89400 28.28300
H  30.94600 3.32700 34.05200
H  30.24000 7.35900 35.63300
H  31.59500 6.64700 36.57200
H  29.99500 6.10000 36.95600

