158

Mg 35.47800 2.61000 30.09100
C  33.09700 3.73200 32.38000
C  37.80600 2.47000 32.64500
C  37.67800 1.69700 27.89600
C  33.09000 3.29600 27.53400
N  35.42900 3.12700 32.25300
C  34.34700 3.51200 32.95600
C  34.71100 3.57500 34.44900
C  36.20100 3.23400 34.53800
C  36.52300 2.99600 33.03600
C  37.06600 4.43800 35.01000
C  33.89300 2.63500 35.40400
C  33.55900 3.13400 36.81900
H  34.35400 4.18900 37.66000
N  37.45200 2.13900 30.25700
C  38.22100 2.01300 31.35900
C  39.48100 1.39800 31.10900
C  39.49700 1.25600 29.67700
C  38.14900 1.68900 29.20700
C  40.56000 1.11600 32.10200
C  40.56400 0.66700 28.81900
O  40.47900 0.47900 27.60900
C  41.90900 0.27900 29.46200
N  35.50700 2.80600 27.90600
C  36.44400 2.03800 27.32500
C  35.98700 1.78600 25.86400
C  34.57200 2.34200 25.69100
C  34.36700 2.80600 27.14700
C  36.98300 2.38200 24.74500
C  33.43700 1.37200 25.18200
C  33.30100 -0.09000 25.79700
N  33.48700 3.38300 29.87500
C  32.70100 3.55600 28.84500
C  31.37300 3.92200 29.32100
C  31.53000 3.94800 30.68500
C  32.84500 3.66700 30.97600
C  30.15200 3.94100 28.41200
C  30.75500 4.09900 31.91300
O  29.51000 4.32000 32.09300
C  31.78900 4.05600 33.04200
C  31.80700 5.40800 33.64700
O  32.50700 6.34600 33.27400
O  31.02400 5.34200 34.74000
C  31.18500 6.54000 35.63600
H  38.40300 2.44300 33.55900
H  38.26400 1.25900 27.08500
H  32.41000 3.50300 26.70600
H  34.50600 4.59200 34.78200
H  36.55600 2.39200 35.13200
H  36.63900 4.84900 35.92500
H  37.04200 5.08500 34.13300
H  38.06800 4.07200 35.23200
H  34.44800 1.69700 35.44000
H  32.93200 2.26800 35.04500
H  33.42500 2.28700 37.49200
H  32.59300 3.63800 36.79600
H  40.06600 1.25100 33.06400
H  41.43800 1.73500 31.92200
H  40.75400 0.06300 31.89700
H  42.31000 1.18900 29.90900
H  42.62200 0.00800 28.68300
H  41.83400 -0.58400 30.12300
H  36.00700 0.72200 25.62600
H  34.34500 3.19900 25.05700
H  36.37800 2.89500 23.99700
H  37.64200 1.64600 24.28600
H  37.57800 3.19500 25.16200
H  33.79200 1.16200 24.17300
H  32.49900 1.92100 25.26600
H  33.92100 -0.04600 26.69200
H  33.65700 -0.94900 25.23000
H  32.28000 -0.27200 26.13400
H  30.19700 3.20200 27.61200
H  29.90900 4.93200 28.03000
H  29.32700 3.59900 29.03700
H  31.34600 3.35100 33.74600
H  32.26000 6.63900 35.78700
H  30.70300 6.44000 36.60900
H  30.87600 7.47600 35.16900
Mg 17.40400 51.51400 26.11900
C  19.36800 50.01500 28.50900
C  15.00800 52.14300 28.28700
C  15.63800 52.94800 23.60300
C  19.82200 50.53900 23.64800
N  17.15200 50.85900 28.13600
C  18.16300 50.47500 28.98100
C  17.77000 50.80300 30.47800
C  16.19300 51.06300 30.35900
C  16.07300 51.36700 28.84900
C  15.27500 49.85400 30.85900
C  18.76000 51.87200 30.97100
C  18.49900 52.44400 32.41400
H  17.50200 51.80600 33.30600
N  15.63500 52.52900 26.01000
C  14.78600 52.63700 27.04100
C  13.60200 53.28200 26.61700
C  13.73400 53.47800 25.18500
C  15.05500 53.05300 24.90500
C  12.52600 53.65500 27.61100
C  12.72400 54.13200 24.27500
O  13.01300 54.48100 23.13400
C  11.28900 54.44600 24.74700
N  17.70200 51.58400 23.93500
C  16.79600 52.26400 23.18500
C  17.27700 52.46000 21.66900
C  18.70800 51.76100 21.72500
C  18.72900 51.23100 23.20100
C  16.28200 51.98800 20.54800
C  19.88900 52.60600 21.35200
C  20.84500 51.96500 20.30800
N  19.24800 50.43000 25.98800
C  20.08800 50.03500 24.94700
C  21.19700 49.27600 25.49600
C  20.96100 49.30300 26.91500
C  19.76600 49.93400 27.09600
C  22.27300 48.68900 24.70100
C  21.46200 48.81500 28.18000
O  22.41900 48.10200 28.46000
C  20.60300 49.42600 29.24400
C  20.28100 48.45400 30.33500
O  19.66200 47.41600 30.14700
O  20.53300 49.03500 31.53800
C  20.00900 48.35700 32.69800
H  14.22400 52.11100 29.04600
H  15.00400 53.30700 22.79000
H  20.57000 50.29800 22.89100
H  18.01300 49.89100 31.02300
H  16.00600 51.90400 31.02700
H  14.40100 50.21800 31.40000
H  15.87500 49.27000 31.55800
H  15.11600 49.28300 29.94500
H  18.84100 52.72400 30.29600
H  19.80400 51.60600 31.13800
H  18.28100 53.49900 32.25300
H  19.34800 52.53800 33.09100
H  12.15800 54.64000 27.32600
H  12.90100 53.67400 28.63400
H  11.76300 52.90500 27.39900
H  10.84700 53.69500 25.40200
H  10.74600 54.58000 23.81200
H  11.31700 55.40000 25.27300
H  17.36300 53.53900 21.54300
H  18.68600 50.89900 21.05800
H  16.86200 51.34600 19.88500
H  16.04900 52.86500 19.94500
H  15.41700 51.43400 20.91200
H  20.47400 52.92000 22.21600
H  19.50200 53.51000 20.88000
H  20.22600 51.41900 19.59700
H  21.46600 51.27600 20.88100
H  21.46400 52.66300 19.74500
H  22.73400 49.39000 24.00400
H  21.86800 47.79000 24.23700
H  23.10600 48.35400 25.32000
H  21.24400 50.20100 29.66500
H  20.23400 49.03600 33.52000
H  20.49100 47.50000 33.16700
H  18.94800 48.10600 32.66900

