158

Mg 49.81600 45.83200 41.56300
C  46.58400 46.00800 40.34300
C  49.97400 42.54300 40.73100
C  53.10700 45.80500 42.44400
C  49.66200 49.22700 42.11200
N  48.44200 44.48300 40.45100
C  47.13600 44.73800 40.16700
C  46.44900 43.38300 39.75700
C  47.40800 42.29800 40.34000
C  48.70000 43.16400 40.51800
C  47.03900 41.75900 41.72500
C  46.28800 43.24900 38.16800
C  44.83800 43.07500 37.66600
H  44.43400 43.88500 36.41800
N  51.41400 44.35100 41.56100
C  51.27600 43.07600 41.12100
C  52.55600 42.37600 41.14600
C  53.47600 43.35700 41.58700
C  52.65300 44.55400 41.90700
C  52.79500 40.88600 40.65900
C  54.96500 43.15300 41.68100
O  55.46300 42.12400 41.20600
C  55.88700 44.05800 42.33200
N  51.20300 47.31000 42.25700
C  52.52800 47.09300 42.61200
C  53.22600 48.35700 43.06300
C  52.05800 49.46600 42.89500
C  50.90600 48.57800 42.42000
C  53.72200 48.21800 44.55000
C  52.40400 50.61600 41.90000
C  52.02200 52.04500 42.43300
N  48.45000 47.37900 41.34700
C  48.50400 48.71100 41.60400
C  47.19600 49.34700 41.36800
C  46.38600 48.32700 40.86800
C  47.22100 47.18700 40.83300
C  46.73100 50.80400 41.66500
C  45.04600 47.96900 40.38700
O  43.99900 48.62600 40.31100
C  45.12400 46.37600 39.97800
C  44.03300 45.72200 40.75900
O  44.10200 45.14400 41.82800
O  42.84200 45.84700 40.08900
C  41.72100 45.14600 40.71600
H  49.94400 41.45400 40.66300
H  54.15400 45.80100 42.75400
H  49.65700 50.31600 42.19000
H  45.46100 43.40000 40.21700
H  47.51600 41.40700 39.72100
H  46.50600 40.82000 41.57400
H  46.54800 42.55300 42.28800
H  47.94300 41.53200 42.29000
H  46.85500 42.39600 37.79400
H  46.61900 44.16800 37.68400
H  44.08400 43.21800 38.44000
H  44.64600 42.03200 37.41500
H  53.43200 40.92300 39.77500
H  51.79500 40.51900 40.42900
H  53.25500 40.34200 41.48400
H  55.63900 44.23900 43.37800
H  55.78800 45.00300 41.79700
H  56.88200 43.61600 42.36600
H  54.04600 48.47100 42.35400
H  51.81800 49.95100 43.84100
H  54.29200 47.29100 44.62700
H  52.87500 48.15200 45.23200
H  54.38300 49.00800 44.90700
H  52.01900 50.51400 40.88500
H  53.48200 50.66100 41.74600
H  51.89500 52.77900 41.63700
H  52.82600 52.41100 43.07200
H  51.12900 51.97300 43.05300
H  46.13400 50.82100 42.57700
H  46.10000 51.25000 40.89500
H  47.62800 51.41800 41.58900
H  45.04000 46.31500 38.89300
H  41.63300 45.27700 41.79500
H  41.76100 44.08200 40.48400
H  40.79200 45.48200 40.25500
Mg 6.73400 53.66100 40.55600
C  6.20300 50.19800 40.35700
C  10.03800 53.12100 39.75100
C  7.10500 57.02700 40.04700
C  3.22600 54.03100 40.81800
N  7.89600 51.86400 39.94200
C  7.45600 50.58700 40.01500
C  8.60600 49.63700 39.62000
C  9.86800 50.55300 39.89700
C  9.26400 51.99500 39.92300
C  10.80500 50.15900 41.09100
C  8.67700 49.10700 38.16300
C  8.07900 50.02800 36.97600
H  7.13700 49.43800 35.92800
N  8.42400 54.90500 40.00200
C  9.71600 54.51100 39.79800
C  10.51600 55.67100 39.62800
C  9.63600 56.83100 39.63300
C  8.28700 56.28600 39.89900
C  12.04500 55.60600 39.30000
C  10.09200 58.18900 39.36400
O  11.28100 58.48600 39.11300
C  9.16800 59.44700 39.53400
N  5.29700 55.30500 40.09900
C  5.83100 56.59400 40.27500
C  4.66000 57.57100 40.48700
C  3.40800 56.66200 40.57300
C  4.01000 55.22100 40.53300
C  4.85600 58.48200 41.77000
C  2.44400 56.91900 39.41500
C  1.47100 58.08300 39.63500
N  4.97600 52.42300 40.63500
C  3.66200 52.68500 40.77900
C  2.97000 51.51400 40.92500
C  3.86700 50.48500 40.82000
C  5.08800 51.08200 40.48600
C  1.50400 51.39000 41.19200
C  4.00100 49.06900 40.92000
O  3.18400 48.19400 41.19000
C  5.58300 48.80000 40.65400
C  5.59300 47.75900 39.58300
O  5.24800 47.94300 38.44600
O  5.80100 46.47700 40.10800
C  5.70300 45.43100 39.18500
H  11.10400 52.88700 39.72300
H  7.25800 58.10000 39.91600
H  2.18400 54.27700 41.02800
H  8.53200 48.82200 40.33900
H  10.46500 50.56500 38.98500
H  11.52300 49.36100 40.89900
H  10.08200 49.76500 41.80400
H  11.40300 51.00200 41.43900
H  8.33900 48.07200 38.21500
H  9.73400 49.10800 37.89700
H  8.91600 50.40500 36.38900
H  7.52800 50.89000 37.35200
H  12.17900 56.03100 38.30500
H  12.30200 54.55800 39.14800
H  12.72800 56.01600 40.04300
H  9.71400 60.37200 39.35000
H  8.86000 59.41600 40.57900
H  8.37200 59.41700 38.78900
H  4.60900 58.17200 39.58000
H  2.92000 56.76200 41.54300
H  5.83100 58.96700 41.73800
H  4.70500 57.89400 42.67600
H  4.14400 59.30400 41.69800
H  1.85400 56.00200 39.42800
H  3.03800 57.13800 38.52800
H  0.46600 57.66200 39.66500
H  1.68100 58.76800 38.81400
H  1.47600 58.59100 40.60000
H  1.12800 52.36700 41.49600
H  1.25000 50.73800 42.02800
H  0.98700 51.06200 40.29100
H  5.84300 48.35700 41.61500
H  6.11200 45.71700 38.21600
H  4.67700 45.08100 39.07400
H  6.30700 44.54700 39.39300

