158

Mg 46.74300 17.21600 28.05600
C  44.85400 16.56000 30.96800
C  49.00900 18.87600 29.94600
C  48.34000 18.14700 25.24000
C  44.21000 15.74900 26.06200
N  46.93400 17.71100 30.19100
C  46.09700 17.21600 31.19700
C  46.46500 17.76100 32.55000
C  47.82400 18.58900 32.22300
C  47.91000 18.40600 30.72700
C  47.79100 20.06500 32.82000
C  46.64800 16.65800 33.65200
C  45.98600 16.92400 34.98800
H  45.88500 18.31500 35.57900
N  48.37600 18.41500 27.66900
C  49.23700 18.86000 28.59400
C  50.37600 19.46700 27.91300
C  50.17300 19.40400 26.53400
C  48.95600 18.63300 26.42000
C  51.57400 19.98500 28.72400
C  50.93400 20.02500 25.35800
O  50.67900 19.78300 24.17500
C  51.97300 21.05300 25.71400
N  46.26000 17.06700 25.99300
C  47.21400 17.43500 25.08200
C  46.66400 17.16500 23.62800
C  45.57600 16.19100 23.92100
C  45.37700 16.28600 25.43500
C  46.34300 18.38000 22.78000
C  45.73500 14.72500 23.52500
C  44.86000 14.14400 22.43900
N  44.92200 16.21500 28.39500
C  43.94400 15.75700 27.50800
C  42.87000 15.22100 28.26100
C  43.16500 15.49900 29.64400
C  44.39000 16.10600 29.64300
C  41.76300 14.41400 27.72300
C  42.70800 15.33000 31.02100
O  41.71400 14.77300 31.42700
C  43.75100 16.04500 31.87900
C  42.97800 17.19700 32.48500
O  42.37400 18.08800 31.82700
O  42.94200 17.09600 33.80800
C  42.10000 18.12000 34.51500
H  49.69000 19.44600 30.58100
H  48.71200 18.46900 24.26500
H  43.34400 15.39400 25.50000
H  45.76500 18.45100 33.02200
H  48.73300 18.11500 32.59200
H  48.56200 20.18800 33.58100
H  46.81300 20.28500 33.24800
H  48.10200 20.71800 32.00400
H  47.71600 16.50800 33.81000
H  46.10600 15.74500 33.40700
H  46.55700 16.24200 35.61900
H  44.98200 16.49800 35.00700
H  51.38100 20.95900 29.17400
H  52.51100 20.07300 28.17500
H  51.76400 19.35200 29.59100
H  52.15800 21.77100 24.91500
H  52.90300 20.52500 25.92600
H  51.70300 21.67900 26.56400
H  47.56200 16.77000 23.15200
H  44.59400 16.44700 23.52400
H  47.28900 18.60500 22.28800
H  45.91400 19.17000 23.39700
H  45.71600 18.21100 21.90500
H  45.60100 13.98200 24.31200
H  46.77400 14.57500 23.23000
H  44.39500 13.25200 22.86000
H  45.48600 13.81800 21.60900
H  43.99900 14.77100 22.20500
H  40.97300 14.98500 27.23400
H  41.19700 13.92500 28.51600
H  42.14900 13.73500 26.96300
H  44.02800 15.34400 32.66600
H  42.54000 19.05800 34.17600
H  42.27900 18.02700 35.58600
H  41.09200 17.85600 34.19400
Mg 48.83900 35.37000 28.37200
C  46.70700 33.93500 30.75500
C  49.12300 38.11600 30.54900
C  50.56000 37.03100 26.06200
C  47.92800 32.92600 26.17400
N  48.01800 35.95800 30.38200
C  47.36500 35.04800 31.22100
C  47.30000 35.61000 32.66100
C  47.47500 37.10300 32.35200
C  48.25600 37.09600 31.05300
C  46.05000 37.79300 32.30500
C  48.41100 34.80500 33.39600
C  49.32600 35.52900 34.45900
H  48.69900 36.19200 35.68500
N  49.88500 37.34900 28.35800
C  49.81700 38.31600 29.36900
C  50.69100 39.34600 28.90200
C  51.12200 39.07800 27.53400
C  50.49800 37.79300 27.24100
C  51.12200 40.51800 29.92500
C  51.96300 39.84400 26.68300
O  52.08400 39.56600 25.49800
C  52.54300 41.19100 27.11200
N  49.04600 35.07900 26.37400
C  50.00600 35.81300 25.67200
C  50.54100 34.99500 24.40400
C  49.64200 33.79900 24.41000
C  48.86100 33.85200 25.73900
C  50.49500 35.77500 23.07300
C  50.34700 32.47400 24.28700
C  50.71300 32.15300 22.84400
N  47.60300 33.63000 28.43600
C  47.27800 32.67800 27.41700
C  46.45000 31.69900 27.97600
C  46.14800 32.14100 29.29400
C  46.85800 33.32600 29.54700
C  45.95800 30.49700 27.35900
C  45.37600 31.82800 30.50800
O  44.68200 30.83300 30.79300
C  45.57400 33.13900 31.39300
C  45.69000 32.73300 32.79500
O  46.43800 31.95000 33.30600
O  44.74000 33.38800 33.55100
C  44.77000 33.07200 34.96700
H  49.33600 38.87100 31.30900
H  51.20300 37.44800 25.28400
H  47.70300 32.19300 25.39700
H  46.29900 35.32200 32.98100
H  48.03200 37.61300 33.13800
H  45.24000 37.08200 32.46100
H  45.79400 38.42800 31.45700
H  46.02600 38.49500 33.13900
H  49.17200 34.30300 32.79900
H  47.91500 34.07200 34.03300
H  49.84400 36.32600 33.92500
H  50.13800 34.87600 34.77700
H  52.20100 40.59400 30.05800
H  50.92000 40.25100 30.96200
H  50.64600 41.49200 29.81200
H  51.75200 41.92400 27.27400
H  53.21700 41.44400 26.29300
H  53.29900 40.96300 27.86300
H  51.56700 34.72800 24.65600
H  48.89700 33.86600 23.61700
H  51.51600 36.00800 22.77000
H  50.03000 36.72400 23.34100
H  49.86500 35.29200 22.32600
H  49.71500 31.71400 24.74600
H  51.26300 32.25400 24.83500
H  50.36400 32.85200 22.08400
H  50.54900 31.09900 22.62000
H  51.80200 32.19000 22.81500
H  46.70000 29.70800 27.47700
H  45.62400 30.82900 26.37600
H  45.06700 30.23500 27.92900
H  44.65000 33.71500 31.37100
H  44.72200 32.01600 35.23600
H  44.10800 33.69200 35.57000
H  45.75000 33.39500 35.32000

