158

Mg 1.66700 -1.49500 43.80400
C  5.06200 -0.79100 43.17000
C  0.70400 1.04600 41.83600
C  -1.36200 -2.95500 43.63500
C  2.84500 -4.59800 45.48600
N  2.80200 -0.05500 42.69700
C  4.15600 0.06300 42.57200
C  4.49500 1.28400 41.73600
C  3.09100 1.94400 41.36900
C  2.11200 0.92800 41.98700
C  3.02700 3.33000 42.05400
C  5.36700 1.11500 40.46500
C  6.38100 2.25900 40.01400
H  6.09200 3.09800 38.68400
N  -0.11500 -0.91400 43.06200
C  -0.36700 0.21400 42.30700
C  -1.73000 0.41900 42.17400
C  -2.33300 -0.71500 42.75300
C  -1.25000 -1.62000 43.18100
C  -2.23100 1.79000 41.68500
C  -3.80900 -0.86600 42.83200
O  -4.64500 -0.08700 42.28700
C  -4.48900 -1.95800 43.61200
N  0.84500 -3.54000 44.52800
C  -0.42500 -3.80500 44.24000
C  -0.81100 -5.13600 44.84300
C  0.52700 -5.75000 45.52000
C  1.51900 -4.63900 45.08500
C  -2.05600 -5.15900 45.72700
C  1.05400 -7.17200 45.18400
C  1.26400 -8.03800 46.47400
N  3.49800 -2.51000 44.28400
C  3.72800 -3.66000 44.93900
C  5.20500 -3.77300 45.05700
C  5.77000 -2.69700 44.44100
C  4.64300 -1.98600 43.96100
C  5.92600 -4.88600 45.72900
C  6.97300 -1.89500 44.16700
O  8.13100 -2.09800 44.46500
C  6.60300 -0.70400 43.24400
C  6.92700 0.53400 43.99600
O  6.47700 0.91500 45.10200
O  7.75500 1.31900 43.12000
C  8.24600 2.63500 43.66300
H  0.31400 1.86600 41.23000
H  -2.38700 -3.33200 43.63400
H  3.16000 -5.50600 46.00600
H  5.17400 1.84400 42.37900
H  2.89000 2.09800 40.30900
H  3.99300 3.58700 42.49000
H  2.22100 3.39500 42.78500
H  2.71500 4.00000 41.25300
H  4.75100 0.90000 39.59200
H  5.93200 0.19100 40.58600
H  7.34700 1.78500 39.84100
H  6.35300 2.93100 40.87200
H  -3.24800 1.71200 41.30200
H  -1.64800 2.06700 40.80700
H  -2.15200 2.51700 42.49400
H  -3.88800 -2.17100 44.49600
H  -4.44200 -2.81500 42.94000
H  -5.50700 -1.77100 43.95300
H  -0.90200 -5.73300 43.93500
H  0.54100 -5.62400 46.60300
H  -2.63600 -4.23800 45.66800
H  -1.80700 -5.43500 46.75100
H  -2.74900 -5.83800 45.22900
H  1.91300 -7.28400 44.52200
H  0.25600 -7.56200 44.55300
H  2.18400 -8.59100 46.28300
H  0.38300 -8.67400 46.56800
H  1.42000 -7.46700 47.38900
H  5.55300 -5.03800 46.74200
H  7.00600 -4.73900 45.72100
H  5.71900 -5.82400 45.21500
H  7.11700 -0.64400 42.28500
H  9.33200 2.66400 43.75900
H  7.91800 2.89300 44.67000
H  7.91900 3.51800 43.11500
Mg 17.74800 -1.36200 27.81400
C  16.20900 0.55600 30.35700
C  19.43200 -3.18900 29.97000
C  18.95700 -2.97000 25.14500
C  15.99800 0.79500 25.52700
N  17.89800 -1.08400 29.89700
C  17.09600 -0.47800 30.77400
C  17.34800 -0.87200 32.18900
C  18.43800 -1.98700 32.00300
C  18.66000 -2.12300 30.47500
C  19.76900 -1.70900 32.82200
C  16.12900 -1.39900 32.97200
C  15.96200 -0.75200 34.37900
H  17.25200 -0.46400 35.17600
N  19.10900 -2.88100 27.60000
C  19.65000 -3.56800 28.67500
C  20.51300 -4.57500 28.11300
C  20.40800 -4.54700 26.71000
C  19.40100 -3.47500 26.43800
C  21.27700 -5.51400 29.00100
C  21.12500 -5.34900 25.56300
O  20.88900 -5.24800 24.34300
C  22.23000 -6.23700 25.99800
N  17.66300 -0.99100 25.62400
C  18.19100 -1.88100 24.79600
C  18.16100 -1.39300 23.36400
C  16.97800 -0.30000 23.43600
C  16.80700 -0.21400 24.93600
C  19.37400 -0.77100 22.74100
C  15.67500 -0.65800 22.67700
C  15.19600 0.31000 21.62800
N  16.38000 0.33900 27.88500
C  15.80400 1.08200 26.86200
C  14.96400 2.14300 27.41900
C  15.09400 2.00900 28.84000
C  15.89200 0.85400 29.01600
C  14.07100 3.10200 26.64100
C  14.69500 2.62700 30.12600
O  14.04200 3.66800 30.37000
C  15.33600 1.60900 31.14200
C  16.19000 2.35400 32.09800
O  17.40100 2.25100 32.14900
O  15.39900 3.07400 32.97500
C  16.16300 3.66500 34.09800
H  19.99800 -3.68500 30.76100
H  19.19500 -3.73700 24.40500
H  15.57000 1.49300 24.80400
H  17.72700 0.01900 32.69000
H  17.98800 -2.91900 32.34700
H  19.50600 -0.97800 33.58700
H  20.57900 -1.43000 32.14900
H  20.13200 -2.61100 33.31400
H  16.19200 -2.45800 33.22200
H  15.22700 -1.30900 32.36600
H  15.39500 -1.47100 34.96900
H  15.28400 0.07700 34.17500
H  20.95900 -6.54600 28.85000
H  21.14300 -5.36700 30.07300
H  22.34800 -5.42900 28.81800
H  21.72400 -6.99300 26.59800
H  23.11100 -5.69600 26.34400
H  22.71600 -6.72200 25.15100
H  17.86500 -2.22800 22.72900
H  17.41600 0.65700 23.15300
H  19.85700 -1.42100 22.01200
H  20.04600 -0.66500 23.59300
H  19.35000 0.19300 22.23300
H  14.88400 -0.78800 23.41500
H  15.84200 -1.59400 22.14500
H  14.15600 0.63600 21.62800
H  15.39600 -0.16200 20.66500
H  15.76100 1.23500 21.74000
H  13.61000 2.56400 25.81300
H  14.77300 3.87100 26.31900
H  13.24700 3.46100 27.25900
H  14.58700 1.03100 31.68300
H  17.01100 3.04100 34.37900
H  15.56200 3.74600 35.00400
H  16.64000 4.59300 33.78300

