158

Mg 24.59600 -6.99900 46.98900
C  26.95600 -4.50900 45.86700
C  22.21700 -5.39500 45.13800
C  22.65900 -9.57100 47.62900
C  27.37200 -8.72000 48.22300
N  24.66800 -5.08900 45.67800
C  25.69200 -4.35800 45.26100
C  25.33500 -3.33300 44.13600
C  23.76500 -3.56200 44.03700
C  23.54800 -4.76700 44.99600
C  22.95000 -2.30900 44.40500
C  26.11800 -3.56400 42.79000
C  27.14600 -2.45100 42.19900
H  27.04400 -2.04300 40.62800
N  22.64900 -7.40300 46.58000
C  21.83200 -6.60800 45.80100
C  20.56700 -7.21600 45.71600
C  20.62400 -8.38900 46.50500
C  21.99000 -8.51700 46.97200
C  19.32900 -6.62800 44.97500
C  19.53100 -9.39400 46.65800
O  18.37700 -9.12500 46.26800
C  19.70400 -10.80400 47.30400
N  24.96200 -8.88600 47.78200
C  23.95600 -9.79000 48.01700
C  24.52200 -11.05900 48.70100
C  26.09000 -10.81200 48.63800
C  26.13500 -9.41100 48.13900
C  24.06400 -11.16700 50.14300
C  26.94700 -11.84500 47.84300
C  27.32300 -13.13900 48.61400
N  26.71000 -6.66000 47.16700
C  27.71300 -7.44700 47.74600
C  28.94200 -6.80800 47.80300
C  28.67700 -5.62700 47.06100
C  27.34100 -5.58100 46.65900
C  30.23400 -7.24300 48.36700
C  29.25400 -4.40600 46.55400
O  30.27800 -3.83700 46.83300
C  28.20400 -3.69100 45.65000
C  27.99200 -2.36400 46.33000
O  27.50700 -2.06100 47.37700
O  28.32000 -1.43200 45.39900
C  28.02900 -0.06200 45.68200
H  21.44400 -4.96700 44.49600
H  21.93800 -10.33100 47.93500
H  28.26500 -9.27800 48.51400
H  25.61100 -2.37200 44.57000
H  23.41100 -3.88700 43.05900
H  23.33800 -1.53300 43.74500
H  23.02700 -2.10000 45.47200
H  21.88300 -2.37900 44.19300
H  25.35200 -3.80200 42.05200
H  26.70000 -4.45900 43.01200
H  28.16400 -2.81000 42.35000
H  27.14600 -1.50100 42.73400
H  19.16800 -7.05800 43.98700
H  19.42500 -5.56000 44.77700
H  18.43600 -6.71900 45.59300
H  18.75900 -11.31900 47.13000
H  19.76500 -10.67400 48.38400
H  20.50300 -11.39000 46.84900
H  24.29800 -11.93400 48.09000
H  26.61300 -10.87900 49.59200
H  24.39100 -12.11400 50.57200
H  22.97600 -11.22800 50.16000
H  24.35500 -10.28100 50.70800
H  27.90400 -11.45700 47.49600
H  26.41200 -12.16600 46.94900
H  26.75600 -13.27200 49.53600
H  28.37800 -13.16800 48.88500
H  27.05900 -13.91900 47.90000
H  30.74700 -6.32000 48.63600
H  30.75700 -7.73000 47.54300
H  30.13800 -7.95700 49.18500
H  28.61800 -3.62800 44.64400
H  26.99800 0.23200 45.48600
H  28.66400 0.53700 45.02900
H  28.33000 0.17000 46.70300
Mg 26.89000 50.68200 26.60800
C  24.92900 51.77900 29.23300
C  29.21500 49.56500 28.87000
C  29.08000 50.17600 24.09200
C  24.54600 51.93800 24.24200
N  26.98700 50.64200 28.83300
C  26.06800 51.11800 29.69700
C  26.44300 50.83600 31.17500
C  27.88200 50.23600 31.06600
C  28.01300 50.09700 29.49400
C  29.01400 51.26100 31.64500
C  25.43400 49.86500 31.89000
C  24.51200 50.55900 32.88200
H  24.52000 49.95200 34.25600
N  28.85700 50.03900 26.53500
C  29.58300 49.57300 27.54300
C  30.86300 49.10200 27.14000
C  30.96500 49.37200 25.74000
C  29.61100 49.89900 25.31800
C  31.92700 48.60200 28.11300
C  32.09200 49.14800 24.80800
O  31.98400 49.35800 23.59900
C  33.32600 48.58300 25.26000
N  26.79300 51.06000 24.43000
C  27.82400 50.57700 23.68000
C  27.43100 50.61000 22.12600
C  25.91300 51.15100 22.20100
C  25.69100 51.33900 23.74700
C  28.23300 51.45400 21.18100
C  24.77100 50.29600 21.60500
C  24.08200 50.91800 20.39600
N  25.10800 51.63900 26.65300
C  24.22800 52.05400 25.65700
C  23.07100 52.64700 26.28800
C  23.32500 52.62000 27.66000
C  24.52200 51.93900 27.85900
C  21.91300 53.24800 25.51900
C  22.80700 53.01400 29.00000
O  21.82500 53.53900 29.29600
C  23.90700 52.53500 29.98200
C  24.45600 53.72200 30.65000
O  25.19200 54.54700 30.16500
O  23.87800 53.81500 31.89100
C  23.92400 55.19700 32.55200
H  29.92200 49.31300 29.66300
H  29.86100 50.15200 23.32900
H  23.85200 52.12300 23.41900
H  26.40400 51.82300 31.63700
H  28.02000 49.26700 31.54600
H  28.63800 52.02300 32.32800
H  29.59500 51.68500 30.82600
H  29.68900 50.75300 32.33300
H  26.05100 49.07300 32.31400
H  24.75200 49.53300 31.10700
H  23.49800 50.45700 32.49600
H  24.75600 51.61500 33.00200
H  31.92500 49.07500 29.09500
H  32.93600 48.84000 27.77700
H  31.86900 47.51300 28.10600
H  33.95400 49.25600 25.84300
H  33.83500 48.18900 24.38100
H  33.04200 47.71900 25.86200
H  27.40800 49.59600 21.72700
H  25.72300 52.14300 21.79000
H  29.28200 51.40700 21.47400
H  27.97800 52.51200 21.12000
H  28.10100 50.92900 20.23500
H  24.02300 50.18600 22.39100
H  25.22800 49.33000 21.39000
H  22.99500 50.95700 20.47000
H  24.40100 50.27600 19.57500
H  24.35600 51.96100 20.23800
H  21.47000 52.61000 24.75400
H  22.13000 54.09700 24.87100
H  21.14000 53.44300 26.26200
H  23.54100 51.87800 30.77100
H  23.84500 55.86800 31.69700
H  24.84700 55.37400 33.10500
H  23.03700 55.20500 33.18600

