158

Mg 1.87900 -2.48500 43.63300
C  5.19800 -1.75000 42.85700
C  0.81500 0.31000 42.06200
C  -1.18100 -3.60600 44.12400
C  3.08900 -5.79300 44.67100
N  2.89500 -1.13400 42.30600
C  4.25500 -0.87400 42.23100
C  4.55500 0.37800 41.33800
C  3.15800 1.05200 41.27500
C  2.20500 0.00900 41.92700
C  3.06400 2.53900 41.86600
C  5.16400 -0.02000 39.96200
C  6.46200 0.77500 39.54700
H  6.65100 1.36800 38.12900
N  0.04600 -1.64600 43.32700
C  -0.19000 -0.45500 42.68500
C  -1.60800 -0.30500 42.57800
C  -2.27400 -1.40700 43.27800
C  -1.10800 -2.30500 43.61800
C  -2.15300 0.86600 41.88000
C  -3.73100 -1.51100 43.53400
O  -4.51100 -0.66600 43.10400
C  -4.26200 -2.71900 44.32100
N  1.08400 -4.40400 44.37800
C  -0.17800 -4.52500 44.50300
C  -0.61900 -5.99500 44.86300
C  0.69200 -6.75400 45.02200
C  1.69900 -5.64300 44.64200
C  -1.64300 -6.14100 46.09400
C  0.82100 -8.13500 44.27700
C  1.52300 -9.30800 44.93500
N  3.80600 -3.59500 43.64200
C  4.06600 -4.90200 44.10700
C  5.51200 -5.04300 44.15100
C  6.06400 -3.81400 43.67700
C  4.97400 -3.00800 43.42000
C  6.27700 -6.19200 44.68700
C  7.26100 -2.94200 43.48500
O  8.45400 -3.16800 43.65700
C  6.72700 -1.61900 42.89500
C  7.11600 -0.57400 43.86100
O  6.83200 -0.64100 45.04500
O  7.83000 0.36400 43.17600
C  8.38700 1.55200 43.88200
H  0.46000 1.31100 41.80800
H  -2.20400 -3.98500 44.16200
H  3.53900 -6.75400 44.93000
H  5.22400 1.07100 41.84700
H  2.74100 1.24500 40.28700
H  2.63700 3.17800 41.09300
H  4.00300 2.97300 42.21300
H  2.39500 2.61600 42.72400
H  4.42700 0.07900 39.16500
H  5.30200 -1.10100 39.92900
H  7.18500 -0.03700 39.62400
H  6.66500 1.53000 40.30600
H  -1.47500 1.41200 41.22400
H  -2.51400 1.60500 42.59600
H  -3.05000 0.62400 41.30900
H  -5.27100 -2.55200 44.69600
H  -3.65800 -2.91300 45.20700
H  -4.35000 -3.50600 43.57100
H  -1.14200 -6.37000 43.98300
H  0.82600 -6.89800 46.09500
H  -1.36500 -7.08200 46.56900
H  -2.70200 -6.07000 45.84400
H  -1.46500 -5.42600 46.89700
H  1.41100 -7.88000 43.39600
H  -0.22000 -8.33600 44.02300
H  0.91600 -10.21300 44.89800
H  1.73900 -9.14400 45.99000
H  2.41100 -9.49600 44.33200
H  7.24100 -5.71500 44.86300
H  6.46500 -6.94900 43.92500
H  5.77500 -6.54900 45.58600
H  7.24100 -1.43400 41.95200
H  9.33100 1.87400 43.44400
H  8.49500 1.25600 44.92500
H  7.64600 2.35100 43.92800
Mg 48.46500 46.29400 43.52900
C  45.33900 46.69300 42.37800
C  48.48600 43.20600 42.14900
C  51.82300 46.24300 44.22100
C  48.54700 49.62800 44.68700
N  47.09100 45.28200 42.23000
C  45.81400 45.49700 41.89000
C  45.14600 44.45500 40.97600
C  46.09900 43.28500 41.20600
C  47.30300 43.94200 41.96800
C  45.43600 42.04400 41.94000
C  44.99100 44.77200 39.41500
C  43.62200 44.47900 38.85200
H  43.65100 43.40700 37.82800
N  49.94600 44.89700 43.24900
C  49.76800 43.69600 42.63400
C  51.06900 43.03200 42.55000
C  52.03800 43.83100 43.18900
C  51.34600 45.03100 43.54500
C  51.22800 41.72200 41.81600
C  53.52700 43.46100 43.36300
O  54.08500 42.53400 42.83800
C  54.29400 44.23800 44.29500
N  49.97900 47.77300 44.39400
C  51.22100 47.42600 44.64300
C  52.07500 48.49400 45.24600
C  51.06600 49.72300 45.25300
C  49.79400 49.07400 44.73200
C  52.69800 48.14800 46.58300
C  51.43500 51.00300 44.35800
C  51.10500 52.35100 45.06900
N  47.26700 47.83600 43.65300
C  47.37400 49.04700 44.18100
C  46.08100 49.74700 44.15300
C  45.27000 48.86200 43.45200
C  46.00300 47.71800 43.20300
C  45.80600 51.14700 44.72100
C  43.91800 48.66100 43.00100
O  42.93400 49.39300 43.03000
C  43.95200 47.29500 42.26700
C  42.88700 46.43700 42.79900
O  42.89200 45.69600 43.79600
O  41.84300 46.52100 41.91700
C  40.81900 45.50600 42.27300
H  48.47100 42.17700 41.78500
H  52.87100 46.31600 44.51900
H  48.49200 50.66900 45.01200
H  44.18800 44.27900 41.46600
H  46.37100 42.82700 40.25500
H  44.43700 41.85500 41.54800
H  45.44600 42.15600 43.02400
H  46.05200 41.15100 41.82600
H  45.67600 44.22200 38.76900
H  45.16300 45.83900 39.27400
H  43.06000 45.31600 38.43700
H  43.03000 44.11500 39.69200
H  52.16800 41.78000 41.26700
H  50.45300 41.45000 41.10000
H  51.17600 40.89500 42.52500
H  53.60500 44.53300 45.08600
H  54.68100 45.06800 43.70500
H  55.11400 43.62900 44.67600
H  52.81800 48.60300 44.45600
H  50.79800 49.95500 46.28400
H  53.66700 47.66600 46.45100
H  52.03800 47.45800 47.10900
H  53.01700 49.05400 47.09700
H  50.96900 50.79700 43.39400
H  52.51600 50.93300 44.23600
H  50.74600 52.99300 44.26500
H  52.07600 52.68000 45.44100
H  50.30800 52.28400 45.81000
H  46.30400 51.19900 45.68900
H  44.73600 51.33700 44.80500
H  46.21200 51.95500 44.11200
H  43.71400 47.43100 41.21200
H  40.16900 45.82500 43.08800
H  41.24200 44.52400 42.48400
H  40.23600 45.52200 41.35200

