158

Mg 26.15500 0.57100 29.10700
C  27.84900 -0.04100 32.07100
C  23.25800 0.93300 30.92100
C  24.50600 0.83900 26.13300
C  29.07700 -0.32700 27.26900
N  25.64900 0.57300 31.33300
C  26.49100 0.34800 32.32200
C  25.80400 0.80900 33.72800
C  24.34900 0.92900 33.30100
C  24.36500 0.78700 31.75200
C  23.30700 0.04600 34.02300
C  26.41500 2.03700 34.44800
C  26.22900 2.19000 35.99200
H  27.37000 2.49400 36.91700
N  24.19800 0.89800 28.63700
C  23.12500 0.91000 29.50100
C  21.86700 1.15000 28.72000
C  22.18800 1.14600 27.36400
C  23.67300 0.96800 27.36200
C  20.50700 1.15400 29.44400
C  21.33200 1.20000 26.12200
O  21.75500 1.05600 24.97000
C  19.84700 1.33800 26.22100
N  26.78900 0.42700 26.97100
C  25.90000 0.54000 25.96600
C  26.46900 0.11400 24.54800
C  27.99000 -0.01000 24.95700
C  27.98100 -0.02200 26.46900
C  25.80500 -1.11200 23.97600
C  28.83500 1.20300 24.36000
C  30.28200 0.85200 24.08500
N  27.99600 -0.23000 29.53900
C  29.08800 -0.47600 28.69600
C  30.24500 -0.83600 29.44900
C  29.84200 -0.60200 30.80200
C  28.47500 -0.34000 30.79000
C  31.67700 -1.15500 28.91800
C  30.19600 -0.56800 32.21500
O  31.26800 -0.73700 32.75900
C  28.94600 -0.18900 33.04000
C  28.61600 -1.27500 33.98700
O  28.00300 -2.28300 33.68000
O  29.05400 -0.99400 35.26300
C  28.91300 -2.09000 36.23500
H  22.38000 1.25200 31.48600
H  24.12900 1.01800 25.12400
H  30.00000 -0.67200 26.79900
H  25.84000 -0.08100 34.35700
H  24.00200 1.93700 33.53000
H  22.79700 0.78300 34.64200
H  23.70600 -0.78400 34.60700
H  22.71600 -0.45200 33.25500
H  25.87500 2.84300 33.95200
H  27.47500 2.07500 34.19500
H  25.82600 1.21200 36.25600
H  25.45800 2.93300 36.19400
H  19.78400 1.82600 28.98100
H  20.65600 1.52400 30.45900
H  20.17800 0.11900 29.53200
H  19.61500 2.34000 26.58100
H  19.40500 0.45700 26.68600
H  19.35400 1.28600 25.25000
H  26.32800 0.97200 23.89100
H  28.44300 -0.92300 24.57100
H  24.97500 -1.44600 24.59800
H  26.53000 -1.90400 23.78700
H  25.46600 -0.87100 22.96800
H  28.89100 1.96100 25.14100
H  28.41500 1.55500 23.41800
H  31.00000 1.66300 24.20800
H  30.42700 0.34800 23.13000
H  30.58800 0.02900 24.73200
H  31.56200 -1.82300 28.06500
H  32.28700 -1.56900 29.72200
H  32.09800 -0.21500 28.55900
H  29.10800 0.73200 33.59900
H  28.06300 -2.74600 36.04500
H  28.79800 -1.63700 37.21900
H  29.79800 -2.72600 36.22000
Mg 16.54600 51.31300 24.72500
C  18.20600 50.30100 27.69500
C  14.06900 52.54100 26.68000
C  14.93400 52.19400 21.81500
C  19.06400 49.98100 23.00400
N  16.17000 51.46200 26.95800
C  17.03400 51.03800 27.97000
C  16.52300 51.43900 29.34900
C  15.06400 51.82900 28.91600
C  15.05600 51.93900 27.43300
C  13.83500 50.92700 29.44300
C  17.33200 52.58500 29.99900
C  17.42400 52.60000 31.55300
H  16.31100 51.84900 32.23300
N  14.79300 52.32000 24.27200
C  13.90100 52.73800 25.21400
C  12.80400 53.32100 24.59400
C  13.03100 53.25600 23.17500
C  14.26200 52.61300 23.00700
C  11.60500 53.92800 25.29400
C  12.26600 53.81700 21.99100
O  12.70100 53.78000 20.90300
C  10.97700 54.47300 22.14700
N  16.87300 51.02200 22.73100
C  16.12300 51.45300 21.71800
C  16.73900 51.07300 20.36300
C  18.17000 50.65700 20.69200
C  18.02100 50.53800 22.23200
C  16.08600 50.04800 19.41000
C  19.29700 51.63100 20.31200
C  20.35500 51.05100 19.31900
N  18.22000 50.22000 25.18200
C  19.21000 49.76500 24.34700
C  20.27700 49.11400 25.02500
C  19.91000 49.34000 26.35500
C  18.66400 49.96600 26.39700
C  21.61100 48.61400 24.57500
C  20.32200 49.16200 27.75600
O  21.33600 48.59100 28.18500
C  19.16100 49.69800 28.67200
C  18.61100 48.56800 29.46600
O  18.15200 47.48200 29.10200
O  18.74300 48.95400 30.77000
C  18.42400 47.91700 31.83900
H  13.29400 52.95600 27.32800
H  14.51100 52.43500 20.83700
H  19.92400 49.59800 22.45000
H  16.54600 50.59600 30.03900
H  14.92300 52.83200 29.32000
H  13.30700 51.56500 30.15200
H  14.26500 50.16400 30.09100
H  13.33200 50.51500 28.56900
H  16.96000 53.57100 29.71900
H  18.36700 52.68100 29.67300
H  17.42700 53.63900 31.88400
H  18.38800 52.22500 31.89700
H  10.76600 53.23500 25.22700
H  11.37600 54.90100 24.86000
H  11.91300 54.16600 26.31200
H  10.36000 53.93800 22.86900
H  10.32500 54.34000 21.28400
H  11.04900 55.54800 22.31000
H  16.71800 51.96700 19.73900
H  18.38900 49.66000 20.31000
H  15.01600 50.04300 19.61900
H  16.44900 49.02900 19.54400
H  16.10000 50.40300 18.37900
H  19.85800 51.83800 21.22300
H  18.95000 52.58200 19.90700
H  21.32700 50.94500 19.80100
H  20.38100 51.67000 18.42200
H  19.95000 50.07500 19.04900
H  22.25100 49.42200 24.22000
H  21.50300 47.96200 23.70900
H  22.02900 47.93500 25.31800
H  19.51800 50.48000 29.34200
H  19.15400 47.10800 31.80700
H  17.40500 47.54900 31.72000
H  18.59800 48.43200 32.78400

