158

Mg 24.46400 0.69500 29.45200
C  26.53200 1.03800 32.08600
C  21.84700 1.19200 31.53400
C  22.30500 0.18800 26.79100
C  27.15200 0.42600 27.26300
N  24.28100 1.22200 31.54800
C  25.31500 1.36400 32.48900
C  24.80700 1.68800 33.88300
C  23.25300 1.51500 33.66200
C  23.11300 1.38600 32.14100
C  22.66000 0.33100 34.38400
C  25.35700 2.97400 34.52800
C  26.14100 2.74900 35.83400
H  25.98700 3.60400 37.11500
N  22.44400 0.53700 29.23500
C  21.54500 0.76100 30.26000
C  20.21600 0.38200 29.81900
C  20.31900 0.11800 28.45300
C  21.71400 0.27900 28.08600
C  19.01200 0.48600 30.77800
C  19.25000 -0.27100 27.49000
O  19.46000 -0.68600 26.38700
C  17.82300 -0.15900 27.91500
N  24.71000 0.36500 27.35400
C  23.65200 0.36700 26.46700
C  24.23300 0.53800 24.97700
C  25.82500 0.56500 25.20600
C  25.90500 0.37800 26.68000
C  23.68700 -0.56000 23.99400
C  26.46500 1.96300 24.75300
C  25.67800 3.30000 25.06300
N  26.41400 0.64100 29.56500
C  27.41300 0.51100 28.65000
C  28.69900 0.42100 29.23400
C  28.42700 0.52600 30.59300
C  27.02600 0.77200 30.77800
C  29.97700 0.09100 28.33800
C  29.08400 0.47100 31.90500
O  30.17400 0.36200 32.29600
C  27.88100 0.78800 32.88300
C  27.70600 -0.29300 33.85300
O  27.11700 -1.35100 33.67700
O  28.26600 0.19500 35.02300
C  28.18000 -0.70600 36.19800
H  21.06600 1.47800 32.24200
H  21.66300 0.23100 25.90800
H  28.00300 0.47600 26.58100
H  25.24700 0.83100 34.39300
H  22.81000 2.40800 34.10400
H  22.07300 -0.23700 33.66200
H  21.89900 0.69600 35.07300
H  23.36000 -0.40300 34.78300
H  24.52000 3.66300 34.63800
H  26.01700 3.41400 33.78000
H  27.17000 2.88300 35.50200
H  26.07700 1.70100 36.12700
H  18.14000 -0.11000 30.50800
H  18.79200 1.55300 30.82700
H  19.31000 0.12700 31.76300
H  17.25400 -0.15800 26.98500
H  17.50500 0.84400 28.19900
H  17.65600 -1.00400 28.58300
H  23.91700 1.47200 24.51300
H  26.45100 -0.17800 24.71200
H  23.05900 -1.30600 24.48000
H  24.51800 -1.09800 23.53700
H  23.22700 0.00200 23.18000
H  26.47800 1.93400 23.66300
H  27.53300 2.04100 24.95600
H  26.45000 4.07000 25.06500
H  25.08500 3.41100 25.97100
H  25.12100 3.54100 24.15800
H  30.83100 0.19000 29.00900
H  30.04400 0.79100 27.50500
H  29.87300 -0.94000 28.00100
H  28.21200 1.68600 33.40500
H  27.33500 -0.29000 36.74800
H  29.06900 -0.79500 36.82400
H  27.95900 -1.70900 35.83400
Mg 43.05300 42.24400 26.24800
C  41.81700 44.60000 28.62200
C  43.52300 40.06600 28.66700
C  44.34200 40.31200 23.87400
C  42.50300 44.77200 23.75600
N  42.69700 42.39200 28.33200
C  42.19900 43.41900 29.18500
C  42.25700 43.02400 30.65700
C  42.91700 41.55400 30.68700
C  43.08900 41.31500 29.15700
C  44.19500 41.34000 31.49900
C  40.83700 43.05800 31.30500
C  40.63100 44.00200 32.47700
H  41.44600 43.87800 33.77700
N  43.75700 40.43700 26.29100
C  43.85700 39.62700 27.36600
C  44.40900 38.33600 27.01800
C  44.64300 38.42300 25.60400
C  44.26500 39.82200 25.18600
C  44.52300 37.19900 27.98200
C  45.14600 37.39000 24.62400
O  45.48900 37.62900 23.51200
C  45.52100 36.04000 25.25800
N  43.60700 42.56700 24.13400
C  44.00700 41.54200 23.42800
C  44.01000 41.92100 21.87300
C  43.42400 43.29400 21.80400
C  43.14800 43.64400 23.30800
C  45.35000 41.82900 21.13600
C  42.14100 43.32400 20.89100
C  40.93000 42.51000 21.38500
N  42.34000 44.24400 26.15000
C  42.19400 45.09700 25.03800
C  41.64100 46.39800 25.56100
C  41.47800 46.17700 26.92900
C  41.95000 44.90100 27.26900
C  41.43200 47.69000 24.76700
C  40.95800 46.82200 28.14200
O  40.33600 47.85900 28.33400
C  41.11300 45.73500 29.29600
C  41.90900 46.39600 30.35300
O  43.09900 46.28800 30.48200
O  41.01500 47.16200 31.04900
C  41.62400 47.72900 32.27900
H  43.70700 39.38800 29.50400
H  44.50800 39.66100 23.01400
H  42.31200 45.50600 22.97000
H  42.99400 43.71600 31.06300
H  42.22000 40.80000 31.05200
H  44.95800 40.81600 30.92300
H  43.93500 40.68800 32.33300
H  44.71200 42.25400 31.79000
H  40.54300 42.05400 31.60800
H  40.11100 43.34200 30.54300
H  39.56900 43.92100 32.70500
H  40.50900 45.01100 32.08300
H  44.22500 37.50700 28.98400
H  45.51000 36.73900 28.04000
H  43.79400 36.43600 27.71100
H  44.58200 35.64100 25.64200
H  46.26000 36.16400 26.05100
H  45.93000 35.36100 24.51100
H  43.26800 41.18900 21.55200
H  44.12700 44.05100 21.45500
H  45.58200 40.79900 20.86500
H  46.20200 42.24600 21.67300
H  45.27700 42.28800 20.15000
H  42.40700 43.09800 19.85800
H  41.85800 44.37500 20.83000
H  41.20800 42.11200 22.36100
H  40.69300 41.69700 20.69800
H  40.12800 43.22700 21.55600
H  41.99800 47.80600 23.84300
H  41.46700 48.51900 25.47300
H  40.37200 47.77400 24.52600
H  40.11500 45.52900 29.68300
H  42.60300 48.18800 32.13700
H  41.90600 46.93700 32.97300
H  40.92600 48.41800 32.75300

