158

Mg -2.58800 17.28800 26.36500
C  -2.76000 14.90100 29.02900
C  -3.23500 19.65300 28.67900
C  -2.64200 19.44300 23.92100
C  -2.46600 14.65500 24.06700
N  -2.76800 17.26300 28.73000
C  -2.85600 16.18700 29.52400
C  -3.41000 16.58000 30.87600
C  -3.72600 18.11300 30.73100
C  -3.24600 18.36500 29.30400
C  -5.22600 18.53100 30.92100
C  -2.46400 16.25500 32.12600
C  -2.56300 16.99600 33.42600
H  -2.59100 16.25000 34.72300
N  -2.79200 19.33100 26.28400
C  -3.04600 20.12500 27.33100
C  -3.24900 21.51400 26.83600
C  -3.02500 21.44200 25.41500
C  -2.76900 20.02100 25.17100
C  -3.44900 22.75100 27.70100
C  -2.86700 22.57100 24.44100
O  -2.41100 22.34200 23.31700
C  -3.06400 24.02500 24.72700
N  -2.85600 17.05800 24.32300
C  -2.71100 18.11400 23.53700
C  -2.48300 17.67100 22.08800
C  -2.30200 16.15100 22.13000
C  -2.44300 15.94300 23.62200
C  -3.56400 18.04800 21.05500
C  -1.04300 15.59100 21.41700
C  0.27800 15.57400 22.20700
N  -2.55900 15.22100 26.42200
C  -2.51600 14.29500 25.39700
C  -2.47500 12.93700 25.96300
C  -2.61200 13.17300 27.32800
C  -2.66500 14.58800 27.59200
C  -2.47900 11.66200 25.19200
C  -2.76700 12.47800 28.59500
O  -2.76100 11.25600 28.74900
C  -2.81000 13.55200 29.69300
C  -1.66200 13.32500 30.62600
O  -0.59900 13.91400 30.59500
O  -2.07000 12.56400 31.63100
C  -0.93500 12.17500 32.47800
H  -3.29800 20.49600 29.37000
H  -2.51400 20.05500 23.02600
H  -2.41400 13.83600 23.34700
H  -4.32700 15.99100 30.86700
H  -3.05000 18.72600 31.32600
H  -5.75700 18.08300 31.76100
H  -5.81800 18.46300 30.00800
H  -5.22100 19.57300 31.24200
H  -1.44600 16.21300 31.73800
H  -2.77000 15.25900 32.44300
H  -3.43400 17.63200 33.27100
H  -1.71800 17.68300 33.47100
H  -3.64600 22.53200 28.75100
H  -4.35900 23.26400 27.39100
H  -2.67600 23.51400 27.61400
H  -4.08200 24.29800 25.00600
H  -3.00200 24.49300 23.74400
H  -2.35000 24.37200 25.47300
H  -1.48400 18.06600 21.90800
H  -3.14300 15.61300 21.69200
H  -3.41800 17.42600 20.17200
H  -3.39800 19.06700 20.70600
H  -4.55300 17.86600 21.47500
H  -0.86500 16.34100 20.64700
H  -1.30500 14.62400 20.98800
H  0.23000 15.80000 23.27200
H  0.91200 16.27300 21.66200
H  0.68400 14.56900 22.09400
H  -1.42800 11.43000 25.02400
H  -2.90100 11.78600 24.19400
H  -3.06700 10.91900 25.73100
H  -3.70000 13.50000 30.32100
H  0.04700 11.94900 32.06300
H  -1.22100 11.28200 33.03300
H  -0.84700 12.95800 33.23200
Mg 23.34600 -6.39200 46.89800
C  25.73000 -3.95900 45.86100
C  21.07000 -4.84100 44.80200
C  21.51800 -9.20700 47.11800
C  25.94200 -7.97400 48.60700
N  23.45500 -4.55200 45.50400
C  24.49100 -3.67500 45.35000
C  24.07400 -2.60000 44.41500
C  22.48800 -2.73500 44.45600
C  22.32800 -4.14900 44.94100
C  21.72900 -1.73000 45.42200
C  24.69700 -2.73300 43.05900
C  25.01400 -1.45900 42.31400
H  24.23400 -1.28300 40.99700
N  21.48700 -6.88800 46.08300
C  20.68900 -6.11100 45.28100
C  19.48300 -6.86400 45.02800
C  19.53600 -8.09700 45.69300
C  20.91900 -8.09800 46.34900
C  18.35100 -6.30400 44.11300
C  18.47300 -9.13400 45.80900
O  17.43000 -8.91900 45.23700
C  18.66400 -10.38800 46.44200
N  23.72300 -8.25200 47.73800
C  22.73700 -9.28500 47.76400
C  23.15600 -10.50300 48.65000
C  24.57400 -10.07000 49.07900
C  24.81100 -8.67100 48.43300
C  22.21600 -10.64000 49.85700
C  25.60700 -11.19200 48.75200
C  26.14900 -11.25100 47.22900
N  25.44200 -5.97200 47.26200
C  26.29100 -6.73400 47.95600
C  27.56700 -6.02600 48.05600
C  27.40300 -4.89500 47.21300
C  26.09000 -5.01100 46.69500
C  28.77200 -6.55900 48.72000
C  28.07400 -3.74300 46.65900
O  29.19100 -3.29200 46.84400
C  26.96500 -3.09400 45.71500
C  26.66200 -1.66700 46.07700
O  26.43800 -1.20900 47.20700
O  26.71500 -0.86300 44.95100
C  26.44500 0.51600 45.26600
H  20.19500 -4.30000 44.43700
H  21.03300 -10.18300 47.05300
H  26.73500 -8.46100 49.17800
H  24.30700 -1.67000 44.93400
H  22.02800 -2.68700 43.46900
H  22.45200 -1.13400 45.97800
H  21.16700 -2.28700 46.17100
H  20.94200 -1.24000 44.84800
H  24.05000 -3.31800 42.40500
H  25.67600 -3.16900 43.25600
H  26.06600 -1.30000 42.07800
H  24.76400 -0.67500 43.02900
H  17.88700 -7.15400 43.61300
H  18.70700 -5.59700 43.36500
H  17.58700 -5.84300 44.73900
H  19.38000 -11.00100 45.89400
H  17.66600 -10.82700 46.45600
H  18.92300 -10.09500 47.45900
H  23.12600 -11.44600 48.10400
H  24.66100 -9.97600 50.16100
H  21.94100 -11.69200 49.93900
H  21.29100 -10.07900 49.72300
H  22.54900 -10.32100 50.84400
H  25.24300 -12.21300 48.86900
H  26.47800 -11.05400 49.39400
H  27.20900 -11.49600 47.16800
H  26.05500 -10.27800 46.74600
H  25.57900 -11.99100 46.66800
H  28.78100 -6.82700 49.77600
H  29.38800 -5.67400 48.55700
H  29.21400 -7.38300 48.16000
H  27.48400 -3.25000 44.76900
H  25.35900 0.60100 45.21200
H  26.97200 1.15200 44.55600
H  26.77000 1.07500 46.14300

