158

Mg -1.10700 17.39100 26.08000
C  -1.45100 15.13100 28.93600
C  -1.89900 19.94100 28.15200
C  -0.89200 19.36800 23.39300
C  -0.90800 14.58200 24.00400
N  -1.53400 17.50900 28.34100
C  -1.53600 16.47800 29.29300
C  -1.95400 17.01800 30.65700
C  -2.01700 18.56200 30.37500
C  -1.87000 18.72100 28.83200
C  -3.30800 19.24800 30.92400
C  -1.02400 16.64100 31.86300
C  -1.05700 17.38500 33.18400
H  -1.23800 16.59300 34.42900
N  -1.35000 19.40200 25.83100
C  -1.70300 20.34200 26.81000
C  -1.68400 21.61600 26.20600
C  -1.28800 21.45100 24.94000
C  -1.09900 20.02700 24.61400
C  -2.11400 22.84600 27.01000
C  -0.99500 22.50300 23.86900
O  -0.77700 22.26600 22.73800
C  -1.05000 23.92200 24.28300
N  -0.91100 17.06200 24.01000
C  -0.83900 18.01900 23.06200
C  -0.69000 17.49500 21.62700
C  -0.47400 16.01200 21.97800
C  -0.82900 15.87600 23.39700
C  -1.97300 17.79000 20.72000
C  0.98300 15.43200 21.69000
C  2.17100 15.95200 22.60200
N  -1.21200 15.27100 26.36500
C  -1.08100 14.27100 25.40500
C  -1.00000 12.96200 26.02700
C  -1.17500 13.24700 27.43600
C  -1.23300 14.68100 27.58700
C  -0.90200 11.68100 25.32400
C  -1.32200 12.66000 28.69200
O  -1.29500 11.46400 29.01700
C  -1.46900 13.85100 29.72100
C  -0.41400 13.75700 30.63800
O  0.74700 14.09600 30.47200
O  -0.86200 13.14300 31.77200
C  0.21700 13.04200 32.79900
H  -2.17700 20.81500 28.74600
H  -0.87100 20.03500 22.52900
H  -0.70700 13.76400 23.30800
H  -2.92900 16.57000 30.85100
H  -1.11600 19.00700 30.79700
H  -3.80600 18.70800 31.72800
H  -3.98500 19.47900 30.10200
H  -3.02100 20.21400 31.33900
H  0.00900 16.68500 31.52100
H  -1.32300 15.60100 31.99000
H  -1.93500 18.02800 33.12900
H  -0.14800 17.98600 33.20600
H  -2.70000 23.54100 26.40900
H  -1.27500 23.41000 27.41800
H  -2.85400 22.56400 27.75900
H  -0.51200 24.09900 25.21400
H  -2.08600 24.25600 24.33100
H  -0.62700 24.56600 23.51200
H  0.25800 17.77900 21.16800
H  -1.17700 15.36400 21.45400
H  -2.74600 17.96000 21.47000
H  -2.35700 16.93900 20.15800
H  -1.74200 18.55300 19.97700
H  1.33500 15.54400 20.66400
H  0.93000 14.36100 21.88400
H  1.66100 16.61300 23.30300
H  2.85400 16.59800 22.05100
H  2.63000 15.10200 23.10600
H  -1.74200 11.41600 24.68300
H  -0.79400 10.89100 26.06700
H  -0.00000 11.80800 24.72500
H  -2.43400 13.82000 30.22700
H  -0.05400 13.71100 33.61500
H  1.27500 13.23800 32.62000
H  0.20300 12.08000 33.31100
Mg 9.29200 48.60600 27.73100
C  7.61900 47.82200 30.70500
C  12.14600 48.96200 29.62500
C  10.93900 49.23300 24.93100
C  6.28900 48.64900 25.94000
N  9.76900 48.65900 29.97600
C  8.95400 48.22500 30.98500
C  9.60800 48.31800 32.35300
C  11.10200 48.79100 31.93000
C  11.03300 48.92400 30.43100
C  11.55400 50.05600 32.74000
C  9.59300 46.93900 33.19500
C  10.60200 46.62500 34.36200
H  10.08900 45.77800 35.58700
N  11.32100 48.82300 27.29800
C  12.34400 48.90600 28.20900
C  13.58900 48.77100 27.47100
C  13.21800 48.86200 26.02600
C  11.77200 49.02000 26.06800
C  14.94400 48.49200 28.06200
C  14.13500 48.66300 24.83100
O  13.85600 48.45800 23.66600
C  15.61700 48.62200 25.11100
N  8.65800 49.04100 25.78200
C  9.58500 49.31000 24.78100
C  8.99800 49.30000 23.31100
C  7.44000 49.37300 23.70400
C  7.40800 48.94000 25.22800
C  9.52200 50.41100 22.42300
C  6.59600 48.35000 22.74600
C  5.92200 48.96900 21.55000
N  7.33200 48.34600 28.22800
C  6.19700 48.39000 27.38400
C  4.99500 47.98400 28.19500
C  5.55200 47.71300 29.46300
C  6.96300 47.95600 29.46500
C  3.62900 47.94000 27.60000
C  5.19100 47.33700 30.84100
O  4.06200 47.05800 31.24700
C  6.50600 47.36600 31.64300
C  6.60700 46.04800 32.22400
O  7.22300 45.04700 31.84200
O  5.82000 46.11000 33.33900
C  5.73300 44.86100 34.05900
H  13.09800 48.95900 30.15900
H  11.52100 49.38200 24.01900
H  5.35600 48.68600 25.37400
H  9.10300 49.09300 32.92900
H  11.90600 48.09500 32.16600
H  11.06700 50.14900 33.71000
H  11.38900 50.99700 32.21500
H  12.58900 49.85000 33.01400
H  9.60300 46.07700 32.52900
H  8.62800 47.08800 33.68100
H  11.05200 47.54400 34.73900
H  11.41200 45.98100 34.02000
H  14.96100 48.40100 29.14800
H  15.57800 49.36600 27.91300
H  15.49400 47.72600 27.51500
H  15.97400 49.37900 25.80900
H  16.12200 48.95100 24.20300
H  15.96000 47.66700 25.50900
H  9.21200 48.33500 22.85300
H  7.02600 50.38100 23.71500
H  9.48100 49.91800 21.45100
H  10.55000 50.65400 22.69000
H  8.85600 51.27300 22.44400
H  5.81500 47.81100 23.28200
H  7.27600 47.61200 22.32100
H  6.69600 49.42900 20.93600
H  5.25300 49.78500 21.82300
H  5.33800 48.13400 21.16300
H  3.03100 47.13600 28.03000
H  3.62300 47.79300 26.52000
H  3.17600 48.91500 27.77800
H  6.48300 48.13800 32.41100
H  6.08300 44.98900 35.08400
H  6.23000 44.00600 33.60000
H  4.68100 44.57600 34.06200

