158

Mg 35.68500 0.98500 29.75800
C  33.31300 2.17800 32.11100
C  37.93800 1.14000 32.30400
C  38.04600 0.04800 27.51700
C  33.40500 1.35800 27.17700
N  35.68200 1.76000 31.91900
C  34.51800 1.94800 32.67600
C  34.74100 2.04600 34.18000
C  36.30500 1.64800 34.22900
C  36.66600 1.57100 32.72300
C  37.22600 2.65100 35.09200
C  33.93400 1.04000 35.02200
C  33.35900 1.46400 36.39700
H  34.00800 2.62900 37.14700
N  37.67900 0.62900 29.89600
C  38.47500 0.75800 31.03300
C  39.80600 0.16600 30.79000
C  39.86700 -0.09300 29.35500
C  38.47500 0.19500 28.89500
C  40.85200 -0.15300 31.84200
C  41.10500 -0.54200 28.51500
O  40.98400 -0.83900 27.36700
C  42.48300 -0.45700 29.16500
N  35.71400 0.69300 27.64500
C  36.77600 0.32100 27.00800
C  36.54400 0.22100 25.42400
C  34.97500 0.43900 25.34800
C  34.65900 0.83900 26.80600
C  37.29000 1.37900 24.63500
C  34.19300 -0.74100 24.80700
C  33.56200 -0.54800 23.44500
N  33.78600 1.75800 29.60900
C  32.98400 1.75700 28.50300
C  31.70400 2.24900 28.86800
C  31.71000 2.41000 30.28700
C  33.05900 2.12500 30.71000
C  30.62700 2.46600 27.89300
C  30.98200 2.67400 31.45300
O  29.82500 2.92800 31.56400
C  31.96800 2.55900 32.72700
C  32.03900 4.01500 33.27600
O  32.94900 4.85000 33.09500
O  31.11900 4.10200 34.26500
C  31.24700 5.12500 35.29600
H  38.53600 0.97800 33.20300
H  38.85500 -0.34300 26.89800
H  32.57100 1.28700 26.47500
H  34.53100 3.04900 34.55100
H  36.54300 0.62800 34.53000
H  37.95000 2.06400 35.65800
H  36.67200 3.23000 35.83000
H  37.84400 3.33500 34.51200
H  34.57100 0.18700 35.25500
H  33.13400 0.50500 34.51100
H  33.50500 0.61400 37.06400
H  32.27500 1.56900 36.37200
H  41.21900 -1.17800 31.89500
H  40.29500 -0.01200 32.76700
H  41.63400 0.60600 31.83900
H  42.59900 0.53700 29.59800
H  43.19000 -0.54600 28.34100
H  42.73600 -1.15200 29.96500
H  36.93500 -0.75500 25.13800
H  34.69900 1.38300 24.87800
H  38.12600 1.69600 25.25900
H  36.61100 2.17600 24.33300
H  37.68500 0.95100 23.71300
H  33.37500 -1.00900 25.47600
H  34.82900 -1.60800 24.62600
H  33.74800 -1.35900 22.74000
H  33.88300 0.38800 22.98800
H  32.47800 -0.50400 23.54700
H  31.11300 2.88200 27.01000
H  29.96500 3.24700 28.26800
H  30.04900 1.57300 27.65500
H  31.57200 1.94100 33.53300
H  31.08000 4.69700 36.28400
H  30.60000 5.96000 35.02700
H  32.27400 5.49100 35.31000
Mg 48.40200 14.95800 28.06800
C  46.02300 14.81100 30.75900
C  50.54100 16.74400 30.14200
C  50.39800 15.11900 25.53500
C  45.92400 13.27600 26.13200
N  48.28900 15.72500 30.10000
C  47.26800 15.49400 30.96600
C  47.57900 15.99500 32.36700
C  48.85200 16.83800 32.11500
C  49.29400 16.42900 30.67600
C  48.67100 18.34300 32.34700
C  47.82300 14.71200 33.26600
C  47.26000 14.86600 34.67600
H  47.08900 16.28500 35.30400
N  50.28400 15.82200 27.82000
C  51.03600 16.49800 28.79800
C  52.37600 16.76600 28.22500
C  52.28400 16.46300 26.85200
C  50.98000 15.75000 26.69600
C  53.43600 17.57800 29.00400
C  53.20900 16.67100 25.67100
O  52.98000 16.30900 24.52500
C  54.53200 17.45200 25.88300
N  48.19100 14.25400 26.17300
C  49.14300 14.50000 25.26500
C  48.81400 13.94700 23.79800
C  47.47600 13.08900 24.14200
C  47.18300 13.55000 25.58300
C  48.64400 15.02900 22.72100
C  47.67900 11.56200 24.00200
C  48.13600 10.71600 25.22000
N  46.34800 14.32100 28.27000
C  45.54300 13.61700 27.43300
C  44.27200 13.31600 28.08300
C  44.43500 13.74800 29.42200
C  45.73400 14.27800 29.45900
C  43.09500 12.51800 27.55200
C  43.80100 13.71500 30.68900
O  42.66300 13.34100 31.04500
C  44.80600 14.37700 31.63900
C  44.11400 15.54400 32.26300
O  44.09100 16.67100 31.78200
O  43.57500 15.15800 33.47000
C  42.97500 16.22100 34.18400
H  51.19400 17.13000 30.92700
H  51.01900 15.07700 24.63800
H  45.19200 12.89600 25.41700
H  46.77200 16.65500 32.68600
H  49.68500 16.49600 32.73000
H  47.88500 18.65100 33.03700
H  48.65800 18.86200 31.38900
H  49.56600 18.73100 32.83400
H  48.88500 14.54100 33.44400
H  47.40500 13.79200 32.85800
H  47.84500 14.33400 35.42700
H  46.27200 14.41200 34.74400
H  53.46500 18.56200 28.53600
H  54.40500 17.09600 29.13500
H  53.03900 17.71700 30.01000
H  54.98700 17.18600 26.83700
H  54.27900 18.51000 25.96600
H  55.23600 17.30600 25.06500
H  49.53700 13.21700 23.43500
H  46.63200 13.36100 23.50900
H  49.45100 14.96100 21.99100
H  48.57900 16.03700 23.13000
H  47.69800 14.90000 22.19500
H  48.47200 11.40000 23.27200
H  46.75500 11.12100 23.62700
H  48.79200 9.90200 24.91400
H  47.30700 10.16500 25.66500
H  48.48100 11.44500 25.95400
H  43.35400 11.47300 27.37900
H  42.89500 13.02100 26.60600
H  42.23500 12.62500 28.21300
H  45.14300 13.60700 32.33300
H  43.49900 17.17500 34.11800
H  42.79000 15.99600 35.23400
H  42.00800 16.30700 33.68900

