158

Mg 48.12700 16.57800 28.60100
C  46.31900 16.46600 31.55400
C  50.56400 18.41500 30.13700
C  49.57900 17.23800 25.52900
C  45.47600 15.08000 26.81600
N  48.46800 17.34200 30.66600
C  47.55600 17.12400 31.70500
C  48.08800 17.67400 33.00700
C  49.46700 18.30300 32.53400
C  49.52300 18.00100 31.01400
C  49.41500 19.83600 32.75100
C  48.36900 16.38500 34.02800
C  47.79300 16.51700 35.44700
H  47.54400 18.00200 35.96200
N  50.00500 17.42000 27.94300
C  50.80200 18.13800 28.77800
C  51.95500 18.58300 28.00200
C  51.73400 18.21400 26.63700
C  50.38900 17.54300 26.63800
C  53.12100 19.34900 28.65700
C  52.60300 18.49500 25.39800
O  52.31000 18.07300 24.29300
C  53.95200 19.21000 25.57000
N  47.62600 16.23500 26.47800
C  48.37100 16.64500 25.44200
C  47.70000 16.23400 24.08300
C  46.45600 15.44900 24.53300
C  46.58200 15.48400 26.03900
C  47.42900 17.52400 23.23700
C  46.21900 13.96700 24.01300
C  45.40600 13.75300 22.71400
N  46.29700 15.87300 29.11400
C  45.29900 15.28000 28.23700
C  44.12600 15.00000 29.08200
C  44.57700 15.43500 30.36700
C  45.83200 15.95300 30.32500
C  42.80800 14.42800 28.55300
C  44.15600 15.52400 31.73500
O  43.07300 15.20400 32.14600
C  45.24900 16.09900 32.61200
C  44.67800 17.29000 33.25900
O  44.75000 18.43000 32.90500
O  43.98600 16.88300 34.35000
C  43.45800 17.97300 35.13900
H  51.17300 19.18900 30.60800
H  50.06900 17.40500 24.56800
H  44.62200 14.52700 26.41700
H  47.38000 18.38300 33.43600
H  50.21100 17.84700 33.18600
H  49.50600 19.99100 33.82600
H  48.46700 20.35700 32.62200
H  50.15100 20.39500 32.17300
H  49.42000 16.11200 34.11900
H  47.88700 15.52400 33.56500
H  48.49800 16.13400 36.18500
H  46.83200 16.00400 35.47300
H  53.96700 18.68500 28.83400
H  52.69100 19.85300 29.52300
H  53.41200 20.20000 28.04100
H  53.90700 20.20200 26.01900
H  54.24800 19.36700 24.53400
H  54.69500 18.65000 26.13800
H  48.41000 15.51500 23.67500
H  45.55600 15.95500 24.18300
H  47.57100 18.47600 23.74900
H  46.45800 17.51600 22.74200
H  48.09400 17.50000 22.37500
H  45.96700 13.27900 24.82000
H  47.19400 13.62300 23.66900
H  44.34800 13.52400 22.83600
H  45.79700 12.99100 22.04000
H  45.43400 14.74600 22.26600
H  42.65500 14.54600 27.48000
H  41.99600 14.96400 29.04400
H  42.87900 13.34900 28.68800
H  45.58100 15.32000 33.29900
H  42.50000 18.26600 34.71100
H  44.02200 18.89300 35.29000
H  43.33800 17.60400 36.15800
Mg 43.26700 41.72000 26.30100
C  42.29500 43.70200 29.07100
C  44.50100 39.50700 28.76800
C  44.51000 39.92700 23.87600
C  42.60800 44.34200 24.14400
N  43.21400 41.63500 28.71400
C  42.78400 42.52000 29.49300
C  43.01400 42.15400 30.93800
C  43.88300 40.83700 30.85400
C  43.92900 40.65900 29.36000
C  45.38100 40.94500 31.45400
C  41.71700 41.86900 31.70900
C  41.66600 41.67500 33.26400
H  40.96400 42.81900 34.15900
N  44.31000 39.92700 26.26400
C  44.72700 39.17700 27.37900
C  45.28200 37.92400 26.84900
C  45.19800 38.04800 25.43400
C  44.64300 39.36000 25.12200
C  45.92000 36.86300 27.78700
C  45.55400 36.96200 24.34300
O  45.49600 37.09100 23.12000
C  45.99300 35.63000 24.83900
N  43.73300 42.18300 24.29400
C  44.17400 41.15000 23.48200
C  43.93200 41.57600 21.98900
C  43.35900 43.02500 22.05400
C  43.24600 43.21000 23.57400
C  45.19100 41.47000 21.02400
C  42.07500 43.26500 21.18500
C  41.95300 42.70200 19.76500
N  42.58800 43.58300 26.49900
C  42.32400 44.52600 25.52200
C  41.53300 45.58500 26.14800
C  41.56300 45.28600 27.51500
C  42.24600 44.10000 27.71900
C  40.85900 46.68200 25.46700
C  41.03800 45.77600 28.75800
O  40.44900 46.76900 29.11600
C  41.58400 44.78900 29.84100
C  42.54300 45.60400 30.63900
O  43.75100 45.84800 30.32700
O  41.92400 45.89100 31.78400
C  42.57100 46.92800 32.64800
H  44.91700 38.79800 29.48800
H  44.54200 39.30400 22.98000
H  42.37600 45.12300 23.41700
H  43.55300 43.02400 31.31300
H  43.25900 40.08500 31.33700
H  45.54600 41.87800 31.99300
H  46.10800 40.95300 30.64300
H  45.60800 40.08100 32.08000
H  41.24900 40.97100 31.30600
H  41.03600 42.68700 31.47400
H  42.64500 41.55400 33.72800
H  41.11500 40.76200 33.49200
H  45.88500 35.81000 27.50700
H  45.30000 36.79900 28.68100
H  46.89900 37.24800 28.07300
H  46.79400 35.81000 25.55600
H  46.36600 34.94100 24.08100
H  45.10300 35.24500 25.33500
H  43.19700 40.93000 21.50800
H  44.09800 43.80500 21.86900
H  44.97400 40.70600 20.27700
H  46.04600 41.16800 21.63000
H  45.38700 42.45400 20.60000
H  41.78200 44.31400 21.15400
H  41.31300 42.81400 21.82100
H  42.89800 42.29200 19.41000
H  41.60800 43.49600 19.10200
H  41.25800 41.87500 19.61700
H  41.58000 47.31100 24.94300
H  40.44100 47.29400 26.26600
H  40.04000 46.29000 24.86400
H  40.64900 44.47600 30.30800
H  41.80000 47.64800 32.91800
H  43.47200 47.33700 32.18900
H  42.83800 46.36200 33.54100

