158

Mg 36.28500 49.45800 26.11400
C  36.88200 47.33800 28.99300
C  34.80900 51.63600 28.27000
C  35.18900 51.10100 23.43700
C  37.33000 46.69900 24.23400
N  35.73300 49.40100 28.36400
C  36.23200 48.55700 29.38300
C  36.09700 49.18500 30.81300
C  35.09900 50.31700 30.43100
C  35.33500 50.53500 28.89600
C  33.62100 50.15000 30.76100
C  37.49100 49.62700 31.42900
C  37.62500 49.21200 32.84200
H  36.58300 49.81300 33.86900
N  35.07700 51.13300 25.80400
C  34.65000 51.95800 26.86600
C  34.05900 53.13800 26.28400
C  34.14000 52.95600 24.87800
C  34.78300 51.68200 24.66300
C  33.44300 54.20400 27.11200
C  33.81800 53.92200 23.82800
O  33.89500 53.70000 22.63200
C  33.46500 55.31700 24.18700
N  36.23900 48.97200 24.09600
C  35.82100 49.82900 23.10700
C  36.03300 49.19000 21.74000
C  36.67500 47.72500 22.03500
C  36.75900 47.81200 23.56100
C  34.66600 49.15800 20.92900
C  38.03700 47.46000 21.37000
C  39.18500 48.42400 21.74100
N  37.11600 47.53400 26.49700
C  37.53200 46.49300 25.60600
C  38.08100 45.39700 26.30400
C  37.83700 45.66600 27.64600
C  37.22800 46.96400 27.70900
C  38.81200 44.13700 25.75500
C  37.95100 45.15300 29.01400
O  38.45100 44.12400 29.42700
C  37.36400 46.28500 29.97000
C  36.29900 45.71200 30.76400
O  35.31900 45.12600 30.29600
O  36.50200 45.77100 32.13700
C  35.42400 45.24200 32.93400
H  34.54200 52.43100 28.97000
H  34.96100 51.74900 22.58900
H  37.69800 45.90100 23.58500
H  35.67300 48.35400 31.37600
H  35.42200 51.24800 30.89800
H  33.08700 51.07200 30.53400
H  33.37300 49.86600 31.78300
H  33.29500 49.35600 30.08900
H  37.70700 50.69200 31.34600
H  38.20500 49.20800 30.71900
H  38.65800 49.31900 33.17200
H  37.45500 48.13700 32.90500
H  34.00300 55.13600 27.03700
H  33.26200 53.92800 28.15000
H  32.42800 54.25200 26.71800
H  33.34900 55.89100 23.26800
H  34.26900 55.64700 24.84500
H  32.45400 55.31900 24.59500
H  36.78000 49.80800 21.24300
H  36.06400 46.86700 21.75400
H  34.47400 48.14200 20.58400
H  34.78200 49.94700 20.18600
H  33.79700 49.39200 21.54500
H  38.03100 47.65400 20.29700
H  38.39700 46.44500 21.53700
H  39.55800 48.85000 20.80900
H  40.08100 47.94900 22.13900
H  38.99800 49.09500 22.57900
H  38.94600 44.24100 24.67800
H  38.12300 43.32500 25.98800
H  39.76800 44.04600 26.27100
H  38.16800 46.68800 30.58700
H  35.31400 44.17300 32.75400
H  34.48200 45.67600 32.59800
H  35.58500 45.43400 33.99500
Mg -4.64700 25.28300 25.72100
C  -3.48200 26.77200 28.68100
C  -6.80300 23.46400 27.50800
C  -5.64700 23.89400 22.74600
C  -2.19900 27.13100 23.94100
N  -4.99300 25.02600 27.88400
C  -4.52400 25.91400 28.92200
C  -5.26800 25.57400 30.29900
C  -6.01200 24.21300 29.82400
C  -5.99000 24.26800 28.31000
C  -5.23000 22.94400 30.28700
C  -6.26000 26.70700 30.73100
C  -6.40000 26.98400 32.22300
H  -6.25700 25.86400 33.22300
N  -6.02900 23.80100 25.20100
C  -6.90300 23.28200 26.06900
C  -7.86500 22.45600 25.35500
C  -7.45600 22.46300 23.93500
C  -6.33500 23.37200 23.90100
C  -8.86400 21.60300 26.11400
C  -8.10400 21.77600 22.70500
O  -7.58400 21.89500 21.58200
C  -9.35800 21.09400 22.89400
N  -4.04100 25.49900 23.66600
C  -4.62000 24.77000 22.67000
C  -3.85600 25.03300 21.38500
C  -3.06600 26.34600 21.71200
C  -3.04200 26.32600 23.20500
C  -2.92600 23.86200 20.94000
C  -3.78300 27.58400 21.17900
C  -3.08900 28.14500 19.95500
N  -3.11600 26.71600 26.10900
C  -2.31200 27.44600 25.30400
C  -1.64700 28.44800 26.04400
C  -2.01500 28.15900 27.43800
C  -2.90800 27.08800 27.38300
C  -0.75300 29.57100 25.50700
C  -1.85800 28.65700 28.74900
O  -1.21300 29.58500 29.17900
C  -2.75500 27.72500 29.65500
C  -1.72400 27.12400 30.54300
O  -0.91900 26.25400 30.30300
O  -1.99500 27.56700 31.81300
C  -1.19700 27.00200 32.84200
H  -7.51900 22.86400 28.07300
H  -5.82700 23.31500 21.83700
H  -1.52300 27.64600 23.25500
H  -4.57700 25.44500 31.13200
H  -7.05300 24.06500 30.11100
H  -5.74400 22.45100 31.11300
H  -4.28000 23.24600 30.72700
H  -5.01400 22.23100 29.49100
H  -7.27100 26.48600 30.38700
H  -5.79600 27.58400 30.27800
H  -7.36800 27.44200 32.42900
H  -5.58500 27.68400 32.40600
H  -9.73200 22.17900 26.43400
H  -8.39600 21.18300 27.00400
H  -9.15600 20.81600 25.41700
H  -9.07600 20.18800 23.43200
H  -9.90000 20.82800 21.98600
H  -10.07400 21.67200 23.47700
H  -4.58100 25.07800 20.57200
H  -2.05100 26.20000 21.34100
H  -1.90300 24.23700 20.95200
H  -3.26700 23.48400 19.97600
H  -2.96300 23.07400 21.69300
H  -3.83400 28.39600 21.90500
H  -4.82400 27.36400 20.94300
H  -3.19200 27.45400 19.11800
H  -2.03300 28.20800 20.21900
H  -3.60900 29.07800 19.73800
H  -1.12500 30.54800 25.81600
H  -0.64400 29.46700 24.42700
H  0.17000 29.49500 26.08200
H  -3.57800 28.17400 30.21000
H  -0.13300 27.21900 32.74500
H  -1.47000 25.95000 32.93300
H  -1.57800 27.42800 33.77000

