158

Mg 24.02900 -5.07800 44.93000
C  25.60400 -2.33900 43.50600
C  21.14200 -4.16900 43.09100
C  22.76500 -8.19900 45.40300
C  27.27000 -6.27500 46.01900
N  23.51400 -3.43900 43.40500
C  24.29600 -2.39700 43.02700
C  23.56200 -1.40500 42.11600
C  22.12700 -1.74800 42.48400
C  22.22900 -3.25100 42.93700
C  21.50700 -0.87800 43.55500
C  23.98000 -1.57300 40.65300
C  24.35500 -0.28600 39.83400
H  25.22500 -0.57900 38.60100
N  22.16800 -6.00200 44.46800
C  21.09400 -5.50300 43.71500
C  20.00900 -6.48800 43.74200
C  20.47100 -7.67600 44.37400
C  21.80700 -7.30300 44.81800
C  18.70700 -6.12200 43.23100
C  19.68600 -8.90300 44.56000
O  18.47700 -8.95100 44.23500
C  20.29700 -10.15900 45.20000
N  24.90500 -6.96800 45.66900
C  24.13400 -8.04300 45.81500
C  24.96000 -9.16300 46.45100
C  26.42500 -8.55700 46.61100
C  26.22400 -7.20100 45.99900
C  24.23800 -9.75600 47.73200
C  27.58200 -9.30700 45.85600
C  28.84600 -9.57900 46.69100
N  26.07100 -4.47300 44.87900
C  27.23700 -4.95500 45.47900
C  28.25400 -4.06800 45.15600
C  27.71400 -3.04600 44.38000
C  26.36000 -3.32600 44.26500
C  29.67700 -4.27300 45.42300
C  27.98700 -1.73700 43.68600
O  29.06700 -1.24500 43.49400
C  26.59700 -1.26200 43.11600
C  26.33000 0.15000 43.62800
O  25.53600 0.45500 44.52900
O  27.19600 1.01800 43.02300
C  26.99800 2.40500 43.56000
H  20.21400 -3.80700 42.64400
H  22.52900 -9.23700 45.64400
H  28.29100 -6.65500 46.10000
H  23.69300 -0.38000 42.46400
H  21.53200 -1.55000 41.59200
H  22.05300 0.05300 43.70400
H  21.44100 -1.48900 44.45600
H  20.51200 -0.48600 43.34400
H  23.05700 -1.86200 40.15100
H  24.76400 -2.31700 40.51400
H  24.80400 0.41900 40.53400
H  23.47600 0.20600 39.41700
H  17.98300 -6.61900 43.87600
H  18.75600 -6.60800 42.25600
H  18.51400 -5.05200 43.30800
H  19.56700 -10.96500 45.13300
H  20.52600 -9.96800 46.24900
H  21.12500 -10.52500 44.59300
H  25.01300 -9.88400 45.63500
H  26.60400 -8.37200 47.67000
H  23.95400 -10.76900 47.44400
H  23.27500 -9.31700 47.99400
H  24.97100 -9.74700 48.53900
H  27.98000 -8.80100 44.97600
H  27.25200 -10.30700 45.57500
H  28.75900 -10.66500 46.71000
H  28.70100 -9.31600 47.73800
H  29.72900 -9.10400 46.26300
H  29.88300 -4.86900 46.31200
H  30.22400 -3.36700 45.68200
H  30.10800 -4.81300 44.58000
H  26.76500 -1.02100 42.06700
H  27.39800 3.10900 42.83000
H  27.57300 2.40800 44.48600
H  25.98300 2.70500 43.82000
Mg 10.24100 47.13000 26.05200
C  7.74900 47.31200 28.21900
C  12.50700 48.20100 28.37600
C  12.66800 46.91500 23.57300
C  7.86000 46.62100 23.37900
N  10.03200 47.77000 28.03300
C  8.94200 47.71000 28.76100
C  9.30400 47.89700 30.23200
C  10.75900 48.48600 30.21500
C  11.13000 48.19100 28.76900
C  10.85800 49.98800 30.52800
C  9.07300 46.77700 31.21900
C  9.73500 47.02900 32.53700
H  9.07100 46.38100 33.77800
N  12.25600 47.59200 25.91000
C  13.01200 47.92500 27.01300
C  14.39900 48.02900 26.66100
C  14.50300 47.61200 25.27500
C  13.06900 47.36500 24.81200
C  15.51800 48.57100 27.59600
C  15.77400 47.40800 24.42300
O  15.69600 47.03200 23.28400
C  17.14200 47.77600 24.99600
N  10.26500 46.93000 23.80400
C  11.38400 46.80500 23.03700
C  11.13000 46.38200 21.55000
C  9.62900 46.38500 21.50400
C  9.19400 46.65300 22.98300
C  11.81500 47.30500 20.56000
C  9.03200 45.05100 20.84900
C  7.67400 45.20500 20.17500
N  8.20300 46.84700 25.83200
C  7.37000 46.78600 24.68000
C  5.99500 46.62400 25.15000
C  6.09200 46.85600 26.56700
C  7.45200 47.00400 26.84400
C  4.72400 46.39100 24.34200
C  5.31300 46.90300 27.83400
O  4.13700 46.78900 28.04500
C  6.41900 47.17400 28.95500
C  6.27800 46.01200 29.77700
O  6.86800 45.01500 29.63100
O  5.37900 46.23100 30.74600
C  5.07800 45.23100 31.71700
H  13.20000 48.46100 29.17900
H  13.42000 46.78400 22.79200
H  7.11900 46.52800 22.58200
H  8.70700 48.76600 30.51000
H  11.47100 47.83000 30.71700
H  11.43300 50.41900 29.70800
H  11.52400 50.13200 31.38000
H  9.88300 50.47000 30.59300
H  9.36100 45.81600 30.79300
H  7.99100 46.75400 31.34900
H  9.91000 48.09600 32.67400
H  10.72000 46.56400 32.52000
H  15.10300 48.90200 28.54800
H  16.01600 49.47600 27.24600
H  16.31600 47.83100 27.65500
H  17.58500 47.06100 25.68900
H  17.20600 48.76700 25.44500
H  17.84700 47.74700 24.16400
H  11.45800 45.37300 21.30100
H  9.37000 47.30500 20.97900
H  11.51900 48.32700 20.79600
H  11.35800 47.14200 19.58400
H  12.87400 47.04900 20.51600
H  8.94600 44.34100 21.67200
H  9.81500 44.70600 20.17400
H  7.34400 46.23300 20.02000
H  6.90800 44.60400 20.66400
H  7.85400 44.82200 19.17100
H  4.96200 45.78000 23.47000
H  4.34100 47.33700 23.95900
H  3.97200 45.91700 24.97200
H  6.31100 48.10200 29.51700
H  4.53600 44.34500 31.38500
H  4.39000 45.55800 32.49700
H  5.95400 44.99400 32.32000

