158

Mg -2.12800 17.14900 26.93900
C  -2.69000 15.06600 29.72100
C  -2.28400 19.86900 29.09300
C  -1.90800 19.19800 24.13600
C  -2.63100 14.39200 24.80500
N  -2.54800 17.33200 29.19000
C  -2.52400 16.38900 30.18600
C  -2.63800 17.00000 31.54300
C  -2.52700 18.51300 31.20400
C  -2.43000 18.59900 29.73500
C  -3.75000 19.21300 31.81000
C  -1.59600 16.39600 32.60500
C  -1.20500 17.21900 33.85100
H  -0.95400 16.53800 35.21000
N  -1.88400 19.20700 26.70300
C  -1.97800 20.19300 27.70300
C  -1.74700 21.45400 27.07400
C  -1.55200 21.25100 25.68300
C  -1.66600 19.83900 25.41600
C  -1.78600 22.71600 27.87000
C  -1.25000 22.31300 24.56400
O  -1.13100 21.96300 23.40600
C  -1.21500 23.82900 24.87000
N  -2.34700 16.84100 24.78600
C  -2.25400 17.85700 23.84800
C  -2.62500 17.36200 22.48200
C  -2.61500 15.77400 22.62600
C  -2.56000 15.62900 24.14200
C  -3.85300 18.14800 21.85100
C  -1.46900 15.05400 21.79300
C  -0.11900 15.16400 22.37600
N  -2.43700 15.11500 27.17200
C  -2.65900 14.14700 26.20000
C  -3.01900 12.98000 26.85800
C  -3.08500 13.25300 28.24100
C  -2.66900 14.58800 28.38900
C  -3.29300 11.69900 26.20500
C  -3.28800 12.61200 29.52600
O  -3.56200 11.43800 29.81800
C  -2.92900 13.85400 30.55500
C  -1.73100 13.35800 31.31700
O  -0.57400 13.61800 31.02200
O  -2.01400 12.57900 32.39700
C  -0.85900 12.15500 33.20200
H  -2.23100 20.62500 29.88000
H  -1.96200 19.84200 23.25600
H  -2.84100 13.53100 24.16800
H  -3.66600 16.75100 31.80500
H  -1.67300 18.95600 31.71600
H  -4.66900 18.73100 31.47700
H  -3.72300 20.25200 31.47900
H  -3.59500 19.13200 32.88600
H  -0.71700 16.07700 32.04500
H  -1.86100 15.38700 32.92100
H  -2.13900 17.76200 33.99600
H  -0.34900 17.79400 33.49800
H  -1.87200 22.65600 28.95500
H  -2.70700 23.21600 27.57000
H  -0.98200 23.38100 27.55300
H  -0.21200 24.24300 24.96900
H  -1.87500 24.08600 25.69800
H  -1.62600 24.28300 23.96800
H  -1.72900 17.59300 21.90700
H  -3.59500 15.33200 22.44400
H  -4.14200 19.00900 22.45300
H  -4.73000 17.51700 21.71000
H  -3.62800 18.53900 20.85900
H  -1.44600 15.56000 20.82800
H  -1.80000 14.03400 21.59700
H  -0.04700 15.75400 23.29000
H  0.60400 15.59500 21.68300
H  0.27800 14.17700 22.61200
H  -2.30800 11.23100 26.20200
H  -3.64900 11.78800 25.17800
H  -4.06600 11.24000 26.82000
H  -3.74500 13.79500 31.27400
H  -0.60800 13.03900 33.78900
H  0.05700 11.77700 32.74800
H  -1.28800 11.52000 33.97700
Mg -11.74500 16.36300 41.69600
C  -8.78100 14.48700 41.49600
C  -10.20700 18.90300 39.95800
C  -14.87100 17.82500 41.26600
C  -13.32300 13.50100 42.86100
N  -9.74700 16.63600 40.78600
C  -8.70600 15.64900 40.75100
C  -7.53800 16.23900 39.97500
C  -7.92000 17.66400 39.65700
C  -9.32500 17.79500 40.23600
C  -7.01500 18.75500 40.31000
C  -7.14200 15.40700 38.70200
C  -5.63500 15.17100 38.50900
H  -5.02000 15.55000 37.07700
N  -12.39000 18.18600 40.90600
C  -11.59200 19.14100 40.28200
C  -12.40100 20.29500 39.95900
C  -13.74100 20.05700 40.44400
C  -13.72900 18.60500 40.90700
C  -11.91300 21.61600 39.35700
C  -14.81600 21.09800 40.48100
O  -14.48900 22.23000 40.10400
C  -16.24100 20.80800 40.90400
N  -13.87300 15.74900 42.09700
C  -14.96600 16.55600 41.87800
C  -16.22000 15.80100 42.17700
C  -15.71500 14.43000 42.76700
C  -14.19000 14.52300 42.57200
C  -17.29100 16.48400 43.10500
C  -16.34200 13.09700 42.29300
C  -16.98600 12.15800 43.34400
N  -11.20400 14.40900 42.30800
C  -11.93700 13.40300 42.74900
C  -11.13700 12.31200 43.11600
C  -9.81400 12.69600 42.77400
C  -9.90300 14.01600 42.19700
C  -11.67100 10.99100 43.54000
C  -8.45800 12.29800 42.72800
O  -7.83900 11.32800 43.21500
C  -7.72600 13.43600 41.89000
C  -6.79100 14.02900 42.80500
O  -6.80200 14.20300 44.02000
O  -5.67600 14.40500 42.07000
C  -4.65700 15.04400 42.86700
H  -9.81000 19.66300 39.28300
H  -15.84500 18.28100 41.07800
H  -13.87900 12.72600 43.39100
H  -6.78300 16.21600 40.76100
H  -7.95800 17.85900 38.58500
H  -6.46500 18.22700 41.08900
H  -7.64600 19.46100 40.84900
H  -6.42800 19.24900 39.53500
H  -7.38800 15.93600 37.78200
H  -7.66000 14.44900 38.66300
H  -5.58700 14.08700 38.61100
H  -4.98400 15.57800 39.28300
H  -12.54000 21.95900 38.53400
H  -10.90200 21.51200 38.96400
H  -11.87000 22.36000 40.15300
H  -16.20500 20.31600 41.87600
H  -16.54000 20.13700 40.09900
H  -16.93800 21.62800 40.73000
H  -16.56800 15.61700 41.16100
H  -15.68100 14.51800 43.85300
H  -18.25100 16.43200 42.59100
H  -17.07700 17.53600 43.29400
H  -17.37800 15.97500 44.06500
H  -15.52200 12.47700 41.93000
H  -17.16800 13.19900 41.59100
H  -17.18200 12.75100 44.23800
H  -16.40200 11.26800 43.57800
H  -17.99000 11.79500 43.12100
H  -12.18500 10.52700 42.69800
H  -12.29900 11.12300 44.42100
H  -10.84300 10.35400 43.85100
H  -7.30000 12.99900 40.98700
H  -4.85300 16.11100 42.75400
H  -3.72500 14.65300 42.45800
H  -4.57600 14.81400 43.92900

