158

Mg 44.44200 4.73900 47.19900
C  42.33800 7.45800 46.91100
C  41.67200 2.66600 46.64000
C  46.51800 2.16800 46.79200
C  47.21500 6.91500 46.89300
N  42.18400 5.02700 46.83700
C  41.55300 6.29400 46.68100
C  39.97000 6.15200 46.61800
C  39.84700 4.57900 46.55100
C  41.31000 4.07900 46.71700
C  38.89100 3.98400 47.67700
C  39.34400 6.82700 45.37600
C  39.82600 6.21800 44.04900
H  40.46800 7.26400 43.14300
N  44.16700 2.65200 46.79100
C  42.95400 2.01000 46.69700
C  43.23300 0.59000 46.62200
C  44.61500 0.36300 46.59100
C  45.19800 1.74500 46.71100
C  42.05600 -0.42400 46.57300
C  45.30100 -1.00300 46.59200
O  44.59400 -2.03300 46.65300
C  46.77600 -1.05200 46.58400
N  46.53500 4.60000 46.74600
C  47.15600 3.43500 46.83000
C  48.63500 3.56700 47.07900
C  48.82700 5.06800 46.78600
C  47.38800 5.58200 46.71000
C  49.10300 3.17300 48.48700
C  49.64900 5.40900 45.50600
C  51.21100 5.35100 45.73700
N  44.78500 6.77000 47.07800
C  45.93400 7.47900 46.99600
C  45.58300 8.91100 46.92200
C  44.16300 8.91900 46.93200
C  43.73800 7.57700 47.04400
C  46.56000 10.02800 46.73000
C  42.98500 9.75100 46.93200
O  42.78400 10.99200 46.94100
C  41.73900 8.78200 47.08000
C  41.01800 8.99900 48.43000
O  41.09500 8.29500 49.40700
O  40.33500 10.20100 48.39400
C  39.70800 10.54800 49.69100
H  40.72900 2.12000 46.56900
H  47.27700 1.40900 46.59100
H  48.01000 7.66200 46.94500
H  39.58700 6.61700 47.52600
H  39.47100 4.12700 45.63300
H  38.09300 4.68700 47.91900
H  39.51300 3.72500 48.53300
H  38.42800 3.06800 47.31000
H  39.46100 7.90900 45.32200
H  38.26100 6.69800 45.36500
H  38.94700 5.85700 43.51500
H  40.54300 5.43500 44.29900
H  42.03400 -0.83300 47.58300
H  42.15000 -1.32100 45.96000
H  41.11700 -0.00300 46.21400
H  47.16800 -2.05000 46.38500
H  47.05300 -0.64900 47.55900
H  47.11700 -0.44600 45.74600
H  49.21800 2.92000 46.42400
H  49.29500 5.61300 47.60500
H  48.24600 2.73900 49.00100
H  49.36100 4.10500 48.99000
H  49.94500 2.48900 48.38300
H  49.44500 6.41900 45.15100
H  49.34600 4.72600 44.71200
H  51.68100 4.98800 44.82300
H  51.47200 4.80700 46.64500
H  51.56000 6.37200 45.88700
H  47.17500 9.79900 45.85900
H  47.24000 10.00900 47.58200
H  46.09500 11.00200 46.57900
H  41.07100 8.99700 46.24700
H  40.31100 11.23900 50.28000
H  39.31000 9.69400 50.23900
H  38.79900 11.00800 49.30500
Mg 35.77300 2.64600 30.77700
C  33.30000 3.57400 33.24100
C  38.13300 2.79000 33.35300
C  38.15800 2.11300 28.55500
C  33.37100 2.81000 28.46500
N  35.70600 2.99200 33.04300
C  34.62000 3.37300 33.79700
C  35.01600 3.65100 35.23700
C  36.59000 3.64900 35.18200
C  36.84000 3.05000 33.82000
C  37.35900 4.94900 35.52500
C  34.25700 2.60600 36.17400
C  34.09300 2.88100 37.64300
H  35.01600 3.91400 38.31800
N  37.91000 2.50900 30.95900
C  38.66500 2.63000 32.05400
C  40.08000 2.43700 31.69700
C  40.10600 2.17400 30.30100
C  38.72000 2.27300 29.85700
C  41.23000 2.57100 32.64500
C  41.25700 1.73600 29.37300
O  41.12700 1.56300 28.15600
C  42.62300 1.58200 29.96700
N  35.73300 2.41900 28.83600
C  36.83700 2.19900 28.08400
C  36.45000 1.94600 26.63000
C  34.89300 1.96300 26.61600
C  34.64100 2.45500 27.98900
C  37.08000 2.96500 25.56500
C  34.09800 0.65000 26.29300
C  34.05900 0.32600 24.78500
N  33.78200 3.22300 30.78100
C  32.89000 3.15500 29.71400
C  31.58100 3.47400 30.12300
C  31.71100 3.74400 31.51100
C  33.04700 3.56000 31.87500
C  30.38200 3.52500 29.22200
C  30.97600 3.95400 32.74800
O  29.77200 4.01800 32.98100
C  31.99900 3.99700 33.96300
C  31.96500 5.32700 34.56700
O  32.56600 6.32800 34.12600
O  31.17300 5.32200 35.63900
C  31.23400 6.54500 36.52100
H  38.88400 2.83200 34.14500
H  38.90800 2.03200 27.76400
H  32.63300 2.87300 27.66200
H  34.67300 4.62500 35.58900
H  36.75600 2.92900 35.98300
H  37.86200 5.28400 34.61800
H  38.22500 4.73600 36.15100
H  36.65000 5.72600 35.81100
H  34.90300 1.73200 36.08700
H  33.29200 2.33100 35.75000
H  34.24500 1.98600 38.24600
H  33.04000 3.05300 37.86900
H  40.99700 3.04600 33.59800
H  41.91300 3.30000 32.20900
H  41.87000 1.73000 32.91300
H  42.55800 1.02300 30.90100
H  43.15200 2.51900 30.13800
H  43.33600 1.05800 29.33000
H  36.82800 0.93600 26.46900
H  34.60400 2.79800 25.97900
H  37.78800 2.48800 24.88700
H  37.58200 3.78000 26.08600
H  36.29300 3.45900 24.99600
H  33.08200 0.87800 26.61800
H  34.33000 -0.23400 26.88600
H  34.68100 1.06500 24.27900
H  33.10100 0.25300 24.27000
H  34.47200 -0.67300 24.64500
H  29.74300 2.79400 29.71700
H  30.46300 3.24200 28.17300
H  29.70500 4.37900 29.24300
H  31.73500 3.25100 34.71200
H  31.17200 6.22900 37.56200
H  30.40500 7.18700 36.22200
H  32.19300 7.05300 36.41700

