158

Mg 40.64100 9.15600 29.17200
C  42.80300 10.68800 31.50500
C  38.66300 7.95000 31.69100
C  38.82500 7.58100 26.77800
C  42.88100 10.31200 26.64800
N  40.92800 9.05400 31.41100
C  41.66100 10.01600 32.08800
C  41.12600 10.21100 33.46200
C  39.97600 9.14500 33.54800
C  39.81300 8.66100 32.09600
C  40.19400 7.98300 34.55100
C  40.65400 11.65300 33.87300
C  39.99500 11.80500 35.29000
H  40.82100 12.64100 36.33700
N  39.02500 7.77000 29.25900
C  38.23600 7.53900 30.37300
C  37.10600 6.75500 29.96300
C  37.20000 6.69000 28.48600
C  38.40000 7.34000 28.11500
C  36.03600 6.11200 30.89900
C  36.19500 6.16600 27.42400
O  36.49800 5.80100 26.29900
C  34.75400 5.86300 27.86200
N  40.96400 8.84500 27.12900
C  39.91800 8.33200 26.35100
C  40.18600 8.65000 24.81400
C  41.52400 9.41100 24.82700
C  41.83000 9.55300 26.25600
C  40.04300 7.36900 23.98400
C  41.47800 10.69400 23.91800
C  40.86400 11.91000 24.61800
N  42.48800 10.27400 29.03600
C  43.23600 10.68500 27.96200
C  44.29900 11.50200 28.40300
C  44.15800 11.48700 29.77200
C  43.09100 10.72500 30.10100
C  45.37900 12.17700 27.50200
C  44.79800 12.02600 30.92100
O  45.79100 12.74400 30.97600
C  43.85200 11.63100 32.18200
C  44.49200 11.12400 33.30600
O  44.95100 9.97700 33.48400
O  44.47300 12.08400 34.34200
C  45.13700 11.54100 35.53300
H  38.03500 7.81200 32.57400
H  38.22300 7.17300 25.96300
H  43.44800 10.79600 25.85000
H  41.95000 9.95000 34.12500
H  39.03500 9.62000 33.82400
H  41.25900 7.84800 34.73800
H  39.74300 6.99900 34.42900
H  39.73400 8.31300 35.48300
H  39.91200 11.99300 33.15000
H  41.52900 12.29600 33.77500
H  39.86600 10.80700 35.71000
H  38.98300 12.20000 35.20700
H  36.38900 5.84300 31.89500
H  35.52900 5.27200 30.42500
H  35.24100 6.85600 30.95300
H  34.52300 6.60400 28.62800
H  34.78600 4.83800 28.23300
H  34.04800 5.96000 27.03800
H  39.46200 9.36600 24.42200
H  42.21400 8.65500 24.45200
H  39.00600 7.24200 23.67300
H  40.51100 6.59200 24.58900
H  40.63500 7.49600 23.07800
H  40.91500 10.55900 22.99400
H  42.53300 10.86400 23.70300
H  41.50300 12.79300 24.60600
H  40.76900 11.71100 25.68500
H  39.95000 12.26700 24.14400
H  44.95700 12.65400 26.61800
H  46.17500 11.48700 27.21900
H  45.87900 12.99200 28.02700
H  43.27500 12.51000 32.47000
H  46.18400 11.26800 35.40100
H  44.59900 10.65600 35.87300
H  45.21000 12.20900 36.39200
Mg -11.08800 38.94500 41.36300
C  -8.74000 36.12100 40.96100
C  -9.04200 40.80000 39.51300
C  -13.63700 41.07800 40.99500
C  -13.36500 36.43500 42.38300
N  -9.17000 38.46500 40.21600
C  -8.40800 37.30800 40.24300
C  -7.10300 37.54400 39.51400
C  -7.15700 39.07100 39.09500
C  -8.53500 39.48900 39.67200
C  -5.96600 39.97600 39.61800
C  -7.05900 36.62600 38.26500
C  -5.72400 35.89100 38.20900
H  -4.95700 36.11900 36.93900
N  -11.19900 40.73700 40.47800
C  -10.22800 41.33900 39.84400
C  -10.61500 42.69700 39.51200
C  -11.98400 42.80600 39.83500
C  -12.35100 41.51400 40.48000
C  -9.73400 43.83200 38.79000
C  -12.87400 43.98600 39.55300
O  -12.40200 45.01700 38.97400
C  -14.31500 44.04400 39.81200
N  -13.21000 38.76900 41.67600
C  -14.02300 39.86000 41.54800
C  -15.50700 39.48800 41.96500
C  -15.36500 37.95200 42.36400
C  -13.91700 37.70400 42.13600
C  -16.14400 40.32100 43.15100
C  -16.30100 37.02700 41.59500
C  -17.06900 36.02600 42.55600
N  -11.14500 36.74700 41.72000
C  -12.10400 35.92700 42.20100
C  -11.57300 34.61900 42.47600
C  -10.33400 34.66600 41.97700
C  -10.05000 35.97500 41.51700
C  -12.37700 33.59200 43.10400
C  -9.13000 33.85800 41.81400
O  -8.96500 32.67600 41.99600
C  -8.07800 34.78700 41.05500
C  -6.72600 34.78500 41.70400
O  -5.83800 33.95100 41.61300
O  -6.55700 36.00900 42.38600
C  -5.25800 36.25900 43.14700
H  -8.28500 41.45700 39.07900
H  -14.54800 41.67300 40.90000
H  -14.04000 35.74700 42.89600
H  -6.17000 37.50400 40.07600
H  -7.20400 39.23000 38.01800
H  -6.41300 40.62000 40.37600
H  -5.56700 40.60700 38.82400
H  -5.10500 39.54800 40.13200
H  -7.34100 37.20400 37.38400
H  -7.87000 35.89800 38.24200
H  -5.92400 34.82700 38.32700
H  -5.05700 36.19300 39.01800
H  -10.16800 43.99300 37.80400
H  -8.71800 43.47500 38.62800
H  -9.65500 44.79700 39.29200
H  -14.31700 43.94200 40.89700
H  -14.83900 43.23000 39.31100
H  -14.73200 44.98600 39.45700
H  -16.20600 39.59300 41.13500
H  -15.53400 37.82300 43.43400
H  -16.51500 41.28600 42.80600
H  -15.54600 40.43600 44.05500
H  -16.90200 39.65600 43.56500
H  -15.79000 36.43300 40.83700
H  -17.05900 37.57700 41.03700
H  -17.00100 35.02500 42.13000
H  -18.01500 36.47600 42.85800
H  -16.55600 35.93200 43.51300
H  -13.04400 33.91300 43.90500
H  -11.60300 33.07200 43.66900
H  -12.78200 32.97100 42.30600
H  -8.06200 34.46900 40.01300
H  -5.24800 35.57700 43.99700
H  -5.04800 37.30200 43.38200
H  -4.51200 36.15600 42.35900

