158

Mg 46.13100 25.27100 28.16400
C  47.09600 27.35000 30.78500
C  45.40100 22.74500 30.50700
C  46.03300 22.88100 25.64900
C  47.54900 27.53100 25.89700
N  46.33500 25.12700 30.37400
C  46.56500 26.15900 31.23000
C  46.24500 25.78000 32.73800
C  45.74100 24.30300 32.64600
C  45.78500 24.06100 31.07000
C  46.53500 23.36800 33.55800
C  45.14500 26.71700 33.43000
C  45.53200 27.51300 34.70800
H  44.51200 27.53100 35.82100
N  45.62400 23.11400 28.02900
C  45.35300 22.32300 29.16900
C  44.90800 21.02800 28.66000
C  45.19400 20.99300 27.27300
C  45.65200 22.34500 26.93600
C  44.24100 19.96900 29.64500
C  45.13500 19.80200 26.30400
O  45.17200 20.01700 25.05900
C  45.06500 18.42500 26.76400
N  46.58400 25.27900 26.11300
C  46.46100 24.16800 25.28600
C  46.76800 24.61100 23.80100
C  47.14200 26.11300 23.91000
C  47.01400 26.31700 25.38700
C  47.77900 23.71100 23.09900
C  46.33700 27.09600 23.05300
C  47.24700 27.85600 22.06200
N  47.17400 27.10200 28.26600
C  47.58600 27.96200 27.23800
C  48.25600 29.14900 27.89500
C  47.95800 29.01000 29.27800
C  47.36400 27.69800 29.40700
C  48.84400 30.19600 27.18900
C  48.12800 29.66000 30.53500
O  48.51300 30.79300 30.82700
C  47.51800 28.61100 31.51400
C  48.59800 28.18400 32.38100
O  49.60000 27.57600 31.98600
O  48.34200 28.69900 33.64600
C  49.35700 28.30100 34.64400
H  45.08800 22.16900 31.38000
H  45.97700 22.12400 24.86400
H  48.02300 28.23000 25.20500
H  47.17900 25.74900 33.29800
H  44.66100 24.30900 32.79700
H  46.98200 23.98500 34.33700
H  47.38600 22.87100 33.09100
H  45.91500 22.64500 34.08900
H  44.28100 26.06600 33.56200
H  44.84000 27.41000 32.64500
H  45.56200 28.55000 34.37200
H  46.45600 27.22900 35.21200
H  43.49700 19.41300 29.07600
H  43.68600 20.47500 30.43500
H  44.90800 19.19400 30.02400
H  45.47200 17.72900 26.03100
H  43.99100 18.24400 26.80500
H  45.61100 18.29600 27.69800
H  45.81400 24.53600 23.28000
H  48.20400 26.13000 23.66600
H  48.06800 22.81500 23.64900
H  48.68300 24.22200 22.76900
H  47.31600 23.29000 22.20600
H  45.86700 27.90700 23.61000
H  45.46900 26.57900 22.64400
H  48.18800 27.32800 21.90600
H  47.48400 28.82500 22.50300
H  46.79700 28.05800 21.09100
H  49.23600 31.03200 27.76800
H  48.06500 30.58600 26.53400
H  49.62600 29.70300 26.61200
H  46.66200 29.10300 31.97700
H  50.22700 27.72800 34.32300
H  48.93100 27.57800 35.34000
H  49.76600 29.15300 35.18700
Mg -4.54700 24.82800 26.19000
C  -2.79100 26.31900 28.86300
C  -5.90200 22.53800 28.59200
C  -6.02500 23.31200 23.76800
C  -2.49700 26.64700 24.00900
N  -4.39100 24.54100 28.44600
C  -3.68300 25.36300 29.33100
C  -4.14100 25.00100 30.78600
C  -4.73100 23.52200 30.54500
C  -5.04900 23.50900 29.08900
C  -3.62100 22.42200 30.84500
C  -5.21700 25.95000 31.23500
C  -5.13300 26.52100 32.58700
H  -4.66000 25.66400 33.69500
N  -5.92300 23.23800 26.17500
C  -6.38400 22.48700 27.25300
C  -7.35100 21.52800 26.72000
C  -7.41400 21.83900 25.31700
C  -6.39800 22.76800 25.01100
C  -8.01600 20.43200 27.54100
C  -8.42300 21.18200 24.27900
O  -8.34800 21.37000 23.06400
C  -9.48000 20.30000 24.67200
N  -4.25900 24.90100 24.15700
C  -5.06100 24.25900 23.33600
C  -4.70800 24.51800 21.85400
C  -3.65800 25.66500 21.91300
C  -3.48700 25.82800 23.43100
C  -4.28000 23.25100 21.09200
C  -4.09000 27.03900 21.29800
C  -5.06800 27.04300 20.08200
N  -3.03800 26.30700 26.37800
C  -2.28500 26.92100 25.39200
C  -1.52800 27.98800 25.99700
C  -1.66100 27.71000 27.38500
C  -2.52800 26.66400 27.56800
C  -0.66400 28.93800 25.29200
C  -1.14200 28.07800 28.72000
O  -0.37100 28.94900 29.03800
C  -1.95100 27.18500 29.73700
C  -1.04300 26.52100 30.78000
O  -0.13500 25.76000 30.53900
O  -1.49500 27.03800 32.04800
C  -0.81500 26.40400 33.13100
H  -6.33300 21.86100 29.33300
H  -6.49500 22.94800 22.85300
H  -1.80800 27.20700 23.37200
H  -3.31800 24.95900 31.50000
H  -5.62200 23.30500 31.13500
H  -3.94100 21.44100 30.49200
H  -3.43100 22.26500 31.90700
H  -2.77000 22.82400 30.29600
H  -6.24100 25.68500 30.97500
H  -5.17100 26.82600 30.58800
H  -6.11400 26.85700 32.92400
H  -4.51600 27.41700 32.64100
H  -7.42600 20.15300 28.41400
H  -8.07000 19.49400 26.99000
H  -9.05800 20.64000 27.78300
H  -10.18900 20.77900 25.34700
H  -9.09800 19.34200 25.02300
H  -10.01600 20.00800 23.76900
H  -5.61200 24.84600 21.34000
H  -2.69700 25.32100 21.52900
H  -5.09500 23.08100 20.38900
H  -4.27700 22.39500 21.76600
H  -3.35500 23.35500 20.52600
H  -3.28600 27.64900 20.88700
H  -4.53900 27.54200 22.15500
H  -6.08800 27.31400 20.35300
H  -5.08600 26.09400 19.54600
H  -4.77700 27.69900 19.26100
H  -0.13100 29.63500 25.93900
H  -1.14000 29.69500 24.66800
H  0.02300 28.34500 24.68900
H  -2.61600 27.88700 30.23900
H  -0.94800 27.04100 34.00600
H  0.26700 26.31400 33.03600
H  -1.08900 25.35000 33.16800

