158

Mg 48.75100 45.31500 42.62800
C  45.34200 45.52700 42.13700
C  48.65600 42.00700 42.35200
C  52.15700 45.45700 42.70400
C  48.74100 48.84100 42.91900
N  47.23600 43.96700 42.20400
C  45.88700 44.21600 42.10500
C  45.10300 42.94400 41.70800
C  46.07500 41.86600 42.22200
C  47.42600 42.64100 42.24600
C  45.75400 41.00200 43.49100
C  44.56800 42.84200 40.23800
C  45.33800 43.48700 39.15400
H  45.19100 43.06000 37.60500
N  50.19800 43.90100 42.58600
C  49.97400 42.57200 42.44300
C  51.28800 41.89600 42.47100
C  52.29400 42.88100 42.41800
C  51.58600 44.15500 42.64900
C  51.50500 40.35600 42.39900
C  53.82100 42.61900 42.38700
O  54.18600 41.43600 42.35400
C  54.89300 43.72800 42.46300
N  50.27800 46.95300 42.47600
C  51.59500 46.72400 42.61100
C  52.44400 48.00700 42.85000
C  51.26100 49.10100 42.88200
C  49.99100 48.25800 42.77800
C  53.53900 47.96500 43.99600
C  51.22100 50.17300 41.69000
C  51.35800 51.61600 42.18200
N  47.35000 46.94000 42.67800
C  47.45400 48.26100 42.77900
C  46.21600 48.87600 42.58500
C  45.30500 47.86700 42.33600
C  46.04200 46.69600 42.44200
C  46.01300 50.35700 42.54800
C  43.95400 47.56500 42.04000
O  42.99900 48.25000 41.84300
C  43.87900 45.99900 41.86700
C  42.82400 45.35700 42.76200
O  42.07000 44.46300 42.39800
O  42.75500 46.05500 43.91500
C  41.55600 45.87500 44.72800
H  48.70600 40.91600 42.34600
H  53.22700 45.65600 42.79500
H  48.83600 49.90900 43.12600
H  44.21600 42.92500 42.34100
H  46.08700 41.17300 41.38100
H  44.91200 41.55900 43.90300
H  46.58100 40.84000 44.18200
H  45.31800 40.04400 43.20700
H  43.58600 43.30400 40.34600
H  44.44000 41.77900 40.03600
H  46.35700 43.26400 39.46900
H  45.25000 44.57300 39.13000
H  51.70900 40.00200 41.38800
H  50.55500 39.84600 42.55800
H  52.25600 39.93700 43.06900
H  54.64600 44.14800 43.43800
H  54.76900 44.35200 41.57800
H  55.88700 43.28300 42.51400
H  52.93500 48.14500 41.88700
H  51.27600 49.55300 43.87300
H  54.52500 48.11700 43.55700
H  53.47100 46.96100 44.41500
H  53.36300 48.77000 44.70900
H  50.32600 50.04700 41.08100
H  52.15100 49.98000 41.15500
H  50.87800 52.36700 41.55500
H  52.39000 51.91200 42.37100
H  50.89400 51.75600 43.15800
H  46.87400 50.83300 42.07900
H  46.11800 50.58400 43.60900
H  45.02100 50.64300 42.20000
H  43.49800 45.72400 40.88300
H  41.14200 46.86900 44.89400
H  41.95600 45.45700 45.65200
H  40.72400 45.27900 44.35500
Mg 30.76400 58.65800 39.27600
C  28.17400 56.62200 38.45300
C  32.95900 55.79600 38.53300
C  33.20900 60.72200 39.08900
C  28.41600 61.33000 39.58700
N  30.54900 56.47900 38.58400
C  29.32500 55.89700 38.37500
C  29.47900 54.48800 37.85900
C  30.89300 54.12400 38.44200
C  31.57100 55.55300 38.56000
C  30.91000 53.45000 39.88300
C  29.51900 54.46600 36.34700
C  28.91700 53.27500 35.57500
H  28.22300 53.65300 34.29800
N  32.84000 58.34600 38.83900
C  33.53400 57.08500 38.57900
C  34.95800 57.38200 38.46300
C  35.09400 58.86300 38.61800
C  33.70700 59.39000 38.81500
C  35.99600 56.36000 38.17200
C  36.45300 59.63100 38.50700
O  37.54400 59.05300 38.33100
C  36.41500 61.17200 38.51400
N  30.81800 60.80000 39.33500
C  31.99800 61.39000 39.36100
C  31.78900 62.89800 39.60500
C  30.30000 63.08800 40.00100
C  29.79500 61.67000 39.75600
C  32.72100 63.43000 40.72200
C  29.56200 64.17600 39.24900
C  29.36900 64.01800 37.76100
N  28.72300 58.98500 39.15600
C  27.84300 60.03500 39.32900
C  26.46000 59.66900 39.08200
C  26.59700 58.34000 38.72400
C  27.92200 57.94500 38.83800
C  25.31800 60.57200 38.95400
C  25.77800 57.16900 38.33000
O  24.59800 57.15500 38.13600
C  26.76500 55.99700 38.21900
C  26.27700 55.00500 39.19200
O  26.77500 54.76200 40.28500
O  25.22400 54.37700 38.65700
C  24.50000 53.38200 39.41100
H  33.58600 54.91700 38.69700
H  33.99900 61.47500 39.03100
H  27.65800 62.10900 39.69500
H  28.77900 53.74100 38.23300
H  31.36600 53.41200 37.76500
H  29.90900 53.27300 40.27500
H  31.45800 54.03600 40.62000
H  31.38800 52.47500 39.78200
H  30.56200 54.64400 36.08400
H  28.96200 55.34100 36.01300
H  28.11200 52.74000 36.07900
H  29.69800 52.56600 35.30100
H  36.29800 56.36900 37.12500
H  35.68500 55.33200 38.35500
H  36.88700 56.46900 38.78900
H  36.17700 61.53800 39.51300
H  35.71900 61.51600 37.74900
H  37.45500 61.45700 38.35800
H  32.10200 63.41300 38.69600
H  30.33100 63.18600 41.08600
H  32.91200 62.61700 41.42200
H  32.40200 64.34700 41.21700
H  33.66900 63.71200 40.26500
H  30.10400 65.05600 39.59600
H  28.62400 64.01200 39.78000
H  29.37900 64.96900 37.22800
H  28.38700 63.54500 37.75000
H  30.07900 63.39500 37.21700
H  25.65400 61.58200 38.71800
H  24.72100 60.64500 39.86300
H  24.68300 60.20200 38.15000
H  26.85200 55.58300 37.21400
H  24.46300 52.38700 38.96800
H  23.46700 53.70400 39.54400
H  24.83600 53.23800 40.43800

