158

Mg 47.80700 16.31200 27.94900
C  45.91200 15.98800 30.91100
C  49.89700 18.40800 29.65400
C  49.23800 17.01500 24.98500
C  45.25700 14.46400 26.31800
N  47.89100 17.05400 30.06600
C  47.02600 16.78600 31.07800
C  47.52800 17.36800 32.46700
C  48.61000 18.36600 31.89400
C  48.82400 17.99500 30.41200
C  48.17500 19.80200 32.03900
C  48.02000 16.32600 33.51400
C  47.83800 16.83500 35.00400
H  47.63000 18.27600 35.35400
N  49.50900 17.42800 27.48100
C  50.24600 18.18500 28.33300
C  51.41600 18.73800 27.65500
C  51.20800 18.42500 26.23900
C  49.91600 17.63000 26.12100
C  52.55700 19.41600 28.41800
C  52.16000 18.72200 25.08800
O  51.89400 18.28500 23.95000
C  53.42100 19.55100 25.31000
N  47.37600 15.78700 25.97100
C  48.09000 16.20300 24.91700
C  47.54700 15.64100 23.61200
C  46.30800 14.80700 24.10000
C  46.35500 14.96800 25.59000
C  47.20000 16.68800 22.54400
C  46.35700 13.29900 23.65000
C  45.73300 13.13500 22.25200
N  45.89300 15.50600 28.45200
C  44.94500 14.77900 27.70300
C  43.82200 14.44900 28.50400
C  44.20800 14.81900 29.79200
C  45.43500 15.51100 29.70600
C  42.66700 13.56200 28.09000
C  43.73700 14.77200 31.17500
O  42.75800 14.31700 31.74800
C  44.89500 15.53000 31.90900
C  44.29700 16.73000 32.67100
O  44.03200 17.84100 32.17900
O  44.05100 16.30400 34.00000
C  43.48600 17.36900 34.87000
H  50.57600 19.05100 30.21700
H  49.68200 17.24600 24.01400
H  44.52200 13.75100 25.94000
H  46.64200 17.90900 32.79800
H  49.56700 18.24500 32.40000
H  47.40400 20.15600 32.72300
H  48.04400 20.28400 31.07100
H  49.04100 20.31000 32.46400
H  49.05500 16.09300 33.26500
H  47.39800 15.44900 33.33600
H  48.62600 16.52200 35.68700
H  46.97000 16.29500 35.38000
H  53.43700 18.78200 28.30300
H  52.46900 19.35300 29.50200
H  52.67700 20.42000 28.01200
H  53.58900 20.03500 24.34800
H  54.24100 18.91700 25.64900
H  53.17200 20.35400 26.00400
H  48.25300 14.93400 23.17600
H  45.40300 15.26900 23.70600
H  47.82700 16.63500 21.65400
H  47.41800 17.69100 22.91100
H  46.18200 16.61600 22.16000
H  45.92400 12.60200 24.36700
H  47.40900 13.01300 23.67200
H  44.87600 12.49300 22.45600
H  46.44500 12.74900 21.52300
H  45.32500 14.04800 21.81700
H  43.06300 12.74100 27.49300
H  42.01300 14.26400 27.57300
H  42.11200 13.13900 28.92800
H  45.29700 14.80100 32.61200
H  42.42900 17.39400 34.60600
H  44.06300 18.29300 34.83600
H  43.47400 17.09600 35.92500
Mg 6.63600 54.38000 41.02400
C  5.76500 50.95700 40.84300
C  9.83900 53.34600 39.89500
C  7.50100 57.59600 40.60600
C  3.39900 55.23900 41.74200
N  7.61300 52.39300 40.39200
C  7.09800 51.11600 40.47600
C  8.10500 50.00700 40.20300
C  9.43700 50.76600 40.25700
C  8.96700 52.26700 40.18900
C  10.39400 50.49400 41.49400
C  7.92100 49.30000 38.83500
C  7.60300 50.25100 37.62500
H  6.59600 49.69500 36.52200
N  8.51700 55.38900 40.44500
C  9.60700 54.78200 39.92200
C  10.49100 55.76300 39.34900
C  9.88300 56.99300 39.70000
C  8.56200 56.71800 40.26400
C  11.88600 55.49600 38.87900
C  10.46100 58.32800 39.32200
O  11.61000 58.36000 38.75900
C  9.89400 59.68600 39.48700
N  5.67600 56.09000 41.29900
C  6.26100 57.33900 41.15500
C  5.29100 58.41600 41.70700
C  3.98400 57.70000 41.88100
C  4.33600 56.26800 41.66400
C  5.69900 59.07400 43.09200
C  2.72700 58.18100 40.99700
C  1.43200 58.73900 41.75700
N  4.84900 53.42400 41.24400
C  3.64400 53.85100 41.67600
C  2.69500 52.77900 41.62600
C  3.43600 51.60000 41.36800
C  4.78600 52.03500 41.13500
C  1.20300 52.90100 41.74100
C  3.43700 50.09100 41.28100
O  2.50400 49.29500 41.45100
C  4.92000 49.64100 40.88100
C  4.79100 48.90600 39.58100
O  4.33100 49.32300 38.51800
O  5.14000 47.57500 39.85200
C  4.65800 46.60800 38.89000
H  10.84900 53.04400 39.61100
H  7.66100 58.66700 40.74500
H  2.35200 55.53900 41.81500
H  7.89100 49.28300 40.99000
H  10.05500 50.55400 39.38500
H  11.32600 50.18600 41.02000
H  10.03000 49.60100 42.00200
H  10.51200 51.38700 42.10900
H  7.30700 48.40200 38.89700
H  8.89900 48.90400 38.56000
H  8.55700 50.28400 37.10000
H  7.37200 51.27900 37.90600
H  12.07200 55.47200 37.80500
H  12.22300 54.52300 39.23500
H  12.56500 56.22400 39.32400
H  10.57200 60.52400 39.32600
H  9.78200 59.72400 40.57000
H  8.93000 59.90200 39.02600
H  5.33400 59.12700 40.88200
H  3.64700 57.77000 42.91500
H  6.27600 59.96200 42.83200
H  6.28600 58.46800 43.78200
H  4.79900 59.43900 43.58800
H  2.44700 57.36700 40.32900
H  3.18200 58.94200 40.36400
H  1.46500 58.42100 42.80000
H  0.59100 58.34300 41.18900
H  1.26400 59.81600 41.75500
H  1.06600 53.50500 42.63800
H  0.81600 51.88700 41.84300
H  0.84800 53.48300 40.89000
H  5.32900 48.96300 41.63000
H  5.02500 45.62900 39.19700
H  5.09900 46.69300 37.89700
H  3.56900 46.62600 38.86200

