158

Mg 44.39800 4.72400 46.47800
C  42.02900 7.18500 46.02000
C  41.89900 2.35400 46.21600
C  46.73200 2.23700 46.35600
C  46.95100 7.15500 46.07100
N  42.19700 4.77300 46.04000
C  41.46400 5.93800 45.97700
C  39.98400 5.56300 45.97300
C  39.96600 4.06300 46.11400
C  41.44300 3.68400 46.09200
C  39.20200 3.70500 47.46500
C  39.27500 6.08900 44.76300
C  40.10000 6.02200 43.41100
H  39.18900 5.84000 42.17200
N  44.38400 2.58500 46.39300
C  43.21600 1.83000 46.33800
C  43.55000 0.41500 46.29300
C  44.96100 0.37300 46.54100
C  45.43900 1.79000 46.47600
C  42.50100 -0.72900 46.19600
C  45.76300 -0.91800 46.85100
O  45.23800 -1.98800 47.04800
C  47.21600 -0.94200 46.84600
N  46.55000 4.69000 46.01700
C  47.26200 3.55600 46.26600
C  48.72900 3.87500 46.12900
C  48.81200 5.39200 46.07900
C  47.35300 5.82300 45.92300
C  49.53900 3.25500 47.37100
C  49.68300 5.94400 44.89300
C  51.19600 5.85600 45.03300
N  44.55000 6.76800 46.22900
C  45.59900 7.62200 46.16400
C  45.12500 8.96600 46.18800
C  43.73100 8.85700 46.10700
C  43.46100 7.47700 46.16400
C  45.86800 10.24100 46.12800
C  42.48600 9.58800 45.91600
O  42.30400 10.77000 45.88800
C  41.35700 8.55700 45.94100
C  40.53200 8.86500 47.09500
O  40.78400 8.41400 48.20400
O  39.38100 9.51100 46.76800
C  38.47800 9.81100 47.92400
H  41.06200 1.66000 46.31500
H  47.52700 1.49000 46.39700
H  47.82800 7.79200 46.20200
H  39.48700 5.97600 46.85100
H  39.41800 3.61500 45.28500
H  38.47900 4.48500 47.70300
H  39.79500 3.73200 48.37900
H  38.70100 2.75100 47.29800
H  38.80100 7.03900 45.00800
H  38.38600 5.49300 44.55700
H  40.86300 5.24700 43.34900
H  40.65300 6.95800 43.32500
H  41.46500 -0.39400 46.14100
H  42.49300 -1.41100 47.04600
H  42.62900 -1.24400 45.24300
H  47.64900 -0.29300 47.60800
H  47.54900 -0.71700 45.83300
H  47.61700 -1.90100 47.17500
H  49.12900 3.30400 45.29100
H  49.11300 5.99300 46.93700
H  48.78300 2.96700 48.10300
H  50.03900 4.14200 47.75900
H  50.18500 2.42700 47.08000
H  49.58700 7.02600 44.80500
H  49.50400 5.20100 44.11600
H  51.55300 6.88500 44.99300
H  51.65100 5.26100 44.24100
H  51.48500 5.44200 45.99900
H  46.64800 10.10000 45.37900
H  46.24500 10.68500 47.04900
H  45.27500 11.03800 45.68000
H  40.75000 8.64200 45.03900
H  38.29900 8.84800 48.40200
H  37.55400 10.26800 47.56900
H  39.05800 10.46400 48.57600
Mg 42.86400 42.61400 26.39800
C  41.96700 44.91800 28.80600
C  44.10300 40.53800 28.91400
C  44.42900 40.63300 24.00100
C  42.21300 45.02800 23.97800
N  43.12400 42.73000 28.64200
C  42.47200 43.71900 29.36100
C  42.57100 43.39800 30.89800
C  43.39000 42.03300 30.88500
C  43.48700 41.63700 29.39300
C  44.75100 42.03400 31.58200
C  41.12400 43.29200 31.46000
C  40.78400 44.22400 32.58200
H  40.13600 43.78200 33.90700
N  44.02800 40.85100 26.44000
C  44.33600 40.08300 27.57300
C  44.80700 38.77300 27.11100
C  44.93900 38.86700 25.69600
C  44.51300 40.20600 25.31200
C  45.14700 37.73900 28.22100
C  45.41700 37.78900 24.72100
O  45.59600 37.92700 23.51200
C  45.56000 36.31700 25.27600
N  43.41200 42.80800 24.35000
C  43.79500 41.79700 23.53700
C  43.61400 42.09400 22.09700
C  42.80300 43.40500 22.17200
C  42.78000 43.75300 23.61900
C  44.84900 42.18900 21.17400
C  41.38400 43.30000 21.50800
C  40.32900 42.55900 22.34100
N  42.13200 44.56100 26.30900
C  42.00900 45.40100 25.31400
C  41.54500 46.65400 25.79800
C  41.48300 46.50700 27.20300
C  41.86700 45.20000 27.46400
C  41.36200 47.96700 24.97300
C  41.23500 47.24500 28.38000
O  40.79900 48.37100 28.56500
C  41.50900 46.21200 29.54100
C  42.51100 46.83300 30.46200
O  43.73300 46.81600 30.33300
O  41.92300 47.33200 31.56700
C  42.81600 47.63400 32.68100
H  44.23600 39.81000 29.71700
H  44.61500 39.88500 23.22700
H  41.96600 45.61600 23.09100
H  43.18300 44.17800 31.35000
H  42.84500 41.18100 31.29100
H  45.55000 41.73400 30.90400
H  44.78700 41.43200 32.48900
H  44.99300 43.04800 31.89900
H  40.87000 42.25300 31.66700
H  40.41800 43.58600 30.68400
H  40.07500 44.93300 32.15500
H  41.63300 44.86000 32.83200
H  45.01100 36.68900 27.96100
H  44.67800 37.84800 29.19900
H  46.21100 37.79500 28.44900
H  46.27700 36.39100 26.09300
H  46.01700 35.65200 24.54200
H  44.53400 36.03400 25.51400
H  42.99400 41.33200 21.62500
H  43.32600 44.16000 21.58600
H  45.45400 41.32400 21.44800
H  45.39500 43.13200 21.18000
H  44.54000 42.13700 20.13000
H  41.53600 42.83500 20.53400
H  40.97900 44.29100 21.30300
H  40.78500 42.12800 23.23200
H  39.75200 41.87000 21.72500
H  39.57800 43.31800 22.56100
H  41.46300 48.94800 25.43700
H  40.35900 47.89300 24.55300
H  42.05000 48.07300 24.13500
H  40.56500 46.19600 30.08700
H  42.13300 47.67200 33.52900
H  43.32900 48.58400 32.52900
H  43.49100 46.79100 32.83100

