158

Mg -2.46600 17.26800 26.01700
C  -2.68500 14.91200 28.60500
C  -2.98500 19.64600 28.45000
C  -2.65600 19.39600 23.61300
C  -2.52600 14.58100 23.71200
N  -2.80200 17.23800 28.33100
C  -2.66500 16.21100 29.09200
C  -2.80000 16.56600 30.63300
C  -2.89800 18.13900 30.54200
C  -3.04500 18.35900 29.03500
C  -4.02500 18.71700 31.45500
C  -1.66500 15.93100 31.50100
C  -1.10700 16.72800 32.60100
H  -0.58100 15.94000 33.81500
N  -2.69000 19.21200 25.95700
C  -2.78500 20.04200 27.07400
C  -2.74500 21.44300 26.62400
C  -2.54300 21.41200 25.20500
C  -2.64700 20.00500 24.81600
C  -2.80600 22.62700 27.53800
C  -2.31600 22.62200 24.19300
O  -2.35300 22.41400 23.01000
C  -1.96800 23.97700 24.70900
N  -2.50000 16.95500 23.89800
C  -2.70300 18.08900 23.12900
C  -2.67600 17.73400 21.64100
C  -2.70700 16.16100 21.61300
C  -2.64300 15.86500 23.15700
C  -3.66400 18.34700 20.63200
C  -1.57000 15.50800 20.81100
C  -1.96200 14.74000 19.57600
N  -2.47900 15.18700 26.07900
C  -2.51300 14.17600 25.09800
C  -2.78200 12.93700 25.66300
C  -2.82800 13.11100 27.02300
C  -2.61800 14.51000 27.25200
C  -2.78100 11.65800 24.99200
C  -3.08000 12.46600 28.37400
O  -3.37400 11.31100 28.74800
C  -2.98400 13.61500 29.40700
C  -1.91100 13.08800 30.29800
O  -0.68500 13.30800 30.13400
O  -2.52300 12.38500 31.31900
C  -1.58300 12.06600 32.40900
H  -2.94900 20.43600 29.20300
H  -2.67700 20.06000 22.74600
H  -2.62300 13.78400 22.97200
H  -3.79100 16.37900 31.04600
H  -1.92100 18.54200 30.80900
H  -3.71500 18.70200 32.50000
H  -4.96800 18.19000 31.31200
H  -4.29900 19.75800 31.28400
H  -0.94100 15.62300 30.74600
H  -2.04500 15.02200 31.96800
H  -1.93200 17.36900 32.91100
H  -0.26800 17.35300 32.29500
H  -3.64500 23.27500 27.28500
H  -1.95100 23.28300 27.37200
H  -2.94000 22.32300 28.57600
H  -1.82100 24.73600 23.94000
H  -1.03700 23.82200 25.25500
H  -2.71100 24.22800 25.46600
H  -1.74900 18.11300 21.21100
H  -3.58800 15.74300 21.12600
H  -4.34800 17.54600 20.35300
H  -3.17300 18.77100 19.75600
H  -4.23900 19.13000 21.12800
H  -1.16700 14.77700 21.51200
H  -0.69400 16.07200 20.49000
H  -2.20000 13.72100 19.88200
H  -1.26100 14.70800 18.74200
H  -2.87500 15.13800 19.13400
H  -1.82300 11.43600 24.52300
H  -3.61000 11.48100 24.30600
H  -2.76300 10.86000 25.73400
H  -3.88900 13.75200 30.00000
H  -1.55800 11.03500 32.76200
H  -1.81300 12.76900 33.21000
H  -0.51500 12.19000 32.22500
Mg -12.33300 17.25400 40.79700
C  -9.54900 15.21700 40.10800
C  -10.72000 19.83700 39.53900
C  -15.40900 18.75900 40.54600
C  -14.08100 14.17700 41.61300
N  -10.28600 17.53600 40.05500
C  -9.33700 16.55200 39.83500
C  -7.99100 17.19000 39.44300
C  -8.39300 18.70200 39.28700
C  -9.86200 18.76000 39.70700
C  -7.34800 19.58700 39.97700
C  -7.40600 16.56500 38.19100
C  -5.88100 16.16300 38.10700
H  -5.16000 16.60100 36.86700
N  -12.93900 19.14500 40.26100
C  -12.13000 20.08900 39.75100
C  -12.89700 21.25600 39.36700
C  -14.29600 20.93800 39.66300
C  -14.26400 19.54300 40.20200
C  -12.17300 22.52700 38.85500
C  -15.45500 21.92000 39.46800
O  -15.19500 23.04500 39.10700
C  -16.84200 21.56600 39.75500
N  -14.46400 16.53400 41.00400
C  -15.49200 17.39300 40.94200
C  -16.80500 16.82400 41.46700
C  -16.42000 15.39700 41.93200
C  -14.86500 15.36200 41.49500
C  -17.50600 17.74600 42.59900
C  -17.35600 14.25400 41.29600
C  -17.96900 13.42300 42.31700
N  -11.92700 15.11800 41.01400
C  -12.72400 14.03300 41.33700
C  -11.92300 12.82700 41.33700
C  -10.67400 13.21400 40.84600
C  -10.71100 14.59700 40.67800
C  -12.34200 11.43100 41.64300
C  -9.34500 12.74100 40.39400
O  -8.86500 11.60400 40.35100
C  -8.55400 14.04100 39.95800
C  -7.46000 14.32600 40.89600
O  -7.50600 14.65900 42.06300
O  -6.33400 13.75500 40.33700
C  -5.04800 13.83200 41.05100
H  -10.09700 20.62600 39.11300
H  -16.40800 19.16000 40.36000
H  -14.60500 13.27400 41.93100
H  -7.27500 16.98700 40.24000
H  -8.25500 19.07100 38.27100
H  -7.80700 20.57400 40.03600
H  -6.36300 19.51400 39.51600
H  -7.27800 19.14800 40.97200
H  -7.61500 17.28600 37.40100
H  -7.89600 15.61400 37.98200
H  -5.79400 15.09500 38.30500
H  -5.38700 16.64500 38.95000
H  -12.46300 22.59900 37.80700
H  -11.08400 22.52300 38.89600
H  -12.54300 23.39200 39.40500
H  -17.56000 22.35100 39.52100
H  -16.87400 21.28400 40.80800
H  -17.10600 20.74100 39.09300
H  -17.48600 16.76700 40.61700
H  -16.47200 15.28600 43.01500
H  -18.48300 18.11500 42.28700
H  -16.95800 18.61900 42.95300
H  -17.63900 17.25100 43.56100
H  -16.75800 13.56100 40.70300
H  -18.06300 14.73300 40.61900
H  -19.03200 13.30800 42.10600
H  -17.96700 13.91300 43.29100
H  -17.49000 12.44700 42.40600
H  -13.04300 11.36000 42.47500
H  -11.54200 10.71100 41.81800
H  -12.82800 11.14200 40.71100
H  -8.16900 13.79900 38.96800
H  -4.93400 12.92300 41.64200
H  -4.98800 14.72100 41.67800
H  -4.27000 13.82200 40.28800

