158

Mg 49.72400 35.83900 27.38400
C  47.43800 34.27300 29.63200
C  50.11300 38.24500 29.72500
C  51.37200 37.51300 25.19500
C  49.04000 33.23800 25.10300
N  48.80900 36.20300 29.38700
C  48.06800 35.40700 30.16800
C  48.14800 35.69900 31.68400
C  48.64900 37.19600 31.54000
C  49.21500 37.21300 30.14600
C  47.68600 38.44100 31.76900
C  49.09600 34.71300 32.54400
C  49.67800 35.08400 33.95200
H  48.68900 35.85600 34.88400
N  50.67400 37.63100 27.41900
C  50.73500 38.47500 28.49600
C  51.55200 39.55500 28.18800
C  51.93900 39.41400 26.85400
C  51.28700 38.16700 26.41400
C  51.84400 40.57500 29.23600
C  52.71600 40.34300 25.90900
O  53.02800 40.15000 24.77900
C  53.19100 41.62100 26.53500
N  49.94300 35.46300 25.30100
C  50.85600 36.25700 24.68400
C  51.10100 35.73900 23.29700
C  50.65600 34.25600 23.35600
C  49.80900 34.27400 24.59100
C  50.47100 36.54200 22.18300
C  51.80000 33.21500 23.34000
C  52.43000 32.93600 24.70100
N  48.38600 34.19900 27.27300
C  48.28200 33.20900 26.31900
C  47.36300 32.18000 26.70400
C  46.97500 32.56100 27.99400
C  47.62300 33.75400 28.30200
C  47.02500 30.93200 26.02900
C  46.12200 32.19500 29.09000
O  45.31000 31.31300 29.26500
C  46.35300 33.37400 30.22700
C  46.62500 32.70200 31.53700
O  47.45300 31.80800 31.69600
O  45.76400 33.03100 32.53500
C  45.99500 32.32400 33.80800
H  50.24400 38.97700 30.52500
H  51.94800 38.01100 24.41300
H  48.89700 32.34200 24.49400
H  47.10400 35.75700 31.99500
H  49.55100 37.25600 32.14900
H  47.81700 38.79000 32.79300
H  46.66800 38.21900 31.44700
H  47.89000 39.20600 31.02000
H  49.95300 34.43800 31.92900
H  48.62200 33.75200 32.74700
H  50.57900 35.69400 33.88100
H  49.85500 34.12400 34.43600
H  52.06300 40.05800 30.17100
H  51.05200 41.27700 29.49700
H  52.80000 41.03800 28.99500
H  52.38400 42.11600 27.07600
H  53.55000 42.26000 25.72800
H  53.97600 41.49900 27.28200
H  52.18500 35.78800 23.19900
H  49.96300 34.04200 22.54100
H  50.05800 35.91600 21.39300
H  51.31200 37.04200 21.70200
H  49.83400 37.26900 22.68500
H  52.64200 33.36400 22.66400
H  51.31800 32.28500 23.03800
H  52.42200 33.63300 25.53900
H  53.46500 32.61700 24.57800
H  51.87600 32.06000 25.03400
H  46.11400 30.49100 26.43300
H  47.83400 30.20300 26.09200
H  46.84200 31.12400 24.97200
H  45.45100 33.98100 30.15400
H  47.04300 32.34300 34.10500
H  45.63200 31.30600 33.66600
H  45.43200 32.81900 34.59900
Mg -1.63700 33.70200 26.51700
C  -3.85200 32.21600 28.74700
C  -0.51400 35.69500 29.05700
C  0.05600 35.50100 24.23100
C  -3.40700 32.08200 23.75700
N  -2.37000 34.08300 28.54000
C  -3.07100 33.14400 29.34300
C  -2.87300 33.42300 30.85100
C  -2.16500 34.81600 30.84600
C  -1.59900 34.85400 29.42500
C  -3.08600 36.11600 30.96700
C  -2.06100 32.24000 31.48600
C  -1.41800 32.40300 32.92800
H  -1.83600 31.55300 34.16000
N  -0.28500 35.26000 26.60800
C  0.00300 35.96300 27.73600
C  1.06000 36.88800 27.44100
C  1.19700 36.83600 26.04400
C  0.23600 35.91300 25.53700
C  1.79700 37.68700 28.43900
C  2.19300 37.60900 25.20000
O  2.15200 37.66500 23.96600
C  3.36400 38.34300 25.86300
N  -1.67000 33.85700 24.33500
C  -0.80300 34.55700 23.66200
C  -0.84300 34.32000 22.15700
C  -1.65600 32.97500 22.10000
C  -2.38000 32.96900 23.46300
C  -1.29700 35.50600 21.26600
C  -0.71000 31.74700 21.66100
C  -0.06400 30.90700 22.78200
N  -3.42100 32.50600 26.27600
C  -3.91500 31.85100 25.15400
C  -4.93500 30.95300 25.63600
C  -4.96800 31.03900 27.02000
C  -3.97800 31.96900 27.35800
C  -5.84100 30.08500 24.68000
C  -5.63600 30.55900 28.20200
O  -6.60500 29.89200 28.28400
C  -4.86500 31.21600 29.38400
C  -5.81800 31.95500 30.31700
O  -6.46700 32.93200 30.00600
O  -5.93800 31.37400 31.56100
C  -6.88600 31.93000 32.55200
H  -0.16400 36.19200 29.96400
H  0.68100 36.02500 23.50400
H  -3.77700 31.36100 23.02400
H  -3.79200 33.52300 31.42900
H  -1.30900 34.94400 31.50800
H  -2.97000 36.75500 30.09200
H  -2.68500 36.64600 31.83100
H  -4.15500 35.90400 30.99600
H  -1.21900 31.90400 30.88100
H  -2.81500 31.45300 31.50700
H  -1.66200 33.41300 33.25700
H  -0.33100 32.37000 32.99600
H  2.69300 37.21600 28.84400
H  1.18400 37.94500 29.30200
H  2.07000 38.65600 28.02200
H  3.00800 39.34700 26.09600
H  4.17500 38.57100 25.17100
H  3.85900 37.81800 26.67900
H  0.21600 34.07500 22.08200
H  -2.38400 32.96700 21.29000
H  -1.67100 35.12100 20.31800
H  -0.42700 36.15700 21.17700
H  -2.23400 35.90400 21.65500
H  0.16500 32.07100 21.09800
H  -1.28100 31.13200 20.96600
H  1.01300 30.79400 22.66300
H  -0.49800 29.91300 22.67500
H  -0.27600 31.24300 23.79700
H  -6.85100 29.99600 25.08100
H  -5.46800 29.06100 24.69600
H  -5.89300 30.47600 23.66400
H  -4.43100 30.44900 30.02600
H  -6.26300 32.55400 33.19300
H  -7.20000 31.06500 33.13600
H  -7.66600 32.53300 32.08600

