158

Mg 24.43300 -5.37400 46.06000
C  26.42100 -2.83700 44.61000
C  21.92800 -4.31500 43.99900
C  22.94800 -8.22700 46.65500
C  27.34000 -6.37500 47.75300
N  24.37400 -3.77900 44.51300
C  25.20000 -2.79800 44.08700
C  24.51800 -1.90200 43.03900
C  23.02900 -2.14900 43.43100
C  23.09200 -3.51200 43.97800
C  22.33500 -1.19200 44.42000
C  24.80700 -2.36600 41.54800
C  25.51700 -1.40600 40.66500
H  26.27900 -2.06400 39.45400
N  22.74400 -6.18800 45.44300
C  21.80400 -5.55700 44.63900
C  20.60800 -6.39800 44.61700
C  20.83300 -7.60300 45.37000
C  22.20900 -7.39300 45.87600
C  19.40800 -6.15000 43.67800
C  19.86500 -8.75100 45.46300
O  18.75800 -8.78800 44.90800
C  20.34200 -10.05900 46.11500
N  25.07100 -7.08600 47.15100
C  24.23700 -8.15600 47.15900
C  24.99300 -9.39100 47.66800
C  26.34300 -8.75400 48.24600
C  26.25300 -7.30700 47.73900
C  24.17500 -10.32800 48.68400
C  27.55300 -9.60100 47.96100
C  28.45400 -9.94100 49.21400
N  26.45100 -4.69400 46.35100
C  27.46100 -5.16300 47.10600
C  28.66000 -4.30200 46.91700
C  28.24400 -3.38300 45.96300
C  26.88900 -3.64900 45.60200
C  30.02700 -4.40800 47.68600
C  28.71400 -2.31600 45.16600
O  29.81500 -1.88700 45.06200
C  27.57900 -1.92400 44.24500
C  27.31600 -0.50700 44.33200
O  27.76600 0.27100 43.55200
O  26.59100 -0.21000 45.46200
C  26.47000 1.18900 45.79300
H  21.06800 -4.06600 43.37500
H  22.51200 -9.22700 46.70400
H  28.22600 -6.55500 48.36700
H  24.84700 -0.89700 43.30200
H  22.42200 -2.12200 42.52600
H  22.28300 -1.59000 45.43300
H  21.35900 -1.00300 43.97200
H  22.92100 -0.27900 44.52500
H  23.83400 -2.58200 41.10800
H  25.27200 -3.34800 41.62900
H  26.29400 -0.93200 41.26500
H  24.70800 -0.83000 40.21600
H  19.52900 -6.76200 42.78400
H  19.30800 -5.09800 43.41100
H  18.48200 -6.35800 44.21400
H  21.11100 -10.37200 45.41000
H  19.52600 -10.78000 46.05500
H  20.67300 -9.92100 47.14400
H  25.10400 -10.06400 46.81700
H  26.30200 -8.52900 49.31200
H  23.24700 -10.47500 48.13100
H  23.88900 -9.91100 49.64900
H  24.83300 -11.19700 48.71200
H  28.17500 -9.00400 47.29400
H  27.34000 -10.50700 47.39400
H  29.50900 -10.12900 49.01800
H  28.09000 -10.73800 49.86200
H  28.40300 -8.97200 49.71000
H  30.18000 -5.47000 47.88000
H  29.92300 -3.85800 48.62100
H  30.88900 -3.96300 47.18900
H  27.88000 -2.12200 43.21600
H  26.19400 1.31000 46.84100
H  25.64000 1.65900 45.26600
H  27.38600 1.75900 45.63500
Mg 54.62800 24.25500 44.63600
C  51.93200 26.25600 43.53600
C  52.91600 21.68200 43.04000
C  57.41600 22.42400 44.69500
C  56.32300 27.02700 45.64500
N  52.69900 23.95800 43.33500
C  51.75000 24.98200 43.11300
C  50.62400 24.48000 42.19700
C  50.66600 22.93900 42.72500
C  52.16100 22.81800 42.94000
C  49.89800 22.74400 44.01800
C  51.13700 24.70400 40.66700
C  50.14300 25.03200 39.61100
H  50.54800 25.53700 38.30300
N  55.10100 22.31500 43.99500
C  54.29000 21.36800 43.44000
C  54.94200 20.15800 43.38200
C  56.29700 20.33600 43.84100
C  56.28500 21.76300 44.20900
C  54.21700 18.78200 42.99600
C  57.35500 19.25700 44.00300
O  57.13900 18.20000 43.47200
C  58.73100 19.40100 44.71600
N  56.63700 24.67900 44.93400
C  57.61600 23.76900 44.88300
C  58.91500 24.36900 45.46300
C  58.59200 25.91100 45.66200
C  57.08000 25.85300 45.41700
C  59.38400 23.65000 46.78900
C  59.47200 26.89600 44.85800
C  59.01400 27.51400 43.52000
N  54.16900 26.11600 44.88600
C  54.90300 27.17800 45.40200
C  54.03300 28.43200 45.48400
C  52.89600 28.02600 44.69000
C  53.04900 26.70300 44.33900
C  54.36700 29.76300 46.07800
C  51.65400 28.55100 44.13900
O  51.18800 29.66700 44.27300
C  50.88900 27.40700 43.31600
C  50.57500 27.79000 41.98000
O  51.33200 28.09000 41.13900
O  49.19300 27.82300 41.92700
C  48.58100 28.26200 40.60700
H  52.35700 20.82400 42.66100
H  58.37000 21.90400 44.81000
H  56.92300 27.87200 45.98700
H  49.68700 24.95500 42.49000
H  50.09100 22.37600 41.99000
H  50.58800 22.17300 44.63900
H  48.95700 22.22900 43.82700
H  49.78200 23.72700 44.47500
H  51.55700 23.75300 40.33900
H  51.86900 25.51100 40.63200
H  49.36000 25.64800 40.05400
H  49.58700 24.11500 39.41600
H  54.47400 17.92400 43.61800
H  54.43500 18.52100 41.96100
H  53.14300 18.96000 43.05400
H  58.64200 19.77900 45.73400
H  59.38700 20.03300 44.11700
H  59.15400 18.40500 44.84900
H  59.66500 24.26800 44.67900
H  58.59400 26.14600 46.72600
H  58.99200 22.63400 46.75500
H  58.99100 24.12700 47.68700
H  60.47200 23.59300 46.81900
H  60.39200 26.35500 44.63700
H  59.72600 27.76600 45.46400
H  59.11100 28.59800 43.46100
H  57.94900 27.34300 43.36800
H  59.54000 27.19200 42.62200
H  53.85800 30.50400 45.46100
H  55.44200 29.94200 46.09000
H  53.86500 29.99600 47.01700
H  50.06200 27.03400 43.92000
H  48.29800 29.31100 40.68500
H  47.67600 27.66900 40.47300
H  49.21500 28.07600 39.74000

