158

Mg 43.47700 42.54500 26.35700
C  42.44700 44.54400 28.89400
C  44.91500 40.50400 28.67800
C  44.83600 40.77200 23.82900
C  42.52100 44.95500 23.99200
N  43.53000 42.52700 28.57900
C  42.89900 43.34600 29.44700
C  43.03800 42.99200 30.93900
C  44.16300 41.81700 30.74000
C  44.20900 41.56500 29.25300
C  45.54900 42.19800 31.36400
C  41.66800 42.45900 31.61500
C  41.78000 41.92900 33.01900
H  40.93600 42.59000 34.12300
N  44.47800 40.72100 26.32400
C  45.10300 40.15200 27.30900
C  45.71100 38.95100 26.87200
C  45.50300 38.83700 25.43500
C  44.90100 40.14000 25.11300
C  46.44300 37.96200 27.81800
C  45.87000 37.74900 24.35900
O  45.52900 37.75400 23.18000
C  46.54000 36.43900 24.91900
N  43.77400 42.87700 24.27500
C  44.31500 41.94000 23.39900
C  44.29500 42.37000 21.98200
C  43.32200 43.56400 22.00100
C  43.19000 43.83100 23.48100
C  45.71100 42.71900 21.62800
C  42.04900 43.35500 21.12600
C  40.77500 42.70700 21.74600
N  42.68500 44.41000 26.41000
C  42.36900 45.29300 25.37600
C  41.84400 46.50500 25.88600
C  41.88200 46.23900 27.30800
C  42.33800 44.96300 27.53900
C  41.32900 47.69500 25.13300
C  41.40800 46.85500 28.55100
O  40.98600 48.00400 28.78600
C  41.75600 45.72400 29.59300
C  42.64100 46.35900 30.56300
O  43.86000 46.49500 30.46100
O  41.84300 46.84400 31.65900
C  42.60400 47.42100 32.81900
H  45.26700 39.88400 29.50500
H  45.20800 40.12900 23.02800
H  42.20400 45.68400 23.24300
H  43.44500 43.76700 31.58900
H  43.79900 40.88600 31.17400
H  45.64400 43.24300 31.65800
H  46.33000 42.13300 30.60700
H  45.82000 41.55100 32.19900
H  41.25400 41.62100 31.05400
H  40.98600 43.30200 31.72400
H  42.78400 41.90600 33.44200
H  41.57900 40.86300 32.90800
H  47.34400 37.61400 27.31400
H  45.77300 37.10700 27.91500
H  46.63000 38.19500 28.86600
H  47.53700 36.70600 25.26900
H  46.67100 35.71900 24.11100
H  45.86400 36.07200 25.69200
H  43.89000 41.56900 21.36200
H  43.87700 44.42200 21.62400
H  46.07600 43.72800 21.81600
H  45.83300 42.63600 20.54800
H  46.38600 42.01100 22.10900
H  42.29100 42.84400 20.19400
H  41.86900 44.38500 20.81800
H  39.96400 43.43500 21.72600
H  40.98700 42.47400 22.78900
H  40.47800 41.75100 21.31500
H  41.70100 47.63100 24.11100
H  41.62000 48.54200 25.75400
H  40.23900 47.65900 25.13300
H  40.77000 45.40100 29.92700
H  43.66300 47.59800 32.63100
H  42.51200 46.77900 33.69500
H  41.97400 48.30300 32.93100
Mg -12.46600 16.49300 42.30200
C  -9.70000 14.51400 41.62800
C  -10.96300 18.98500 40.55100
C  -15.27400 18.00300 42.38000
C  -14.04400 13.49000 43.68700
N  -10.61300 16.64200 40.91800
C  -9.56700 15.69700 40.94600
C  -8.31200 16.31400 40.24500
C  -8.76000 17.80400 39.98900
C  -10.20900 17.82300 40.50700
C  -7.76200 18.78300 40.73200
C  -7.93400 15.66100 38.89300
C  -6.44200 15.48500 38.52700
H  -5.87000 16.34900 37.42700
N  -12.99600 18.29700 41.65200
C  -12.26300 19.23400 41.07000
C  -13.00800 20.44400 40.92300
C  -14.30400 20.22400 41.39000
C  -14.25200 18.80400 41.85600
C  -12.35900 21.69000 40.24900
C  -15.39700 21.19400 41.43800
O  -15.20700 22.32100 40.94300
C  -16.74000 20.93900 41.99100
N  -14.44800 15.80800 42.93800
C  -15.41200 16.72100 42.82100
C  -16.78300 16.04700 43.12000
C  -16.42400 14.53600 43.45100
C  -14.85500 14.61200 43.43300
C  -17.44200 16.90900 44.28900
C  -17.04600 13.58600 42.41800
C  -17.63400 12.16800 42.87000
N  -12.03100 14.46800 42.75300
C  -12.68500 13.39200 43.33400
C  -11.78800 12.29100 43.53000
C  -10.54800 12.72800 42.99400
C  -10.77200 14.03800 42.40500
C  -12.04800 11.00200 44.30000
C  -9.18200 12.31600 42.74500
O  -8.66800 11.28500 43.14900
C  -8.55200 13.44800 41.88200
C  -7.50700 14.03000 42.78300
O  -7.71500 14.62600 43.80300
O  -6.23200 13.80000 42.33500
C  -5.18700 14.48000 43.12400
H  -10.42200 19.87900 40.23300
H  -16.19500 18.56900 42.22200
H  -14.40500 12.53100 44.06400
H  -7.46300 16.17300 40.91400
H  -8.76000 18.10400 38.94100
H  -8.14300 19.27300 41.62800
H  -7.45500 19.53600 40.00700
H  -6.93500 18.24600 41.19600
H  -8.40200 16.12900 38.02700
H  -8.50600 14.73800 38.79900
H  -6.19300 14.45200 38.28100
H  -5.78700 15.83400 39.32400
H  -12.77200 22.60800 40.66800
H  -12.50300 21.62000 39.17100
H  -11.29700 21.70100 40.49300
H  -16.62000 20.50000 42.98200
H  -17.34100 20.35300 41.29600
H  -17.22100 21.90600 42.13500
H  -17.50700 16.00800 42.30600
H  -16.83600 14.38300 44.44900
H  -16.81300 17.72500 44.64400
H  -17.59800 16.15800 45.06400
H  -18.46800 17.23000 44.10800
H  -16.31500 13.42800 41.62600
H  -17.99200 14.03700 42.11900
H  -17.20100 11.89400 43.83200
H  -17.27500 11.39100 42.19500
H  -18.72200 12.22200 42.82800
H  -11.33300 10.80200 45.09800
H  -11.98700 10.19200 43.57300
H  -13.04800 10.97000 44.73100
H  -8.00800 12.98300 41.06100
H  -4.23400 14.01700 42.86900
H  -5.32000 14.34600 44.19700
H  -5.23800 15.52800 42.82800

