158

Mg 0.72500 7.39800 26.54000
C  1.55900 9.84600 28.91000
C  0.98700 5.01100 28.86500
C  0.20800 5.16700 24.11500
C  1.31700 9.92500 24.14300
N  1.33800 7.46600 28.62200
C  1.38500 8.54800 29.46400
C  1.06500 8.14200 30.90800
C  1.47700 6.63800 30.79100
C  1.24700 6.31900 29.31200
C  2.90700 6.24700 31.24600
C  -0.28300 8.59800 31.41300
C  -0.36000 8.86800 32.89500
H  0.78200 8.54200 33.84600
N  0.45300 5.35400 26.53900
C  0.62400 4.53000 27.56100
C  0.36900 3.17700 27.17600
C  0.01900 3.15600 25.80900
C  0.22400 4.55500 25.41300
C  0.17700 2.04000 28.14900
C  -0.47200 2.06500 24.90900
O  -0.70400 2.20300 23.71800
C  -0.59200 0.65400 25.53000
N  0.66000 7.60000 24.38600
C  0.37500 6.45300 23.62500
C  0.48100 6.75200 22.11800
C  1.04300 8.27500 22.05600
C  0.99300 8.65000 23.59200
C  1.40400 5.69200 21.37500
C  0.18400 9.23100 21.17600
C  -1.25100 9.33700 21.66500
N  1.21900 9.47800 26.46200
C  1.37100 10.31600 25.44300
C  1.57800 11.64600 25.84600
C  1.67800 11.52000 27.26900
C  1.50400 10.19800 27.54800
C  1.72400 12.93700 24.97400
C  1.81400 12.20900 28.53400
O  2.04400 13.38900 28.84900
C  1.66000 11.17700 29.68400
C  2.83400 11.18600 30.48300
O  3.93200 10.68300 30.20800
O  2.66400 11.78200 31.70700
C  3.76100 11.83400 32.69600
H  1.12000 4.26800 29.65400
H  0.10800 4.48600 23.26700
H  1.50400 10.70000 23.39600
H  1.82600 8.65500 31.49500
H  0.60300 6.05900 31.08800
H  2.79000 5.99600 32.30000
H  3.60900 7.04200 30.99400
H  3.15300 5.35800 30.66500
H  -0.97700 7.76500 31.30300
H  -0.59400 9.52100 30.92300
H  -1.15600 8.22700 33.27400
H  -0.55200 9.92800 33.06600
H  -0.84900 1.71200 27.98600
H  0.29000 2.26800 29.20900
H  0.92300 1.27400 27.93900
H  0.19400 0.42100 26.24800
H  -0.53900 -0.08600 24.73200
H  -1.61400 0.59900 25.90500
H  -0.48400 6.62900 21.62500
H  2.04900 8.22700 21.63900
H  2.11200 5.17300 22.02200
H  2.04200 6.05100 20.56800
H  0.75500 4.91200 20.97700
H  0.22200 8.93800 20.12700
H  0.65900 10.21200 21.19100
H  -1.65900 10.33000 21.84800
H  -1.56800 8.85900 22.59200
H  -1.87300 8.82100 20.93400
H  0.87800 13.61000 25.11400
H  1.77000 12.77300 23.89700
H  2.63500 13.45800 25.26800
H  0.83100 11.44800 30.33800
H  4.69200 12.14400 32.22100
H  3.90400 10.93200 33.29100
H  3.71200 12.60600 33.46400
Mg 47.52500 16.15700 28.90600
C  45.67100 15.59400 31.82400
C  49.60100 18.25200 30.74700
C  49.35000 16.80100 26.12300
C  45.13800 14.60300 27.07200
N  47.50700 16.88300 31.05200
C  46.75300 16.46000 32.05700
C  47.33600 16.82000 33.45400
C  48.37100 17.89500 32.99100
C  48.54300 17.60800 31.49400
C  48.15400 19.41100 33.18500
C  47.86900 15.51000 34.18800
C  47.78500 15.53700 35.71400
H  47.39700 16.91100 36.40400
N  49.32200 17.30800 28.50100
C  50.00600 18.05300 29.40500
C  51.19800 18.47800 28.72900
C  51.09800 18.23000 27.35600
C  49.90700 17.45100 27.24800
C  52.28400 19.20300 29.54200
C  52.13100 18.55400 26.14400
O  51.98700 18.22100 24.99500
C  53.44500 19.22600 26.54500
N  47.30400 15.75900 26.93100
C  48.19600 16.08500 26.00100
C  47.65000 15.74400 24.57500
C  46.43400 14.87000 24.94300
C  46.22300 15.17200 26.38200
C  47.27000 16.98000 23.67200
C  46.51800 13.37400 24.48100
C  45.73900 13.09600 23.11600
N  45.79700 15.19000 29.29900
C  44.89000 14.62100 28.47300
C  43.88800 13.97600 29.22500
C  44.18200 14.27300 30.57600
C  45.33300 15.06300 30.59300
C  42.65000 13.13300 28.74700
C  43.68000 14.08600 31.93000
O  42.66500 13.56000 32.37400
C  44.66400 15.02500 32.80500
C  43.96800 16.15800 33.49100
O  43.75200 17.30800 33.13900
O  43.67000 15.70300 34.76300
C  43.23800 16.73000 35.77200
H  50.29200 18.86000 31.33400
H  49.81700 16.80000 25.13600
H  44.48100 13.95600 26.48700
H  46.41900 17.20500 33.89800
H  49.31400 17.69700 33.50100
H  49.00300 19.92200 33.63900
H  47.28400 19.60300 33.81300
H  47.96400 19.84000 32.20100
H  48.86600 15.30200 33.80000
H  47.19000 14.70400 33.91200
H  48.75600 15.19300 36.06800
H  47.01200 14.85500 36.07000
H  52.99600 19.72200 28.90000
H  52.93100 18.47800 30.03700
H  51.89900 19.96200 30.22300
H  53.94700 18.70500 27.36100
H  53.25500 20.25900 26.83700
H  54.05400 19.35100 25.65000
H  48.41700 15.11700 24.12100
H  45.52900 15.28400 24.49800
H  47.55600 17.85200 24.26100
H  46.22100 16.99400 23.37500
H  47.84900 16.87500 22.75500
H  46.25500 12.72800 25.31900
H  47.54700 13.14300 24.20800
H  45.26100 12.14300 23.34200
H  46.39000 12.90800 22.26200
H  44.88600 13.71100 22.82900
H  42.83800 12.72700 27.75300
H  41.69300 13.65400 28.77200
H  42.57700 12.34900 29.50100
H  45.10500 14.49100 33.64600
H  43.54600 16.41200 36.76800
H  42.15300 16.80900 35.83800
H  43.72100 17.69900 35.64500

