158

Mg 7.36100 3.21400 28.17600
C  8.80800 1.77600 31.12500
C  5.38500 5.07000 30.11800
C  6.02600 4.36300 25.33200
C  9.02000 0.75500 26.38000
N  7.08100 3.38500 30.40900
C  7.84000 2.76700 31.38500
C  7.55600 3.40100 32.76800
C  6.41300 4.43000 32.38700
C  6.25000 4.35900 30.91200
C  5.17100 4.28200 33.28500
C  8.84200 4.00200 33.27700
C  8.76200 5.08600 34.40900
H  9.36600 4.81200 35.76200
N  5.90700 4.61600 27.78200
C  5.17000 5.17200 28.72600
C  4.20700 6.03700 28.05100
C  4.47100 5.88900 26.61600
C  5.51400 4.94300 26.51400
C  3.25400 6.89500 28.78700
C  3.82400 6.56000 25.47100
O  4.11100 6.41300 24.31000
C  2.81500 7.70700 25.75700
N  7.35800 2.61400 26.22100
C  6.84800 3.32700 25.15700
C  7.22600 2.84000 23.80800
C  8.07800 1.62100 24.14600
C  8.10200 1.58100 25.71000
C  6.09000 2.67800 22.70500
C  9.56400 1.54900 23.55400
C  10.61200 2.32900 24.30800
N  8.72100 1.62200 28.59500
C  9.33100 0.77000 27.72400
C  10.24900 -0.10200 28.40000
C  10.09100 0.22400 29.79800
C  9.08700 1.32100 29.84500
C  11.12900 -1.14200 27.93700
C  10.48500 -0.07300 31.16300
O  11.35000 -0.79600 31.59100
C  9.72500 0.99400 32.05500
C  9.02900 0.28100 33.15300
O  7.95900 -0.32500 33.01300
O  9.79000 0.23900 34.31400
C  9.29300 -0.49200 35.53700
H  4.74500 5.66600 30.77200
H  5.73100 4.85400 24.40200
H  9.52500 -0.06100 25.85800
H  7.23800 2.66000 33.50100
H  6.71800 5.45300 32.61000
H  4.69500 5.22800 33.54100
H  5.46200 3.80700 34.22200
H  4.44600 3.59000 32.85600
H  9.36700 4.52400 32.47800
H  9.57100 3.30200 33.68600
H  7.69400 5.16800 34.60900
H  9.09400 6.05300 34.03200
H  3.10600 6.59300 29.82400
H  2.26800 6.77800 28.33800
H  3.47700 7.95900 28.70800
H  1.85200 7.20200 25.82700
H  2.91200 8.36700 24.89400
H  3.10100 8.30800 26.62100
H  7.88100 3.65400 23.49700
H  7.57800 0.76700 23.68900
H  5.14100 2.68100 23.24100
H  6.10200 1.70700 22.21000
H  6.17900 3.47800 21.97100
H  9.61600 1.81200 22.49800
H  9.93300 0.52700 23.63800
H  10.21400 3.08600 24.98300
H  11.23300 2.77200 23.52900
H  11.20700 1.68800 24.95900
H  11.70100 -0.81600 27.06900
H  10.53200 -2.04200 27.78900
H  11.83100 -1.33900 28.74800
H  10.40100 1.66600 32.58500
H  10.06900 -1.12500 35.96700
H  8.46200 -1.18700 35.41900
H  9.12400 0.33500 36.22700
Mg 16.80500 51.93600 26.57900
C  18.66700 50.19700 29.19900
C  14.33000 52.52000 28.81800
C  15.08600 53.15700 24.09400
C  19.32000 50.69200 24.34000
N  16.59600 51.53000 28.73400
C  17.43300 50.82000 29.61400
C  17.04300 51.09500 31.04800
C  15.59800 51.59100 30.90900
C  15.45600 51.86500 29.38000
C  14.42600 50.62200 31.23900
C  18.01100 52.14400 31.69400
C  18.50600 51.91300 33.15000
H  17.62700 51.03600 34.05100
N  15.06000 52.90900 26.54400
C  14.11700 52.95200 27.51300
C  12.91700 53.53800 27.04100
C  13.16800 53.87000 25.68400
C  14.51200 53.32800 25.37400
C  11.72200 53.83700 27.87600
C  12.24300 54.52000 24.66100
O  12.49700 54.49600 23.49300
C  11.06500 55.29800 25.15700
N  17.14100 51.81900 24.48900
C  16.19700 52.38800 23.74400
C  16.54400 52.19400 22.21300
C  17.96000 51.46200 22.31700
C  18.17600 51.23800 23.77700
C  15.66400 51.32000 21.27000
C  19.16700 52.06300 21.64600
C  19.55800 53.54900 22.03800
N  18.62800 50.70900 26.73500
C  19.49100 50.30700 25.71700
C  20.62700 49.64500 26.29800
C  20.31500 49.53700 27.67900
C  19.11400 50.15100 27.91200
C  21.76600 49.09400 25.53000
C  20.76900 48.98500 28.91600
O  21.80600 48.39800 29.20300
C  19.73500 49.47800 30.00000
C  19.38100 48.38700 30.86700
O  18.80200 47.37200 30.59800
O  19.80600 48.69200 32.12200
C  19.60600 47.61200 33.13100
H  13.48100 52.49100 29.50500
H  14.50300 53.25900 23.17700
H  20.16800 50.29200 23.78000
H  17.12000 50.15200 31.59000
H  15.44400 52.56500 31.37500
H  13.64400 51.09000 31.83700
H  14.94100 49.85700 31.82000
H  14.06000 50.14300 30.33100
H  17.57500 53.13600 31.81600
H  18.95100 52.21000 31.14700
H  18.70400 52.90800 33.54900
H  19.46300 51.39400 33.09600
H  11.51400 54.90700 27.86200
H  11.78000 53.50300 28.91200
H  10.88500 53.28300 27.45100
H  10.56600 55.83500 24.35000
H  11.53800 56.02300 25.81900
H  10.37000 54.52600 25.48600
H  16.65700 53.14000 21.68200
H  17.84700 50.41100 22.05300
H  14.69300 51.07000 21.69600
H  16.13200 50.41800 20.87500
H  15.48500 51.96100 20.40700
H  18.82500 52.04500 20.61100
H  20.14700 51.58600 21.67400
H  19.24000 53.78200 23.05500
H  19.11700 54.32200 21.40800
H  20.63900 53.68800 22.05600
H  21.87700 49.31900 24.46900
H  21.67800 48.01200 25.61900
H  22.66600 49.21900 26.13200
H  20.33700 50.14900 30.61300
H  20.09800 46.65000 32.98800
H  18.56300 47.35400 33.31100
H  20.06500 48.07100 34.00800

