158

Mg 2.18200 -2.09900 44.92200
C  5.45200 -0.78400 44.83300
C  1.19000 0.80300 43.39800
C  -0.79300 -3.50600 44.59700
C  3.58700 -5.19500 45.97300
N  3.28800 -0.22100 44.00500
C  4.56900 0.08500 44.17200
C  4.92400 1.49600 43.69800
C  3.42200 2.09300 43.57700
C  2.55200 0.85000 43.64100
C  3.08500 3.03600 44.73300
C  5.76400 1.55300 42.35900
C  5.29700 0.73000 41.16100
H  5.06000 1.48400 39.85200
N  0.39200 -1.47600 44.12300
C  0.20800 -0.23000 43.47800
C  -1.17700 -0.08800 43.16800
C  -1.79000 -1.36400 43.50000
C  -0.70600 -2.16300 44.09900
C  -1.74900 1.19600 42.47900
C  -3.21700 -1.64200 43.37300
O  -3.90300 -0.74400 42.83900
C  -3.77600 -2.92800 43.69600
N  1.54900 -4.16700 45.20000
C  0.17600 -4.42900 45.07500
C  -0.07800 -5.87200 45.55400
C  1.34800 -6.41100 45.91100
C  2.21700 -5.20800 45.65300
C  -1.07000 -5.92400 46.72800
C  1.77100 -7.62000 44.98200
C  2.26300 -8.98200 45.66400
N  4.10100 -2.92900 45.39400
C  4.54400 -4.13400 45.77900
C  5.98400 -4.13900 46.07800
C  6.37500 -2.76900 45.69000
C  5.21200 -2.09900 45.30600
C  6.80100 -5.34200 46.56900
C  7.45100 -1.88300 45.48500
O  8.65200 -2.00100 45.68500
C  6.93700 -0.57600 45.05500
C  7.23900 0.28800 46.24100
O  6.73500 0.18900 47.33900
O  8.05200 1.29200 45.88500
C  8.48800 2.27200 46.85700
H  0.85700 1.79800 43.09800
H  -1.74800 -4.02400 44.70000
H  3.98700 -6.08900 46.45600
H  5.58700 1.92700 44.44800
H  3.24300 2.56300 42.61000
H  3.13100 4.09800 44.49300
H  3.86400 2.85600 45.47400
H  2.12000 2.79800 45.18000
H  6.69900 1.07900 42.65500
H  5.96500 2.58400 42.06800
H  4.47100 0.09500 41.48200
H  6.14800 0.06600 41.01400
H  -2.27600 1.89300 43.13100
H  -2.34300 0.83000 41.64200
H  -0.91300 1.75700 42.06100
H  -4.75100 -2.98900 43.21400
H  -3.68400 -3.16700 44.75600
H  -3.18500 -3.63000 43.10800
H  -0.40800 -6.47000 44.70400
H  1.30800 -6.63100 46.97800
H  -1.57300 -6.88500 46.62000
H  -1.81800 -5.13200 46.70900
H  -0.62200 -5.97400 47.72000
H  2.58100 -7.30800 44.32300
H  1.03100 -7.76200 44.19400
H  2.63100 -8.87800 46.68500
H  3.08500 -9.25000 45.00000
H  1.43200 -9.68700 45.64300
H  7.22600 -5.77200 45.66100
H  6.11800 -6.09400 46.96300
H  7.47300 -4.89300 47.30000
H  7.52500 -0.27000 44.19000
H  9.56300 2.40100 46.73200
H  8.31700 2.11700 47.92200
H  8.12100 3.24400 46.52800
Mg 40.15900 10.59900 29.59800
C  42.12100 11.63900 32.25300
C  38.12400 8.93300 31.75600
C  38.56500 9.19300 26.89700
C  42.75300 11.63400 27.46900
N  40.18000 10.28800 31.80000
C  40.88000 11.06100 32.68900
C  40.32600 10.83600 34.12400
C  39.18500 9.78800 33.95200
C  39.21100 9.61500 32.39700
C  39.28400 8.46500 34.78700
C  39.87400 12.26500 34.72200
C  39.26500 12.34800 36.18100
H  39.95800 13.22800 37.24900
N  38.62500 9.19700 29.36400
C  37.87000 8.65300 30.41600
C  36.78200 7.83200 29.85400
C  36.83400 8.03600 28.40800
C  38.02000 8.82700 28.17500
C  35.88300 7.08700 30.76000
C  35.84300 7.54200 27.42300
O  35.92900 7.67800 26.21700
C  34.66200 6.77400 27.90200
N  40.68800 10.30700 27.53200
C  39.77700 9.87500 26.59800
C  40.17100 10.28000 25.17700
C  41.39200 11.24300 25.39700
C  41.62400 11.05900 26.93300
C  40.49600 8.91300 24.45000
C  41.23200 12.81200 25.10800
C  39.82700 13.50900 25.25400
N  42.07600 11.54400 29.73900
C  43.07500 11.82000 28.81100
C  44.26100 12.34300 29.45600
C  43.90600 12.37000 30.77500
C  42.64600 11.71300 30.92200
C  45.56800 12.71300 28.96600
C  44.38200 12.66800 32.13800
O  45.43300 13.11600 32.62000
C  43.23300 12.32600 33.12100
C  43.81800 11.51600 34.24300
O  44.74400 10.76000 34.23100
O  43.01300 11.71400 35.36000
C  43.30200 10.93300 36.52600
H  37.39000 8.58300 32.48500
H  37.98700 8.80300 26.05700
H  43.52400 12.07400 26.83300
H  41.24000 10.42500 34.55300
H  38.26400 10.28700 34.25300
H  40.19500 8.26900 35.35100
H  39.29000 7.64300 34.07100
H  38.41900 8.35200 35.44100
H  39.18800 12.70100 33.99600
H  40.76900 12.88700 34.69200
H  39.17900 11.32300 36.54200
H  38.23400 12.63900 35.98000
H  36.28600 6.88300 31.75200
H  35.72900 6.09100 30.34600
H  34.88300 7.51800 30.71600
H  34.00700 7.34100 28.56400
H  35.01500 5.89700 28.44500
H  34.04700 6.37300 27.09700
H  39.29000 10.74600 24.73400
H  42.29200 10.81300 24.95800
H  39.60700 8.60400 23.90100
H  40.66700 8.10200 25.15700
H  41.33100 9.10100 23.77400
H  41.61800 12.97700 24.10200
H  41.95500 13.30500 25.75800
H  39.14500 12.82500 25.75900
H  39.47200 13.82700 24.27400
H  39.97400 14.34700 25.93400
H  45.53000 12.63900 27.87900
H  46.26200 11.93600 29.28700
H  45.81500 13.73700 29.24700
H  42.87400 13.24900 33.57800
H  43.94600 11.45200 37.23600
H  43.67100 9.95300 36.22200
H  42.36300 10.66200 37.00900

