158

Mg 53.71300 24.50200 43.92700
C  50.83900 26.34700 43.23300
C  52.19000 21.73300 42.54800
C  56.67000 22.99100 43.59200
C  55.27900 27.54200 44.88800
N  51.76000 24.15500 42.95900
C  50.76200 25.03100 42.73200
C  49.59200 24.42200 41.90800
C  49.85700 22.92700 42.10000
C  51.34300 22.89300 42.51200
C  48.85000 22.12100 43.04700
C  49.54600 24.90500 40.44300
C  48.08100 24.99100 39.96700
H  47.43500 23.67900 39.37300
N  54.33700 22.55500 43.33400
C  53.49900 21.55200 42.89900
C  54.24300 20.33800 42.64800
C  55.57100 20.70000 42.86100
C  55.57900 22.12600 43.30100
C  53.62000 19.04300 42.19100
C  56.79300 19.78600 42.64900
O  56.62900 18.61100 42.34600
C  58.23500 20.17700 42.86500
N  55.60700 25.14500 44.23100
C  56.68800 24.32800 44.01800
C  58.00100 25.12700 44.25000
C  57.55600 26.60000 44.53500
C  56.07200 26.39200 44.58900
C  59.04300 24.47000 45.20200
C  58.16200 27.68800 43.63800
C  58.26900 29.10200 44.24400
N  53.15000 26.56800 44.18400
C  53.84200 27.56500 44.70500
C  52.95400 28.68300 44.94900
C  51.73600 28.30000 44.30200
C  51.96400 26.97600 43.87500
C  53.33100 30.07200 45.62800
C  50.36300 28.63700 43.97200
O  49.66200 29.58700 44.20000
C  49.73600 27.38800 43.21900
C  49.36200 27.93600 41.87700
O  50.05800 28.30500 40.98400
O  47.99700 27.93600 41.83700
C  47.46000 28.22200 40.57600
H  51.75300 20.83000 42.11600
H  57.61700 22.45300 43.66100
H  55.63800 28.51500 45.22700
H  48.65700 24.60800 42.43700
H  49.86000 22.42100 41.13400
H  48.74300 21.08900 42.71100
H  47.87600 22.60800 42.99300
H  49.06100 21.99700 44.10900
H  50.03000 24.18400 39.78400
H  50.14000 25.81600 40.37300
H  48.01000 25.71100 39.15200
H  47.43000 25.30700 40.78200
H  53.06600 19.03200 41.25200
H  52.98800 18.76000 43.03300
H  54.28900 18.18300 42.14300
H  58.41800 21.05600 42.24700
H  58.77300 19.30900 42.48300
H  58.46400 20.26100 43.92700
H  58.58000 25.08700 43.32700
H  57.80200 26.75800 45.58500
H  58.57500 23.55100 45.55500
H  59.29600 25.05300 46.08700
H  59.94400 24.16000 44.67200
H  57.51600 27.86600 42.77800
H  59.13100 27.39800 43.23200
H  59.32200 29.10100 44.52800
H  57.67700 29.27500 45.14300
H  58.07700 29.80600 43.43500
H  54.29800 29.95400 46.11700
H  52.61200 30.13500 46.44400
H  53.21300 31.01200 45.08900
H  48.92000 26.91600 43.76500
H  47.20300 29.28100 40.55000
H  46.63800 27.51700 40.45100
H  47.98900 27.96800 39.65700
Mg -10.25500 17.72200 42.94200
C  -6.81000 16.70100 42.63000
C  -9.10400 20.96400 41.99300
C  -13.37000 18.55200 42.13300
C  -11.04200 14.40600 43.34900
N  -8.22900 18.71100 42.25200
C  -6.95500 18.10200 42.39500
C  -5.80100 19.10200 42.15600
C  -6.53600 20.42600 42.18200
C  -8.00500 20.01500 42.20700
C  -6.18300 21.36800 43.36300
C  -5.02400 18.96600 40.81700
C  -5.74700 18.57300 39.52200
H  -4.95800 18.64900 38.20200
N  -11.13300 19.49900 42.22400
C  -10.51200 20.71000 41.95100
C  -11.48500 21.63100 41.56000
C  -12.77500 20.97600 41.55500
C  -12.51200 19.62400 41.94200
C  -11.15300 23.00700 41.01900
C  -14.13700 21.61700 40.99200
O  -14.15100 22.78100 40.61200
C  -15.37700 20.86600 40.85400
N  -11.91500 16.62100 42.70000
C  -13.09900 17.22900 42.50000
C  -14.27900 16.22500 42.68900
C  -13.54400 14.87900 42.95100
C  -12.05500 15.31100 42.97000
C  -15.41400 16.61600 43.73400
C  -13.78200 13.83200 41.81800
C  -13.80000 12.31000 42.19800
N  -9.20000 15.89800 43.08500
C  -9.66100 14.58000 43.15000
C  -8.60800 13.61700 43.14400
C  -7.46000 14.39300 42.97100
C  -7.85500 15.78300 42.87300
C  -8.83000 12.15200 43.42200
C  -5.96300 14.33200 42.89100
O  -5.12300 13.47900 42.89200
C  -5.51800 15.84300 42.50000
C  -4.46000 16.23800 43.48800
O  -3.26200 16.28000 43.35600
O  -5.04900 16.82400 44.59300
C  -4.06000 17.34500 45.62300
H  -8.80600 21.99800 41.80800
H  -14.43300 18.76100 41.99200
H  -11.40500 13.41300 43.62200
H  -5.06600 19.02600 42.95800
H  -6.37700 21.07100 41.31800
H  -5.35300 20.98500 43.95800
H  -7.01600 21.51500 44.05000
H  -5.83100 22.32600 42.97900
H  -4.38400 18.08800 40.91000
H  -4.39600 19.83900 40.64200
H  -6.67100 19.13500 39.38500
H  -6.07300 17.54300 39.66900
H  -11.76000 23.47000 40.24100
H  -10.19000 23.00700 40.50700
H  -10.99900 23.69500 41.85000
H  -15.84700 20.59800 41.80100
H  -15.16200 19.98600 40.24700
H  -16.11200 21.49400 40.35200
H  -14.97800 16.18700 41.85400
H  -13.71500 14.47200 43.94800
H  -16.35400 16.99500 43.33200
H  -14.89200 17.26500 44.43700
H  -15.61600 15.65800 44.21200
H  -12.95100 13.87700 41.11500
H  -14.59400 14.06400 41.12900
H  -14.85600 12.08200 42.04700
H  -13.48700 12.25100 43.24100
H  -13.14200 11.73400 41.54700
H  -8.85200 11.53000 42.52800
H  -9.70500 11.94400 44.03900
H  -7.95300 11.82300 43.97900
H  -5.21300 15.77700 41.45500
H  -3.30600 16.60200 45.88000
H  -4.58000 17.49700 46.56900
H  -3.59400 18.28000 45.31100

