158

Mg 29.36700 58.89400 41.26000
C  26.76300 56.91000 39.99600
C  31.56700 56.86600 39.84100
C  31.65800 61.37600 41.66200
C  26.83600 61.18700 42.38200
N  29.15000 57.17600 39.88600
C  28.05600 56.48100 39.62100
C  28.34000 55.34400 38.64300
C  29.87500 55.16300 38.85300
C  30.24400 56.45800 39.63200
C  30.25800 53.79500 39.67600
C  27.85300 55.77800 37.25700
C  26.99800 54.77100 36.45500
H  27.34400 54.50100 34.99000
N  31.32700 59.12100 40.73700
C  32.10600 58.13500 40.26700
C  33.46600 58.53500 40.22600
C  33.57300 59.85300 40.82100
C  32.17700 60.16300 41.12800
C  34.55000 57.75200 39.40700
C  34.77700 60.72500 41.07100
O  35.92600 60.31200 40.78200
C  34.68300 62.05700 41.60500
N  29.27200 60.96800 42.00600
C  30.36300 61.76000 42.08800
C  29.94000 63.12800 42.56300
C  28.45700 63.06700 42.82000
C  28.16600 61.67900 42.32600
C  30.70300 63.77100 43.65000
C  27.59400 64.24100 42.14400
C  26.54300 64.70600 43.15200
N  27.20000 58.92800 41.41900
C  26.34100 59.91300 41.91100
C  25.01900 59.41500 41.74500
C  25.09000 58.26500 41.02600
C  26.47700 58.08600 40.76600
C  23.68100 60.08800 42.17200
C  24.40200 57.16700 40.44100
O  23.23200 56.94900 40.46300
C  25.42000 56.27400 39.68900
C  25.26600 54.98600 40.27100
O  25.79300 54.63300 41.35400
O  24.60500 54.16500 39.36300
C  24.85700 52.71100 39.52700
H  32.22700 56.04600 39.55000
H  32.28700 62.25400 41.82200
H  26.08200 61.86300 42.79100
H  27.88100 54.44400 39.05300
H  30.34900 55.17500 37.87200
H  29.35400 53.29800 40.02700
H  30.77000 54.00000 40.61700
H  30.77700 53.09300 39.02300
H  28.72100 55.95200 36.62200
H  27.29400 56.69000 37.46400
H  25.98400 55.16900 36.46900
H  26.87500 53.83700 37.00400
H  34.63600 56.74500 39.81500
H  35.56700 58.14600 39.39700
H  34.26200 57.64600 38.36100
H  34.22900 62.74600 40.89400
H  35.72400 62.38000 41.64500
H  34.26100 62.08300 42.60900
H  30.01400 63.84000 41.74100
H  28.25600 63.01900 43.89100
H  31.69300 63.33200 43.77100
H  30.25800 63.53400 44.61600
H  30.85600 64.84300 43.52900
H  27.03700 63.95100 41.25300
H  28.17600 65.13200 41.90600
H  25.57100 64.51100 42.70000
H  26.68600 65.78500 43.22100
H  26.58400 64.29500 44.16100
H  22.91000 59.36700 41.89900
H  23.53800 60.94000 41.50800
H  23.52500 60.44400 43.19000
H  25.19700 56.29700 38.62300
H  24.06700 52.25600 40.12400
H  25.69400 52.51500 40.19700
H  25.07400 52.11500 38.64000
Mg -12.68500 15.94800 42.45400
C  -9.71200 14.08200 42.34500
C  -11.04600 18.36400 40.53100
C  -15.57900 17.50000 42.15000
C  -14.27200 13.01400 43.60000
N  -10.64800 16.19400 41.53000
C  -9.60100 15.26200 41.67700
C  -8.31700 15.78200 40.91700
C  -8.74000 17.26800 40.59200
C  -10.26100 17.31700 40.88100
C  -7.96600 18.38900 41.34500
C  -7.87200 14.93900 39.72800
C  -6.39800 15.29500 39.35100
H  -6.08300 15.76100 37.91400
N  -13.21500 17.77800 41.62000
C  -12.38900 18.60700 40.90400
C  -13.12700 19.75600 40.37600
C  -14.44300 19.56400 40.95900
C  -14.48900 18.24600 41.63200
C  -12.46800 20.99500 39.59400
C  -15.58500 20.54100 40.79500
O  -15.40500 21.61200 40.19800
C  -16.87100 20.29100 41.39600
N  -14.74000 15.27400 42.64300
C  -15.71400 16.15600 42.60400
C  -17.06800 15.57800 42.93300
C  -16.64600 14.13600 43.57000
C  -15.11700 14.10400 43.25000
C  -17.93800 16.47100 43.93400
C  -17.55400 13.00700 42.92400
C  -18.96800 12.95100 43.49500
N  -12.16300 14.02900 42.89800
C  -12.85000 12.94600 43.41800
C  -11.99600 11.82100 43.71600
C  -10.72100 12.25100 43.36000
C  -10.88000 13.56800 42.83600
C  -12.24700 10.47000 44.08200
C  -9.32200 11.83500 43.31200
O  -8.83600 10.78300 43.65700
C  -8.65800 13.02700 42.60200
C  -7.48200 13.54300 43.39500
O  -7.35600 13.93600 44.53700
O  -6.43700 13.48100 42.52800
C  -5.22600 14.19600 42.97000
H  -10.40500 19.14700 40.12000
H  -16.53500 18.01400 42.03300
H  -14.71900 12.08800 43.96900
H  -7.55400 15.81900 41.69500
H  -8.63400 17.51400 39.53600
H  -8.54400 18.50400 42.26200
H  -8.05100 19.29700 40.74800
H  -6.98400 18.06600 41.69000
H  -8.54100 15.06800 38.87700
H  -7.90000 13.86600 39.91800
H  -5.73900 14.48600 39.66700
H  -6.10500 16.19600 39.89000
H  -11.67100 21.31300 40.26700
H  -13.15700 21.82100 39.41800
H  -11.99700 20.59900 38.69400
H  -16.95700 20.21500 42.48000
H  -17.43300 19.49700 40.90400
H  -17.40100 21.21200 41.15600
H  -17.69400 15.45600 42.04900
H  -16.73800 14.22700 44.65300
H  -18.94700 16.61100 43.54500
H  -17.41800 17.40600 44.14000
H  -18.16700 15.88300 44.82300
H  -17.03400 12.05000 42.88000
H  -17.69100 13.25500 41.87100
H  -19.07400 13.62500 44.34500
H  -19.23900 11.90100 43.59900
H  -19.68800 13.16700 42.70600
H  -11.30700 10.11700 44.50500
H  -12.56000 9.76800 43.30900
H  -12.94600 10.38500 44.91400
H  -8.27000 12.67800 41.64500
H  -4.39000 13.91900 42.32700
H  -5.11800 13.91600 44.01800
H  -5.42100 15.25300 42.78700

