158

Mg 25.65000 -0.49800 29.40000
C  27.36800 -0.97200 32.36700
C  22.86800 0.19800 31.16800
C  23.85200 -0.52800 26.39100
C  28.44000 -1.60300 27.67600
N  25.17300 -0.53400 31.58500
C  26.06500 -0.60100 32.60500
C  25.43900 -0.32700 33.98700
C  24.02400 0.15600 33.57400
C  23.99500 -0.04500 32.01300
C  22.80800 -0.59100 34.19200
C  26.13200 0.78600 34.87200
C  26.96400 0.35200 36.08500
H  26.88500 1.20900 37.31800
N  23.62500 -0.26200 28.86700
C  22.63700 -0.01200 29.77900
C  21.36000 0.18900 29.10000
C  21.64000 0.08900 27.70500
C  23.08100 -0.28400 27.57800
C  19.97000 0.28800 29.86400
C  20.76700 0.17000 26.46700
O  21.19600 0.07200 25.32300
C  19.29800 0.51400 26.59300
N  25.96600 -1.23200 27.32400
C  25.15700 -1.01900 26.25600
C  25.90100 -1.17300 24.83600
C  27.42800 -1.15200 25.34700
C  27.31700 -1.26200 26.90000
C  25.47000 -2.55900 24.21300
C  28.29900 0.13100 25.07500
C  29.63100 -0.12800 24.29100
N  27.52600 -1.19800 29.90100
C  28.59800 -1.54800 29.07400
C  29.75300 -1.76200 29.84900
C  29.33900 -1.67100 31.17500
C  27.99300 -1.21800 31.11200
C  31.19800 -2.09800 29.43100
C  29.75700 -1.83700 32.55000
O  30.78900 -1.99700 33.13100
C  28.47300 -1.49700 33.40500
C  28.10600 -2.53200 34.44500
O  27.21400 -3.33800 34.26000
O  28.85700 -2.37300 35.58200
C  28.63500 -3.35500 36.67400
H  21.97100 0.64600 31.60000
H  23.36500 -0.33500 25.43200
H  29.36400 -1.71900 27.10600
H  25.27000 -1.28900 34.47100
H  23.84900 1.21800 33.74400
H  22.60100 -1.46600 33.57600
H  21.90700 0.01800 34.26700
H  22.98400 -1.00200 35.18600
H  25.37600 1.46400 35.26900
H  26.84900 1.38400 34.30900
H  27.99200 0.25800 35.73400
H  26.73400 -0.65400 36.43500
H  19.28200 0.99500 29.40100
H  20.17200 0.37100 30.93200
H  19.35000 -0.60200 29.76400
H  18.93900 0.47100 25.56400
H  19.13000 1.36500 27.25200
H  18.86700 -0.32000 27.14700
H  25.77500 -0.29600 24.20100
H  27.92200 -2.05100 24.97800
H  24.93200 -3.12200 24.97700
H  26.32400 -3.15100 23.88600
H  24.78700 -2.21500 23.43600
H  28.58100 0.57400 26.03000
H  27.66700 0.84800 24.55000
H  29.46800 -0.79100 23.44200
H  30.39400 -0.50200 24.97300
H  29.86400 0.90600 24.03800
H  31.30100 -3.12900 29.09300
H  31.81600 -1.92100 30.31100
H  31.47700 -1.48700 28.57300
H  28.85000 -0.61400 33.92200
H  28.90500 -4.27900 36.16400
H  27.63500 -3.38500 37.10800
H  29.27600 -3.16700 37.53600
Mg 35.37000 0.40700 29.63900
C  33.42200 1.35300 32.33400
C  38.02700 0.01100 31.88300
C  37.40300 0.21200 27.05700
C  32.72500 0.94800 27.46200
N  35.68200 0.72700 31.90200
C  34.70800 1.07400 32.80400
C  35.21000 0.95800 34.25200
C  36.83700 0.81400 34.10700
C  36.84700 0.49500 32.54700
C  37.71300 2.00800 34.56400
C  34.38600 -0.18600 35.05700
C  33.82300 0.26100 36.48500
H  34.54600 1.40400 37.19800
N  37.41900 -0.04400 29.50300
C  38.32700 -0.22000 30.49900
C  39.59200 -0.64400 29.89200
C  39.41100 -0.50800 28.49800
C  38.05200 -0.02400 28.31400
C  40.80900 -0.92300 30.72500
C  40.41700 -0.76400 27.35700
O  40.20700 -0.70000 26.18100
C  41.90700 -0.96600 27.72900
N  35.08000 0.41900 27.59500
C  36.06000 0.40800 26.69100
C  35.60000 0.40200 25.22000
C  34.02500 0.47400 25.35900
C  33.90500 0.55900 26.88700
C  36.17500 1.59200 24.37800
C  33.29400 -0.74000 24.66000
C  33.18600 -1.96600 25.54700
N  33.48800 0.96500 29.78500
C  32.46800 0.99100 28.88400
C  31.21200 1.36400 29.47700
C  31.55700 1.59800 30.82500
C  32.87000 1.27400 30.99400
C  29.91400 1.59000 28.72500
C  31.05600 1.93200 32.08300
O  29.89000 2.20600 32.40000
C  32.19400 1.71000 33.14400
C  32.39100 2.93300 33.94100
O  33.27000 3.74600 33.77300
O  31.39200 3.08400 34.93000
C  31.40900 4.33300 35.66500
H  38.86800 -0.02700 32.57900
H  37.90100 0.11600 26.08900
H  31.86100 1.11400 26.81600
H  34.93100 1.90700 34.71100
H  37.21500 -0.08800 34.58900
H  37.10300 2.69100 35.15400
H  37.92000 2.57300 33.65500
H  38.55400 1.83400 35.23600
H  35.08400 -0.98100 35.32100
H  33.61100 -0.72000 34.50700
H  33.98600 -0.48500 37.26300
H  32.77100 0.53500 36.41100
H  41.39300 -1.73300 30.28800
H  40.58400 -1.11600 31.77400
H  41.27300 0.06100 30.66600
H  41.99700 -0.30300 28.59000
H  42.64500 -0.65000 26.99200
H  42.22000 -1.99800 27.89200
H  35.81800 -0.60400 24.86100
H  33.59100 1.40800 25.00100
H  37.02400 1.97400 24.94500
H  35.46800 2.37100 24.09400
H  36.55100 1.19300 23.43600
H  33.90400 -0.92200 23.77400
H  32.35300 -0.35500 24.26800
H  33.48800 -2.76400 24.86900
H  32.13300 -2.22500 25.66600
H  33.84500 -2.11300 26.40300
H  29.59000 0.67500 28.23000
H  30.12000 2.31200 27.93400
H  29.15900 1.94200 29.42800
H  31.88800 0.92600 33.83700
H  30.70700 4.26700 36.49600
H  31.00600 5.14700 35.06200
H  32.39400 4.65700 36.00000

