158

Mg 1.75700 -2.16900 45.13600
C  5.02400 -1.05500 44.64500
C  0.72100 0.67000 43.37200
C  -1.47000 -3.45900 44.92900
C  2.88500 -5.28700 46.08400
N  2.78200 -0.39900 44.22400
C  4.13600 -0.08700 44.14800
C  4.39900 1.34600 43.68700
C  2.98700 1.78600 43.28000
C  2.10500 0.63100 43.64000
C  2.48800 3.21300 43.73000
C  5.55400 1.39700 42.60700
C  5.63300 0.39200 41.38200
H  5.42500 1.03200 39.99800
N  -0.12100 -1.41200 44.37900
C  -0.31500 -0.23300 43.68700
C  -1.72100 -0.04600 43.35900
C  -2.37700 -1.15200 43.91600
C  -1.33700 -2.11900 44.47200
C  -2.13200 1.13000 42.50900
C  -3.91900 -1.36800 43.90500
O  -4.62900 -0.54900 43.30600
C  -4.60900 -2.44500 44.63400
N  0.76400 -4.14000 45.47500
C  -0.53500 -4.37500 45.51100
C  -0.82000 -5.81800 45.97500
C  0.62900 -6.36200 46.24200
C  1.51100 -5.15500 45.94800
C  -1.85700 -5.95200 47.07100
C  0.97500 -7.58800 45.37600
C  0.87500 -8.91600 46.20000
N  3.57400 -3.02800 45.46400
C  3.88500 -4.26000 45.90800
C  5.38700 -4.36900 46.01200
C  5.88500 -3.12300 45.57800
C  4.72400 -2.36400 45.23600
C  6.06700 -5.62200 46.31500
C  7.02800 -2.33700 45.41800
O  8.19500 -2.65300 45.58200
C  6.52200 -0.98600 44.80600
C  6.88300 0.16100 45.79600
O  6.48700 0.27000 46.94900
O  7.80400 1.01200 45.23500
C  8.21400 2.24400 45.99500
H  0.41000 1.56900 42.83600
H  -2.49000 -3.84800 44.94400
H  3.32200 -6.25000 46.35800
H  4.62100 1.86500 44.61900
H  3.09600 1.77200 42.19600
H  1.61100 3.08400 44.36500
H  2.35300 3.85300 42.85800
H  3.25700 3.72600 44.30800
H  6.57000 1.48000 42.99000
H  5.34900 2.37400 42.17100
H  4.93400 -0.42700 41.55400
H  6.64300 -0.01000 41.30700
H  -2.07000 0.91600 41.44200
H  -1.54300 2.03300 42.67000
H  -3.18000 1.34600 42.71500
H  -5.63000 -2.13000 44.84600
H  -4.11100 -2.76300 45.55000
H  -4.63800 -3.21900 43.86700
H  -1.31700 -6.30200 45.13500
H  0.58500 -6.62300 47.30000
H  -2.78900 -6.32400 46.64500
H  -2.09500 -5.02800 47.59800
H  -1.63300 -6.77700 47.74700
H  1.98100 -7.48500 44.97000
H  0.25200 -7.65300 44.56300
H  0.46100 -8.74000 47.19200
H  1.81500 -9.44400 46.36200
H  0.21500 -9.60500 45.67300
H  6.22300 -6.28600 45.46400
H  5.41000 -5.98100 47.10600
H  7.06400 -5.36200 46.67100
H  7.03500 -0.91600 43.84700
H  7.30700 2.79600 46.24300
H  8.78100 2.88600 45.32000
H  8.59000 1.96200 46.97900
Mg 34.22900 3.76800 29.61500
C  32.17300 4.74300 32.25900
C  36.88100 3.56500 31.75900
C  36.13000 2.84500 27.02300
C  31.47200 4.29700 27.41300
N  34.49400 4.29500 31.66600
C  33.51100 4.49200 32.60700
C  34.08600 4.37500 34.06500
C  35.59300 4.40200 33.79700
C  35.65800 3.99200 32.32000
C  36.27100 5.76500 34.25800
C  33.44500 3.19400 34.86800
C  33.34200 3.22500 36.35500
H  33.97200 4.40400 37.08700
N  36.21000 3.37600 29.36700
C  37.15500 3.29400 30.37000
C  38.43100 2.94100 29.77100
C  38.27100 2.65700 28.42400
C  36.77700 2.94200 28.22700
C  39.75200 2.91100 30.54000
C  39.31200 2.28500 27.37500
O  39.06500 2.44800 26.19600
C  40.59200 1.65400 27.75100
N  33.76000 3.38900 27.61000
C  34.80000 3.08100 26.69700
C  34.30700 3.10600 25.29100
C  32.85200 3.61300 25.36100
C  32.64200 3.73300 26.90300
C  35.17000 3.94100 24.34900
C  31.96100 2.61000 24.57900
C  31.39000 1.37000 25.28100
N  32.22400 4.31900 29.78500
C  31.23700 4.54000 28.81500
C  29.97600 4.92400 29.42600
C  30.26200 5.02200 30.83500
C  31.62200 4.66700 30.98100
C  28.61200 5.18100 28.68000
C  29.76600 5.28200 32.16700
O  28.61800 5.58200 32.51000
C  30.99500 5.18000 33.14100
C  31.10500 6.49000 33.82200
O  31.25500 7.60600 33.27000
O  31.04000 6.32600 35.13000
C  31.41400 7.47800 35.97800
H  37.79800 3.45200 32.34000
H  36.81700 2.58600 26.21500
H  30.70400 4.60000 26.69800
H  33.62000 5.22300 34.56600
H  35.94600 3.55000 34.37800
H  37.00800 5.56500 35.03600
H  35.42900 6.39300 34.54800
H  36.69400 6.19200 33.34900
H  33.96400 2.28700 34.55800
H  32.44100 3.01000 34.48500
H  33.73000 2.29200 36.76500
H  32.27700 3.30400 36.57400
H  39.64400 3.56100 31.40900
H  40.60300 3.20400 29.92500
H  40.07900 1.90500 30.80100
H  40.99400 1.02000 26.96100
H  40.40800 0.99400 28.59900
H  41.37800 2.37300 27.98100
H  34.40800 2.09000 24.90800
H  32.82300 4.56700 24.83400
H  35.92000 4.51000 24.89800
H  34.61600 4.67600 23.76600
H  35.69300 3.30800 23.63200
H  32.40200 2.33000 23.62300
H  31.09500 3.19200 24.26200
H  31.37600 0.54100 24.57300
H  30.36800 1.56500 25.60500
H  32.10900 1.00100 26.01300
H  27.87100 5.40900 29.44700
H  28.23100 4.31000 28.14800
H  28.71900 6.01100 27.98100
H  30.80100 4.35900 33.83200
H  31.61300 7.05000 36.96100
H  30.65800 8.26300 35.96200
H  32.35500 7.87900 35.60100

