158

Mg -0.10700 7.99300 25.72000
C  1.21000 9.40700 28.63700
C  -0.66600 5.11300 27.28700
C  -0.84500 6.66700 22.68300
C  0.45600 11.08600 24.11000
N  0.36000 7.32800 27.69900
C  0.74500 8.09800 28.82100
C  0.43200 7.36100 30.12500
C  0.07600 5.92800 29.64000
C  -0.12600 6.09500 28.10000
C  1.15700 4.85900 29.98600
C  -0.68900 8.06100 31.01700
C  -0.43500 8.23600 32.52200
H  -0.00700 6.95800 33.29500
N  -0.80900 6.15400 25.06700
C  -1.00500 5.08200 25.87500
C  -1.36500 3.95600 25.00000
C  -1.35400 4.35400 23.65100
C  -1.00900 5.80400 23.74700
C  -1.63200 2.64700 25.59400
C  -1.73400 3.64300 22.41700
O  -1.86100 4.11700 21.30500
C  -2.17500 2.17700 22.58800
N  -0.10700 8.79800 23.67400
C  -0.57300 8.08600 22.64800
C  -0.43500 8.94900 21.37900
C  -0.53000 10.41400 21.92300
C  0.00400 10.09800 23.33700
C  0.88700 8.60100 20.66800
C  -1.93400 11.06400 21.83300
C  -2.37900 11.75200 20.51000
N  0.83700 9.76500 26.12200
C  0.91000 10.97100 25.39000
C  1.28800 12.03000 26.22400
C  1.47200 11.49800 27.47900
C  1.17400 10.11700 27.39800
C  1.33800 13.56500 25.94500
C  1.82900 11.75500 28.93600
O  2.14400 12.82500 29.45900
C  1.47400 10.43100 29.71600
C  2.54900 10.05700 30.63500
O  3.50300 9.30800 30.34300
O  2.42900 10.83800 31.69100
C  3.40400 10.43700 32.69300
H  -0.96900 4.26800 27.90800
H  -1.18200 6.18500 21.76300
H  0.61600 12.07900 23.68700
H  1.37400 7.25600 30.66400
H  -0.87500 5.58300 30.04300
H  1.44800 4.43400 29.02500
H  0.63300 4.07100 30.52600
H  1.97700 5.22800 30.60200
H  -1.64000 7.53100 30.95600
H  -0.90200 9.07700 30.68600
H  -1.44900 8.35700 32.90100
H  0.12100 9.14200 32.76200
H  -1.56000 2.65000 26.68200
H  -0.98600 1.90000 25.13200
H  -2.64600 2.31600 25.37100
H  -2.71300 1.73700 21.74900
H  -2.89200 2.08000 23.40300
H  -1.24400 1.63000 22.73900
H  -1.21800 8.79000 20.63800
H  0.19900 11.03900 21.40600
H  0.72200 8.15700 19.68600
H  1.45900 7.89100 21.26600
H  1.55000 9.46600 20.65200
H  -1.94700 11.88000 22.55500
H  -2.57400 10.22300 22.09900
H  -1.62700 11.57800 19.74000
H  -2.55000 12.80500 20.73400
H  -3.32300 11.34300 20.14900
H  0.45300 13.94200 25.43200
H  2.24200 13.96900 25.48700
H  1.27800 14.04200 26.92300
H  0.51600 10.53600 30.22500
H  3.57100 11.26100 33.38700
H  4.33800 10.07200 32.26600
H  3.01300 9.58000 33.24200
Mg -1.30300 34.26600 27.24200
C  -3.02200 32.56400 29.89600
C  -0.02100 36.38700 29.75900
C  0.16400 35.95800 24.90700
C  -3.03700 32.28100 24.92200
N  -1.58500 34.41200 29.69300
C  -2.31500 33.65100 30.50100
C  -2.00600 34.05500 31.89900
C  -1.12900 35.41300 31.82600
C  -0.89600 35.42600 30.30400
C  -1.83700 36.65100 32.38500
C  -1.31800 32.92700 32.74300
C  -1.97100 32.60000 34.08200
H  -0.93400 32.49300 35.22800
N  -0.17000 35.96500 27.28700
C  0.39500 36.59400 28.40900
C  1.36800 37.59300 27.95800
C  1.42800 37.52000 26.56400
C  0.37100 36.51500 26.17500
C  2.17200 38.53900 28.89600
C  2.28900 38.32200 25.57300
O  2.33300 38.13600 24.33300
C  3.13100 39.42500 26.05500
N  -1.46700 34.24900 25.22600
C  -0.75000 35.08700 24.41100
C  -0.93900 34.65700 22.92200
C  -1.95700 33.46000 22.93600
C  -2.11400 33.30800 24.49600
C  -1.27200 35.85400 21.91200
C  -1.56600 32.26700 22.14900
C  -0.86100 31.08600 22.88600
N  -2.64900 32.68600 27.32100
C  -3.33100 32.08300 26.27700
C  -4.15700 31.03000 26.86000
C  -3.98500 31.13800 28.25100
C  -3.09300 32.17200 28.49000
C  -5.09900 30.10800 26.07500
C  -4.41200 30.54800 29.50200
O  -5.12300 29.58300 29.71400
C  -3.92000 31.50300 30.62900
C  -5.09800 32.21100 31.30400
O  -5.84600 33.07300 30.82300
O  -5.28200 31.64600 32.52500
C  -6.38300 32.22200 33.29600
H  0.36200 37.05300 30.53500
H  0.70100 36.46400 24.10300
H  -3.50600 31.55500 24.25500
H  -2.94200 34.43900 32.30600
H  -0.21800 35.26100 32.40500
H  -2.71300 36.48400 33.01200
H  -1.96500 37.40200 31.60500
H  -1.04900 37.07900 33.00600
H  -0.24000 33.03200 32.86600
H  -1.53200 31.99400 32.22200
H  -2.26600 31.55100 34.10100
H  -2.78100 33.22900 34.45300
H  2.08500 39.57500 28.56900
H  3.21900 38.23900 28.94700
H  1.90100 38.43500 29.94600
H  3.69800 39.80000 25.20300
H  3.73200 38.97000 26.84300
H  2.52000 40.22300 26.47800
H  0.10200 34.38500 22.74800
H  -2.97800 33.75700 22.69800
H  -0.49200 36.11900 21.19800
H  -1.33000 36.76900 22.50100
H  -2.21800 35.76700 21.37700
H  -0.88300 32.40600 21.31100
H  -2.54500 31.91500 21.82600
H  -1.68100 30.36900 22.93300
H  -0.63400 31.47400 23.87800
H  -0.11200 30.55100 22.30200
H  -5.26700 30.59800 25.11600
H  -6.11500 30.10700 26.47000
H  -4.81300 29.06300 25.95500
H  -3.36100 30.95400 31.38700
H  -7.11100 32.79200 32.72000
H  -5.92100 32.91100 34.00300
H  -6.89800 31.47100 33.89600

