158

Mg 46.45400 25.97400 28.19600
C  47.13600 28.09100 30.85300
C  45.58000 23.50100 30.62000
C  46.02400 23.88300 25.70900
C  48.02800 28.15800 26.09000
N  46.28100 25.87100 30.50000
C  46.57600 26.91700 31.33200
C  46.30300 26.54600 32.77800
C  46.06500 25.03100 32.67400
C  45.99500 24.70600 31.20500
C  47.11100 24.15100 33.41700
C  45.13800 27.44200 33.38100
C  44.84600 27.12700 34.80500
H  44.90300 28.24400 35.80900
N  45.86500 23.97300 28.13500
C  45.58400 23.16500 29.22200
C  45.35000 21.84600 28.65000
C  45.47500 21.89900 27.21400
C  45.75600 23.30000 26.97500
C  45.12200 20.60700 29.58100
C  45.44100 20.82700 26.18900
O  45.76400 20.99200 25.00400
C  45.01600 19.50200 26.61900
N  47.00200 25.99400 26.23200
C  46.54600 25.05300 25.35500
C  46.60800 25.50100 23.86100
C  47.27000 26.95500 23.97100
C  47.37800 27.06800 25.53700
C  47.32500 24.57900 22.86900
C  46.48800 28.12100 23.27700
C  47.40800 29.07800 22.39100
N  47.34500 27.79900 28.33700
C  48.05900 28.56800 27.42000
C  48.56200 29.72800 28.03400
C  48.22900 29.65700 29.37800
C  47.54100 28.40400 29.53500
C  49.42000 30.75700 27.35000
C  48.35500 30.27200 30.67800
O  48.85200 31.31300 31.09500
C  47.69500 29.20700 31.73700
C  48.81300 28.68600 32.64000
O  49.67600 27.93400 32.28100
O  48.80400 29.39500 33.79000
C  49.95400 29.13400 34.67000
H  45.13500 22.75700 31.28400
H  45.97200 23.31500 24.77800
H  48.33600 28.85400 25.30700
H  47.18400 26.78300 33.37500
H  45.06900 24.95100 33.10900
H  47.75800 24.68300 34.11500
H  47.71000 23.65300 32.65400
H  46.56900 23.40300 33.99500
H  44.21300 27.15900 32.87800
H  45.42300 28.48900 33.27900
H  45.65100 26.47400 35.14300
H  43.91300 26.56300 34.81000
H  44.20400 20.11000 29.26700
H  44.91800 20.77600 30.63800
H  45.94100 19.89800 29.46200
H  45.83300 19.09100 27.21100
H  45.00100 18.78700 25.79700
H  44.05300 19.56200 27.12600
H  45.61600 25.64800 23.43400
H  48.26000 26.83800 23.53200
H  46.51600 23.91500 22.56600
H  48.13300 24.06600 23.39000
H  47.75800 25.10600 22.01900
H  46.12300 28.69600 24.12800
H  45.65400 27.61000 22.79700
H  47.21400 29.03000 21.32000
H  48.45700 28.78500 22.43800
H  47.33400 30.08800 22.79400
H  49.71100 30.61400 26.31000
H  50.36100 30.92600 27.87200
H  48.81900 31.65700 27.48400
H  47.05200 29.92400 32.24700
H  50.31100 28.10500 34.62700
H  49.67400 29.48500 35.66300
H  50.73600 29.86500 34.46300
Mg 42.45600 41.83500 26.17100
C  41.42400 44.19100 28.57500
C  43.47900 39.77600 28.77700
C  43.74500 39.83400 23.87600
C  42.20600 44.40100 23.84700
N  42.44300 41.99300 28.44200
C  41.81900 42.94700 29.14600
C  41.78200 42.61900 30.68800
C  42.54800 41.22900 30.72800
C  42.83000 40.99000 29.21900
C  43.70100 41.03700 31.72600
C  40.35500 42.64000 31.44400
C  40.30400 43.69700 32.58400
H  39.43900 43.32800 33.76800
N  43.47700 40.10100 26.33500
C  43.67600 39.34600 27.43500
C  44.12100 37.99100 26.98800
C  44.15400 38.01400 25.57800
C  43.76500 39.37100 25.15400
C  44.64000 36.94000 27.90500
C  44.56200 36.85600 24.67600
O  44.45100 36.89300 23.43600
C  45.09700 35.62600 25.17800
N  42.78800 42.00700 24.18500
C  43.27200 41.06200 23.44600
C  43.52100 41.49600 21.96700
C  42.98000 42.97900 21.94900
C  42.61900 43.12000 23.42200
C  45.05800 41.35300 21.58400
C  41.85200 43.21400 20.92500
C  40.55300 42.42100 21.20400
N  41.80400 43.83500 26.11800
C  41.74500 44.76900 25.08800
C  41.09000 45.98200 25.46300
C  41.02500 45.86200 26.84800
C  41.46100 44.49700 27.17100
C  40.90800 47.19100 24.61900
C  40.63400 46.49800 28.06800
O  40.30000 47.65100 28.24900
C  40.93700 45.47200 29.23100
C  41.86500 46.15500 30.04100
O  43.07700 46.22500 29.82600
O  41.22600 46.48900 31.25300
C  42.21600 46.94200 32.24700
H  43.68200 39.06600 29.58100
H  44.14800 39.13200 23.14300
H  41.97500 45.00000 22.96400
H  42.42600 43.35300 31.17200
H  41.80100 40.54600 31.13300
H  43.95900 42.08200 31.89900
H  44.52200 40.47900 31.27500
H  43.37400 40.45900 32.59000
H  40.10900 41.66000 31.85300
H  39.65300 42.91600 30.65700
H  39.89200 44.58300 32.10100
H  41.30200 43.98100 32.91700
H  44.63800 37.35700 28.91200
H  45.68300 36.67700 27.72600
H  44.00800 36.05500 27.96900
H  44.50800 35.18300 25.98100
H  46.06600 35.82900 25.63600
H  45.34600 34.87900 24.42400
H  42.86400 40.86200 21.37300
H  43.77500 43.67100 21.67200
H  45.14500 40.39300 21.07300
H  45.64400 41.38700 22.50200
H  45.32600 42.16800 20.91200
H  42.31000 42.93800 19.97600
H  41.65300 44.28400 20.99200
H  40.29500 42.06000 20.20800
H  39.78700 43.15000 21.46600
H  40.77300 41.56500 21.84100
H  40.13200 46.72700 24.01000
H  41.77400 47.38000 23.98500
H  40.41400 48.01300 25.13700
H  39.99100 45.30700 29.74700
H  42.37700 46.15200 32.98200
H  41.77100 47.72600 32.85900
H  43.24100 47.27200 32.08000

