158

Mg 35.40800 3.29700 30.06200
C  33.06000 4.18400 32.53000
C  37.75800 3.08500 32.40900
C  37.56100 2.59600 27.59600
C  32.85400 3.62400 27.67200
N  35.36800 3.75500 32.15200
C  34.28500 3.97300 33.02400
C  34.72900 4.15900 34.49300
C  36.30400 4.09700 34.29000
C  36.50400 3.57600 32.88600
C  37.18800 5.32800 34.57000
C  34.06700 3.01000 35.32000
C  33.83400 3.42800 36.83700
H  34.58700 4.60300 37.50800
N  37.42000 2.93900 29.97500
C  38.19600 2.84100 31.06200
C  39.56400 2.35300 30.67100
C  39.49500 2.08500 29.29100
C  38.16300 2.58800 28.85800
C  40.58400 1.97800 31.58000
C  40.65100 1.62500 28.27800
O  40.44700 1.66000 27.07100
C  42.12500 1.47300 28.76000
N  35.34100 3.43200 27.85400
C  36.28700 2.94400 27.12100
C  35.83700 2.92300 25.60300
C  34.33400 2.95100 25.67900
C  34.14200 3.35000 27.18500
C  36.49900 3.99900 24.59700
C  33.56000 1.67100 25.22100
C  33.25300 0.55600 26.23000
N  33.43900 3.90400 29.96400
C  32.51400 3.94100 28.97900
C  31.19600 4.22600 29.47500
C  31.35000 4.38400 30.83500
C  32.73100 4.10600 31.10400
C  29.87400 4.27500 28.66300
C  30.63900 4.68700 32.09400
O  29.51800 4.90900 32.31300
C  31.76500 4.67300 33.19800
C  31.91100 6.00300 33.93200
O  32.23500 7.06500 33.42100
O  31.54300 5.76500 35.26400
C  31.48200 7.09800 36.02200
H  38.50300 2.81500 33.16000
H  38.20100 2.27500 26.77100
H  32.02700 3.58200 26.96000
H  34.30300 5.09900 34.84500
H  36.70800 3.27200 34.87600
H  36.61100 6.24300 34.70200
H  37.77300 5.52900 33.67300
H  37.75700 5.15100 35.48400
H  34.70000 2.13500 35.17200
H  33.01800 2.89800 35.04700
H  33.91700 2.55100 37.47800
H  32.77200 3.65700 36.92500
H  40.24200 1.99000 32.61500
H  41.46400 2.57600 31.34200
H  40.83200 0.93100 31.40900
H  42.33100 2.41200 29.27400
H  42.82200 1.33100 27.93400
H  42.21400 0.58300 29.38400
H  36.01900 1.92900 25.19500
H  34.00600 3.80500 25.08700
H  35.89400 4.90600 24.59400
H  36.60200 3.64200 23.57200
H  37.48100 4.30900 24.95300
H  34.01000 1.13100 24.38900
H  32.62300 2.00300 24.77300
H  33.12300 1.00800 27.21300
H  33.95700 -0.27500 26.24300
H  32.25600 0.22200 25.94400
H  29.10800 3.69300 29.17600
H  29.90000 3.79700 27.68400
H  29.46600 5.27000 28.48600
H  31.48800 3.88800 33.90200
H  31.95800 7.90300 35.46200
H  31.94800 7.02100 37.00400
H  30.46200 7.46100 36.14300
Mg 4.89400 54.71200 39.69600
C  5.32700 51.27900 39.00200
C  7.92100 55.27600 38.26000
C  4.06700 57.92600 39.69400
C  1.76700 53.86600 41.02700
N  6.28400 53.45900 38.62800
C  6.26600 52.06800 38.42200
C  7.47000 51.71300 37.54800
C  8.53000 52.71900 38.07100
C  7.56900 53.90800 38.31000
C  9.21300 52.36100 39.43400
C  7.17000 51.93100 36.03700
C  7.40400 50.69200 35.13100
H  6.37200 50.48300 34.01400
N  5.86200 56.45200 39.05100
C  7.09800 56.41400 38.44500
C  7.41800 57.74900 38.08500
C  6.32800 58.58100 38.52300
C  5.32900 57.70400 39.11200
C  8.61000 58.17200 37.26900
C  6.18600 60.14000 38.22000
O  7.10200 60.75500 37.62300
C  4.84600 60.89000 38.37800
N  3.09500 55.67300 40.12600
C  3.03200 57.04700 40.07700
C  1.71600 57.57800 40.74600
C  0.83200 56.27100 40.99000
C  1.94900 55.15300 40.72800
C  1.88500 58.46500 41.95500
C  -0.41500 56.14900 40.11500
C  -1.74900 55.97300 40.80800
N  3.66800 52.90100 40.06100
C  2.49100 52.71900 40.71000
C  2.30900 51.27600 40.95600
C  3.40400 50.63300 40.25800
C  4.15800 51.65300 39.70900
C  1.23000 50.58900 41.82700
C  4.12200 49.40200 39.95800
O  3.79500 48.23200 40.26500
C  5.42400 49.72200 39.15400
C  5.38500 48.98200 37.85800
O  4.51900 49.08700 36.98000
O  6.48000 48.12700 37.84000
C  6.44800 47.16700 36.65300
H  8.95900 55.52600 38.02800
H  3.69500 58.95200 39.64600
H  0.95900 53.62900 41.72200
H  7.79800 50.71700 37.84500
H  9.29700 53.02900 37.36100
H  9.19700 51.29900 39.67800
H  8.72200 53.02000 40.15100
H  10.22900 52.75100 39.37700
H  7.88800 52.64500 35.63400
H  6.11200 52.17500 35.94300
H  7.43200 49.78100 35.72800
H  8.40400 50.83300 34.72100
H  8.19200 58.81900 36.49700
H  9.02200 57.32000 36.72900
H  9.42800 58.50000 37.91100
H  4.93900 61.77600 37.75000
H  4.74700 61.14100 39.43400
H  3.93100 60.36700 38.10000
H  1.20200 58.13600 39.96300
H  0.58600 56.25300 42.05200
H  1.56400 59.44000 41.58900
H  2.92700 58.49500 42.27400
H  1.25200 58.18700 42.79800
H  -0.11600 55.25800 39.56200
H  -0.52800 56.93100 39.36400
H  -2.60600 56.33100 40.23800
H  -1.81500 56.40800 41.80500
H  -1.80300 54.89200 40.93900
H  1.28900 50.48100 42.91000
H  1.09000 49.54900 41.53100
H  0.26500 51.05200 41.61900
H  6.33600 49.41500 39.66600
H  6.79600 46.31100 37.23100
H  7.17300 47.38000 35.86900
H  5.46700 46.89500 36.26300

