158

Mg 16.68400 -2.70900 28.15600
C  15.37300 -0.29000 30.38600
C  18.65900 -4.10000 30.59500
C  18.26800 -4.57800 25.71600
C  15.37600 -0.65400 25.57100
N  16.93300 -2.25400 30.25200
C  16.29600 -1.22600 31.00000
C  16.80800 -1.25100 32.42200
C  17.86500 -2.38600 32.42400
C  17.87200 -2.95700 30.97300
C  19.19100 -1.85400 32.92200
C  15.65700 -1.42100 33.52100
C  15.46800 -0.49900 34.71200
H  16.83900 0.11300 35.26100
N  18.02600 -4.16800 28.18600
C  18.62100 -4.72500 29.32400
C  19.41700 -5.91800 28.94100
C  19.36900 -6.05600 27.50100
C  18.51700 -4.90800 27.06100
C  20.25900 -6.66200 29.93500
C  20.06700 -7.04500 26.54800
O  19.84800 -7.11000 25.34500
C  21.07100 -8.10900 27.18000
N  16.76800 -2.62800 25.93400
C  17.46700 -3.53600 25.18400
C  17.43300 -3.20000 23.70100
C  16.38200 -2.09600 23.61900
C  16.13800 -1.77100 25.13700
C  18.76600 -2.90900 23.09500
C  15.06000 -2.42700 22.91900
C  14.17600 -1.39600 22.37800
N  15.46200 -0.91900 27.99500
C  14.97000 -0.20900 26.89600
C  14.09900 0.89100 27.26600
C  14.16900 0.84500 28.66700
C  15.02900 -0.23600 29.04400
C  13.50200 1.84700 26.28300
C  13.79800 1.51300 29.87800
O  13.02200 2.47500 29.98300
C  14.50000 0.76100 30.99100
C  15.21100 1.89200 31.70600
O  16.34400 2.36100 31.48600
O  14.47600 2.36900 32.67900
C  15.00900 3.36800 33.57200
H  19.28600 -4.70300 31.25500
H  18.79700 -5.12700 24.93500
H  15.01000 0.00900 24.78400
H  17.30800 -0.29500 32.57700
H  17.42700 -3.10900 33.11100
H  19.29200 -0.77400 32.81700
H  19.93300 -2.35000 32.29700
H  19.32300 -2.07900 33.98000
H  15.56600 -2.45400 33.86000
H  14.75400 -1.19500 32.95400
H  14.91100 -1.20400 35.33000
H  14.84200 0.35700 34.46100
H  20.31300 -7.74100 29.79100
H  19.76200 -6.55800 30.89900
H  21.19200 -6.10000 29.98000
H  21.64200 -7.61400 27.96500
H  21.74600 -8.47800 26.40700
H  20.60500 -9.01500 27.56600
H  16.97700 -4.09400 23.27500
H  16.74500 -1.17300 23.16700
H  19.44600 -2.68600 23.91600
H  18.62700 -1.97900 22.54300
H  19.04900 -3.78700 22.51400
H  14.42000 -3.06400 23.53100
H  15.32900 -2.98100 22.02000
H  14.20700 -1.40000 21.28800
H  14.45900 -0.37500 22.63500
H  13.19400 -1.72600 22.71700
H  12.92700 1.33700 25.51000
H  14.27800 2.52200 25.92100
H  12.80800 2.56300 26.72400
H  13.83000 0.23300 31.67000
H  15.50100 2.97700 34.46300
H  14.12300 3.91500 33.89400
H  15.56500 4.09200 32.97500
Mg -0.91100 34.30100 26.55500
C  -2.59600 32.52900 29.21200
C  0.54400 36.27800 28.79600
C  -0.00200 36.26800 24.04000
C  -2.76600 32.30300 24.30700
N  -1.13700 34.33400 28.71500
C  -1.75600 33.57400 29.71200
C  -1.34100 33.96700 31.07800
C  -0.42100 35.21800 30.80300
C  -0.37500 35.33900 29.30600
C  -0.94200 36.54800 31.49700
C  -0.70800 32.81800 31.98900
C  -1.47700 32.47400 33.28400
H  -0.78000 32.27500 34.63800
N  0.33300 35.93500 26.37200
C  0.76900 36.68000 27.47100
C  1.67500 37.65100 27.00200
C  1.61600 37.66400 25.59200
C  0.61300 36.59300 25.29700
C  2.51800 38.52400 28.05400
C  2.36200 38.47600 24.58500
O  2.20200 38.31900 23.38900
C  3.39900 39.41000 25.05600
N  -1.37800 34.37100 24.53800
C  -0.88300 35.27200 23.67300
C  -1.21100 34.97500 22.21500
C  -1.77000 33.55100 22.34400
C  -2.03300 33.36500 23.84600
C  -2.25100 35.97600 21.52700
C  -0.82500 32.50400 21.74700
C  0.37400 32.04900 22.59000
N  -2.37600 32.70600 26.69300
C  -3.01300 32.00400 25.67000
C  -3.98800 31.11900 26.26400
C  -3.82100 31.23200 27.66700
C  -2.84300 32.21100 27.85700
C  -4.94700 30.30400 25.57300
C  -4.18700 30.70100 28.96700
O  -5.14300 29.94500 29.23500
C  -3.36900 31.48900 30.00200
C  -4.27100 32.08100 31.06900
O  -4.93500 33.09100 30.93900
O  -4.33800 31.21800 32.14700
C  -5.29200 31.49000 33.19700
H  1.23700 36.75000 29.49500
H  0.40000 36.85800 23.21400
H  -3.21900 31.65900 23.55100
H  -2.13600 34.40000 31.68500
H  0.59500 34.96000 31.10000
H  -1.47900 37.12500 30.74400
H  -0.02800 37.11800 31.66400
H  -1.56900 36.42400 32.38000
H  0.23400 33.22500 32.35700
H  -0.45600 31.88800 31.48000
H  -1.98100 31.51500 33.16100
H  -2.34100 33.13700 33.33100
H  3.58800 38.56200 27.84700
H  2.39200 38.27800 29.10800
H  2.17200 39.55300 27.95600
H  3.39700 40.26500 24.38000
H  4.36000 38.89600 25.08200
H  3.16300 39.79800 26.04600
H  -0.24500 34.92900 21.71300
H  -2.70100 33.49200 21.78000
H  -2.60300 36.69500 22.26700
H  -3.17700 35.47800 21.24100
H  -1.77100 36.32300 20.61200
H  -0.52200 32.74900 20.72900
H  -1.50500 31.65700 21.65400
H  0.00800 31.71000 23.55800
H  1.04400 32.87800 22.82200
H  0.85100 31.28300 21.97900
H  -5.69000 31.00500 25.19300
H  -5.41300 29.50800 26.15400
H  -4.46100 29.93200 24.67100
H  -2.74200 30.71500 30.44500
H  -4.79600 31.46800 34.16700
H  -5.97000 30.63900 33.11900
H  -5.98200 32.33300 33.17100

