158

Mg 6.16100 53.94900 40.95800
C  5.72400 50.46400 40.85400
C  9.41100 53.50600 39.95900
C  6.26100 57.28200 40.27300
C  2.67900 54.09600 41.44900
N  7.38000 52.28900 40.37900
C  6.97800 50.95900 40.43900
C  8.12100 50.05700 40.03100
C  9.39700 50.92000 40.25800
C  8.68000 52.33200 40.12100
C  10.12400 50.66800 41.62200
C  7.96700 49.42500 38.66300
C  7.55900 50.41300 37.47500
H  6.36300 49.99900 36.49000
N  7.67100 55.19600 40.28100
C  8.95900 54.85800 40.03600
C  9.68800 56.07200 39.68700
C  8.83800 57.20300 39.84100
C  7.52300 56.61300 40.13100
C  11.14900 56.00400 39.38200
C  9.25200 58.75000 39.75400
O  10.39100 59.03600 39.59400
C  8.23700 59.80300 40.06000
N  4.68900 55.40700 40.79500
C  4.99200 56.72100 40.54300
C  3.73200 57.63500 40.40000
C  2.60300 56.62200 40.78300
C  3.32800 55.27100 40.96100
C  3.69400 58.80000 41.40300
C  1.36900 56.70400 39.90200
C  0.00500 56.70800 40.69600
N  4.53800 52.60700 41.40600
C  3.21500 52.84100 41.65600
C  2.51800 51.56700 41.96200
C  3.51200 50.62400 41.65300
C  4.68700 51.28600 41.35100
C  1.08100 51.40300 42.33600
C  3.72700 49.22300 41.59800
O  3.01100 48.30200 41.92300
C  5.16500 49.03900 40.94600
C  4.89600 48.33500 39.65600
O  4.22800 48.79600 38.74000
O  5.32100 47.02300 39.71400
C  4.92000 46.25200 38.56400
H  10.47100 53.31200 39.78800
H  6.28500 58.37000 40.17900
H  1.61400 54.22000 41.65400
H  8.13900 49.23400 40.74600
H  10.13200 50.79000 39.46400
H  11.19900 50.70900 41.44500
H  9.95100 49.62200 41.87500
H  9.74100 51.32700 42.40100
H  7.22900 48.63400 38.79600
H  8.94400 49.01800 38.40000
H  8.47100 50.67300 36.93700
H  7.08100 51.31300 37.86100
H  11.63200 55.41200 40.15900
H  11.81000 56.87100 39.37700
H  11.38700 55.56300 38.41400
H  7.46900 59.95000 39.30200
H  8.65300 60.79100 40.25800
H  7.79600 59.54600 41.02400
H  3.69600 58.08000 39.40600
H  2.26000 56.78200 41.80500
H  4.04800 59.66900 40.85000
H  4.44000 58.63100 42.18000
H  2.70600 58.94000 41.84000
H  1.38600 55.83000 39.25100
H  1.36500 57.55200 39.21600
H  -0.59000 57.55100 40.34400
H  0.00600 56.60000 41.78100
H  -0.36100 55.74100 40.35300
H  1.08600 50.54200 43.00500
H  0.54800 51.11600 41.43000
H  0.67400 52.26800 42.85900
H  5.77300 48.49700 41.67000
H  5.27100 46.75000 37.66000
H  3.84200 46.29300 38.40800
H  5.33300 45.25300 38.70400
Mg 16.14100 51.89300 25.63400
C  17.90300 50.66100 28.43700
C  13.52000 52.65200 27.81000
C  14.26300 52.35300 23.02300
C  18.75700 50.57000 23.52600
N  15.71800 51.47200 27.87200
C  16.69100 51.24000 28.78700
C  16.29500 51.66900 30.23300
C  14.84400 52.28100 30.05900
C  14.64300 52.09400 28.47500
C  13.68800 51.57600 30.80500
C  17.28200 52.65000 30.87900
C  17.47400 52.53000 32.36800
H  16.43900 51.65600 33.20800
N  14.17600 52.52800 25.42500
C  13.28700 52.86100 26.43600
C  12.15200 53.44400 25.81600
C  12.25100 53.16600 24.44800
C  13.62800 52.69700 24.23100
C  11.03900 53.97400 26.64600
C  11.23400 53.29800 23.33700
O  11.44800 52.93600 22.20500
C  9.85500 53.89300 23.53800
N  16.59600 51.67600 23.54100
C  15.49300 51.82700 22.72400
C  15.83600 51.31300 21.25600
C  17.31900 50.82400 21.38500
C  17.55400 51.04700 22.88100
C  14.77100 50.21100 20.82200
C  18.39800 51.57900 20.46600
C  19.35100 50.67100 19.60500
N  17.97400 50.94600 25.91000
C  18.94500 50.48500 24.95500
C  19.94700 49.65900 25.67400
C  19.63500 49.79100 27.06000
C  18.37000 50.49900 27.12500
C  20.95200 48.78500 25.21800
C  20.09200 49.44000 28.40200
O  21.02000 48.76300 28.76500
C  19.06600 50.17800 29.32800
C  18.73800 49.30500 30.44200
O  17.78000 48.59700 30.39900
O  19.73100 49.34900 31.46700
C  19.42700 48.55600 32.67400
H  12.77900 53.14100 28.44600
H  13.74800 52.45900 22.06600
H  19.58900 50.19100 22.92800
H  16.17500 50.70300 30.72400
H  14.78600 53.32200 30.37700
H  13.01000 51.21100 30.03400
H  13.04200 52.20800 31.41500
H  14.01000 50.71200 31.38600
H  16.96500 53.68400 30.74500
H  18.23700 52.65900 30.35300
H  17.39300 53.53400 32.78500
H  18.50900 52.29200 32.61200
H  11.40900 54.84400 27.18900
H  10.73100 53.24400 27.39500
H  10.10000 54.28900 26.19200
H  9.38700 53.34100 24.35300
H  9.37200 53.94400 22.56200
H  10.02900 54.91800 23.86400
H  15.80300 52.21700 20.64800
H  17.27600 49.75300 21.18800
H  13.87200 50.33600 21.42500
H  15.13700 49.18500 20.84200
H  14.57800 50.32900 19.75500
H  18.91400 52.34100 21.05000
H  17.88000 52.19800 19.73300
H  19.11900 49.62600 19.80900
H  20.36100 51.00700 19.83800
H  19.26400 50.82300 18.52900
H  20.98400 48.64500 24.13800
H  20.82800 47.88600 25.82300
H  21.96300 49.16800 25.35600
H  19.67300 50.93800 29.82000
H  20.14500 47.74100 32.58700
H  18.36400 48.31700 32.64800
H  19.64100 49.22000 33.51200

