158

Mg 35.66600 48.02300 25.50700
C  36.20400 46.20600 28.47700
C  34.08600 50.47700 27.22700
C  35.31800 49.63800 22.62000
C  37.32100 45.47700 23.78700
N  35.25400 48.31200 27.56900
C  35.59600 47.48400 28.63200
C  35.42300 48.13500 29.98600
C  34.49100 49.34300 29.56600
C  34.59200 49.43500 27.99800
C  32.97000 49.35500 29.98000
C  36.72000 48.64900 30.72400
C  36.64800 48.66100 32.27200
H  35.27600 48.52600 32.91200
N  34.99000 49.88400 24.99300
C  34.31900 50.77200 25.84600
C  33.87800 51.92600 25.12900
C  34.17100 51.72600 23.74700
C  34.78500 50.33200 23.67800
C  33.21000 53.08000 25.82800
C  33.87900 52.70500 22.58700
O  34.24500 52.39200 21.49500
C  33.24800 53.96800 22.84500
N  36.25600 47.58300 23.45500
C  36.02900 48.49200 22.49100
C  36.74900 48.08600 21.15600
C  37.57400 46.88400 21.61700
C  37.06200 46.64600 23.02200
C  35.63100 47.88800 20.06600
C  39.13800 47.12800 21.41800
C  39.90900 46.25900 20.45600
N  36.45000 46.17000 25.91100
C  37.04100 45.21700 25.14100
C  37.33100 44.05400 25.85400
C  37.05300 44.39800 27.22600
C  36.52400 45.71200 27.20200
C  38.03000 42.80000 25.36200
C  37.13800 43.94300 28.61500
O  37.58400 42.91400 29.11100
C  36.57900 45.14000 29.46500
C  35.37200 44.72600 30.25800
O  34.22800 44.67000 29.86900
O  35.79400 44.49900 31.57000
C  34.62300 43.96600 32.38600
H  33.39400 51.05000 27.84800
H  35.14600 50.20600 21.70400
H  37.96300 44.77100 23.25500
H  34.85300 47.46300 30.62800
H  34.76700 50.27900 30.05100
H  32.39500 49.07800 29.09700
H  32.59900 50.32500 30.30900
H  32.70800 48.71000 30.81900
H  36.95500 49.65800 30.38600
H  37.56400 47.99300 30.50800
H  37.13600 49.55600 32.65800
H  37.38400 47.91300 32.56400
H  32.29900 53.41200 25.33000
H  33.78200 54.00700 25.82400
H  32.92400 52.82400 26.84800
H  33.13900 54.42200 21.86100
H  33.89100 54.58400 23.47500
H  32.25200 53.84700 23.27000
H  37.35400 48.94300 20.85900
H  37.28900 45.99700 21.05000
H  34.70100 48.38500 20.34000
H  35.51500 46.80600 20.00500
H  35.91500 48.27300 19.08600
H  39.60900 47.01000 22.39400
H  39.36100 48.16700 21.17400
H  40.61300 45.66700 21.04200
H  40.53900 46.89600 19.83400
H  39.24900 45.59100 19.90400
H  37.26800 42.02600 25.26300
H  38.75200 42.50100 26.12100
H  38.53700 43.04200 24.42800
H  37.38700 45.34000 30.16800
H  34.93100 44.16100 33.41300
H  34.42000 42.89700 32.31400
H  33.70800 44.54900 32.28300
Mg 26.88300 49.71800 26.10200
C  24.68700 50.88900 28.83000
C  28.91800 48.61600 28.49900
C  28.84200 49.11400 23.63100
C  24.66700 51.52900 23.98600
N  26.84800 49.92500 28.33200
C  25.84500 50.28300 29.22500
C  26.14600 49.81700 30.65600
C  27.65300 49.47700 30.58100
C  27.85700 49.29100 29.04400
C  28.65700 50.53200 31.18800
C  25.15100 48.70600 31.11600
C  24.22200 49.17400 32.20300
H  24.16800 48.41300 33.54100
N  28.67100 48.91800 26.07600
C  29.29700 48.41700 27.16500
C  30.46700 47.77100 26.67200
C  30.50100 47.94000 25.29000
C  29.30800 48.68800 24.92200
C  31.40200 47.05900 27.55800
C  31.47100 47.41300 24.23600
O  31.34200 47.61400 23.01400
C  32.65300 46.53700 24.57900
N  26.84000 50.36300 24.19300
C  27.75800 49.91100 23.27800
C  27.40000 50.18900 21.81600
C  25.99400 50.69100 21.91500
C  25.77300 50.90900 23.46600
C  28.43700 51.15200 21.18600
C  24.92600 49.71300 21.36700
C  23.95400 50.36300 20.50200
N  25.17400 51.14900 26.29700
C  24.41200 51.72900 25.33400
C  23.30500 52.30100 25.92300
C  23.40500 52.09300 27.28000
C  24.55700 51.31300 27.45900
C  22.20800 53.05800 25.30400
C  22.63100 52.29400 28.56000
O  21.63700 52.94200 28.76600
C  23.46700 51.49300 29.53800
C  23.86100 52.41100 30.67300
O  24.95000 52.94700 30.81300
O  22.80400 52.37300 31.56800
C  22.99000 53.01700 32.87000
H  29.46700 48.07500 29.27200
H  29.53500 48.86800 22.82300
H  23.96300 51.98100 23.28500
H  26.05600 50.69700 31.29300
H  27.85800 48.50000 31.02100
H  29.41200 50.00000 31.76800
H  28.08800 51.25500 31.77200
H  29.12000 51.11400 30.39200
H  25.70000 47.81800 31.42800
H  24.60900 48.39300 30.22300
H  23.23700 49.02400 31.76200
H  24.28200 50.22200 32.49700
H  32.37400 47.51500 27.36600
H  31.40200 46.01000 27.26400
H  31.21000 47.17100 28.62500
H  33.13000 46.11800 23.69300
H  32.26800 45.72500 25.19600
H  33.38900 47.09300 25.16000
H  27.51700 49.27700 21.23000
H  25.86600 51.71400 21.56100
H  29.31400 51.16500 21.83300
H  27.98500 52.11700 20.95800
H  28.85600 50.68600 20.29400
H  24.37600 49.17800 22.14000
H  25.24900 48.81900 20.83300
H  24.07400 50.02500 19.47300
H  23.95600 51.43400 20.30100
H  22.94500 50.12200 20.83500
H  22.67500 53.95500 24.89800
H  21.48700 53.37800 26.05600
H  21.67300 52.43400 24.58900
H  22.89800 50.63100 29.88600
H  22.04600 52.82600 33.37900
H  23.03000 54.10600 32.90300
H  23.78200 52.53200 33.44100

