158

Mg 54.07000 24.68600 44.80800
C  51.02300 26.30700 44.02300
C  52.47300 21.66300 44.08000
C  57.03100 23.28600 44.86800
C  55.48400 27.66100 45.74800
N  52.05000 24.10400 43.88600
C  50.94700 24.89300 43.75800
C  49.74900 24.00600 43.33100
C  50.13100 22.61700 43.92700
C  51.68100 22.79800 43.97600
C  49.43200 22.38300 45.33700
C  49.46800 23.99800 41.75800
C  48.00300 23.75500 41.20100
H  47.87200 23.65500 39.69100
N  54.67200 22.79600 44.33300
C  53.92200 21.67700 44.06100
C  54.73600 20.55900 43.85700
C  56.03100 21.00300 44.04700
C  56.00300 22.40500 44.46000
C  54.34300 19.15100 43.40800
C  57.33700 20.14200 43.69300
O  57.31600 18.97400 43.34500
C  58.64200 20.73900 43.99900
N  56.01600 25.40800 45.06500
C  57.10300 24.65000 45.09300
C  58.47000 25.33200 45.47600
C  57.84200 26.73400 45.94800
C  56.34600 26.61200 45.58900
C  59.41900 24.59800 46.42600
C  58.43700 27.97600 45.14500
C  58.99100 29.21400 45.93300
N  53.42100 26.57900 44.90000
C  54.11200 27.70400 45.37500
C  53.18600 28.81600 45.45400
C  51.98800 28.34000 44.88300
C  52.18000 27.00300 44.49700
C  53.46400 30.22300 45.98600
C  50.60900 28.69900 44.52900
O  49.98600 29.72100 44.74300
C  49.98500 27.41600 43.84500
C  49.84200 27.69400 42.41100
O  50.72400 28.17400 41.69500
O  48.52900 27.48400 41.96000
C  48.17100 27.95400 40.67200
H  51.94200 20.73400 43.86000
H  58.08000 22.98200 44.83300
H  55.82100 28.66900 46.00200
H  48.82900 24.34700 43.80400
H  49.93600 21.82400 43.20400
H  50.19300 22.14200 46.07900
H  48.65500 21.62200 45.26400
H  49.11000 23.35300 45.71400
H  49.96600 23.12700 41.33300
H  49.81600 24.91100 41.27600
H  47.33500 24.55900 41.51100
H  47.67300 22.86000 41.72900
H  53.27100 18.98500 43.31100
H  54.66200 18.38000 44.11000
H  54.75000 18.97600 42.41200
H  58.57600 21.59400 43.32600
H  59.40300 20.08700 43.57100
H  58.91900 20.96400 45.02900
H  58.94700 25.51600 44.51300
H  57.95500 26.83900 47.02700
H  60.37900 24.33700 45.98000
H  58.98000 23.65700 46.75700
H  59.56900 25.16100 47.34800
H  57.71000 28.30500 44.40200
H  59.41900 27.76200 44.72500
H  59.14200 28.96200 46.98300
H  58.36400 30.09600 45.80200
H  59.99900 29.48400 45.61900
H  52.54000 30.77200 45.80100
H  54.39200 30.54200 45.51200
H  53.51000 30.13300 47.07200
H  49.03800 27.08000 44.26800
H  48.92800 28.16900 39.91700
H  47.71000 28.93100 40.81800
H  47.43200 27.23900 40.31100
Mg 47.97400 16.64400 28.80300
C  45.90500 16.17600 31.65100
C  50.02600 18.63600 30.83800
C  49.81300 17.32000 26.07400
C  45.66600 14.97900 26.86400
N  47.94400 17.34300 30.99000
C  47.09200 16.84900 31.97100
C  47.48300 17.39700 33.38900
C  48.74800 18.27600 32.99600
C  48.93700 18.14000 31.49600
C  48.71700 19.77800 33.34500
C  47.79400 16.28800 34.46400
C  47.24900 16.40900 35.86800
H  47.10400 17.86500 36.41100
N  49.63800 17.90800 28.45500
C  50.38800 18.57900 29.45300
C  51.59700 19.08500 28.87000
C  51.61400 18.69400 27.50200
C  50.33300 17.90400 27.30100
C  52.62100 19.88200 29.64000
C  52.65300 18.97400 26.48600
O  52.50200 18.65700 25.31100
C  53.94300 19.69100 26.81400
N  47.72500 16.24400 26.67800
C  48.64800 16.62600 25.78300
C  48.28700 16.10600 24.39700
C  47.13600 15.00500 24.68400
C  46.76500 15.44500 26.15000
C  47.99600 17.15600 23.23200
C  47.56400 13.54800 24.63800
C  46.47700 12.65800 24.04000
N  46.18700 15.71300 29.15500
C  45.37000 15.03600 28.23300
C  44.17900 14.56900 28.91700
C  44.33500 14.98000 30.22800
C  45.60700 15.61200 30.32800
C  43.10700 13.82000 28.32000
C  43.71500 14.95300 31.56700
O  42.69800 14.44700 31.97800
C  44.79800 15.65700 32.54700
C  44.05200 16.62300 33.36000
O  43.74300 17.75700 33.02800
O  43.94300 16.11500 34.57800
C  43.01300 16.96300 35.44700
H  50.74300 19.19800 31.44000
H  50.47200 17.50700 25.22300
H  44.95100 14.37700 26.29800
H  46.54000 17.89400 33.61400
H  49.62900 17.85300 33.47800
H  47.88600 19.90100 34.04000
H  48.46500 20.39000 32.47900
H  49.65400 20.08000 33.81400
H  48.86900 16.26700 34.64700
H  47.37200 15.40800 33.98000
H  47.91200 15.84500 36.52500
H  46.25100 15.97200 35.89600
H  52.92200 20.67500 28.95600
H  53.47600 19.23800 29.85000
H  52.13000 20.42200 30.45000
H  53.73900 20.76100 26.78900
H  54.60000 19.61500 25.94800
H  54.50100 19.39900 27.70400
H  49.13300 15.44500 24.20700
H  46.19000 15.26900 24.21300
H  46.98100 17.02500 22.85700
H  48.72000 17.07500 22.42000
H  48.09100 18.14300 23.68600
H  47.75600 13.19500 25.65100
H  48.44600 13.38800 24.01800
H  46.91900 11.69300 23.79200
H  46.04400 13.05600 23.12200
H  45.68800 12.51900 24.77900
H  42.31800 13.63700 29.04900
H  43.46000 12.89700 27.85900
H  42.49900 14.31800 27.56600
H  45.06500 14.75700 33.10100
H  42.04200 17.14900 34.98800
H  43.41200 17.96200 35.62600
H  42.89900 16.48500 36.42000

