158

Mg 29.82100 57.70200 39.40500
C  27.06600 55.56000 38.79100
C  31.93300 55.19800 38.48400
C  32.17900 60.11800 38.92200
C  27.38100 60.41800 39.87600
N  29.47900 55.62500 38.68200
C  28.26300 54.93100 38.47800
C  28.54400 53.54600 37.83200
C  30.05800 53.40200 38.14400
C  30.57500 54.82100 38.57700
C  30.51500 52.38400 39.13500
C  28.18700 53.21600 36.40700
C  28.35200 54.24000 35.37300
H  27.40000 54.27400 34.13800
N  31.90300 57.65500 38.91700
C  32.55500 56.50500 38.61800
C  33.90600 56.90400 38.20300
C  33.95700 58.34300 38.27800
C  32.65100 58.81800 38.78400
C  35.00400 55.84400 37.88100
C  35.13700 59.11300 37.78400
O  36.02000 58.54900 37.15000
C  35.24000 60.58400 38.03800
N  29.78000 59.94400 39.60700
C  30.91500 60.61200 39.22100
C  30.68100 62.15900 39.33700
C  29.13400 62.27400 39.68600
C  28.74300 60.81300 39.79300
C  31.59700 62.82600 40.37100
C  28.29400 63.05900 38.69800
C  27.85100 64.37000 39.19000
N  27.68500 57.98300 39.40000
C  26.87900 59.09200 39.58900
C  25.49900 58.68700 39.52100
C  25.52700 57.32100 39.20500
C  26.86600 56.97900 39.10800
C  24.29900 59.62400 39.89700
C  24.77200 56.16000 38.96200
O  23.57100 55.89300 38.93600
C  25.67100 55.03200 38.51900
C  25.28900 53.84000 39.37300
O  25.10900 53.82800 40.59200
O  25.06300 52.78200 38.51400
C  24.53600 51.49700 39.02200
H  32.52500 54.37400 38.08100
H  32.86000 60.93300 38.66500
H  26.60800 61.18900 39.91700
H  28.04900 52.84700 38.50600
H  30.56500 53.12400 37.22000
H  31.09100 52.73900 39.99000
H  31.00900 51.55600 38.62700
H  29.58300 52.01300 39.56000
H  27.20000 52.76600 36.30200
H  28.72700 52.34700 36.03200
H  29.33500 54.24500 34.90100
H  28.37000 55.22300 35.84500
H  35.43900 55.87300 36.88300
H  34.60600 54.84800 38.07400
H  35.72500 56.09800 38.65800
H  36.17500 61.07700 37.76800
H  34.94900 60.80700 39.06400
H  34.53500 60.96100 37.29700
H  30.89400 62.48400 38.31800
H  29.03800 62.68300 40.69100
H  32.63000 62.94900 40.04400
H  31.58700 62.28000 41.31400
H  31.20900 63.84200 40.44300
H  27.49500 62.49100 38.22100
H  28.83700 63.23500 37.77000
H  28.37900 64.96800 38.44700
H  28.21800 64.66100 40.17400
H  26.78400 64.57400 39.09600
H  24.14200 60.16700 38.96500
H  24.70900 60.32600 40.62300
H  23.43900 59.07200 40.27600
H  25.44900 54.81400 37.47500
H  23.57300 51.39700 38.52200
H  24.47300 51.49000 40.11000
H  25.05600 50.62000 38.63600
Mg -5.85800 25.41700 25.77600
C  -4.37700 26.38500 28.84600
C  -7.88300 23.15800 27.60400
C  -6.68400 23.84100 22.74100
C  -3.22400 27.02300 24.06300
N  -6.06600 24.89100 27.98800
C  -5.47600 25.52100 29.05800
C  -6.04600 25.11700 30.35700
C  -6.90800 23.83500 29.87300
C  -6.98300 23.94200 28.36500
C  -6.30200 22.38900 30.27100
C  -6.90000 26.15200 31.08700
C  -6.69800 26.27200 32.62200
H  -6.07500 25.09300 33.43000
N  -7.25200 23.88300 25.24200
C  -7.95900 23.11400 26.16300
C  -8.78700 22.21500 25.33900
C  -8.44700 22.40300 23.91500
C  -7.44400 23.43200 23.89700
C  -9.81700 21.25500 25.99800
C  -8.89700 21.54300 22.71300
O  -8.47400 21.67500 21.62900
C  -9.79200 20.44700 22.94400
N  -5.12900 25.48300 23.68800
C  -5.55500 24.73600 22.56200
C  -4.84600 25.20900 21.21800
C  -3.84400 26.27300 21.77800
C  -4.11100 26.34900 23.30200
C  -4.31000 24.04300 20.34600
C  -3.81200 27.65900 21.01200
C  -2.63000 27.94900 20.17700
N  -4.17300 26.56700 26.28600
C  -3.19700 27.21200 25.53000
C  -2.22200 27.89100 26.37000
C  -2.62500 27.46500 27.64500
C  -3.81900 26.73500 27.59100
C  -0.95000 28.54500 25.91900
C  -2.21900 27.66600 29.04000
O  -1.35600 28.39400 29.48100
C  -3.33100 27.03800 29.83900
C  -2.74100 26.04700 30.78100
O  -2.42800 24.88800 30.52100
O  -2.42800 26.72400 31.89900
C  -1.72200 25.95000 32.91900
H  -8.36800 22.41800 28.24300
H  -6.80100 23.36900 21.76400
H  -2.52800 27.55000 23.40700
H  -5.26800 24.72000 31.00900
H  -7.92900 23.74200 30.24000
H  -5.44600 22.44900 30.94200
H  -6.01000 21.84300 29.37500
H  -7.08800 21.83000 30.77900
H  -7.96300 25.94400 30.96100
H  -6.66500 27.12300 30.65100
H  -7.71500 26.33100 33.01000
H  -6.06500 27.14400 32.78300
H  -10.30800 21.78900 26.81200
H  -9.39500 20.28500 26.26100
H  -10.56200 21.02400 25.23600
H  -9.89500 19.86200 22.03000
H  -10.80400 20.78300 23.17000
H  -9.39300 19.84200 23.75800
H  -5.51500 25.80300 20.59500
H  -2.84600 25.83600 21.74200
H  -3.25700 23.91700 20.59800
H  -4.47600 24.28900 19.29700
H  -4.88800 23.15900 20.61600
H  -3.82000 28.37900 21.83000
H  -4.79900 27.88200 20.60700
H  -2.90400 28.56900 19.32300
H  -2.29700 27.02500 19.70500
H  -1.84900 28.53300 20.66200
H  -1.20800 29.21200 25.09600
H  -0.31700 27.77200 25.48500
H  -0.39700 29.03300 26.72100
H  -3.85900 27.81300 30.39400
H  -1.83200 24.86800 32.84000
H  -1.71400 26.34600 33.93400
H  -0.75200 26.06200 32.43400

