158

Mg 40.79500 40.98900 26.69900
C  40.38500 43.38000 29.18100
C  41.58000 38.71900 29.09400
C  41.58000 38.78200 24.32800
C  40.28600 43.43100 24.32900
N  41.09700 41.13400 28.90200
C  40.58300 42.09100 29.74800
C  40.57400 41.70000 31.27600
C  41.06800 40.23700 31.10300
C  41.25100 40.01300 29.56500
C  42.34500 39.96200 31.94100
C  39.11500 41.89600 31.93300
C  39.00000 41.26200 33.31300
H  39.19100 42.22600 34.48900
N  41.59700 39.02000 26.73200
C  41.83100 38.24700 27.80100
C  42.26700 36.95800 27.40200
C  42.35900 36.90700 26.01100
C  41.87100 38.30400 25.62700
C  42.58900 35.89900 28.48500
C  42.86200 35.87400 25.05500
O  42.75900 35.92600 23.77200
C  43.46500 34.66700 25.71200
N  40.85200 41.08500 24.64100
C  41.23200 40.00500 23.82600
C  41.07400 40.34700 22.30100
C  40.47100 41.85100 22.36000
C  40.49500 42.14700 23.83800
C  42.29500 40.17400 21.37400
C  39.12300 42.06100 21.58000
C  39.26400 42.15400 20.04700
N  40.37600 42.98900 26.67600
C  40.19600 43.86700 25.64000
C  40.00400 45.17800 26.12500
C  40.08000 45.03500 27.46400
C  40.28500 43.67800 27.79600
C  40.04300 46.38000 25.29700
C  39.92300 45.76100 28.70900
O  39.65900 46.91200 29.01400
C  40.06100 44.68100 29.87700
C  41.15900 45.19400 30.80800
O  42.32200 45.34400 30.47400
O  40.76600 45.45400 32.10400
C  41.76200 45.98300 33.06400
H  41.55200 38.00900 29.92400
H  41.63300 37.98600 23.58300
H  40.06000 44.15800 23.54600
H  41.26300 42.35900 31.80400
H  40.33100 39.51800 31.46100
H  42.45900 40.64300 32.78400
H  43.24300 40.11800 31.34300
H  42.24700 38.96700 32.37500
H  38.29500 41.54000 31.30900
H  38.99300 42.97200 32.06100
H  39.65100 40.41100 33.51500
H  38.02000 40.80600 33.17700
H  42.05000 35.05700 28.05200
H  42.10900 36.01700 29.45600
H  43.65700 35.68100 28.48600
H  42.69900 34.04400 26.17300
H  44.29900 35.02400 26.31700
H  43.92000 34.03400 24.95100
H  40.25900 39.74700 21.89800
H  41.16700 42.57500 21.93600
H  41.99600 39.48100 20.58800
H  43.02900 39.53800 21.86900
H  42.74400 40.99200 20.81100
H  38.58200 42.95100 21.90400
H  38.57400 41.14200 21.78700
H  38.63000 42.97300 19.70800
H  38.93300 41.23200 19.56900
H  40.25800 42.24900 19.60900
H  40.58000 47.08500 25.93300
H  39.10200 46.84100 24.99800
H  40.68400 46.28900 24.42000
H  39.15600 44.40900 30.42000
H  41.46100 45.44900 33.96500
H  41.71000 47.03800 33.33500
H  42.79600 45.75900 32.80500
Mg 25.24100 52.47300 26.00300
C  23.35800 53.40800 28.84100
C  27.92000 52.08600 28.11300
C  26.99700 52.42600 23.23000
C  22.35700 53.39100 23.96100
N  25.55800 52.92400 28.29100
C  24.63700 53.07800 29.22100
C  25.23400 52.80800 30.65200
C  26.74300 52.56100 30.38400
C  26.75800 52.60300 28.79300
C  27.61700 53.61600 31.13400
C  24.51300 51.57000 31.36900
C  23.81500 51.82900 32.73200
H  24.71400 52.11600 33.83600
N  27.14800 52.11000 25.70200
C  28.11400 51.95000 26.67600
C  29.36500 51.58100 26.06400
C  29.18600 51.77200 24.64800
C  27.71700 52.10300 24.44200
C  30.67900 51.31900 26.81300
C  30.17900 51.70800 23.54500
O  29.91200 51.87400 22.38100
C  31.56600 51.15000 23.86900
N  24.75800 52.99700 23.91400
C  25.73900 52.74900 22.92700
C  25.20500 52.97100 21.51800
C  23.71000 53.21900 21.77400
C  23.59500 53.25700 23.28700
C  25.99900 54.06400 20.72000
C  22.74400 52.19800 21.11000
C  22.43100 52.65500 19.63300
N  23.28500 53.25900 26.31600
C  22.25000 53.48200 25.41700
C  21.11800 53.85500 26.08800
C  21.39400 53.73600 27.45400
C  22.80200 53.42200 27.51600
C  19.90000 54.35300 25.32000
C  20.84000 53.84400 28.75300
O  19.69400 54.03000 29.16400
C  22.13900 53.61200 29.77800
C  22.32600 54.82600 30.61700
O  22.82400 55.91200 30.28500
O  21.78000 54.64900 31.83800
C  21.97200 55.63800 32.90600
H  28.84600 52.04800 28.69000
H  27.67200 52.32300 22.37800
H  21.47300 53.64200 23.37100
H  25.06700 53.73700 31.19600
H  27.20600 51.60800 30.64100
H  28.33800 53.11300 31.77900
H  26.98600 54.11800 31.86800
H  28.09600 54.29900 30.43200
H  25.20600 50.74700 31.54400
H  23.77600 51.20700 30.65300
H  23.20700 50.94300 32.91700
H  23.19100 52.71500 32.62200
H  31.41600 52.02000 26.42100
H  31.07400 50.30300 26.80700
H  30.56900 51.73900 27.81300
H  32.16500 50.86400 23.00400
H  31.53100 50.24600 24.47700
H  32.08400 51.96600 24.37400
H  25.43200 52.07800 20.93500
H  23.54200 54.26500 21.52000
H  26.95800 54.35100 21.15100
H  25.38700 54.94900 20.54800
H  26.25300 53.64200 19.74800
H  21.77400 51.91200 21.51600
H  23.27300 51.25200 20.99300
H  22.35600 51.74800 19.03400
H  23.14800 53.41100 19.31300
H  21.50400 53.22700 19.60600
H  20.18200 55.23300 24.74300
H  19.10300 54.75400 25.94700
H  19.61900 53.65500 24.53200
H  21.88500 52.74800 30.39100
H  22.24300 56.62200 32.52200
H  22.77600 55.31700 33.56900
H  21.08400 55.85900 33.49800

