158

Mg 24.88400 -6.75500 47.75500
C  27.66500 -4.73800 46.90100
C  22.94400 -4.81500 45.87900
C  22.73800 -9.34600 47.83200
C  27.24400 -8.77800 49.63500
N  25.35200 -5.13800 46.21400
C  26.47100 -4.36800 46.17200
C  26.21800 -3.09600 45.39400
C  24.66700 -3.04500 45.29300
C  24.28900 -4.43100 45.85900
C  23.94300 -1.89800 46.03200
C  26.92200 -3.01200 43.99600
C  26.89600 -1.63500 43.22500
H  25.99000 -1.57100 42.02000
N  23.03900 -6.98100 46.99500
C  22.33000 -6.10100 46.21400
C  21.02400 -6.65200 45.86200
C  20.85900 -7.88600 46.58100
C  22.26500 -8.15900 47.16000
C  20.09600 -5.89600 44.98400
C  19.62900 -8.76500 46.59000
O  18.59300 -8.43800 46.03200
C  19.55600 -10.09200 47.25600
N  25.10100 -8.79900 48.44900
C  24.01800 -9.62200 48.50400
C  24.10800 -10.89000 49.33100
C  25.56100 -10.64900 49.95300
C  26.04700 -9.37300 49.32700
C  23.01400 -10.90500 50.43300
C  26.53100 -11.85200 49.80200
C  27.72400 -12.07900 50.76900
N  26.90900 -6.71800 48.33000
C  27.73500 -7.62000 49.13700
C  29.04500 -7.08200 49.23900
C  29.09000 -5.94000 48.40400
C  27.81100 -5.78800 47.86500
C  30.23800 -7.76500 49.78600
C  29.94000 -4.94700 47.86400
O  31.15200 -4.75100 47.94700
C  29.07600 -4.15100 46.87400
C  29.15200 -2.70400 47.24500
O  29.35100 -2.22900 48.29900
O  29.02800 -1.98700 46.09800
C  28.76500 -0.58400 46.26800
H  22.25400 -4.16300 45.33900
H  22.02600 -10.12700 48.10400
H  27.87800 -9.26400 50.37900
H  26.68400 -2.36200 46.05200
H  24.31300 -3.02800 44.26200
H  24.56600 -1.00500 46.01900
H  23.73300 -2.24800 47.04200
H  22.97300 -1.80800 45.54100
H  26.40400 -3.71600 43.34400
H  27.95900 -3.32500 44.11000
H  27.92000 -1.42700 42.91700
H  26.48200 -0.84000 43.84500
H  20.50200 -5.70200 43.99200
H  19.91500 -4.99200 45.56500
H  19.14600 -6.40400 44.81700
H  18.68400 -10.73400 47.13400
H  19.78500 -9.95000 48.31300
H  20.32300 -10.64100 46.71000
H  24.10300 -11.76800 48.68500
H  25.52800 -10.35000 51.00100
H  22.27100 -10.12200 50.28300
H  23.45600 -10.76300 51.41900
H  22.56100 -11.89000 50.55200
H  26.93300 -11.83200 48.78900
H  25.92800 -12.75900 49.85900
H  27.53900 -13.05900 51.20900
H  27.69100 -11.44500 51.65500
H  28.65500 -12.07100 50.20200
H  31.11100 -7.25700 49.37800
H  30.28400 -8.79500 49.43200
H  30.23000 -7.78800 50.87600
H  29.54900 -4.37800 45.91900
H  29.68000 -0.22600 46.74000
H  27.90600 -0.28300 46.86700
H  28.74000 -0.14600 45.27000
Mg 16.85500 52.04100 26.88900
C  18.93600 50.54600 29.43900
C  14.48900 52.48600 29.20600
C  14.87400 53.17100 24.32200
C  19.18900 51.11500 24.48700
N  16.69100 51.27900 29.05600
C  17.72500 51.02200 29.95500
C  17.31700 51.33100 31.41200
C  15.80900 51.69400 31.29500
C  15.61500 51.84700 29.73200
C  14.84500 50.70900 31.95600
C  18.23700 52.37000 32.00400
C  18.65000 52.30000 33.42500
H  17.80100 51.41900 34.31900
N  14.98300 52.73300 26.75400
C  14.14000 52.83300 27.86200
C  12.97900 53.55900 27.46500
C  13.09900 53.84200 26.05700
C  14.39100 53.24700 25.63300
C  11.86800 54.00100 28.42900
C  12.13300 54.58500 25.17200
O  12.32300 54.68900 23.96900
C  10.87800 55.24400 25.70400
N  17.03100 51.98400 24.63400
C  16.05600 52.50900 23.80900
C  16.58100 52.62100 22.34200
C  17.92100 51.93400 22.46600
C  18.12100 51.66600 23.93900
C  15.61600 52.11100 21.28900
C  19.12600 52.78400 21.80700
C  19.98100 53.82500 22.61700
N  18.64500 51.06900 26.89100
C  19.48600 50.81400 25.85900
C  20.69200 50.24300 26.37700
C  20.48300 50.00200 27.72500
C  19.28100 50.59400 28.06600
C  21.86400 49.79900 25.51100
C  21.12100 49.58800 29.00700
O  22.19700 49.03600 29.23900
C  20.14800 49.99700 30.15300
C  19.79300 48.88800 31.06000
O  19.09700 47.93300 30.74200
O  20.58800 48.97500 32.22200
C  20.13000 48.03000 33.22900
H  13.82300 52.75500 30.02900
H  14.34800 53.65500 23.49700
H  19.92700 50.88500 23.71600
H  17.43100 50.42100 32.00200
H  15.73000 52.69500 31.71700
H  14.42600 50.09000 31.16200
H  14.11700 51.30900 32.50300
H  15.33400 50.11300 32.72600
H  17.98400 53.37200 31.65800
H  19.20000 52.21700 31.51800
H  18.54500 53.31400 33.81200
H  19.71900 52.11200 33.52200
H  12.39900 54.02800 29.38100
H  11.17900 53.16400 28.31500
H  11.39000 54.97400 28.32200
H  10.35400 55.80100 24.92800
H  11.20400 55.91200 26.50100
H  10.29800 54.36400 25.98300
H  16.79300 53.68200 22.21100
H  17.94100 50.93100 22.03900
H  16.06400 51.25200 20.78900
H  15.44500 52.68200 20.37600
H  14.68000 51.73300 21.69800
H  18.77000 53.26200 20.89400
H  19.83400 52.01000 21.51200
H  19.67500 53.66400 23.65100
H  19.74600 54.83300 22.27600
H  21.04300 53.57900 22.59300
H  21.32200 48.97900 25.04000
H  22.70700 49.46000 26.11400
H  22.09200 50.54800 24.75300
H  20.54900 50.85900 30.68600
H  20.36800 47.01600 32.90700
H  19.07800 48.02500 33.51200
H  20.67600 48.35500 34.11400

