158

Mg 24.18700 -6.26700 45.15900
C  26.45300 -3.95300 43.80800
C  21.69500 -4.89700 43.23100
C  22.40000 -9.00000 45.87900
C  26.94100 -7.71700 46.98600
N  24.13500 -4.72900 43.63300
C  25.15100 -3.82100 43.28800
C  24.61400 -2.77800 42.29700
C  23.02600 -2.82900 42.49300
C  22.95600 -4.25200 43.08300
C  22.44900 -1.79500 43.52000
C  25.20300 -2.91600 40.84900
C  25.27300 -1.65200 39.93000
H  24.74400 -1.78900 38.49000
N  22.30700 -6.85500 44.63300
C  21.37600 -6.14200 43.91900
C  20.07700 -6.80700 44.01600
C  20.28100 -7.95400 44.73900
C  21.71900 -7.98100 45.10500
C  18.87100 -6.21000 43.34100
C  19.25900 -8.99800 44.97800
O  18.13200 -8.78000 44.55500
C  19.49100 -10.16800 45.80100
N  24.66800 -8.18700 46.13800
C  23.73500 -9.09500 46.37300
C  24.29800 -10.33100 47.30800
C  25.69100 -9.77500 47.69100
C  25.80300 -8.47400 46.89400
C  23.42100 -10.65800 48.45600
C  26.85700 -10.78300 47.26700
C  27.73500 -11.22200 48.46100
N  26.22100 -5.92000 45.42700
C  27.22400 -6.54900 46.23400
C  28.40900 -5.80000 46.11800
C  28.13500 -4.79500 45.18500
C  26.86100 -4.93100 44.77700
C  29.59600 -6.18900 46.96900
C  28.67100 -3.58500 44.58500
O  29.73000 -2.97100 44.83300
C  27.69200 -3.20800 43.45900
C  27.61000 -1.77000 43.41100
O  27.21700 -1.01500 44.28900
O  27.92400 -1.30400 42.09500
C  27.83600 0.11400 41.97100
H  20.81400 -4.39300 42.82900
H  21.85800 -9.81200 46.36700
H  27.75300 -8.05500 47.63300
H  24.87000 -1.78400 42.66300
H  22.36400 -2.76000 41.63000
H  21.77600 -1.10200 43.01500
H  23.24700 -1.17300 43.92400
H  22.02300 -2.17700 44.44800
H  24.48800 -3.55800 40.33400
H  26.16900 -3.40800 40.96800
H  26.30700 -1.31000 39.88400
H  24.71800 -0.85900 40.42900
H  19.24300 -5.87200 42.37400
H  18.57900 -5.32800 43.91100
H  18.00200 -6.84300 43.16100
H  18.54900 -10.57500 46.17000
H  19.91400 -9.87600 46.76200
H  20.13800 -10.89100 45.30400
H  24.43400 -11.10400 46.55200
H  25.67500 -9.48300 48.74100
H  22.64400 -9.89400 48.44200
H  23.90100 -10.85300 49.41500
H  22.97500 -11.59900 48.13400
H  27.55100 -10.35800 46.54200
H  26.52700 -11.75300 46.89400
H  28.21300 -12.18000 48.25400
H  27.21500 -11.20200 49.41900
H  28.60700 -10.57400 48.54400
H  29.34400 -6.79500 47.84000
H  30.14000 -5.28600 47.24800
H  30.31200 -6.74400 46.36400
H  28.21900 -3.50000 42.55000
H  26.76500 0.30600 42.03600
H  28.35900 0.46500 41.08100
H  28.15300 0.57700 42.90600
Mg -10.61300 16.71000 41.09500
C  -7.14900 16.33500 41.35700
C  -10.12300 20.04800 40.49600
C  -13.77500 16.93100 40.11900
C  -10.86400 13.15200 40.89900
N  -8.81800 18.04700 40.91000
C  -7.49700 17.64100 41.01100
C  -6.58200 18.87600 40.83000
C  -7.57800 20.07900 40.92500
C  -8.94400 19.36000 40.76100
C  -7.51200 20.94400 42.17600
C  -5.75700 18.79300 39.51700
C  -4.28600 18.34500 39.57700
H  -3.84100 17.01400 38.78800
N  -11.83800 18.36200 40.55400
C  -11.46200 19.63700 40.35700
C  -12.65000 20.40400 40.07300
C  -13.80400 19.57200 40.17400
C  -13.24400 18.21900 40.31100
C  -12.66100 21.80100 39.89300
C  -15.31900 20.00700 40.05900
O  -15.65900 21.18100 39.85400
C  -16.38100 18.93800 40.34300
N  -12.05800 15.18800 40.39200
C  -13.31100 15.57200 40.13200
C  -14.26300 14.38600 39.92500
C  -13.40100 13.21400 40.35500
C  -11.99600 13.86400 40.52100
C  -15.65800 14.42800 40.69600
C  -13.47900 11.94600 39.44700
C  -13.56100 10.48100 40.07000
N  -9.33500 14.99700 41.29400
C  -9.55400 13.67000 41.17100
C  -8.29800 12.95000 41.46400
C  -7.37800 14.03000 41.54400
C  -8.01700 15.22100 41.33000
C  -8.14100 11.44900 41.54900
C  -5.96800 14.22600 41.74600
O  -5.01400 13.41200 41.92600
C  -5.77600 15.70500 41.63000
C  -5.03600 16.11400 42.88100
O  -3.81900 16.12900 42.89500
O  -5.92200 16.55700 43.83100
C  -5.29200 17.24400 44.92800
H  -10.00600 21.13400 40.51800
H  -14.84000 17.01700 39.89500
H  -10.86600 12.06000 40.89000
H  -5.91300 19.02800 41.67600
H  -7.43000 20.68200 40.02900
H  -6.69200 21.66000 42.21000
H  -7.46000 20.40700 43.12400
H  -8.45800 21.48600 42.16200
H  -5.72600 19.77700 39.04900
H  -6.22000 18.09900 38.81600
H  -3.99700 18.22000 40.62100
H  -3.62000 19.08200 39.12900
H  -13.21600 21.99000 38.97400
H  -11.65200 22.21200 39.89100
H  -13.10600 22.36300 40.71400
H  -17.35800 19.34300 40.60500
H  -16.05800 18.24300 41.11800
H  -16.45800 18.38000 39.40900
H  -14.41100 14.44300 38.84700
H  -13.71200 12.87700 41.34400
H  -15.70400 13.65600 41.46400
H  -16.46800 14.25900 39.98600
H  -15.84000 15.43300 41.07600
H  -12.48400 11.86900 39.00900
H  -14.13000 12.05300 38.57800
H  -13.53700 10.62700 41.15000
H  -12.72500 9.89500 39.69000
H  -14.53600 10.03300 39.87600
H  -7.15200 11.27600 41.12500
H  -8.94000 11.08600 40.90200
H  -8.24700 11.18000 42.60000
H  -5.11300 15.97500 40.80800
H  -4.94100 16.44900 45.58600
H  -5.96700 17.95900 45.39900
H  -4.43500 17.82100 44.58200

