158

Mg 48.20300 35.29200 28.03700
C  46.47300 33.57700 30.47000
C  48.51300 37.89200 30.20700
C  49.47200 37.12800 25.52300
C  47.67900 32.66700 25.77700
N  47.83900 35.58600 30.16100
C  47.13100 34.70400 30.93900
C  46.90500 35.29400 32.30500
C  47.24200 36.82000 32.15700
C  47.98100 36.77700 30.77400
C  46.05400 37.80600 32.10200
C  47.72400 34.55200 33.47100
C  49.08600 34.97500 33.92700
H  49.30300 35.69200 35.26200
N  48.97700 37.22300 27.90200
C  49.02100 38.13200 28.96100
C  49.63600 39.31300 28.50900
C  50.05600 39.11200 27.16100
C  49.57300 37.76200 26.80800
C  49.89400 40.53000 29.37400
C  50.94800 39.92000 26.22200
O  51.31800 39.55100 25.06700
C  51.32900 41.31100 26.59900
N  48.29300 35.02200 25.92200
C  48.94600 35.85200 25.14200
C  48.83400 35.42000 23.64800
C  48.31000 33.99600 23.78000
C  48.15300 33.83600 25.29800
C  47.96800 36.29500 22.68700
C  49.30200 32.95900 23.17500
C  49.33600 32.81100 21.67700
N  47.24300 33.58200 28.04000
C  47.05300 32.58400 27.06700
C  46.32000 31.48000 27.64200
C  45.90700 31.92000 28.82900
C  46.55500 33.14100 29.11400
C  45.95100 30.22400 26.99600
C  45.05800 31.56700 29.92800
O  44.26200 30.59500 30.05500
C  45.25900 32.74300 31.01700
C  45.49400 32.20200 32.35700
O  46.39900 31.39700 32.68900
O  44.62000 32.76000 33.19500
C  44.59900 32.44500 34.62900
H  48.61000 38.70300 30.93200
H  50.01600 37.72700 24.79000
H  47.52100 31.71400 25.26800
H  45.93900 35.21100 32.80200
H  47.97300 37.20600 32.86900
H  45.39700 37.71600 31.23600
H  46.46100 38.81600 32.15700
H  45.47800 37.63800 33.01200
H  47.99800 33.56200 33.10600
H  47.15200 34.55200 34.39800
H  49.59200 35.53100 33.13800
H  49.66500 34.05100 33.94400
H  50.88200 40.56100 29.83400
H  49.16800 40.66300 30.17600
H  49.77100 41.42500 28.76600
H  50.39700 41.81000 26.86800
H  51.83800 41.72600 25.72900
H  51.93300 41.41800 27.50000
H  49.85500 35.44300 23.26800
H  47.34900 33.91700 23.27200
H  46.95600 36.41600 23.07400
H  47.88700 35.83300 21.70400
H  48.34100 37.32000 22.67700
H  48.96700 31.96500 23.47100
H  50.28400 33.15700 23.60500
H  50.33400 33.18500 21.44900
H  48.53400 33.33600 21.15800
H  49.25700 31.75200 21.43400
H  44.87300 30.14200 26.85700
H  46.44600 29.40400 27.51500
H  46.36900 30.27500 25.99100
H  44.37000 33.37300 31.02500
H  45.26400 31.61500 34.86800
H  43.55700 32.23800 34.87600
H  44.91900 33.32900 35.18000
Mg 17.56800 52.40700 26.02300
C  19.66800 51.10600 28.49800
C  15.36700 53.25000 28.38800
C  15.67900 53.28500 23.47500
C  19.90800 50.97300 23.60600
N  17.46000 51.93600 28.22100
C  18.48400 51.60900 28.99000
C  18.06100 51.71700 30.45600
C  16.55000 52.08200 30.39100
C  16.48000 52.55800 28.94600
C  15.55900 50.80600 30.60800
C  18.89600 52.79000 31.16400
C  19.21100 52.72000 32.62000
H  18.23300 52.00900 33.50600
N  15.66700 53.17100 25.90700
C  14.97300 53.49300 27.01900
C  13.88000 54.30400 26.56700
C  13.86400 54.26700 25.12300
C  15.05300 53.44900 24.75600
C  12.90000 55.03200 27.47400
C  12.97100 55.01600 24.14200
O  13.18400 54.95300 22.95500
C  11.81700 55.93700 24.64000
N  17.68100 52.04300 23.91300
C  16.80100 52.59600 23.09700
C  17.09300 52.50700 21.64200
C  18.45600 51.68600 21.61000
C  18.74100 51.51200 23.09000
C  16.00700 51.62800 20.93300
C  19.55500 52.58200 20.93400
C  20.46400 51.94300 19.83700
N  19.37300 51.26400 26.03500
C  20.22100 50.82900 24.96700
C  21.40900 50.24000 25.55000
C  21.24500 50.40400 26.90800
C  19.99900 50.97800 27.14800
C  22.60800 49.76700 24.82700
C  21.89700 50.31300 28.18500
O  22.99800 49.91400 28.55100
C  20.86100 50.65000 29.26000
C  20.54400 49.41700 30.16400
O  20.13500 48.31400 29.85100
O  20.95300 49.73500 31.44200
C  20.98200 48.62200 32.43000
H  14.68700 53.49100 29.20700
H  15.06500 53.75000 22.70100
H  20.67300 50.69300 22.87900
H  18.27500 50.74900 30.90800
H  16.30000 52.90400 31.06200
H  15.03400 50.55400 29.68600
H  14.71100 50.89300 31.28800
H  16.11000 49.91900 30.91700
H  18.58700 53.81000 30.93400
H  19.84600 52.78800 30.62900
H  19.16700 53.69800 33.09900
H  20.18000 52.25300 32.79800
H  13.02700 56.11300 27.41100
H  13.19200 54.93400 28.52000
H  11.87300 54.74300 27.25000
H  11.08500 55.46800 25.29700
H  11.38700 56.36700 23.73500
H  12.24600 56.71300 25.27500
H  17.07000 53.50800 21.21100
H  18.34800 50.65600 21.27000
H  15.57700 50.85100 21.56500
H  16.39900 51.08100 20.07500
H  15.16600 52.24500 20.61400
H  20.35600 52.91700 21.59200
H  19.07000 53.47500 20.54100
H  20.39200 52.56300 18.94400
H  20.19900 50.92800 19.54200
H  21.46500 51.92800 20.27000
H  23.04100 50.42900 24.07700
H  22.28700 48.87200 24.29400
H  23.45800 49.43200 25.42200
H  21.36100 51.41400 29.85600
H  21.13800 47.62300 32.02500
H  20.07900 48.58200 33.03900
H  21.88500 48.84500 32.99800

