158

Mg 44.57600 5.53200 48.44400
C  42.80100 8.51800 47.85900
C  41.69000 3.77000 47.45400
C  46.32900 2.62500 48.44600
C  47.43900 7.34600 48.46700
N  42.49500 6.10600 47.79800
C  42.00200 7.39500 47.55700
C  40.58800 7.38300 47.01100
C  40.17800 5.83400 47.14800
C  41.51200 5.17800 47.52200
C  39.06400 5.47100 48.17100
C  40.50800 8.07800 45.61500
C  39.03200 8.40200 45.21700
H  38.48400 7.86300 43.94900
N  44.04800 3.43500 48.09300
C  42.87700 2.94500 47.67000
C  42.96400 1.44500 47.71200
C  44.30900 1.15000 48.11700
C  44.98500 2.42600 48.34300
C  41.84600 0.53400 47.23600
C  44.80500 -0.24100 48.28900
O  44.17600 -1.25000 47.91100
C  46.19800 -0.51700 48.76800
N  46.53000 5.05300 48.69600
C  46.99500 3.79900 48.59500
C  48.54800 3.78900 48.39800
C  48.93000 5.30300 48.65000
C  47.57400 5.95200 48.58100
C  49.31900 2.76300 49.31600
C  49.88200 5.82300 47.50100
C  51.34300 6.07500 47.90400
N  45.09900 7.59700 48.43200
C  46.31400 8.19900 48.43000
C  46.16000 9.62800 48.34500
C  44.73700 9.83100 48.16100
C  44.19100 8.55300 48.12300
C  47.15800 10.66900 48.43400
C  43.64400 10.78100 48.03900
O  43.67300 12.01800 48.18000
C  42.38700 9.95100 47.91600
C  41.30400 10.24700 48.88500
O  41.17300 9.73400 50.02500
O  40.40000 11.11200 48.27900
C  39.20500 11.39300 48.97100
H  40.80700 3.15600 47.26900
H  46.93200 1.73000 48.28000
H  48.33000 7.97600 48.51500
H  39.94600 7.95100 47.68300
H  39.88100 5.35000 46.21800
H  38.25600 4.92000 47.69000
H  38.61400 6.40600 48.50800
H  39.30100 5.01300 49.13100
H  41.20100 7.58700 44.93100
H  40.95200 9.06900 45.52300
H  38.88100 9.48200 45.21600
H  38.42700 7.92900 45.99100
H  40.89800 1.07000 47.27300
H  41.69100 -0.35000 47.85500
H  42.07100 0.19200 46.22600
H  46.44700 -1.53500 49.06800
H  46.40000 0.10200 49.64200
H  46.81000 -0.35000 47.88200
H  48.56800 3.38300 47.38700
H  49.38200 5.45500 49.63100
H  48.66300 1.95600 49.64200
H  49.71400 3.26400 50.20000
H  50.15300 2.29300 48.79600
H  49.48700 6.68800 46.96700
H  49.86000 5.08800 46.69700
H  51.93100 5.18800 47.67000
H  51.54100 6.17000 48.97200
H  51.72300 6.95000 47.37700
H  47.86500 10.61700 47.60700
H  47.60000 10.72800 49.42900
H  46.69700 11.64200 48.26700
H  42.10800 10.29300 46.91900
H  38.48700 11.91900 48.34100
H  39.47300 12.12900 49.73000
H  38.79300 10.49200 49.42700
Mg -11.70100 37.53900 42.44300
C  -9.33500 34.99000 41.66300
C  -9.56400 39.77100 40.85500
C  -14.05800 39.89700 42.43900
C  -13.74500 35.08300 43.66000
N  -9.69300 37.37700 41.35200
C  -8.97700 36.20600 41.06300
C  -7.73900 36.57200 40.24800
C  -7.71800 38.13100 40.18500
C  -9.14100 38.43400 40.81000
C  -6.39800 38.76000 40.85600
C  -7.86300 35.84600 38.89000
C  -6.67100 34.95600 38.39100
H  -5.66700 35.38700 37.26400
N  -11.71100 39.60900 41.92800
C  -10.72700 40.34200 41.36400
C  -11.12600 41.73000 41.32900
C  -12.49200 41.83600 41.70300
C  -12.79900 40.45500 42.03500
C  -10.29500 42.86000 40.84500
C  -13.35500 43.04400 41.87300
O  -12.79300 44.12300 41.67000
C  -14.78200 43.04200 42.34300
N  -13.67800 37.42800 42.83200
C  -14.47900 38.60500 42.78700
C  -15.88900 38.21200 43.25900
C  -15.79700 36.67700 43.67900
C  -14.35200 36.36700 43.36500
C  -16.44000 39.22600 44.28600
C  -16.89700 35.78700 42.94000
C  -18.04300 35.41800 43.82800
N  -11.62900 35.49900 42.65700
C  -12.49500 34.64200 43.27200
C  -11.91100 33.34200 43.46000
C  -10.70600 33.40300 42.80900
C  -10.56300 34.76600 42.33000
C  -12.53800 32.19500 44.15000
C  -9.50300 32.70700 42.46600
O  -9.06700 31.60400 42.72000
C  -8.55500 33.66700 41.65100
C  -7.24600 33.76900 42.26600
O  -6.23400 33.15600 41.96300
O  -7.11500 34.84700 43.14800
C  -5.77700 35.03100 43.75900
H  -8.89300 40.40400 40.27000
H  -14.84200 40.64500 42.57500
H  -14.37100 34.40000 44.23700
H  -6.84300 36.15300 40.70700
H  -7.68400 38.51800 39.16700
H  -5.84500 39.40000 40.16900
H  -5.72500 37.98400 41.21900
H  -6.79500 39.41600 41.63100
H  -7.95600 36.58700 38.09600
H  -8.81400 35.31600 38.96000
H  -7.18200 34.06500 38.02800
H  -6.16400 34.46500 39.22200
H  -9.52100 42.41000 40.22400
H  -9.83600 43.38200 41.68400
H  -10.84600 43.52900 40.18400
H  -15.34700 42.30100 41.77600
H  -14.97900 44.10600 42.21300
H  -14.67700 42.91300 43.42100
H  -16.50600 38.36900 42.37500
H  -15.88400 36.68000 44.76500
H  -16.51800 38.72600 45.25200
H  -17.41400 39.58600 43.95500
H  -15.89800 40.16600 44.38500
H  -16.32100 34.96500 42.51500
H  -17.36100 36.40400 42.17100
H  -19.01600 35.70400 43.42900
H  -18.09200 35.80500 44.84600
H  -18.02500 34.34600 44.02900
H  -13.44000 32.45700 44.70300
H  -11.76900 31.89300 44.86200
H  -12.71300 31.52100 43.31100
H  -8.42400 33.25200 40.65200
H  -5.04200 35.05500 42.95400
H  -5.45800 34.30500 44.50700
H  -5.84100 36.01600 44.22200

