158

Mg 2.35900 -2.08600 44.84700
C  5.68100 -1.33300 44.06200
C  1.59000 0.69600 42.57000
C  -0.81600 -3.00100 44.72200
C  3.38700 -5.12800 46.17200
N  3.58700 -0.52500 43.36100
C  4.88300 -0.48600 43.28300
C  5.33500 0.64700 42.34100
C  4.00900 1.36600 41.90300
C  2.96300 0.48400 42.67900
C  3.89500 2.87000 42.30300
C  6.36700 0.07600 41.24800
C  7.66000 0.86400 41.05000
H  8.03600 1.23700 39.68000
N  0.65100 -1.19200 44.00000
C  0.55000 -0.05600 43.14800
C  -0.77500 0.20100 42.90800
C  -1.57300 -0.81300 43.48200
C  -0.61700 -1.75300 44.09700
C  -1.21000 1.42300 42.21900
C  -3.12600 -0.93600 43.49500
O  -3.88600 -0.14900 42.89700
C  -3.78600 -2.01200 44.19100
N  1.38400 -3.80800 45.42000
C  0.04100 -3.91800 45.40400
C  -0.39800 -5.35500 45.96900
C  0.97300 -5.93600 46.31000
C  2.01200 -4.93400 45.95700
C  -1.30300 -5.19400 47.21700
C  1.19700 -7.42800 45.83900
C  1.57000 -8.53500 46.84900
N  4.13500 -3.00500 45.18500
C  4.45300 -4.25200 45.91900
C  5.86900 -4.27500 46.15300
C  6.36500 -3.15500 45.48600
C  5.32200 -2.44000 44.90800
C  6.68500 -5.30500 46.94000
C  7.58600 -2.46400 45.25500
O  8.69900 -2.75900 45.58100
C  7.20600 -1.16500 44.33000
C  7.62200 0.00200 44.97300
O  7.45100 0.27100 46.14600
O  8.08600 0.86400 43.99500
C  8.15700 2.34100 44.35400
H  1.39600 1.53200 41.89400
H  -1.79300 -3.48100 44.64000
H  3.69200 -6.08600 46.59800
H  5.77800 1.31500 43.08000
H  3.88300 1.37700 40.82100
H  3.37500 3.42100 41.52000
H  4.92900 3.21500 42.30700
H  3.43400 2.91600 43.28900
H  5.80200 0.03600 40.31700
H  6.60200 -0.95700 41.50400
H  8.38200 0.10800 41.36000
H  7.72500 1.74200 41.69300
H  -0.57300 1.65600 41.36600
H  -1.36800 2.24000 42.92200
H  -2.17500 1.09600 41.83300
H  -3.71700 -2.91000 43.57600
H  -4.82000 -1.67100 44.22600
H  -3.40100 -2.08400 45.20800
H  -0.88500 -5.83400 45.12000
H  1.01600 -5.90800 47.39900
H  -1.26800 -4.18500 47.62600
H  -1.07200 -5.89100 48.02200
H  -2.30100 -5.32700 46.80100
H  1.90300 -7.33200 45.01400
H  0.25200 -7.73300 45.39000
H  0.82000 -9.32600 46.86000
H  1.82800 -8.03300 47.78200
H  2.51200 -8.97500 46.52200
H  7.44700 -4.80400 47.53700
H  7.15900 -6.00800 46.25400
H  6.00200 -5.81300 47.62000
H  7.71900 -1.31600 43.38000
H  7.19100 2.81500 44.17800
H  8.84000 2.81800 43.65100
H  8.62600 2.60200 45.30300
Mg 46.85900 17.29000 28.51300
C  45.09500 16.74100 31.55800
C  49.08200 19.20000 30.46900
C  48.34400 18.07500 25.66800
C  44.04500 16.00300 26.78300
N  47.08500 17.93600 30.68800
C  46.30900 17.45100 31.77500
C  47.00800 17.82200 33.15500
C  48.09300 18.83300 32.73800
C  48.17500 18.58100 31.26000
C  47.87200 20.31700 33.07200
C  47.61700 16.57900 33.86700
C  47.62300 16.53200 35.44400
H  47.40200 17.91100 36.08600
N  48.51200 18.32900 28.12900
C  49.24700 19.11400 29.03400
C  50.36600 19.65900 28.36200
C  50.26000 19.26100 26.94500
C  49.00700 18.49100 26.83700
C  51.30900 20.57000 29.18100
C  51.19400 19.61500 25.78200
O  51.04000 19.34300 24.57400
C  52.45500 20.34800 26.07500
N  46.24000 17.09400 26.49000
C  47.16300 17.40800 25.48600
C  46.53100 17.17100 24.12400
C  45.14100 16.54100 24.46600
C  45.15900 16.53200 26.01100
C  46.61100 18.29300 23.03200
C  44.92800 15.15700 23.81100
C  45.72700 13.93300 24.43400
N  45.07500 16.35000 29.03700
C  44.03300 15.86200 28.22400
C  42.92700 15.39900 29.05500
C  43.36500 15.62900 30.37500
C  44.67900 16.21000 30.31300
C  41.63700 14.75100 28.67200
C  42.99900 15.49200 31.74300
O  41.93800 15.11000 32.28900
C  44.18500 16.08500 32.51500
C  43.69700 17.06200 33.52500
O  43.82700 18.27000 33.43200
O  43.31300 16.41700 34.71100
C  43.29800 17.14900 35.96600
H  49.77200 19.74100 31.12000
H  48.86900 18.31700 24.74100
H  43.21800 15.60800 26.19100
H  46.29800 18.22400 33.87800
H  49.06600 18.53200 33.12500
H  48.80000 20.87900 33.17600
H  47.27800 20.38800 33.98300
H  47.28800 20.81800 32.30100
H  48.58600 16.37500 33.41100
H  46.88000 15.82600 33.58700
H  48.67800 16.38700 35.67600
H  47.09400 15.68700 35.88400
H  52.03800 19.98800 29.74500
H  50.68900 21.10900 29.89800
H  51.83000 21.33700 28.60800
H  52.14600 21.38300 26.22300
H  53.22400 20.14900 25.32900
H  52.82500 20.05300 27.05700
H  47.05000 16.34000 23.64700
H  44.42300 17.31000 24.18000
H  47.01500 19.25300 23.35300
H  45.57600 18.44900 22.72800
H  47.13000 17.98600 22.12400
H  45.11000 15.16400 22.73700
H  43.91200 14.92000 24.12800
H  45.99300 13.28000 23.60300
H  45.12000 13.37800 25.15000
H  46.58500 14.31400 24.98800
H  41.25600 15.07500 27.70300
H  40.84400 15.07700 29.34400
H  41.67300 13.66300 28.62000
H  44.80600 15.34700 33.02200
H  44.08600 17.90100 35.92000
H  43.38600 16.48100 36.82200
H  42.34100 17.66900 35.97700

