158

Mg -0.27600 7.53100 25.48500
C  0.60900 9.57500 28.07900
C  -0.38700 4.83200 27.69200
C  -0.40400 5.31500 22.85700
C  0.13800 10.13600 23.21500
N  0.14200 7.24400 27.60800
C  0.43100 8.24200 28.53200
C  0.63000 7.68100 29.96400
C  0.45300 6.15100 29.69400
C  0.09000 6.01700 28.22100
C  1.75300 5.23700 29.91100
C  -0.48600 8.22600 30.86100
C  -0.17700 8.14000 32.35800
H  1.04000 7.40700 32.92700
N  -0.35800 5.31800 25.28700
C  -0.45900 4.43500 26.31900
C  -0.73200 3.17400 25.79900
C  -0.60900 3.24400 24.35300
C  -0.45600 4.64700 24.05500
C  -0.96700 2.02600 26.69300
C  -0.63100 2.18000 23.35700
O  -0.29900 2.43000 22.20000
C  -1.07900 0.78000 23.73600
N  0.08700 7.66300 23.30700
C  -0.20000 6.67300 22.49200
C  -0.50300 7.13800 21.06800
C  -0.53800 8.67300 21.22800
C  -0.11500 8.88800 22.65600
C  0.53600 6.65400 20.04600
C  -1.92300 9.22900 20.90800
C  -1.88300 10.61700 20.22300
N  0.28400 9.51800 25.58000
C  0.32800 10.46000 24.62300
C  0.62300 11.73700 25.17400
C  0.76900 11.48900 26.59900
C  0.48300 10.08100 26.77900
C  0.81600 12.98500 24.40500
C  1.14300 12.03900 27.95600
O  1.66200 13.07500 28.23900
C  0.85400 10.88900 28.96400
C  2.07200 10.81800 29.84000
O  3.18600 10.39000 29.49700
O  1.68100 11.12000 31.14900
C  2.75700 11.24800 32.16200
H  -0.68700 3.99200 28.32300
H  -0.46500 4.65000 21.99300
H  0.10300 11.01400 22.56700
H  1.59600 8.05400 30.30400
H  -0.34500 5.75400 30.32100
H  1.58800 4.19800 30.19600
H  2.41300 5.79700 30.57300
H  2.14600 5.07800 28.90700
H  -1.43600 7.72200 30.68700
H  -0.75900 9.22600 30.52400
H  -0.98000 7.64200 32.90100
H  -0.16500 9.19600 32.62400
H  -0.45800 2.02900 27.65600
H  -0.45600 1.16600 26.26100
H  -2.04100 1.83800 26.67500
H  -0.24100 0.25700 24.19700
H  -1.26100 0.27300 22.78900
H  -1.97000 0.67300 24.35500
H  -1.45700 6.65800 20.85000
H  0.15600 9.08000 20.49400
H  1.25100 7.33000 19.57700
H  0.13800 6.05700 19.22500
H  1.17900 5.86500 20.43500
H  -2.53400 9.37900 21.79800
H  -2.41900 8.52100 20.24400
H  -1.92500 10.54400 19.13600
H  -1.01400 11.18900 20.54800
H  -2.72600 11.12900 20.68700
H  1.80400 12.99100 23.94500
H  0.52000 13.88900 24.93800
H  0.06800 12.99800 23.61300
H  -0.00500 11.16300 29.57600
H  2.66800 12.27400 32.51900
H  3.72600 10.94700 31.76400
H  2.52400 10.50300 32.92300
Mg -6.77000 24.91900 25.47800
C  -5.06100 26.26200 28.16900
C  -8.45300 22.71000 27.66100
C  -7.95400 23.23500 22.82100
C  -4.73000 26.76300 23.32100
N  -6.82100 24.58300 27.70500
C  -6.09800 25.37500 28.52000
C  -6.47600 24.93400 30.04700
C  -7.36000 23.60600 29.82700
C  -7.61100 23.66500 28.36100
C  -6.70500 22.20000 30.15800
C  -7.23100 26.01400 30.84700
C  -7.00300 25.99200 32.29900
H  -6.27400 24.79500 32.97300
N  -8.20700 23.37300 25.22500
C  -8.75200 22.60400 26.24800
C  -9.72100 21.68400 25.65800
C  -9.54500 21.79300 24.22500
C  -8.50700 22.79800 24.05100
C  -10.64100 20.78000 26.51700
C  -10.16800 20.96100 23.13400
O  -9.92400 20.99100 21.92100
C  -11.04900 19.79900 23.60400
N  -6.42000 25.03700 23.40800
C  -7.04000 24.27000 22.51900
C  -6.38700 24.32300 21.11800
C  -5.52400 25.59100 21.25700
C  -5.61700 25.87700 22.75100
C  -5.62000 23.03200 20.64600
C  -5.93600 26.82600 20.35700
C  -4.97200 27.26600 19.26100
N  -5.12400 26.16400 25.66800
C  -4.50500 26.98000 24.74000
C  -3.46300 27.74600 25.37200
C  -3.63300 27.50000 26.73000
C  -4.64800 26.51600 26.80600
C  -2.45700 28.73000 24.75000
C  -3.11700 27.73900 28.03900
O  -2.20900 28.47400 28.39100
C  -4.04000 26.98200 29.01000
C  -3.24200 26.03700 29.81100
O  -2.81700 24.96800 29.39600
O  -2.97300 26.47100 31.07600
C  -2.11200 25.80600 32.00700
H  -9.01300 22.03300 28.30900
H  -8.34700 22.74900 21.92600
H  -4.23500 27.43000 22.61200
H  -5.51400 24.64300 30.46900
H  -8.31300 23.72400 30.34100
H  -5.69000 22.48700 30.43500
H  -6.55000 21.62000 29.24800
H  -7.13000 21.65800 31.00300
H  -8.30300 26.03900 30.65500
H  -6.84600 26.98900 30.54800
H  -7.99100 26.14600 32.73100
H  -6.41400 26.84300 32.64000
H  -11.03000 21.52800 27.20800
H  -10.10700 20.01200 27.07700
H  -11.49600 20.34400 26.00100
H  -11.22400 19.03000 22.85100
H  -12.01900 20.19700 23.90100
H  -10.58500 19.19600 24.38500
H  -7.11200 24.67200 20.38400
H  -4.49900 25.25400 21.10400
H  -5.92200 22.80800 19.62200
H  -6.06800 22.23200 21.23400
H  -4.55100 23.17700 20.80300
H  -6.08400 27.62300 21.08600
H  -6.81100 26.61600 19.74100
H  -3.95400 27.09900 19.61000
H  -4.93700 28.32700 19.01100
H  -5.03400 26.71500 18.32300
H  -2.16000 28.24700 23.81900
H  -1.51400 28.79300 25.29300
H  -2.96400 29.67500 24.55700
H  -4.59600 27.68000 29.63600
H  -2.48900 26.11500 32.98200
H  -1.03300 25.94700 31.94600
H  -2.39800 24.75800 31.91100

