158

Mg 46.79500 16.81600 28.30200
C  45.38100 16.58400 31.51500
C  49.35400 18.62900 29.73000
C  47.69700 17.73700 25.22300
C  43.80700 15.53700 26.95900
N  47.22200 17.57100 30.42900
C  46.67300 17.12500 31.59900
C  47.41400 17.53800 32.84700
C  48.68500 18.22500 32.23100
C  48.37300 18.14900 30.64100
C  49.04600 19.65100 32.72800
C  47.69000 16.26100 33.78000
C  47.24600 16.32400 35.23300
H  46.97400 17.68300 35.88400
N  48.31100 17.95000 27.54300
C  49.29900 18.51100 28.27900
C  50.19100 19.15900 27.36400
C  49.68100 19.01700 26.08200
C  48.46300 18.29600 26.28000
C  51.43300 19.78000 27.84000
C  50.27400 19.53200 24.74500
O  49.89900 19.21900 23.60900
C  51.43800 20.53700 24.75300
N  45.81000 16.73500 26.33700
C  46.53100 17.02600 25.20100
C  45.71800 16.64100 23.97200
C  44.48300 15.89600 24.58700
C  44.70500 16.02900 26.05000
C  45.27000 17.86300 22.99900
C  44.46500 14.40900 24.07000
C  43.38200 14.12300 22.91300
N  44.93600 16.09100 29.04600
C  43.86600 15.61100 28.40000
C  42.84400 15.31900 29.34400
C  43.38000 15.66600 30.62800
C  44.70900 16.11100 30.37300
C  41.55000 14.63800 29.09000
C  43.09300 15.69200 32.00400
O  42.06800 15.36500 32.61600
C  44.42000 16.32400 32.70000
C  43.92700 17.51100 33.49000
O  43.63500 18.62100 33.00300
O  43.66500 17.12800 34.80700
C  42.91700 18.02500 35.62000
H  50.16600 19.13500 30.25500
H  48.10900 17.89800 24.22400
H  42.91900 15.12000 26.47900
H  46.92400 18.36500 33.36000
H  49.55900 17.58500 32.34700
H  48.41000 19.89000 33.58000
H  48.63900 20.30000 31.95300
H  50.11100 19.86500 32.82600
H  48.72600 15.92300 33.81600
H  47.17800 15.43300 33.29000
H  48.05200 15.83400 35.77900
H  46.33600 15.73200 35.33500
H  51.54500 19.67500 28.91900
H  51.34500 20.80100 27.46800
H  52.24500 19.25200 27.33900
H  52.30800 20.03000 25.16800
H  51.23900 21.35700 25.44300
H  51.65800 20.99300 23.78700
H  46.38600 15.96700 23.43600
H  43.57600 16.40800 24.26500
H  44.20200 18.08300 23.00900
H  45.49400 17.53400 21.98500
H  45.75500 18.81200 23.22800
H  44.26600 13.66300 24.83900
H  45.48900 14.18400 23.77300
H  42.68600 14.96100 22.88300
H  42.86100 13.17100 23.02000
H  43.79300 14.26900 21.91400
H  40.95900 15.41900 28.61200
H  41.15100 14.28900 30.04200
H  41.67600 13.76400 28.45000
H  44.93400 15.63500 33.37000
H  42.97300 19.03600 35.21600
H  43.35300 18.08200 36.61800
H  41.87700 17.72000 35.73900
Mg 1.39700 42.61600 25.83500
C  3.54100 42.74200 28.51200
C  -1.22400 42.40800 28.05900
C  -0.71500 42.31900 23.22200
C  4.06900 42.66000 23.63300
N  1.19900 42.61800 28.06100
C  2.24900 42.67900 28.94100
C  1.66600 42.71700 30.39000
C  0.18800 42.41800 30.26500
C  0.00800 42.53600 28.72400
C  -0.14800 40.98400 30.65500
C  2.06000 44.08600 31.12300
C  2.03600 43.95800 32.63200
H  0.74100 44.00200 33.38800
N  -0.73500 42.60500 25.65100
C  -1.59000 42.44300 26.70400
C  -2.97100 42.31800 26.17300
C  -2.84800 42.35800 24.71800
C  -1.40500 42.38800 24.46400
C  -4.10700 42.01200 27.13000
C  -3.95600 42.38400 23.67600
O  -3.69700 42.35200 22.42200
C  -5.42300 42.37000 24.05500
N  1.57100 42.62900 23.70700
C  0.61400 42.36900 22.86900
C  1.15800 41.99300 21.51800
C  2.60300 42.55000 21.59400
C  2.77600 42.68000 23.07300
C  1.04300 40.45800 21.11100
C  2.90900 43.85500 20.79200
C  2.95700 43.94300 19.29900
N  3.42400 42.67000 25.98800
C  4.38700 42.79000 25.02900
C  5.67100 42.97200 25.62000
C  5.40200 42.87000 27.04900
C  4.01600 42.73400 27.19400
C  7.02400 43.13800 25.08400
C  6.04900 42.78900 28.30000
O  7.20900 42.67400 28.56700
C  4.89700 42.72100 29.35400
C  4.95100 41.49000 30.28000
O  4.71100 40.35900 30.02200
O  5.49300 41.87000 31.45500
C  5.86200 40.74300 32.24700
H  -2.04300 42.41300 28.78100
H  -1.35000 42.07700 22.36700
H  4.89000 42.66300 22.91200
H  2.13900 41.87400 30.89400
H  -0.32600 43.21900 30.79600
H  -0.36700 40.31600 29.82200
H  -1.04300 40.87800 31.26800
H  0.65900 40.53000 31.23000
H  1.19500 44.73600 30.99400
H  2.97000 44.51300 30.70100
H  2.63800 44.79900 32.97600
H  2.64000 43.14700 33.03900
H  -3.97900 41.02700 27.57800
H  -4.99700 41.85300 26.52200
H  -4.19700 42.73900 27.93800
H  -6.05600 42.51800 23.18000
H  -5.52200 43.13100 24.83000
H  -5.84700 41.47900 24.51700
H  0.57400 42.61900 20.84300
H  3.26400 41.77200 21.21100
H  0.69800 40.36700 20.08200
H  0.29800 39.94000 21.71500
H  2.00400 39.95800 21.23300
H  3.95300 44.10200 20.98600
H  2.33800 44.68600 21.20600
H  2.24300 44.68600 18.94500
H  2.71500 42.96400 18.88600
H  3.95100 44.13800 18.89600
H  7.51700 43.77000 25.82200
H  6.99200 43.74100 24.17700
H  7.59700 42.23500 24.87300
H  4.88900 43.67700 29.87700
H  5.08000 40.00400 32.42500
H  6.20400 40.96300 33.25800
H  6.74900 40.30000 31.79500

