158

Mg 7.77700 2.67600 27.22000
C  9.31400 1.54600 30.21200
C  5.86700 4.85800 29.07400
C  6.79000 4.14600 24.31800
C  9.81500 0.50500 25.50300
N  7.66100 3.14600 29.35000
C  8.37300 2.57600 30.41300
C  8.15800 3.37400 31.70200
C  6.79700 4.14100 31.38800
C  6.73700 4.03400 29.79700
C  5.48400 3.67100 32.16100
C  9.39400 4.17500 32.16100
C  9.22200 4.75700 33.58700
H  10.12700 4.26700 34.76700
N  6.33100 4.19100 26.70200
C  5.68800 4.93000 27.65900
C  4.75600 5.81800 27.03100
C  5.09100 5.77400 25.58900
C  6.06900 4.65500 25.45000
C  3.84400 6.74200 27.75300
C  4.66700 6.68500 24.40400
O  5.10200 6.60500 23.27200
C  3.65600 7.72900 24.80500
N  8.17300 2.30000 25.23900
C  7.72100 3.12900 24.24500
C  8.11200 2.57900 22.85800
C  9.07900 1.42200 23.22400
C  8.98000 1.39100 24.71000
C  6.97100 2.19000 21.84000
C  10.49700 1.75900 22.80700
C  11.30900 2.66100 23.74400
N  9.19700 1.21600 27.69200
C  9.97500 0.42200 26.88800
C  10.84900 -0.39900 27.71200
C  10.60300 0.03400 29.00300
C  9.55500 0.92400 29.02700
C  11.79400 -1.44100 27.20700
C  11.00400 -0.17600 30.34900
O  11.90600 -0.96000 30.70900
C  10.32800 0.85600 31.19100
C  9.68300 0.17300 32.30000
O  8.59300 -0.37600 32.29200
O  10.44900 0.37700 33.42100
C  9.81700 0.04400 34.68000
H  5.26100 5.42300 29.78500
H  6.67300 4.53600 23.30500
H  10.41300 -0.22600 24.95500
H  7.92900 2.61700 32.45200
H  6.82500 5.17600 31.72700
H  5.75800 2.74200 32.66000
H  4.73600 3.47000 31.39400
H  5.11300 4.44800 32.83000
H  9.42700 5.05500 31.52000
H  10.36800 3.68500 32.13700
H  8.18600 4.51100 33.81900
H  9.30300 5.82600 33.38600
H  4.13200 7.79300 27.76800
H  3.67000 6.32500 28.74500
H  2.85200 6.57500 27.33500
H  2.81300 7.14300 25.17100
H  3.42600 8.41500 23.99000
H  4.07800 8.28400 25.64200
H  8.68200 3.32000 22.29800
H  8.88800 0.43500 22.80300
H  5.95100 2.35800 22.18500
H  7.18500 1.14400 21.62100
H  7.12700 2.74200 20.91300
H  10.40000 2.17300 21.80300
H  10.99700 0.79000 22.79100
H  10.73700 3.06300 24.58000
H  11.51900 3.57100 23.18300
H  12.19500 2.13300 24.09700
H  11.97000 -1.30600 26.14000
H  11.50300 -2.48300 27.33900
H  12.70300 -1.32700 27.79700
H  11.08000 1.59400 31.47200
H  8.79000 -0.32000 34.65500
H  9.71400 0.93800 35.29400
H  10.46500 -0.74300 35.06600
Mg 47.93600 25.37000 28.34400
C  48.85500 27.57800 30.78600
C  46.98800 23.15600 30.82900
C  47.18700 23.10200 25.96900
C  49.53900 27.35900 25.97500
N  47.91600 25.36300 30.60100
C  48.25700 26.44700 31.38500
C  47.85900 26.17900 32.83900
C  47.52400 24.61600 32.85500
C  47.33800 24.37500 31.35500
C  48.62500 23.73300 33.49500
C  46.68900 27.07800 33.33300
C  46.98000 28.07000 34.54000
H  45.91600 28.08700 35.71100
N  47.13800 23.42700 28.38400
C  46.85900 22.75900 29.48500
C  46.32400 21.43700 29.05800
C  46.31100 21.34700 27.66300
C  46.83700 22.64800 27.27800
C  46.12300 20.31600 30.01100
C  45.87700 20.24100 26.64200
O  45.99900 20.42400 25.45100
C  45.35100 18.93700 27.04100
N  48.28800 25.27400 26.29800
C  47.82800 24.27400 25.51300
C  48.31100 24.45300 24.03500
C  48.94500 25.83100 23.95600
C  48.91900 26.15000 25.51900
C  49.23600 23.28700 23.54800
C  48.17700 26.84900 22.97900
C  49.06900 27.56300 21.88100
N  48.97300 27.13700 28.28900
C  49.50500 27.87700 27.31000
C  50.12800 29.06100 27.84100
C  49.88100 29.02900 29.18600
C  49.20500 27.80800 29.41100
C  50.73300 30.22100 27.19400
C  49.99100 29.69000 30.41200
O  50.45400 30.78000 30.71700
C  49.20700 28.90600 31.44600
C  50.16000 28.74900 32.58400
O  51.14700 28.01400 32.60400
O  49.75400 29.56900 33.58900
C  50.62300 29.34200 34.79300
H  46.71300 22.57700 31.71300
H  46.94700 22.33600 25.22800
H  50.12900 28.02800 25.34500
H  48.73100 26.35800 33.46800
H  46.58100 24.48900 33.38600
H  48.19400 23.30800 34.40100
H  49.46900 24.33700 33.83100
H  49.00300 23.10200 32.69100
H  45.75200 26.58400 33.59100
H  46.43200 27.76500 32.52700
H  46.88600 29.06400 34.10100
H  47.99100 28.07800 34.94700
H  45.08600 20.37100 30.34200
H  46.75300 20.60600 30.85300
H  46.43400 19.34200 29.63200
H  44.49100 19.18700 27.66200
H  46.16600 18.49400 27.61200
H  45.09900 18.30100 26.19300
H  47.39000 24.33000 23.46400
H  49.98600 25.70800 23.66000
H  48.84000 22.93200 22.59700
H  49.16900 22.51800 24.31800
H  50.23900 23.70500 23.46000
H  47.87600 27.73300 23.54000
H  47.24800 26.39900 22.62900
H  49.87000 26.90300 21.54500
H  49.42000 28.53300 22.23300
H  48.48900 27.80000 20.98900
H  51.08600 29.92500 26.20600
H  51.65400 30.53500 27.68400
H  50.12900 31.12600 27.12200
H  48.26100 29.31300 31.80200
H  50.09000 28.55100 35.32000
H  50.55000 30.23600 35.41200
H  51.67800 29.14400 34.60400

