158

Mg 1.23400 -2.48100 44.31400
C  4.66600 -1.91600 43.92700
C  0.67800 0.19100 42.04400
C  -2.01400 -3.48400 43.98300
C  1.97600 -5.41100 46.01600
N  2.56700 -1.12800 42.96800
C  3.88500 -0.92800 43.18100
C  4.49100 0.24600 42.53800
C  3.21200 1.00200 42.03000
C  2.07500 -0.05100 42.38100
C  2.98000 2.42400 42.82400
C  5.37500 -0.06800 41.34800
C  6.62300 0.89500 41.09000
H  6.56300 1.81300 39.86000
N  -0.44800 -1.83200 43.13300
C  -0.45500 -0.69400 42.36500
C  -1.80000 -0.40100 41.93500
C  -2.66700 -1.42800 42.49700
C  -1.73300 -2.29000 43.26100
C  -2.13800 0.65300 40.80400
C  -4.08200 -1.59600 42.12700
O  -4.59700 -0.58600 41.62900
C  -4.93200 -2.83300 42.33600
N  0.15400 -4.13600 44.94100
C  -1.22000 -4.22300 44.83500
C  -1.77600 -5.42700 45.60200
C  -0.47000 -6.16100 46.14400
C  0.61800 -5.13700 45.74700
C  -2.81800 -5.02800 46.73300
C  -0.30300 -7.62300 45.59900
C  0.23400 -8.63100 46.64200
N  2.94800 -3.43300 44.97700
C  3.11400 -4.58000 45.67400
C  4.50100 -4.75800 45.98200
C  5.16900 -3.75100 45.28600
C  4.18100 -2.89600 44.69400
C  5.13000 -5.83100 46.76000
C  6.50900 -3.28400 44.97000
O  7.62200 -3.62000 45.33700
C  6.22500 -2.01400 44.01700
C  6.92800 -0.82100 44.66900
O  6.84100 -0.45000 45.81100
O  7.81300 -0.23100 43.76400
C  8.51100 0.91400 44.33300
H  0.64100 1.15300 41.53000
H  -3.06500 -3.76800 44.06900
H  2.33400 -6.35500 46.43100
H  5.02300 0.82800 43.29000
H  3.21500 1.24900 40.96800
H  3.69900 2.57100 43.62900
H  1.95900 2.42100 43.20600
H  3.06100 3.27100 42.14300
H  4.81600 -0.01400 40.41400
H  5.67200 -1.09800 41.54500
H  7.40300 0.15600 40.90700
H  6.87900 1.49000 41.96600
H  -2.63600 0.14900 39.97600
H  -1.29800 1.20500 40.38100
H  -2.84400 1.28400 41.34300
H  -5.38300 -2.90400 43.32500
H  -4.41600 -3.78700 42.23000
H  -5.74000 -2.93500 41.61200
H  -2.26600 -6.02300 44.83200
H  -0.47000 -6.09600 47.23200
H  -2.90300 -3.95000 46.87400
H  -2.67800 -5.47300 47.71800
H  -3.74800 -5.53900 46.48700
H  0.39900 -7.54600 44.76800
H  -1.24100 -8.04700 45.24000
H  1.23700 -8.95900 46.37100
H  -0.30700 -9.54200 46.89800
H  0.39400 -8.29100 47.66500
H  4.45100 -6.68100 46.69400
H  5.20000 -5.63900 47.83100
H  6.00300 -6.27500 46.28100
H  6.77400 -2.39500 43.15600
H  7.87500 1.75000 44.62300
H  9.22400 1.28800 43.59900
H  9.09900 0.56800 45.18300
Mg 26.58700 51.01800 26.91100
C  24.23000 52.04000 29.27800
C  28.80200 50.41900 29.53000
C  28.86200 50.45300 24.57900
C  24.35700 52.18300 24.49400
N  26.36600 51.02800 29.11600
C  25.27400 51.37000 29.88100
C  25.41200 50.97400 31.38600
C  27.05400 50.81300 31.48300
C  27.47200 50.64300 29.95000
C  27.82300 51.81900 32.32200
C  24.58400 49.77000 31.75800
C  23.70000 49.92500 33.02600
H  23.63500 48.77400 33.99100
N  28.54900 50.41200 27.00700
C  29.25500 50.17800 28.19900
C  30.54500 49.70100 27.79400
C  30.67000 49.71400 26.35200
C  29.34800 50.17000 25.90500
C  31.63000 49.23000 28.85600
C  31.81000 49.30700 25.44500
O  31.83200 49.57100 24.26100
C  32.97400 48.51300 25.97600
N  26.72300 51.49400 24.81000
C  27.70900 51.02900 24.04100
C  27.41600 51.25800 22.50900
C  25.86800 51.55900 22.61600
C  25.67400 51.85500 24.03300
C  28.22300 52.40100 21.93200
C  24.94700 50.38000 22.19100
C  24.02000 50.58800 20.99700
N  24.69800 51.89600 26.83800
C  23.89100 52.30300 25.78700
C  22.63200 52.84600 26.26900
C  22.71800 52.70400 27.65300
C  23.97900 52.15100 27.93000
C  21.52300 53.59800 25.51100
C  22.01500 52.91400 28.91200
O  20.83000 53.20500 29.16100
C  23.01300 52.54100 30.02200
C  23.24500 53.65000 30.93600
O  23.59900 54.80400 30.68300
O  22.99700 53.16400 32.20900
C  23.48400 54.00500 33.37100
H  29.51200 50.27400 30.34700
H  29.58100 50.30700 23.77100
H  23.66800 52.41100 23.67700
H  25.15400 51.87600 31.94100
H  27.28300 49.86700 31.97400
H  28.63300 51.27400 32.80600
H  27.09400 52.36800 32.91900
H  28.45000 52.48400 31.72700
H  25.28000 48.95400 31.95100
H  23.90200 49.49700 30.95200
H  22.70000 50.09500 32.62600
H  23.92500 50.89700 33.46600
H  31.46600 49.53700 29.88900
H  32.46900 49.87700 28.59900
H  31.94800 48.18900 28.79700
H  32.58000 47.63700 26.49200
H  33.59000 49.16600 26.59400
H  33.58900 48.20200 25.13100
H  27.54000 50.37600 21.88100
H  25.48500 52.46600 22.14700
H  29.17500 52.45100 22.46100
H  27.73900 53.37100 22.04300
H  28.43000 52.17500 20.88600
H  24.21800 50.05800 22.93400
H  25.64000 49.61300 21.84600
H  22.99000 50.50200 21.34300
H  24.16600 49.89700 20.16700
H  24.11100 51.59100 20.57900
H  21.00000 54.36400 26.08300
H  20.74700 52.88000 25.24500
H  21.96600 54.07000 24.63500
H  22.62000 51.66100 30.53300
H  24.34400 53.44500 33.73700
H  22.68800 53.99700 34.11500
H  23.67700 55.07700 33.31900

