158

Mg 8.07700 3.50900 27.44000
C  9.36700 2.27900 30.42000
C  5.99400 5.43900 29.35900
C  6.42600 4.35200 24.69100
C  9.55400 0.86800 25.79500
N  7.58800 3.68300 29.66400
C  8.35400 3.23900 30.68300
C  7.91000 3.84400 32.00700
C  6.80500 4.82200 31.62700
C  6.71100 4.55500 30.10100
C  5.41300 4.70400 32.40500
C  9.21400 4.49600 32.71600
C  9.44900 4.14000 34.21400
H  10.16000 5.21400 35.06600
N  6.51300 4.85200 27.03400
C  5.83900 5.56800 27.98600
C  4.85900 6.41800 27.35800
C  5.11600 6.25900 25.90000
C  6.06600 5.17900 25.82000
C  3.90500 7.36100 28.05100
C  4.50700 6.97400 24.68100
O  4.76400 6.66500 23.54300
C  3.52300 8.13700 24.84300
N  8.06300 2.78600 25.56100
C  7.20200 3.22300 24.61000
C  7.49800 2.60800 23.22200
C  8.45200 1.46600 23.54100
C  8.69400 1.71900 25.02800
C  6.27000 2.27800 22.40500
C  9.63900 1.59200 22.60800
C  10.74900 2.70200 22.95200
N  9.34700 1.91100 27.93800
C  9.83000 0.91600 27.17100
C  10.54500 0.01800 27.94800
C  10.49300 0.55800 29.24700
C  9.70300 1.68300 29.17400
C  11.43800 -1.14100 27.48800
C  10.96100 0.48000 30.61100
O  11.80000 -0.23400 31.07700
C  10.18600 1.55300 31.43700
C  9.38800 0.82600 32.43200
O  8.31800 0.31400 32.24100
O  10.10600 0.85000 33.61800
C  9.43700 0.26600 34.73500
H  5.47300 6.18400 29.96400
H  5.99800 4.56100 23.70800
H  10.06500 0.00700 25.36000
H  7.58100 3.03200 32.65500
H  7.15200 5.84500 31.77400
H  5.19200 5.49300 33.12300
H  5.45200 3.70000 32.82900
H  4.63800 4.75400 31.64000
H  9.14900 5.58400 32.66900
H  10.15100 4.29700 32.19600
H  10.15000 3.30600 34.18500
H  8.52500 3.85700 34.71700
H  2.96600 7.29900 27.50100
H  4.23200 8.39800 27.97100
H  3.68300 7.10900 29.08800
H  3.08200 8.42900 23.88900
H  4.10400 9.00000 25.16500
H  2.74400 7.92200 25.57400
H  7.94800 3.37900 22.59700
H  8.00500 0.47200 23.54800
H  5.36800 2.47800 22.98300
H  6.23000 1.22500 22.12600
H  6.43300 2.86700 21.50300
H  9.25000 1.81800 21.61500
H  10.12700 0.62200 22.70500
H  10.55900 3.19200 23.90700
H  10.77000 3.47400 22.18300
H  11.74900 2.27700 23.03300
H  12.40500 -0.72000 27.21400
H  11.03500 -1.64800 26.61100
H  11.45500 -1.77100 28.37700
H  10.82400 2.25600 31.97300
H  9.01200 -0.69200 34.43800
H  8.65400 0.87100 35.19500
H  10.27300 0.10400 35.41500
Mg 0.30300 42.44400 25.73700
C  2.12300 42.55200 28.86600
C  -2.42000 41.32000 27.50800
C  -1.10700 41.90300 22.85300
C  3.50700 43.13200 24.09400
N  -0.10000 42.12600 27.91300
C  0.72100 42.32600 28.92300
C  0.05900 42.18100 30.21200
C  -1.32400 41.55400 29.72800
C  -1.26900 41.59000 28.28000
C  -1.61300 40.08300 30.14500
C  -0.11700 43.43300 31.05900
C  -0.30400 43.25900 32.58100
H  -0.33400 41.93100 33.37700
N  -1.49600 41.74800 25.22400
C  -2.51300 41.39400 26.06700
C  -3.73500 41.14300 25.40200
C  -3.37300 41.27400 24.00800
C  -1.92700 41.62000 23.94900
C  -5.03400 40.82900 26.12000
C  -4.35100 41.18000 22.90200
O  -4.01700 41.35400 21.69700
C  -5.84400 40.97600 23.22500
N  1.19400 42.47900 23.79100
C  0.26700 42.38600 22.79800
C  0.89300 42.82500 21.43400
C  2.36400 43.12500 21.79600
C  2.37200 42.88900 23.33900
C  0.92400 41.64300 20.35500
C  2.82500 44.56100 21.32700
C  4.11800 44.51300 20.45800
N  2.42500 42.71200 26.29100
C  3.55000 43.02000 25.48100
C  4.63900 43.35300 26.41300
C  4.12400 43.11800 27.71900
C  2.82000 42.71600 27.61700
C  5.99200 43.84200 25.88900
C  4.44400 43.09800 29.13500
O  5.48400 43.32700 29.68600
C  3.11900 42.82700 29.96700
C  3.42800 41.61100 30.87300
O  3.74100 40.53400 30.37100
O  3.33400 41.89800 32.15600
C  4.04600 40.85800 33.05000
H  -3.25600 41.16700 28.19300
H  -1.68500 41.80900 21.93200
H  4.38600 43.46900 23.54100
H  0.62100 41.42600 30.76200
H  -2.15100 42.14900 30.11300
H  -1.11500 39.91600 31.10000
H  -1.23500 39.36300 29.42000
H  -2.66200 39.83000 30.30000
H  -1.06100 43.96000 30.92100
H  0.71200 44.12600 30.91800
H  -1.30100 43.67800 32.71700
H  0.46500 43.91700 32.98500
H  -5.55200 41.77800 26.25700
H  -4.91000 40.57000 27.17100
H  -5.59500 40.02500 25.64400
H  -6.27400 41.66900 23.94900
H  -6.07800 39.93900 23.46800
H  -6.51900 41.31900 22.44200
H  0.32100 43.64100 20.99400
H  3.03400 42.39500 21.34400
H  1.85700 41.57800 19.79500
H  0.07600 41.82300 19.69300
H  0.70400 40.71900 20.88900
H  3.04700 45.08900 22.25400
H  2.04800 45.04600 20.73600
H  5.02000 44.76900 21.01500
H  4.20200 45.00500 19.48900
H  4.33700 43.47500 20.20800
H  6.43300 44.43800 26.68800
H  5.85900 44.45200 24.99600
H  6.55800 42.91600 25.79400
H  2.90800 43.64600 30.65500
H  4.22600 41.32200 34.02000
H  4.97300 40.54800 32.56700
H  3.35400 40.01900 33.12700

