158

Mg 1.96600 -1.18400 45.33500
C  5.23600 0.05400 44.83000
C  0.79100 1.21400 43.24500
C  -0.89300 -2.74600 45.19500
C  3.52600 -4.13900 46.70300
N  2.91600 0.48700 44.12400
C  4.25400 0.79800 44.13700
C  4.44600 2.09300 43.28600
C  2.98800 2.48000 42.90600
C  2.15100 1.37400 43.54000
C  2.56300 3.80000 43.58100
C  5.34500 1.95200 42.05400
C  6.49200 2.94500 41.83100
H  7.41200 2.50000 40.69000
N  0.09000 -0.70300 44.59700
C  -0.18100 0.34200 43.69900
C  -1.55800 0.34400 43.35400
C  -2.07500 -0.87300 44.01400
C  -0.94700 -1.50000 44.63600
C  -2.31100 1.31000 42.36800
C  -3.52300 -1.35100 43.95600
O  -4.40500 -0.81100 43.26100
C  -4.02500 -2.51200 44.68000
N  1.47200 -3.21700 45.59800
C  0.12900 -3.53400 45.65800
C  -0.09000 -4.90700 46.30400
C  1.33400 -5.37800 46.74200
C  2.17800 -4.15800 46.34500
C  -1.00600 -4.86900 47.54300
C  1.80700 -6.78100 46.20700
C  1.86100 -8.00900 47.19700
N  3.91500 -1.96900 45.66000
C  4.40000 -3.12400 46.28500
C  5.87800 -3.02900 46.44800
C  6.13400 -1.77400 45.96700
C  4.96400 -1.18700 45.50700
C  6.71700 -4.10000 47.09200
C  7.26400 -0.86700 45.74600
O  8.38000 -0.98400 46.01700
C  6.66600 0.37800 44.96300
C  6.81900 1.56200 45.84600
O  6.41700 1.69200 47.03400
O  7.46300 2.58200 45.17400
C  7.79600 3.78800 45.93800
H  0.38800 1.87600 42.47600
H  -1.85500 -3.24400 45.33000
H  3.91700 -5.06500 47.13000
H  4.95800 2.83300 43.90200
H  2.81800 2.59300 41.83500
H  1.94900 3.57100 44.45200
H  2.01000 4.40000 42.85800
H  3.45800 4.36300 43.84500
H  4.75100 2.18000 41.16900
H  5.71200 0.94400 41.85900
H  7.08500 2.99000 42.74500
H  6.05100 3.93300 41.69700
H  -1.73300 2.21400 42.17400
H  -3.34000 1.43600 42.70500
H  -2.32600 0.71500 41.45500
H  -3.69400 -2.39200 45.71200
H  -3.59800 -3.44200 44.30300
H  -5.11100 -2.42100 44.64800
H  -0.40500 -5.61300 45.53500
H  1.47500 -5.44400 47.82000
H  -1.70200 -5.69000 47.36900
H  -1.61500 -3.96600 47.58700
H  -0.44900 -4.98900 48.47200
H  2.82200 -6.64200 45.83500
H  1.17900 -7.17500 45.40800
H  1.56500 -8.94200 46.71600
H  1.14500 -7.81200 47.99500
H  2.88100 -8.05100 47.57800
H  6.18400 -5.03400 47.26800
H  7.05400 -3.82500 48.09200
H  7.60400 -4.27400 46.48400
H  7.18100 0.40500 44.00300
H  8.49300 4.34400 45.31200
H  8.43800 3.57700 46.79300
H  6.89800 4.35300 46.18800
Mg 6.00500 52.50500 41.19700
C  5.06000 48.98900 41.41600
C  9.14100 51.37800 40.21500
C  6.78900 55.73600 40.42400
C  2.65300 53.27300 41.64600
N  6.93500 50.39000 40.80300
C  6.31800 49.15200 40.92200
C  7.36200 48.08000 40.55500
C  8.72900 48.88000 40.63100
C  8.25300 50.34100 40.56200
C  9.65400 48.51000 41.82500
C  7.03200 47.36300 39.18500
C  6.39300 48.10700 38.01300
H  6.47500 47.55400 36.53200
N  7.66500 53.49800 40.30300
C  8.87100 52.80900 40.11200
C  9.89900 53.74900 39.75800
C  9.23400 55.06400 39.72100
C  7.80900 54.80200 40.17800
C  11.32200 53.40600 39.33400
C  9.94400 56.39600 39.38100
O  11.10300 56.35600 38.94300
C  9.37400 57.75000 39.47200
N  4.81900 54.19300 40.99700
C  5.46300 55.44400 40.83300
C  4.49100 56.50600 41.38000
C  3.10500 55.77300 41.21200
C  3.50200 54.28700 41.20900
C  4.82300 57.07100 42.76200
C  2.52200 56.08700 39.79600
C  1.13300 56.70100 39.97900
N  4.20800 51.41700 41.50100
C  2.93100 51.90000 41.80100
C  1.96500 50.81900 42.11700
C  2.83100 49.69400 42.13700
C  4.14300 50.11100 41.60700
C  0.56400 50.88400 42.56600
C  2.88800 48.33500 42.31100
O  1.96700 47.60200 42.70200
C  4.23700 47.80600 41.72400
C  3.83900 47.09900 40.46900
O  3.20600 47.51700 39.54600
O  4.30100 45.84900 40.64200
C  4.00400 44.77100 39.64900
H  10.17400 51.03800 40.12200
H  7.01300 56.80500 40.40800
H  1.66200 53.61400 41.95200
H  7.34000 47.32700 41.34200
H  9.21200 48.69300 39.67200
H  9.23100 47.83700 42.57100
H  9.75900 49.43400 42.39300
H  10.64300 48.16100 41.52800
H  6.42600 46.48400 39.40800
H  7.91500 46.85200 38.80100
H  6.83300 49.10100 37.93200
H  5.34400 48.36000 38.16800
H  11.28400 53.92800 38.37800
H  11.66500 52.37200 39.30300
H  12.08900 53.85300 39.96600
H  10.14300 58.49900 39.27800
H  8.98500 57.81100 40.48800
H  8.42000 57.92600 38.97500
H  4.55500 57.32100 40.66000
H  2.44900 55.94100 42.06700
H  5.73500 56.56100 43.07100
H  3.99600 56.87800 43.44600
H  5.12100 58.11900 42.72900
H  2.30700 55.18100 39.22900
H  3.18000 56.67400 39.15600
H  1.10800 57.75000 39.68400
H  0.77200 56.73200 41.00700
H  0.47300 56.14100 39.31700
H  0.09000 51.82900 42.29800
H  0.52700 50.73400 43.64500
H  -0.03700 50.07400 42.15400
H  4.69300 47.08900 42.40600
H  4.03500 43.77500 40.09000
H  4.81600 44.66700 38.93000
H  3.09500 44.81100 39.05000

