158

Mg 35.54800 1.08000 30.00100
C  33.28600 1.68000 32.58700
C  38.02200 1.21000 32.35900
C  37.64500 0.91500 27.42500
C  32.83200 1.60000 27.74500
N  35.61000 1.41200 32.23600
C  34.53600 1.53300 33.09100
C  34.99500 1.69500 34.54100
C  36.57800 1.54700 34.41000
C  36.80000 1.45700 32.89900
C  37.28300 2.67100 35.08200
C  34.14300 0.73900 35.51300
C  33.45700 1.41600 36.69700
H  34.13600 2.56200 37.31900
N  37.51200 0.99200 29.87800
C  38.37800 0.90100 31.01400
C  39.64300 0.61300 30.46700
C  39.56800 0.58700 29.02900
C  38.19600 0.88500 28.69500
C  40.83600 0.39300 31.39000
C  40.66500 0.17500 28.05000
O  40.51800 0.04300 26.84300
C  42.00800 -0.24600 28.63500
N  35.28900 1.08200 27.91900
C  36.31800 1.07100 27.04100
C  35.82600 1.13300 25.57200
C  34.28500 1.28000 25.73400
C  34.06400 1.27000 27.23600
C  36.51600 2.11000 24.63600
C  33.41500 0.16500 25.06700
C  32.90400 -1.05200 25.87900
N  33.52600 1.48500 30.12900
C  32.52200 1.67700 29.08000
C  31.29300 1.97200 29.65400
C  31.51700 2.04600 31.03200
C  32.91700 1.66200 31.23700
C  30.05000 2.32300 28.93000
C  30.91000 2.32300 32.38700
O  29.76900 2.57400 32.74900
C  32.03000 2.16900 33.38400
C  32.26000 3.61000 33.78300
O  33.14600 4.33100 33.26400
O  31.60700 3.95100 34.99200
C  31.74700 5.30100 35.37500
H  38.83200 1.32800 33.08300
H  38.34800 0.89900 26.59000
H  32.14100 1.75200 26.91400
H  34.74500 2.73400 34.75500
H  36.85000 0.64900 34.96400
H  37.96200 3.19000 34.40400
H  37.97200 2.32800 35.85300
H  36.57800 3.39700 35.48800
H  34.87300 -0.00100 35.84000
H  33.46300 0.12200 34.92500
H  33.35500 0.72900 37.53700
H  32.49700 1.80800 36.36300
H  41.49000 1.25500 31.25800
H  41.48100 -0.47300 31.24500
H  40.52600 0.43600 32.43500
H  42.45600 0.50500 29.28500
H  42.67700 -0.30500 27.77600
H  41.80200 -1.17700 29.16300
H  36.01000 0.13900 25.16600
H  34.03300 2.25000 25.30600
H  35.82200 2.79300 24.14800
H  37.04600 1.55100 23.86500
H  37.26400 2.69200 25.17500
H  34.04900 -0.24400 24.28000
H  32.52400 0.65500 24.67400
H  33.58200 -1.22400 26.71500
H  32.82600 -2.00100 25.34800
H  31.86100 -0.91000 26.16200
H  30.29900 3.10500 28.21300
H  29.35000 2.64000 29.70400
H  29.75600 1.37800 28.47300
H  31.66600 1.56600 34.21700
H  31.55700 5.99000 34.55200
H  32.73500 5.45000 35.81000
H  31.00300 5.29300 36.17100
Mg 6.97500 56.80900 41.76800
C  5.62400 53.59700 41.04500
C  9.93200 55.79500 40.85900
C  7.83100 60.18600 41.62700
C  3.68100 57.87600 42.39700
N  7.60100 54.91500 40.91300
C  6.95000 53.67700 40.71800
C  8.00000 52.58200 40.32600
C  9.39300 53.31100 40.57900
C  8.93400 54.75300 40.96000
C  10.17300 52.57800 41.69000
C  7.64600 52.21500 38.82800
C  7.61800 50.73300 38.41000
H  7.41500 50.35000 36.84900
N  8.57800 57.87600 41.22300
C  9.74700 57.25900 40.88000
C  10.76900 58.21700 40.62200
C  10.18400 59.51000 40.72200
C  8.76600 59.24700 41.18200
C  12.16700 57.83600 40.26100
C  10.81700 60.81900 40.45400
O  12.00300 60.96700 40.14300
C  10.16400 62.13800 40.57700
N  5.81700 58.82300 41.91400
C  6.50200 60.02100 41.96200
C  5.51700 61.20300 42.29300
C  4.18800 60.36000 42.54800
C  4.54300 58.93800 42.25000
C  6.04600 62.04700 43.46800
C  2.88100 60.86300 41.81600
C  1.70300 61.47200 42.61300
N  5.04200 56.00300 41.76200
C  3.83700 56.50200 42.19000
C  2.84300 55.53200 42.30500
C  3.56500 54.32100 41.92100
C  4.85200 54.66400 41.55400
C  1.42100 55.58300 42.84100
C  3.47300 52.88300 41.79700
O  2.63700 52.09600 42.16800
C  4.69000 52.37700 41.23000
C  4.33300 51.74500 39.90300
O  4.14000 52.32200 38.84100
O  4.22300 50.41200 40.02300
C  3.64400 49.62600 38.88800
H  10.93500 55.54300 40.50700
H  8.24500 61.19400 41.69700
H  2.66000 58.22400 42.56700
H  7.69100 51.79200 41.01000
H  10.08900 53.22700 39.74400
H  11.17100 53.01100 41.75100
H  10.17800 51.50000 41.53200
H  9.60300 52.91100 42.55700
H  8.33500 52.62100 38.08700
H  6.72100 52.69600 38.51000
H  6.86900 50.29500 39.06900
H  8.58000 50.32200 38.71700
H  12.43700 58.35100 39.33900
H  12.42200 56.79800 40.04600
H  12.85700 58.16400 41.03800
H  10.39800 62.47000 41.58800
H  9.11400 62.22400 40.29900
H  10.62200 62.85700 39.89800
H  5.49000 61.70200 41.32400
H  4.00100 60.31100 43.62000
H  5.36600 61.97300 44.31700
H  6.10800 63.08800 43.15100
H  7.07100 61.81200 43.75400
H  2.38200 60.09900 41.22000
H  3.25800 61.62300 41.13100
H  1.98600 61.23900 43.64000
H  0.79800 60.95700 42.29200
H  1.59800 62.49600 42.25400
H  0.75100 55.22000 42.06100
H  1.12500 56.61300 43.03600
H  1.33400 55.05400 43.79000
H  5.23800 51.64200 41.82000
H  3.29300 48.77700 39.47400
H  4.38300 49.45000 38.10700
H  2.85900 50.21900 38.41800

