158

Mg 52.90200 23.25800 44.66200
C  50.57100 25.73000 43.73000
C  50.98300 20.90000 43.10400
C  55.53000 21.23600 44.78700
C  55.01000 25.90700 45.73000
N  51.15300 23.33200 43.29700
C  50.30700 24.47100 43.03700
C  49.28600 24.05200 42.04600
C  49.13300 22.57800 42.36600
C  50.53000 22.19400 42.94600
C  47.99300 22.16200 43.22700
C  49.75300 24.27600 40.59700
C  48.67600 24.44500 39.52200
H  49.06400 25.33300 38.35000
N  53.10500 21.24600 44.18500
C  52.19900 20.46400 43.57300
C  52.73900 19.10700 43.60500
C  54.05100 19.15900 44.05400
C  54.31300 20.62500 44.42800
C  51.96400 18.03400 43.06400
C  54.96400 18.03400 44.12000
O  54.67500 16.96900 43.59500
C  56.26100 18.08900 44.78100
N  54.94800 23.58300 45.06900
C  55.84300 22.56000 45.09900
C  57.24900 22.95500 45.61200
C  57.04300 24.47200 45.91000
C  55.59700 24.67100 45.51500
C  57.84800 22.11100 46.79200
C  58.04600 25.45300 45.30200
C  57.81000 26.05200 43.94800
N  52.81800 25.41500 44.77200
C  53.72900 26.26300 45.41500
C  53.15500 27.58100 45.54400
C  51.85800 27.43100 44.92900
C  51.75500 26.10200 44.42800
C  53.71600 28.81600 46.22600
C  50.66200 28.08000 44.57800
O  50.39400 29.30100 44.67600
C  49.72800 27.05100 43.81800
C  49.51500 27.63000 42.55200
O  50.41300 28.10500 41.88300
O  48.13900 27.58800 42.30100
C  47.70900 28.11300 41.04500
H  50.39300 20.13900 42.58900
H  56.39200 20.60700 45.01900
H  55.65000 26.69600 46.13000
H  48.37800 24.60900 42.27600
H  48.97000 22.10300 41.39800
H  47.42200 23.03700 43.54000
H  48.21200 21.55700 44.10700
H  47.25800 21.67800 42.58400
H  50.45700 23.49400 40.31400
H  50.38600 25.16300 40.59000
H  47.69200 24.72900 39.89600
H  48.45200 23.43600 39.17500
H  52.21800 17.84000 42.02200
H  50.89800 18.23300 43.17700
H  52.10400 17.10800 43.62100
H  56.14100 18.62500 45.72200
H  56.98000 18.52000 44.08400
H  56.55200 17.08500 45.08900
H  57.81300 22.87200 44.68300
H  57.11900 24.56000 46.99400
H  58.52300 21.33900 46.42200
H  56.97600 21.52000 47.07500
H  58.13100 22.70200 47.66300
H  58.97100 24.87900 45.25000
H  58.16000 26.31100 45.96500
H  56.92800 25.62300 43.47300
H  58.65500 25.84600 43.29200
H  57.48700 27.09200 43.99600
H  53.29100 28.63200 47.21300
H  53.39300 29.79700 45.87700
H  54.80200 28.86000 46.30500
H  48.76700 26.97100 44.32700
H  47.35400 29.14300 41.06000
H  47.04400 27.44200 40.50100
H  48.60200 28.16100 40.42300
Mg 47.22100 24.86900 28.66800
C  47.67700 27.09100 31.35300
C  46.26700 22.48200 31.08900
C  47.00900 22.67000 26.13500
C  48.21700 27.29100 26.32800
N  47.02100 24.74100 30.99400
C  47.18800 25.86800 31.84000
C  46.85700 25.45600 33.29000
C  46.49500 23.98600 33.25700
C  46.59800 23.70100 31.71700
C  47.33100 23.07600 34.22600
C  45.69800 26.42900 33.68500
C  45.98800 27.31000 34.98300
H  44.96100 27.36000 36.05900
N  46.65700 22.89400 28.58500
C  46.29800 22.07900 29.69100
C  45.96700 20.80000 29.13300
C  46.06500 20.82200 27.70600
C  46.61200 22.19800 27.38700
C  45.44500 19.69600 29.95400
C  45.68400 19.86900 26.58600
O  45.79100 20.12800 25.41000
C  45.26800 18.45000 26.95300
N  47.65200 24.94600 26.57000
C  47.54700 23.86300 25.76200
C  47.68100 24.17000 24.29500
C  47.82900 25.76200 24.31500
C  47.91500 26.02100 25.81400
C  48.90500 23.48000 23.53800
C  46.68700 26.45800 23.62200
C  45.29100 26.28300 24.22100
N  47.80600 26.76800 28.73900
C  48.19600 27.64500 27.70200
C  48.53500 28.97500 28.31700
C  48.35700 28.76000 29.71200
C  47.97400 27.41100 29.94600
C  48.95600 30.18300 27.59900
C  48.51600 29.35800 31.03300
O  48.94400 30.49000 31.34400
C  47.98600 28.34500 32.07300
C  49.06800 28.07800 33.06400
O  50.00500 27.33700 32.87900
O  48.94400 28.90600 34.15600
C  49.84500 28.77500 35.26100
H  45.78000 21.78800 31.77700
H  46.95700 22.04200 25.24300
H  48.49000 27.98900 25.53300
H  47.75300 25.72300 33.85000
H  45.50700 23.94400 33.71600
H  47.98700 23.51100 34.98000
H  47.94700 22.30600 33.76200
H  46.55000 22.49200 34.71400
H  44.75600 25.91900 33.88300
H  45.41200 27.17200 32.94000
H  46.15800 28.35600 34.72800
H  46.95800 26.96500 35.34200
H  44.45300 19.38300 29.62700
H  45.31800 19.86000 31.02400
H  46.11500 18.84300 29.84200
H  44.75300 18.13200 26.04600
H  44.56900 18.47300 27.78900
H  46.18800 17.89000 27.12000
H  46.74900 23.84700 23.83000
H  48.78800 26.07300 23.90200
H  49.47800 22.83000 24.19800
H  49.52600 24.23400 23.05300
H  48.50800 22.73400 22.85000
H  46.73500 26.24100 22.55500
H  46.91000 27.52000 23.72600
H  45.33600 25.86300 25.22600
H  44.72200 25.50600 23.71100
H  44.73600 27.22100 24.24400
H  48.93000 31.08900 28.20300
H  48.48600 30.30300 26.62300
H  50.02500 30.00600 27.47400
H  47.17100 28.84000 32.60100
H  49.50400 28.03900 35.98800
H  49.91500 29.66600 35.88400
H  50.82700 28.41000 34.96000

