158

Mg 1.17300 7.91500 25.45800
C  1.97000 9.84300 28.28600
C  1.03400 5.07500 27.37900
C  1.17700 5.98600 22.54100
C  1.59100 10.85900 23.47700
N  1.53400 7.53800 27.60200
C  1.77800 8.49000 28.59200
C  1.58100 7.85400 29.96500
C  1.48500 6.30800 29.64900
C  1.30600 6.28100 28.13800
C  2.75300 5.42200 30.09500
C  0.29500 8.18800 30.77900
C  0.18700 7.79400 32.22200
H  1.22600 6.96400 32.99500
N  1.00100 5.85300 25.04900
C  0.95600 4.81900 25.99400
C  0.99800 3.52400 25.39400
C  0.94000 3.80900 23.97600
C  1.06100 5.33100 23.75700
C  1.15600 2.23200 26.18500
C  0.79600 2.83000 22.82900
O  0.92800 3.09900 21.64100
C  0.52700 1.31400 23.17000
N  1.33800 8.30900 23.38900
C  1.33700 7.39100 22.36400
C  1.48800 7.98900 21.00500
C  1.33400 9.56700 21.20900
C  1.33200 9.60600 22.79600
C  2.96500 7.78200 20.43200
C  -0.03800 10.17100 20.62000
C  -0.09800 11.70800 20.40500
N  1.59700 9.96500 25.72500
C  1.80100 11.03800 24.84900
C  2.20800 12.21100 25.55800
C  2.20800 11.81900 26.89400
C  1.95700 10.42600 26.96600
C  2.33800 13.56700 24.93700
C  2.37500 12.21800 28.27000
O  2.67300 13.29200 28.71400
C  2.08500 11.01000 29.19700
C  3.24900 10.96300 30.12000
O  4.37300 10.56600 29.79900
O  2.86800 11.39400 31.38700
C  4.02600 11.51400 32.30600
H  0.99800 4.22900 28.06800
H  1.01400 5.49500 21.57900
H  1.82600 11.74100 22.87800
H  2.48900 8.10100 30.51500
H  0.53600 5.81300 29.85600
H  3.20500 5.81900 31.00400
H  3.49000 5.56400 29.30400
H  2.45800 4.37900 30.21100
H  -0.52500 7.79700 30.17700
H  0.38600 9.26600 30.91500
H  -0.68200 7.13800 32.26800
H  0.01100 8.63600 32.89100
H  1.55300 1.39200 25.61500
H  0.30000 2.02800 26.82700
H  1.93100 2.50400 26.90100
H  -0.04400 1.02100 24.05200
H  1.51200 0.94900 23.46000
H  0.15300 0.86900 22.24800
H  0.77700 7.55300 20.30300
H  2.16700 10.15000 20.81800
H  3.59900 7.30900 21.18100
H  3.54100 8.66000 20.13900
H  2.78800 7.15100 19.56100
H  -0.78900 9.91600 21.36800
H  -0.20200 9.75400 19.62700
H  -0.23000 11.94900 19.35000
H  0.77400 12.17000 20.86800
H  -0.96700 12.15500 20.88900
H  1.38900 13.66200 24.40900
H  3.12300 13.60400 24.18200
H  2.42800 14.34800 25.69200
H  1.12000 11.16200 29.68100
H  3.99100 12.56500 32.59200
H  5.03300 11.23800 31.99300
H  3.80100 10.92600 33.19600
Mg 30.36900 58.07900 39.26100
C  27.47700 56.37700 38.15400
C  32.15900 55.14000 38.63800
C  33.22500 59.78900 39.55700
C  28.43500 60.89600 39.83900
N  29.91300 56.09600 38.21600
C  28.67300 55.61000 38.02100
C  28.69300 54.10200 37.68100
C  30.07400 53.66700 38.14400
C  30.79100 55.05400 38.44000
C  30.06000 52.77500 39.41200
C  28.45900 53.67000 36.19100
C  29.27000 54.49200 35.06200
H  28.36100 55.41800 34.27500
N  32.39800 57.54400 39.12700
C  32.95300 56.31700 38.85100
C  34.41300 56.35500 38.92700
C  34.76300 57.65800 39.22800
C  33.44800 58.41900 39.36800
C  35.25500 55.11500 38.60200
C  36.11200 58.13700 39.36500
O  37.07500 57.50200 38.89900
C  36.37600 59.44100 40.08600
N  30.70300 60.06400 39.68900
C  32.01300 60.50700 39.84100
C  32.00400 61.96900 40.05600
C  30.56600 62.27000 40.43400
C  29.82400 61.03100 39.93800
C  33.15900 62.51600 40.97200
C  29.83700 63.57400 39.89300
C  28.88900 64.11000 40.97600
N  28.36700 58.58200 39.12900
C  27.73300 59.74600 39.40900
C  26.30200 59.66900 38.96600
C  26.15300 58.36400 38.54700
C  27.41000 57.73800 38.63000
C  25.30700 60.82500 38.92500
C  25.25600 57.31900 37.99600
O  24.08200 57.46900 37.85400
C  26.00200 56.04200 37.82600
C  25.45800 54.90300 38.67000
O  25.64100 54.81100 39.83400
O  24.66700 54.00900 37.92800
C  24.18300 52.84400 38.55400
H  32.61300 54.14700 38.66400
H  34.11300 60.41900 39.46800
H  27.80300 61.74400 40.11200
H  27.88900 53.76200 38.33400
H  30.71800 53.16200 37.42300
H  30.89900 52.86800 40.10100
H  30.14100 51.76900 39.00100
H  29.09500 52.73700 39.91800
H  27.37700 53.75100 36.09000
H  28.73200 52.62900 36.01700
H  29.56300 53.71500 34.35600
H  30.13800 55.01600 35.46200
H  35.58700 55.14400 37.56400
H  34.76700 54.14800 38.72000
H  36.12200 54.93700 39.23900
H  35.68200 59.68700 40.89000
H  36.43000 60.27900 39.39100
H  37.29100 59.34500 40.67000
H  32.16200 62.38800 39.06200
H  30.64900 62.25200 41.52000
H  34.02900 62.74700 40.35800
H  33.44800 61.75900 41.70200
H  32.86700 63.41300 41.51800
H  29.32200 63.21400 39.00200
H  30.46500 64.40800 39.58100
H  29.20900 65.11000 41.26700
H  28.81100 63.47600 41.85900
H  27.89300 64.09700 40.53300
H  24.99200 61.25300 39.87600
H  24.42400 60.65200 38.31000
H  25.86800 61.59600 38.39700
H  26.05100 55.67300 36.80100
H  23.49100 53.23900 39.29800
H  25.12500 52.37700 38.83900
H  23.66800 52.20300 37.83800

