158

Mg 53.93800 25.07600 44.34500
C  50.96000 26.99500 43.82200
C  52.02500 22.38500 43.41300
C  56.78400 23.33800 44.14400
C  55.77900 27.96900 44.81100
N  51.68300 24.69300 43.71500
C  50.67400 25.63900 43.65900
C  49.45900 25.03600 43.10100
C  49.72300 23.57300 43.52600
C  51.22000 23.48300 43.44600
C  49.23500 23.13800 44.95100
C  49.20800 25.18100 41.59600
C  47.77800 25.23000 41.08100
H  47.54600 25.08200 39.61300
N  54.33200 23.09900 43.94500
C  53.37600 22.19600 43.51100
C  54.07000 20.96100 43.21300
C  55.49000 21.17400 43.35200
C  55.61300 22.53400 43.88800
C  53.36500 19.67600 42.90000
C  56.67100 20.32600 43.02400
O  56.51600 19.30200 42.35800
C  58.01600 20.70200 43.25600
N  56.00600 25.60600 44.43400
C  56.95900 24.69200 44.40100
C  58.36000 25.27200 44.56200
C  58.00500 26.78900 44.91100
C  56.52100 26.83400 44.77300
C  59.30900 24.50500 45.62000
C  58.79800 27.82400 44.10100
C  59.64700 28.82100 44.83500
N  53.52900 27.09400 44.33300
C  54.32800 28.18100 44.58100
C  53.53900 29.35800 44.52200
C  52.22000 28.96000 44.33100
C  52.28300 27.57500 44.14900
C  54.04500 30.75200 44.78400
C  50.82000 29.35100 44.22300
O  50.31700 30.44200 44.40900
C  50.02400 28.18100 43.65400
C  49.71100 28.54000 42.23600
O  50.51400 28.92300 41.36700
O  48.37900 28.52800 42.13700
C  47.81400 29.13500 40.86600
H  51.43800 21.47200 43.29100
H  57.77400 22.88000 44.09900
H  56.28400 28.89800 45.08300
H  48.63300 25.41000 43.70600
H  49.24400 22.93300 42.78500
H  48.34700 22.51200 44.87100
H  48.86700 23.95400 45.57200
H  50.02800 22.68300 45.54400
H  49.77200 24.45300 41.01200
H  49.66600 26.12900 41.31700
H  47.31600 26.18100 41.34800
H  47.23200 24.47300 41.64400
H  54.05600 18.89800 42.57500
H  52.62800 19.76500 42.10200
H  52.84400 19.37500 43.80800
H  58.37800 21.57000 42.70500
H  58.58200 19.79000 43.06400
H  58.07300 20.92700 44.32100
H  58.82600 25.19000 43.58000
H  58.09400 27.02500 45.97100
H  58.95700 23.51400 45.90700
H  59.37000 25.14700 46.49900
H  60.28900 24.32300 45.17900
H  58.07800 28.35100 43.47600
H  59.48700 27.21700 43.51400
H  60.68700 28.50100 44.89800
H  59.23300 28.87200 45.84200
H  59.50700 29.85600 44.52300
H  54.07200 30.91200 45.86200
H  53.48400 31.46600 44.18200
H  55.04200 30.85400 44.35600
H  49.15300 28.06200 44.29800
H  46.81800 29.45800 41.17000
H  47.76400 28.48200 39.99500
H  48.22900 30.12500 40.67500
Mg 47.16700 25.48000 27.95300
C  48.04100 27.71800 30.65900
C  45.85700 23.37600 30.48900
C  46.65700 23.25500 25.60500
C  48.78600 27.62500 25.75200
N  47.10000 25.50000 30.31400
C  47.42100 26.56100 31.12400
C  46.89900 26.31000 32.58700
C  46.21600 24.84900 32.58000
C  46.47200 24.53200 31.06300
C  46.82500 23.76800 33.55800
C  45.86700 27.40700 33.19500
C  46.25000 28.05600 34.62300
H  45.24600 28.08500 35.67900
N  46.43900 23.61500 28.08600
C  45.86400 22.93700 29.15600
C  45.27200 21.71600 28.69700
C  45.52200 21.65700 27.27000
C  46.28900 22.87500 26.93800
C  44.75000 20.58900 29.58100
C  45.20100 20.48700 26.31000
O  45.25400 20.69900 25.10100
C  44.64000 19.16200 26.85200
N  47.94300 25.30100 26.03100
C  47.43500 24.37600 25.20100
C  47.70600 24.65900 23.71200
C  48.29900 26.08000 23.76800
C  48.30500 26.38100 25.27500
C  48.56500 23.63800 22.94500
C  47.52200 27.11600 22.88600
C  48.32800 28.16300 22.17100
N  48.13100 27.36000 28.12300
C  48.80300 28.07500 27.11500
C  49.48500 29.17500 27.67800
C  49.16200 29.15800 29.01400
C  48.33000 27.95100 29.25800
C  50.22400 30.29700 26.93100
C  49.23900 29.86900 30.22100
O  49.79500 30.94800 30.47300
C  48.50700 28.96400 31.37700
C  49.52500 28.73600 32.39900
O  50.61000 28.23500 32.17100
O  49.10900 29.14000 33.62400
C  50.26000 29.41900 34.50700
H  45.28000 22.81600 31.22800
H  46.38500 22.74000 24.68100
H  49.15800 28.23800 24.92800
H  47.72500 26.26400 33.29700
H  45.12800 24.85400 32.64600
H  46.03000 23.19000 34.03000
H  47.26600 24.34400 34.37200
H  47.60300 23.15700 33.10100
H  44.91500 26.90100 33.35900
H  45.75500 28.25100 32.51400
H  46.52100 29.10200 34.48300
H  47.16200 27.59200 34.99900
H  45.47500 19.77500 29.58200
H  43.75400 20.23500 29.31600
H  44.68000 20.97500 30.59800
H  45.31800 18.83100 27.63900
H  44.79800 18.47600 26.01900
H  43.60100 19.25700 27.16700
H  46.74500 24.68100 23.19800
H  49.38100 25.99900 23.66100
H  48.02300 23.15900 22.13000
H  48.72800 22.83400 23.66200
H  49.38400 24.22300 22.52700
H  46.80700 27.63000 23.52900
H  47.00200 26.58100 22.09100
H  48.41100 27.99400 21.09700
H  49.33300 28.14400 22.59100
H  47.90600 29.16700 22.19800
H  50.74300 29.82800 26.09500
H  50.75900 30.83300 27.71500
H  49.43500 30.90900 26.49400
H  47.70200 29.52600 31.85200
H  51.19100 29.72200 34.02700
H  50.48300 28.58200 35.16900
H  49.96500 30.28000 35.10700

