158

Mg 35.01700 3.44300 29.81000
C  32.97000 4.64400 32.28300
C  37.67200 3.21900 31.96800
C  37.11400 2.80800 27.13100
C  32.44200 4.09300 27.50600
N  35.21900 3.80200 31.92400
C  34.20600 4.27400 32.77300
C  34.72700 4.15100 34.19000
C  36.32400 3.99000 34.07200
C  36.44500 3.69200 32.54400
C  37.18800 5.17800 34.57600
C  34.05800 2.98600 34.94200
C  33.72700 3.14300 36.48000
H  34.53500 4.12400 37.29700
N  37.07900 2.96800 29.56700
C  38.00700 2.81100 30.63800
C  39.30600 2.39800 30.08600
C  39.12700 2.43300 28.70100
C  37.69500 2.75600 28.36500
C  40.49600 2.18900 31.00200
C  40.30000 2.16400 27.65500
O  40.14700 2.26000 26.49300
C  41.72100 1.86200 28.00700
N  34.85800 3.48300 27.74100
C  35.82400 3.14300 26.80400
C  35.40900 3.11900 25.36800
C  33.88000 3.13200 25.57000
C  33.67900 3.57100 27.01800
C  36.03400 4.25300 24.45600
C  33.17200 1.78400 25.32700
C  31.89200 1.75400 24.45200
N  33.06000 4.35900 29.81400
C  32.11900 4.42600 28.87200
C  30.86200 4.85100 29.43400
C  31.15000 4.85600 30.74100
C  32.49800 4.61900 30.98800
C  29.61000 5.14200 28.68700
C  30.56000 5.11600 32.05000
O  29.40400 5.42400 32.41900
C  31.65800 4.75000 33.08600
C  31.55800 5.92100 34.09400
O  31.84400 7.12500 33.91600
O  31.21100 5.32300 35.23700
C  30.79800 6.23400 36.30800
H  38.45700 3.26800 32.72400
H  37.73000 2.61900 26.24900
H  31.58300 3.93700 26.85000
H  34.37500 5.07300 34.65400
H  36.68300 3.08900 34.57100
H  37.78100 5.52000 33.72700
H  37.94800 4.81100 35.26600
H  36.56800 6.02000 34.88100
H  34.60800 2.04600 34.92200
H  33.15300 2.74300 34.38600
H  33.84400 2.11700 36.83000
H  32.69700 3.40800 36.71500
H  41.17900 3.01800 30.81700
H  40.94600 1.20900 30.84400
H  40.07200 2.18200 32.00600
H  42.28600 1.62800 27.10500
H  41.72400 0.92200 28.56000
H  42.14600 2.67700 28.59200
H  35.87100 2.20400 24.99600
H  33.38500 3.82800 24.89200
H  36.85200 4.76000 24.96800
H  35.27400 5.02100 24.31500
H  36.35000 3.70200 23.57000
H  32.88900 1.36500 26.29300
H  33.80100 1.00200 24.90200
H  31.48100 0.76000 24.62800
H  32.16500 1.93200 23.41200
H  31.18800 2.40000 24.97600
H  29.87100 5.57600 27.72200
H  29.14900 5.94900 29.25700
H  28.86000 4.35900 28.79300
H  31.47700 3.83400 33.64900
H  30.33400 5.62800 37.08600
H  30.04500 6.97800 36.04700
H  31.68500 6.62300 36.80700
Mg 9.66000 46.96800 25.86600
C  7.78400 46.93800 28.84000
C  12.32600 48.09600 27.66700
C  11.55100 46.93800 23.02900
C  6.74200 46.42600 24.01900
N  10.00100 47.54500 28.08100
C  9.14200 47.35900 29.10400
C  9.84800 47.81700 30.46500
C  11.05900 48.66500 29.91300
C  11.14300 48.13500 28.45600
C  10.91100 50.18200 29.97700
C  10.17700 46.65200 31.51000
C  10.22400 47.05300 32.92600
H  9.71000 46.10200 34.05400
N  11.61700 47.30900 25.39600
C  12.58400 47.65600 26.35600
C  13.91300 47.61900 25.74300
C  13.64600 47.17400 24.38500
C  12.19500 47.07500 24.22800
C  15.22000 47.97400 26.33300
C  14.64600 46.83500 23.25500
O  14.32500 46.35000 22.09500
C  16.07800 47.07700 23.43900
N  9.22000 46.81400 23.82300
C  10.16900 46.75300 22.78000
C  9.56900 46.41100 21.39000
C  8.05200 46.18200 21.81900
C  7.97300 46.45500 23.25700
C  9.89800 47.40900 20.22700
C  7.59100 44.70100 21.64600
C  8.02400 43.65500 22.68000
N  7.67100 46.79000 26.30100
C  6.57500 46.55100 25.45800
C  5.39100 46.43600 26.19100
C  5.77900 46.56900 27.55900
C  7.23200 46.79700 27.55500
C  3.94600 46.20500 25.59300
C  5.38300 46.50500 28.90000
O  4.29000 46.23900 29.38900
C  6.58100 46.78100 29.83100
C  6.80300 45.65600 30.69100
O  7.45300 44.66700 30.43000
O  6.15000 45.81900 31.84200
C  5.88900 44.58400 32.61600
H  13.19900 48.47900 28.19800
H  12.09300 46.90900 22.08100
H  5.91500 46.23100 23.33200
H  9.21700 48.47300 31.06400
H  11.98300 48.36600 30.40600
H  9.97900 50.55400 30.40400
H  11.05000 50.74900 29.05600
H  11.66500 50.67500 30.58900
H  11.13100 46.16400 31.31000
H  9.49100 45.82900 31.31200
H  9.63800 47.95700 33.08900
H  11.27700 47.16500 33.18500
H  16.00500 47.21800 26.34800
H  15.04500 48.37000 27.33400
H  15.71600 48.76800 25.77500
H  16.11500 48.16200 23.54400
H  16.53900 46.83800 22.48100
H  16.48400 46.61700 24.34000
H  10.11900 45.49300 21.18500
H  7.39800 46.91700 21.34900
H  10.48400 48.25300 20.59100
H  8.99400 47.75100 19.72400
H  10.61400 46.93100 19.55800
H  7.93500 44.29200 20.69600
H  6.50600 44.73800 21.54800
H  8.63700 44.03100 23.49900
H  8.67700 42.94500 22.17300
H  7.08800 43.20400 23.00900
H  3.15000 45.93300 26.28700
H  4.09800 45.24900 25.09200
H  3.58600 47.02300 24.96900
H  6.37100 47.61100 30.50700
H  5.65600 44.70000 33.67500
H  6.84200 44.05600 32.61100
H  5.14700 43.94300 32.14000

