158

Mg 49.03300 34.76400 28.33900
C  47.33100 33.24700 31.03300
C  49.28500 37.61700 30.32000
C  50.28400 36.37000 25.53600
C  48.15200 32.03900 26.28300
N  48.38100 35.32400 30.44400
C  47.82700 34.58300 31.36500
C  48.09200 35.15700 32.77500
C  48.33800 36.67500 32.41800
C  48.75600 36.54700 30.96300
C  47.11300 37.60500 32.82900
C  49.38000 34.46100 33.38300
C  49.42700 34.27800 34.93200
H  48.73900 35.31400 35.85900
N  49.75000 36.65800 27.97700
C  49.81800 37.68000 28.96800
C  50.47700 38.86500 28.40600
C  50.63800 38.61200 27.00300
C  50.17000 37.15400 26.79100
C  50.93900 39.96900 29.30000
C  51.26100 39.49200 25.99100
O  51.46600 39.05600 24.90800
C  51.48400 40.87700 26.28500
N  49.26500 34.28600 26.21100
C  49.93300 35.01500 25.31300
C  50.45100 34.09100 24.16900
C  49.58800 32.82300 24.27100
C  48.98700 33.02700 25.67300
C  50.46200 34.79600 22.75400
C  50.21700 31.43200 24.03100
C  51.50400 31.35700 23.08500
N  47.98000 33.02400 28.56000
C  47.73700 31.97900 27.67100
C  47.01800 30.83200 28.33900
C  46.91200 31.29600 29.68000
C  47.39300 32.62700 29.72500
C  46.74800 29.42800 27.72400
C  46.35300 30.95300 30.97600
O  45.71900 29.98100 31.33400
C  46.47500 32.27800 31.82600
C  46.87900 31.91400 33.19900
O  47.85300 31.22700 33.51400
O  45.93900 32.25500 34.08000
C  46.19600 31.90200 35.49600
H  49.33100 38.52500 30.92500
H  50.80800 36.85600 24.71100
H  48.11400 31.10000 25.72700
H  47.19500 35.04600 33.38500
H  49.17000 37.06900 33.00200
H  47.39400 38.25600 33.65700
H  46.23000 37.03000 33.10700
H  46.82300 38.20500 31.96600
H  50.27000 34.98100 33.02900
H  49.43900 33.50600 32.86200
H  50.49100 34.25300 35.16600
H  49.20300 33.23600 35.16200
H  50.24800 40.80900 29.22700
H  51.93700 40.16900 28.91100
H  51.01000 39.76500 30.36800
H  52.32800 41.13000 26.92500
H  50.59100 41.26400 26.77700
H  51.56500 41.44300 25.35700
H  51.44100 33.82800 24.54300
H  48.74800 32.92000 23.58300
H  51.32600 35.43900 22.58300
H  49.54700 35.38100 22.65600
H  50.40700 34.12500 21.89700
H  49.47800 30.71200 23.68000
H  50.41500 31.06400 25.03800
H  51.21600 30.54100 22.42200
H  52.35200 31.21300 23.75500
H  51.74200 32.26700 22.53400
H  47.02600 28.65300 28.43900
H  47.24900 29.16500 26.79300
H  45.67100 29.30400 27.60300
H  45.46300 32.67900 31.88600
H  46.59900 30.89400 35.59500
H  45.25000 31.92200 36.03600
H  46.93700 32.59700 35.89200
Mg 42.88900 42.26800 26.48900
C  41.80600 44.37500 29.04000
C  44.61400 40.45500 28.87100
C  44.27200 40.61900 24.03300
C  41.51700 44.67500 24.14200
N  43.05200 42.33000 28.75000
C  42.45600 43.21800 29.57800
C  42.68600 42.97500 31.07700
C  43.65000 41.75400 31.02200
C  43.87700 41.51500 29.45700
C  45.01600 41.78500 31.79900
C  41.35200 42.59200 31.67500
C  41.27800 41.95900 33.08100
H  40.32100 42.52700 34.07800
N  44.24400 40.68300 26.47100
C  44.79300 40.04500 27.54500
C  45.50100 38.90700 27.10900
C  45.33300 38.90100 25.63700
C  44.65000 40.11200 25.29200
C  46.28400 38.01500 27.93500
C  45.82700 37.89500 24.60000
O  45.61600 37.97800 23.35400
C  46.66100 36.68000 25.10300
N  43.12100 42.70200 24.42700
C  43.52300 41.69900 23.62500
C  43.34900 42.02200 22.05900
C  42.29300 43.17400 22.19000
C  42.28300 43.53800 23.69600
C  44.60500 42.52900 21.34600
C  40.95000 42.84300 21.57800
C  40.08600 41.86400 22.44300
N  41.95700 44.23300 26.49100
C  41.40300 45.02800 25.51700
C  40.63400 46.11700 26.11100
C  40.80100 45.90800 27.48000
C  41.59700 44.71300 27.65400
C  39.99200 47.23900 25.31700
C  40.45100 46.40300 28.78600
O  39.82300 47.38200 29.16700
C  40.97000 45.41100 29.80700
C  41.79700 46.19200 30.81700
O  42.90600 46.70200 30.62700
O  41.10700 46.17100 31.98700
C  41.65500 46.82000 33.11500
H  44.92500 39.74800 29.64300
H  44.55100 39.99000 23.18500
H  40.97400 45.19100 23.34700
H  43.22500 43.79500 31.55100
H  43.20900 40.85400 31.45000
H  45.17300 42.82000 32.10400
H  45.97100 41.38100 31.46100
H  44.80300 41.25900 32.73000
H  40.66100 42.02800 31.04800
H  40.78900 43.51100 31.83900
H  42.28200 42.05500 33.49500
H  40.99300 40.91000 33.00300
H  46.31700 38.50700 28.90800
H  47.26900 37.72700 27.56900
H  45.77600 37.05900 28.06000
H  47.10500 36.18300 24.24000
H  46.05200 35.95300 25.63900
H  47.56300 37.11200 25.53800
H  42.79900 41.22200 21.56400
H  42.60000 44.06300 21.63900
H  44.86100 43.56300 21.57600
H  44.48400 42.35400 20.27700
H  45.44300 41.94000 21.71800
H  41.12900 42.39700 20.60000
H  40.37700 43.76900 21.62700
H  40.35000 41.91400 23.50000
H  40.10400 40.81000 22.16600
H  39.04900 42.19600 22.50100
H  40.74400 47.94300 24.96000
H  39.26500 47.71400 25.97600
H  39.56900 46.83900 24.39600
H  40.08500 44.98200 30.27800
H  41.89200 46.16900 33.95700
H  40.85200 47.50200 33.39300
H  42.61700 47.32500 33.03200

