158

Mg 0.92600 7.64700 25.74900
C  1.75200 9.46000 28.50100
C  0.62500 4.84600 27.70300
C  -0.01900 6.00000 22.95500
C  1.45600 10.52700 23.70000
N  1.29200 7.24500 27.78700
C  1.50000 8.13300 28.79300
C  1.54400 7.39900 30.19000
C  1.55400 5.92700 29.74500
C  1.11700 5.99800 28.29700
C  2.82800 5.11400 29.85800
C  0.28600 7.86800 30.95500
C  0.33500 8.02900 32.52100
H  1.52500 7.38900 33.23000
N  0.38500 5.64500 25.39000
C  0.23700 4.64600 26.38800
C  -0.44400 3.50600 25.80800
C  -0.55200 3.84400 24.38300
C  -0.09600 5.18500 24.18300
C  -0.76600 2.26700 26.61500
C  -1.20400 2.94900 23.26300
O  -1.31700 3.28000 22.09800
C  -1.57900 1.51700 23.52900
N  0.93100 8.20200 23.59600
C  0.54600 7.25100 22.64100
C  0.46600 7.94300 21.22200
C  1.07500 9.31400 21.46100
C  1.15100 9.40100 22.97700
C  1.19700 7.11800 20.16700
C  0.22800 10.50100 20.87200
C  -0.94400 11.03300 21.75700
N  1.54000 9.59000 26.00500
C  1.56200 10.65600 25.12500
C  1.83500 11.83300 25.95200
C  1.88300 11.46500 27.25300
C  1.67100 10.06100 27.24300
C  2.09300 13.23000 25.39600
C  2.10300 11.84800 28.58100
O  2.40100 12.93300 28.96700
C  1.92800 10.57600 29.44100
C  3.07900 10.65000 30.41600
O  4.20600 10.33700 30.19200
O  2.58100 11.23700 31.56300
C  3.51500 11.16500 32.63000
H  0.49700 4.04700 28.43600
H  -0.41500 5.61100 22.01500
H  1.65700 11.30000 22.95500
H  2.44800 7.85200 30.59800
H  0.70900 5.54800 30.32000
H  3.32800 4.84100 28.92800
H  2.77400 4.16400 30.39000
H  3.51100 5.66600 30.50400
H  -0.42600 7.04700 30.87100
H  0.10800 8.87000 30.56600
H  -0.61300 7.71400 32.95500
H  0.35700 9.09100 32.76600
H  -1.79500 1.97000 26.41100
H  -0.53800 2.39200 27.67400
H  -0.10900 1.42600 26.39900
H  -2.30600 1.41000 24.33400
H  -0.64800 0.97000 23.68100
H  -2.06700 1.19500 22.61000
H  -0.60000 7.93300 20.99300
H  2.10400 9.32900 21.10000
H  0.62000 6.19600 20.08900
H  2.20400 6.84900 20.48500
H  1.15800 7.69700 19.24400
H  -0.24200 10.25400 19.92000
H  0.99900 11.25500 20.71200
H  -1.87100 10.94000 21.19200
H  -0.62700 12.07200 21.84900
H  -1.13200 10.49400 22.68600
H  1.92400 13.18900 24.32000
H  3.02700 13.67500 25.74000
H  1.25000 13.85600 25.69000
H  0.97500 10.73200 29.94600
H  3.81200 10.14400 32.87300
H  3.08500 11.39800 33.60500
H  4.34100 11.83200 32.38600
Mg 36.48700 49.92700 26.00900
C  36.86400 47.84100 28.77400
C  35.64800 52.52800 28.19200
C  36.18700 51.91900 23.36000
C  37.30500 47.20900 23.91400
N  36.07000 50.05400 28.24600
C  36.49700 49.15700 29.14900
C  36.34600 49.67100 30.57800
C  35.93800 51.19500 30.31800
C  35.87100 51.27900 28.80700
C  34.56700 51.63200 30.95400
C  37.73300 49.46700 31.24000
C  37.84100 49.27200 32.72800
H  36.49500 49.10400 33.48600
N  35.92400 51.92900 25.77600
C  35.65200 52.82900 26.79900
C  35.30600 54.13200 26.17000
C  35.44200 53.98900 24.77900
C  35.80100 52.57100 24.55000
C  35.05000 55.35700 27.03000
C  35.36900 55.07500 23.71800
O  35.43900 54.88200 22.48500
C  35.17800 56.56300 24.15000
N  36.75600 49.55500 23.89000
C  36.56800 50.57600 23.04000
C  36.91600 50.09800 21.60200
C  37.34900 48.63600 21.77100
C  37.11300 48.44100 23.27700
C  35.83000 50.24000 20.56000
C  38.85300 48.33300 21.45600
C  39.22800 46.84600 21.07100
N  36.88600 47.91100 26.20900
C  37.14800 46.89800 25.29800
C  37.38200 45.64700 26.03500
C  37.17300 45.98300 27.39700
C  36.88500 47.36500 27.45000
C  37.86800 44.36300 25.44000
C  37.40600 45.44700 28.66900
O  37.78500 44.34600 29.03800
C  37.02800 46.64100 29.71500
C  35.76100 46.11200 30.31200
O  34.66000 46.19200 29.79200
O  36.04900 45.41400 31.49500
C  34.96100 44.84400 32.34300
H  35.43500 53.38800 28.83100
H  36.18200 52.59300 22.50000
H  37.45600 46.35800 23.24600
H  35.55800 49.11200 31.08200
H  36.73000 51.77300 30.79400
H  33.99900 52.29800 30.30500
H  34.83600 52.19000 31.85000
H  33.97000 50.73800 31.13300
H  38.33600 50.35000 31.02400
H  38.33100 48.70300 30.74400
H  38.53300 49.98600 33.17500
H  38.28700 48.27900 32.78200
H  34.03800 55.67100 26.77100
H  35.71600 56.16600 26.72900
H  34.93800 55.24300 28.10800
H  35.00100 57.13100 23.23600
H  36.09700 56.85100 24.66000
H  34.22200 56.65800 24.66500
H  37.80500 50.67700 21.35000
H  36.63000 47.92200 21.36800
H  34.82700 50.28600 20.98600
H  35.73300 49.31100 19.99700
H  35.94100 51.11000 19.91200
H  39.43200 48.70200 22.30200
H  39.07500 49.01900 20.63900
H  39.69700 46.84700 20.08700
H  38.34800 46.21000 20.97300
H  39.82500 46.44500 21.89000
H  36.99000 43.89700 24.99300
H  38.26800 43.74700 26.24500
H  38.63800 44.44800 24.67200
H  37.76100 46.63500 30.52200
H  34.12000 44.43600 31.78200
H  34.74700 45.62300 33.07500
H  35.40700 44.02200 32.90400

