158

Mg 45.01300 4.77500 48.41200
C  42.76100 7.40100 47.77400
C  42.39500 2.52200 47.77800
C  47.24400 2.27600 48.06400
C  47.53700 7.16000 48.31800
N  42.75200 4.99800 47.80100
C  42.13000 6.16900 47.58000
C  40.69300 5.89600 47.16300
C  40.53700 4.34100 47.36300
C  41.98100 3.89900 47.60200
C  39.65100 3.94600 48.55300
C  40.48900 6.31100 45.64100
C  39.32700 7.13300 45.32700
H  38.82200 7.02800 43.89100
N  44.86400 2.69200 48.19600
C  43.70700 1.97900 48.03700
C  44.01100 0.61400 47.94000
C  45.46800 0.44900 48.00700
C  45.91500 1.85200 48.12100
C  43.00500 -0.45700 47.75300
C  46.21700 -0.88000 47.93800
O  45.65400 -2.00200 47.77800
C  47.71700 -0.83000 48.14400
N  47.08000 4.75100 48.38100
C  47.76800 3.55500 48.08100
C  49.31000 3.87200 47.91700
C  49.41400 5.30200 48.35700
C  47.91900 5.80600 48.37300
C  50.15400 2.83700 48.72800
C  50.43300 6.21200 47.52500
C  51.20300 7.27200 48.31400
N  45.21300 6.82200 48.10600
C  46.20700 7.67100 48.21300
C  45.76200 9.03700 48.07300
C  44.43500 8.94800 47.93200
C  44.09600 7.61800 47.93600
C  46.63600 10.21600 48.13500
C  43.24300 9.79600 47.75700
O  43.12400 10.99200 47.81100
C  42.13900 8.83500 47.54600
C  41.13600 9.09400 48.63200
O  41.23000 8.65400 49.77000
O  40.17800 9.97300 48.20000
C  39.22700 10.37700 49.20900
H  41.62800 1.76500 47.60000
H  48.02700 1.59700 47.72100
H  48.22800 7.97500 48.54500
H  40.00800 6.34400 47.88300
H  40.15000 3.78200 46.51100
H  38.88800 4.71400 48.68000
H  40.26300 3.91800 49.45400
H  39.01900 3.08500 48.33400
H  40.49900 5.43000 44.99900
H  41.30400 7.00100 45.42100
H  39.70400 8.14800 45.45700
H  38.45900 6.99300 45.97100
H  43.39100 -1.30000 48.32600
H  42.91700 -0.71100 46.69600
H  42.02400 -0.22800 48.16700
H  47.95500 -1.88900 48.23700
H  48.08300 -0.28200 49.01300
H  48.16300 -0.53500 47.19400
H  49.60500 3.78300 46.87200
H  49.76000 5.26500 49.39000
H  50.92300 2.37100 48.11100
H  49.54700 2.08000 49.22300
H  50.63300 3.32400 49.57800
H  49.80600 6.73100 46.80100
H  51.05600 5.50600 46.97400
H  50.97000 8.27000 47.94200
H  52.28200 7.15100 48.21200
H  51.13900 7.24800 49.40200
H  46.36200 10.59900 49.11800
H  46.47800 10.89200 47.29500
H  47.69800 9.98900 48.22300
H  41.66500 8.99400 46.57700
H  39.34600 11.40600 49.54800
H  39.18900 9.74500 50.09700
H  38.25200 10.36300 48.72100
Mg 56.22200 22.32400 43.48100
C  53.98400 24.47200 42.15600
C  53.85500 19.74100 43.26300
C  58.50600 20.06800 44.32300
C  58.63100 24.83900 43.33800
N  54.14600 22.13900 42.71100
C  53.44600 23.18600 42.27400
C  52.01100 22.73800 42.02300
C  51.86200 21.50500 42.93100
C  53.34800 21.03700 43.01100
C  51.13700 21.68800 44.28900
C  51.72200 22.52900 40.51200
C  50.57600 23.28900 39.93700
H  49.95400 23.02800 38.58100
N  56.19000 20.21700 43.72600
C  55.17100 19.34800 43.53600
C  55.64400 18.01400 43.68200
C  56.95800 18.00500 44.17100
C  57.27400 19.47800 44.10400
C  54.64600 16.87600 43.52300
C  57.85900 16.80500 44.41200
O  57.52800 15.66500 44.06000
C  59.09000 16.93500 45.20500
N  58.32200 22.39300 43.53700
C  59.00800 21.29000 44.00900
C  60.47300 21.66300 44.39600
C  60.54200 23.20400 44.03600
C  59.07300 23.55100 43.55500
C  61.01900 21.39000 45.87500
C  61.72100 23.65100 43.04600
C  63.17900 23.73500 43.63000
N  56.33700 24.37700 42.92300
C  57.37500 25.27300 42.99300
C  56.87800 26.57800 42.67200
C  55.58300 26.34000 42.32000
C  55.28900 24.96200 42.48100
C  57.66300 27.87000 42.77000
C  54.31000 26.98600 41.98100
O  54.05400 28.15300 41.80500
C  53.31600 25.73100 41.63200
C  53.27400 25.69600 40.18300
O  53.90800 25.02100 39.38600
O  52.26600 26.54800 39.70600
C  51.96200 26.49700 38.28800
H  53.10900 18.95500 43.12800
H  59.13900 19.34900 44.84700
H  59.46100 25.54800 43.39000
H  51.23400 23.44800 42.30500
H  51.20500 20.77900 42.45200
H  50.65000 22.65800 44.39200
H  51.83100 21.74200 45.12800
H  50.61200 20.80000 44.64000
H  51.55200 21.52000 40.13500
H  52.64800 22.73500 39.97700
H  50.83700 24.33800 40.07700
H  49.63600 23.05900 40.44000
H  54.94600 15.97500 44.05900
H  54.66600 16.56000 42.48000
H  53.59000 17.04500 43.73100
H  59.90500 17.30300 44.58000
H  59.38100 15.91100 45.43900
H  58.90100 17.60900 46.04100
H  61.14700 21.12100 43.73300
H  60.72100 23.71500 44.98100
H  60.24600 20.91600 46.48000
H  61.32400 22.29500 46.39900
H  61.90500 20.76200 45.78300
H  61.45800 24.62500 42.63400
H  61.84400 22.99500 42.18500
H  63.63600 24.62300 43.19400
H  63.87200 22.98100 43.25300
H  63.14800 23.71600 44.71900
H  56.94000 28.68100 42.86000
H  58.46300 27.94300 42.03300
H  58.12200 27.81500 43.75700
H  52.26800 25.88900 41.88800
H  52.54900 27.26700 37.78800
H  50.89600 26.63500 38.10600
H  52.24700 25.54700 37.83700

