158

Mg 2.56600 8.68500 26.39100
C  2.97400 10.97900 29.16300
C  3.03200 6.17300 28.71600
C  2.86200 6.67100 23.79700
C  2.83400 11.41300 24.25000
N  3.06200 8.61800 28.62400
C  3.07800 9.66800 29.55500
C  3.10800 9.11500 30.98400
C  3.07500 7.64100 30.77100
C  3.07600 7.43400 29.28200
C  4.15100 6.87000 31.50800
C  1.85700 9.63000 31.64400
C  1.42700 9.07100 32.99900
H  2.48800 8.43900 33.85100
N  2.78600 6.65200 26.28800
C  2.92900 5.78900 27.37400
C  2.92200 4.45900 26.77800
C  2.88200 4.51100 25.30700
C  2.81800 6.02400 25.06800
C  3.10700 3.17500 27.51700
C  2.84000 3.34800 24.27900
O  2.61700 3.55200 23.05200
C  3.14000 1.94100 24.66600
N  2.60100 9.01500 24.22900
C  2.79200 7.96800 23.42000
C  2.64500 8.40800 21.98100
C  2.84900 9.98700 22.06200
C  2.83100 10.19500 23.59100
C  3.48100 7.63700 20.90900
C  1.74800 10.87000 21.39100
C  0.33800 10.78100 21.81100
N  2.70200 10.79400 26.55300
C  2.81600 11.75600 25.60900
C  2.96600 13.08100 26.22300
C  2.96400 12.79700 27.62200
C  2.87500 11.40900 27.76500
C  3.16700 14.23400 25.45400
C  3.17500 13.43300 28.90100
O  3.36000 14.65100 29.12100
C  3.23500 12.28200 29.97700
C  4.54800 12.37100 30.55300
O  5.63700 12.51700 29.98500
O  4.44000 12.26200 31.91000
C  5.63600 12.16900 32.71700
H  2.94500 5.36500 29.44500
H  2.99100 5.99100 22.95200
H  3.01400 12.26400 23.59000
H  3.99700 9.48700 31.49500
H  2.08900 7.32200 31.10700
H  4.67400 6.40400 30.67200
H  3.51500 6.29500 32.18100
H  4.89900 7.46700 32.02800
H  1.04800 9.35900 30.96700
H  2.01500 10.70700 31.70000
H  0.64700 8.31500 32.90500
H  0.99900 9.89400 33.57200
H  4.03400 2.65200 27.28000
H  2.29600 2.47600 27.31400
H  3.29000 3.33300 28.58000
H  2.90200 1.30600 23.81300
H  2.38500 1.61900 25.38300
H  4.18000 1.81800 24.96900
H  1.58600 8.25600 21.77200
H  3.85700 10.23300 21.72900
H  4.34200 7.08200 21.28200
H  3.83100 8.32800 20.14200
H  2.87800 6.91800 20.35300
H  1.73800 10.61500 20.33100
H  2.01300 11.92700 21.42500
H  -0.34300 11.02100 20.99500
H  0.15400 11.53100 22.58100
H  0.01100 9.84900 22.27100
H  2.28700 14.68000 24.99100
H  3.90500 14.00100 24.68700
H  3.71300 14.97800 26.03500
H  2.39600 12.40800 30.66100
H  6.06400 13.17000 32.66100
H  6.32500 11.38700 32.39900
H  5.28500 11.98700 33.73300
Mg -5.50400 25.41800 27.36400
C  -3.50900 27.23500 29.62900
C  -6.12300 23.14000 30.00100
C  -6.73500 23.17300 25.16800
C  -4.32500 27.50700 24.89700
N  -4.77100 25.18200 29.53700
C  -4.11300 26.15800 30.22400
C  -4.24000 26.03400 31.74700
C  -4.96700 24.60500 31.91800
C  -5.33200 24.24800 30.41500
C  -3.91600 23.50200 32.48500
C  -5.16800 27.19500 32.35600
C  -4.69800 27.95800 33.61300
H  -5.67200 28.09400 34.83500
N  -6.35900 23.45300 27.56000
C  -6.44300 22.65800 28.72600
C  -7.04800 21.38400 28.28500
C  -7.24100 21.37800 26.93600
C  -6.77700 22.67300 26.47000
C  -7.30800 20.29200 29.31000
C  -7.75300 20.24600 25.95400
O  -7.94500 20.50800 24.77100
C  -8.17800 18.89500 26.49300
N  -5.63800 25.40200 25.37600
C  -6.19900 24.42100 24.68700
C  -6.08200 24.62200 23.17500
C  -5.68000 26.16000 23.13100
C  -5.23500 26.44900 24.58500
C  -5.06400 23.78600 22.41100
C  -6.88000 27.06100 22.77500
C  -6.83400 27.60100 21.35200
N  -4.10700 27.00900 27.14200
C  -3.81000 27.72000 26.11200
C  -2.84200 28.72600 26.50700
C  -2.74300 28.65300 27.89600
C  -3.57000 27.55500 28.24700
C  -2.09200 29.73300 25.65600
C  -2.07100 29.15600 29.06900
O  -1.26800 30.09100 29.22000
C  -2.58200 28.28400 30.28200
C  -1.41700 27.61200 30.98800
O  -0.59800 26.87000 30.40200
O  -1.43400 27.97200 32.34000
C  -0.23600 27.70800 33.10500
H  -6.46400 22.48200 30.80300
H  -7.07200 22.54200 24.34300
H  -4.11300 28.09700 24.00300
H  -3.26300 26.11800 32.22300
H  -5.75900 24.53800 32.66300
H  -3.73300 22.74700 31.72100
H  -4.24200 22.98500 33.38700
H  -2.98800 24.05900 32.61500
H  -6.22900 26.98500 32.49100
H  -5.15000 28.01800 31.64100
H  -4.40900 29.00200 33.49100
H  -3.76500 27.52700 33.97700
H  -8.27900 19.79600 29.29500
H  -7.04100 20.63200 30.31000
H  -6.54900 19.51300 29.24300
H  -7.60500 18.42700 27.29300
H  -8.18400 18.03000 25.82900
H  -9.24000 19.08500 26.65300
H  -6.98800 24.47800 22.58700
H  -4.84600 26.35400 22.45500
H  -4.26100 24.41400 22.02400
H  -5.56300 23.36400 21.53900
H  -4.64200 23.03900 23.08300
H  -6.82900 27.93000 23.43100
H  -7.89600 26.67500 22.86100
H  -5.87600 27.22500 20.99400
H  -6.87000 28.66800 21.12900
H  -7.54200 27.13800 20.66500
H  -1.88800 30.60900 26.27100
H  -2.65600 30.02200 24.77000
H  -1.14700 29.29600 25.33200
H  -3.19100 28.78400 31.03600
H  0.66600 28.20300 32.74400
H  0.04100 26.67100 33.29700
H  -0.52300 28.16100 34.05400

