158

Mg 45.70400 3.50500 48.53600
C  43.76700 6.24300 47.39500
C  42.85600 1.55700 47.85200
C  47.54800 0.74200 48.88400
C  48.42700 5.53500 48.80600
N  43.47200 3.89500 47.66600
C  42.97200 5.06600 47.35100
C  41.53100 4.92800 46.84800
C  41.31800 3.43100 46.98400
C  42.62700 2.88700 47.59100
C  40.07300 3.03800 47.84600
C  41.17900 5.53100 45.43400
C  39.85100 6.26000 45.29600
H  39.07400 6.01300 43.98700
N  45.29000 1.37900 48.34400
C  44.04900 0.83000 48.12200
C  44.21000 -0.64100 48.13000
C  45.59600 -0.89800 48.43700
C  46.23200 0.42200 48.62600
C  43.06500 -1.64600 47.89100
C  46.18100 -2.28800 48.57000
O  45.54300 -3.33800 48.32100
C  47.54300 -2.55300 49.00700
N  47.75300 3.16200 48.65000
C  48.26000 1.92700 48.87100
C  49.74400 2.04900 49.24400
C  50.03800 3.65400 49.26400
C  48.72700 4.16100 48.88600
C  50.21700 1.28500 50.53400
C  51.04600 4.17400 48.22700
C  52.31200 4.96200 48.68900
N  46.11800 5.46300 48.22500
C  47.28500 6.22600 48.41500
C  47.07500 7.54800 48.27000
C  45.67900 7.58200 47.89300
C  45.10600 6.31000 47.88600
C  47.96500 8.68500 48.26300
C  44.59600 8.55400 47.53700
O  44.60900 9.79000 47.42100
C  43.36200 7.68500 47.31800
C  42.22500 8.01300 48.23000
O  41.79900 7.34700 49.17600
O  41.57600 9.23300 47.86500
C  40.44100 9.82900 48.59100
H  42.01500 0.93200 47.54500
H  48.21200 -0.12000 48.96700
H  49.22500 6.25200 49.00600
H  40.97000 5.50000 47.58600
H  41.28200 2.83700 46.07000
H  39.41400 3.90200 47.76100
H  40.45700 2.86200 48.85000
H  39.57900 2.18300 47.38300
H  41.14600 4.75000 44.67400
H  41.98800 6.16200 45.06500
H  40.08100 7.30400 45.50600
H  39.27500 6.09700 46.20700
H  42.50000 -1.36900 47.00100
H  42.34900 -1.63700 48.71300
H  43.40400 -2.67800 47.80000
H  48.27100 -2.19100 48.28100
H  47.59800 -3.63700 49.10400
H  47.76900 -2.04500 49.94500
H  50.30300 1.67200 48.38700
H  50.16300 3.98300 50.29600
H  50.67200 2.01200 51.20700
H  50.96500 0.51100 50.36200
H  49.28200 0.99800 51.01700
H  50.53700 4.73700 47.44500
H  51.60300 3.40100 47.69700
H  52.45200 5.03600 49.76800
H  52.15400 5.96000 48.28000
H  53.25200 4.58000 48.29000
H  47.56300 9.41200 47.55800
H  48.96700 8.38300 47.95800
H  47.97000 9.12400 49.26100
H  43.07300 7.78900 46.27200
H  40.28600 9.21700 49.48100
H  39.49700 9.79100 48.04600
H  40.69900 10.85100 48.86700
Mg 35.31000 48.51200 25.77800
C  35.76600 46.53700 28.70600
C  34.43200 51.12600 27.63700
C  34.69400 50.09700 22.87800
C  36.22800 45.64700 23.98500
N  35.15800 48.76300 27.92000
C  35.50200 47.88200 28.97900
C  35.48600 48.60300 30.31400
C  34.71600 50.01100 29.91500
C  34.79500 50.00300 28.39500
C  33.29200 50.04400 30.44900
C  36.90600 48.78600 31.06100
C  36.88200 48.57500 32.65600
H  35.54900 48.77400 33.38300
N  34.66100 50.35600 25.32400
C  34.40800 51.37100 26.25200
C  34.14000 52.64300 25.58200
C  34.23800 52.32500 24.17800
C  34.58900 50.88600 24.09000
C  33.86800 53.99900 26.42100
C  34.05300 53.25900 22.95800
O  34.20600 52.92600 21.78800
C  33.74400 54.64900 23.26600
N  35.09300 47.87800 23.76500
C  34.87500 48.69600 22.69200
C  34.95800 48.00300 21.31800
C  35.45600 46.55800 21.71700
C  35.60000 46.66600 23.22700
C  33.61600 48.02400 20.57100
C  36.82600 46.12500 21.15000
C  38.05200 46.97900 21.60000
N  35.85700 46.49500 26.17000
C  36.27000 45.44200 25.34000
C  36.69900 44.29100 26.11500
C  36.38400 44.64900 27.42200
C  35.93600 46.00200 27.40400
C  37.38100 43.02200 25.54000
C  36.42900 44.12600 28.77300
O  36.73700 43.04600 29.23600
C  36.04000 45.33200 29.62400
C  34.88600 44.97100 30.57000
O  33.74200 44.71700 30.25800
O  35.37800 44.91100 31.82900
C  34.34300 44.52300 32.83900
H  34.35400 51.99600 28.29300
H  34.61300 50.56200 21.89300
H  36.74600 44.85800 23.43600
H  34.79200 48.10700 30.99300
H  35.38900 50.81000 30.22600
H  32.92500 51.06800 30.37000
H  33.35900 49.85300 31.52000
H  32.76500 49.25300 29.91500
H  37.36000 49.74000 30.79100
H  37.56900 48.05900 30.59300
H  37.34300 49.31700 33.30900
H  37.24000 47.59800 32.97700
H  32.91000 54.50900 26.31700
H  34.70000 54.60700 26.06700
H  34.22400 53.86900 27.44300
H  34.55700 55.11600 23.82200
H  32.83900 54.57600 23.86900
H  33.53000 55.33100 22.44300
H  35.73100 48.51900 20.74800
H  34.74300 45.76200 21.50000
H  32.86700 48.48500 21.21400
H  33.28700 47.02800 20.27200
H  33.75600 48.63600 19.68000
H  36.74400 46.15800 20.06400
H  37.06500 45.09800 21.42400
H  38.45000 46.52100 22.50600
H  37.71600 47.98700 21.84500
H  38.76600 47.02700 20.77800
H  37.70700 43.06700 24.50100
H  36.82700 42.12000 25.80000
H  38.28800 42.89900 26.13200
H  36.95500 45.58200 30.16100
H  34.01800 43.49200 32.69700
H  33.45800 45.14000 32.68200
H  34.70000 44.59800 33.86700

