158

Mg -0.46200 7.00800 27.20900
C  -0.16800 9.30200 29.90600
C  -0.29300 4.50500 29.62000
C  -0.95900 4.94100 24.87100
C  -0.07100 9.69900 25.02500
N  -0.23900 6.90600 29.48200
C  -0.25100 7.95100 30.35100
C  -0.15200 7.51600 31.79800
C  0.03700 5.91600 31.67700
C  -0.15200 5.82200 30.17800
C  1.39400 5.37500 32.16900
C  -1.48100 7.83900 32.54400
C  -1.41700 8.07200 34.06400
H  -0.10600 7.59300 34.76200
N  -0.48300 4.97700 27.21900
C  -0.39700 4.12100 28.25000
C  -0.47700 2.75200 27.80900
C  -0.78800 2.82000 26.40400
C  -0.79100 4.29000 26.10600
C  -0.41600 1.57400 28.75100
C  -1.13700 1.81000 25.42400
O  -1.38300 2.02600 24.28000
C  -1.17600 0.32300 25.87100
N  -0.49800 7.35700 25.26900
C  -0.77600 6.28300 24.44500
C  -0.88600 6.71600 22.94800
C  -0.89300 8.31400 23.09000
C  -0.52900 8.47900 24.54000
C  0.14100 6.16400 21.94100
C  -2.13900 9.06900 22.67700
C  -2.45100 9.00900 21.10800
N  -0.16100 9.14700 27.34900
C  -0.04900 10.10700 26.37700
C  0.12900 11.42700 26.95200
C  0.04300 11.16900 28.40200
C  -0.04800 9.80200 28.58300
C  0.34200 12.62400 26.15300
C  0.13400 11.71800 29.75500
O  0.50000 12.80200 30.03800
C  0.01900 10.46400 30.80400
C  1.21800 10.44500 31.70400
O  2.38300 10.22000 31.36700
O  0.83900 10.93000 32.99500
C  1.84800 11.16000 34.05800
H  -0.39800 3.68700 30.33500
H  -1.14700 4.25900 24.03900
H  -0.10800 10.53000 24.31700
H  0.73700 7.93300 32.27200
H  -0.70500 5.43600 32.31600
H  2.01500 6.17200 32.58000
H  2.06100 4.94100 31.42400
H  1.28200 4.62700 32.95400
H  -2.20300 7.02800 32.44700
H  -1.89600 8.70900 32.03500
H  -2.20600 7.56000 34.61600
H  -1.51700 9.15500 34.13900
H  -1.34800 1.03400 28.91800
H  0.00100 1.83800 29.72300
H  0.34600 0.93300 28.30800
H  -2.09600 0.08800 26.40600
H  -0.33800 -0.19100 26.34300
H  -1.26600 -0.28500 24.97100
H  -1.77900 6.23000 22.55200
H  -0.03800 8.64500 22.50100
H  0.17000 6.96700 21.20400
H  -0.31700 5.28600 21.48600
H  1.12700 5.83000 22.26500
H  -1.99500 10.09900 23.00300
H  -3.02400 8.67500 23.17600
H  -1.84700 8.41600 20.42000
H  -2.41900 10.06900 20.85600
H  -3.47400 8.64900 21.00100
H  1.03300 12.47000 25.32400
H  0.74300 13.41400 26.78800
H  -0.58800 12.94800 25.68600
H  -0.90500 10.59500 31.36900
H  2.67700 10.46500 34.19300
H  1.23100 11.27900 34.94900
H  2.28900 12.11200 33.76200
Mg 24.19600 -4.50700 45.79700
C  26.43400 -2.15500 44.24900
C  21.67100 -3.07500 43.90400
C  22.31100 -7.30100 46.27500
C  27.03600 -6.03600 47.07800
N  24.14200 -2.89500 44.28800
C  25.09700 -2.01000 43.88100
C  24.57200 -0.93600 42.93200
C  23.06600 -1.07300 43.25100
C  22.92000 -2.43000 43.88700
C  22.48700 0.18900 44.08300
C  25.03400 -1.14900 41.46500
C  25.96700 -0.22600 40.61500
H  25.65600 -0.30700 39.17200
N  22.16100 -5.02400 45.35500
C  21.32100 -4.30300 44.55800
C  20.06700 -4.97900 44.48800
C  20.15700 -6.19200 45.21200
C  21.61800 -6.23700 45.65400
C  18.95800 -4.40500 43.75200
C  18.96900 -7.19300 45.39600
O  17.82700 -6.89100 45.04200
C  19.13100 -8.47700 46.17200
N  24.59800 -6.38600 46.53400
C  23.67000 -7.38500 46.74800
C  24.35400 -8.61500 47.42400
C  25.77500 -8.12800 47.75500
C  25.80900 -6.74900 47.10200
C  23.68900 -9.39500 48.69100
C  26.89000 -9.19600 47.43000
C  27.57900 -9.88200 48.61100
N  26.31700 -4.04000 45.93300
C  27.28400 -4.81200 46.47700
C  28.55400 -4.06300 46.34100
C  28.24900 -3.00100 45.48900
C  26.88800 -3.10200 45.25100
C  29.92200 -4.52500 46.87800
C  28.88100 -1.91700 44.72400
O  30.02300 -1.49600 44.65200
C  27.60200 -1.32800 43.96300
C  27.39500 0.13600 44.34400
O  27.00900 0.61300 45.42100
O  27.57900 0.83600 43.19200
C  27.10600 2.23100 43.15300
H  20.87200 -2.51700 43.41000
H  21.81100 -8.26300 46.40700
H  27.94000 -6.49900 47.47900
H  25.05300 -0.01600 43.26300
H  22.51900 -1.09500 42.30900
H  23.29000 0.75200 44.55900
H  21.89500 -0.15900 44.92900
H  21.91100 0.76600 43.36000
H  24.19600 -1.37600 40.80700
H  25.53000 -2.12000 41.44800
H  26.97400 -0.61800 40.76200
H  25.95700 0.82100 40.91800
H  19.29500 -3.92300 42.83400
H  18.34600 -3.79100 44.41300
H  18.47600 -5.32700 43.42700
H  19.80600 -9.11700 45.60300
H  18.23400 -9.07000 46.35000
H  19.62200 -8.22800 47.11200
H  24.34900 -9.37100 46.63800
H  25.89500 -7.85000 48.80200
H  23.71100 -10.47000 48.51100
H  22.64700 -9.10500 48.82800
H  24.30500 -9.20600 49.57100
H  27.56500 -8.75800 46.69400
H  26.35100 -9.96000 46.87000
H  27.49800 -9.39000 49.58000
H  28.64100 -9.99100 48.39200
H  27.11500 -10.86800 48.63200
H  30.15900 -5.51000 46.47600
H  29.88500 -4.39000 47.95900
H  30.64100 -3.80000 46.49500
H  27.96200 -1.43900 42.94000
H  26.30400 2.43500 43.86300
H  26.92400 2.47800 42.10700
H  27.98900 2.82000 43.40300

