158

Mg 46.32000 24.83500 28.23500
C  47.32400 26.91300 30.95900
C  45.57900 22.42900 30.55800
C  46.36100 22.65900 25.76500
C  47.38200 27.43400 26.10800
N  46.32400 24.77400 30.47900
C  46.71300 25.74100 31.34600
C  46.25800 25.35600 32.81600
C  45.88500 23.83900 32.68000
C  45.92300 23.65200 31.14200
C  46.88000 22.81300 33.32700
C  45.22700 26.32900 33.48600
C  45.54800 27.01100 34.80500
H  44.49800 27.08700 35.92900
N  45.94100 22.87700 28.20700
C  45.57800 22.03600 29.22300
C  45.18300 20.77900 28.67600
C  45.45600 20.76700 27.26600
C  46.00200 22.16800 27.00500
C  44.53600 19.66200 29.44400
C  45.11600 19.69000 26.19500
O  45.32200 19.85300 25.02400
C  44.59400 18.41000 26.58600
N  46.77600 25.02500 26.23700
C  46.72600 23.97200 25.37300
C  47.23900 24.36200 23.95800
C  47.21300 25.92500 24.05300
C  47.14600 26.16900 25.53500
C  48.57300 23.81400 23.39400
C  46.06600 26.61100 23.24000
C  46.46700 27.59800 22.18600
N  47.17300 26.74400 28.37100
C  47.53300 27.74600 27.46800
C  48.17800 28.85200 28.06100
C  47.97300 28.57800 29.47300
C  47.47200 27.24700 29.60700
C  48.91600 29.91200 27.38400
C  48.26800 29.14600 30.77300
O  48.86600 30.18600 30.99400
C  47.73900 28.10800 31.90700
C  48.95100 27.77100 32.75200
O  50.12900 27.63700 32.37000
O  48.59400 27.64800 34.08900
C  49.52500 27.29200 35.12500
H  45.29100 21.66700 31.28600
H  46.34900 21.90500 24.97500
H  47.65200 28.14200 25.32200
H  47.12000 25.36900 33.48200
H  44.85300 23.67300 32.99000
H  47.02000 23.18800 34.34100
H  47.82200 22.87700 32.78300
H  46.56700 21.77600 33.45000
H  44.31600 25.73900 33.58900
H  45.06500 27.12900 32.76400
H  45.77600 28.07000 34.68200
H  46.38400 26.48200 35.26300
H  45.04900 18.70900 29.31600
H  43.48100 19.52500 29.20600
H  44.51600 19.93000 30.50000
H  45.26000 17.88200 27.26800
H  44.31500 17.75600 25.76000
H  43.69800 18.71300 27.12800
H  46.57500 24.07600 23.14300
H  48.09800 26.47100 23.72600
H  48.42200 23.49800 22.36200
H  49.01000 23.03300 24.01500
H  49.34200 24.58600 23.36800
H  45.29900 27.04600 23.88100
H  45.55700 25.85600 22.64200
H  47.51000 27.53300 21.87700
H  46.26100 28.57200 22.63200
H  45.84900 27.46500 21.29800
H  49.11200 29.72000 26.32900
H  49.92800 30.02500 27.77200
H  48.39300 30.86100 27.50400
H  46.90600 28.49800 32.49200
H  49.62500 28.16300 35.77200
H  50.51000 27.12500 34.68900
H  49.17900 26.44100 35.71100
Mg 41.36300 41.13400 27.20400
C  40.59200 43.54700 29.45200
C  42.32400 38.97700 29.67200
C  42.02200 38.83900 24.72300
C  40.72900 43.60500 24.69800
N  41.40800 41.28900 29.21000
C  41.00500 42.33200 30.00700
C  41.00700 41.98000 31.47900
C  41.61400 40.58100 31.51100
C  41.89000 40.25000 29.99800
C  42.83700 40.45700 32.47100
C  39.73100 42.21900 32.35500
C  39.78500 43.32200 33.35700
H  39.13600 43.01400 34.73700
N  42.09000 39.14500 27.21000
C  42.43600 38.45200 28.34000
C  42.79600 37.07800 27.90300
C  42.64200 37.02200 26.45700
C  42.26000 38.41300 26.06700
C  43.24200 36.00900 28.93600
C  42.81100 35.84500 25.53500
O  42.44300 35.92800 24.34200
C  43.24500 34.47500 26.09600
N  41.57700 41.26500 25.00100
C  41.66900 40.10700 24.22900
C  41.31300 40.43600 22.70400
C  40.64200 41.79800 22.84200
C  40.95800 42.26200 24.25600
C  42.60100 40.40000 21.80400
C  39.08800 41.92300 22.70200
C  38.31500 40.87700 23.32100
N  40.92300 43.17100 27.00900
C  40.80500 44.05300 25.92800
C  40.67200 45.37900 26.41000
C  40.44200 45.23500 27.82200
C  40.71400 43.90000 28.11700
C  40.46600 46.65400 25.71500
C  40.08000 45.89700 29.09900
O  39.70300 47.04300 29.35700
C  40.26500 44.85700 30.17500
C  41.36000 45.43500 30.97000
O  42.58500 45.27800 30.92400
O  40.83500 46.11200 32.08100
C  41.77000 46.83100 32.97400
H  42.51300 38.40000 30.57900
H  42.29300 38.17900 23.89700
H  40.32000 44.28700 23.94900
H  41.78300 42.58700 31.94500
H  40.96700 39.89000 32.05200
H  43.16300 39.41700 32.48300
H  42.60600 40.83000 33.46900
H  43.62500 41.13700 32.14800
H  39.52300 41.27500 32.85800
H  38.87500 42.47600 31.73000
H  39.09600 44.09100 33.00900
H  40.72600 43.85700 33.48400
H  42.82100 36.20100 29.92200
H  44.32300 36.13800 28.87400
H  42.99200 35.00300 28.59900
H  44.10600 34.63700 26.74400
H  43.53500 33.75300 25.33300
H  42.38700 33.97500 26.54600
H  40.62400 39.73100 22.23700
H  41.14500 42.55400 22.23800
H  42.45400 39.73400 20.95400
H  43.51000 40.15200 22.35200
H  42.81500 41.39400 21.41100
H  39.09200 41.66500 21.64300
H  38.82800 42.97300 22.83800
H  39.00500 40.16100 23.76700
H  37.68300 40.39600 22.57500
H  37.72100 41.41400 24.06100
H  39.52000 46.73100 25.17900
H  41.24900 46.77000 24.96500
H  40.61700 47.50600 26.37800
H  39.34900 44.70600 30.74700
H  42.58800 47.33000 32.45500
H  42.25000 46.11000 33.63500
H  41.17200 47.48600 33.60800

