158

Mg -1.63600 17.13700 25.80800
C  -1.97900 14.81600 28.49100
C  -2.26900 19.60600 28.06500
C  -1.66100 19.48900 23.31200
C  -1.43200 14.67000 23.56200
N  -2.29200 17.15400 28.07100
C  -2.24500 16.11500 28.91300
C  -2.72500 16.53800 30.33300
C  -2.84700 18.13000 30.23300
C  -2.45400 18.36600 28.71600
C  -4.16500 18.72500 30.71700
C  -2.02800 15.97500 31.57500
C  -2.12600 16.70500 32.90000
H  -2.03200 15.99900 34.24100
N  -1.78000 19.18300 25.71800
C  -1.93000 20.02800 26.80900
C  -1.86700 21.41600 26.44400
C  -1.66500 21.38600 25.02100
C  -1.74300 19.94600 24.62500
C  -2.14200 22.60100 27.35200
C  -1.61800 22.59700 24.04100
O  -1.56600 22.61300 22.83700
C  -1.59000 23.94500 24.68700
N  -1.62800 17.03700 23.71300
C  -1.52100 18.13400 22.90600
C  -1.42800 17.68700 21.48100
C  -1.02600 16.12800 21.64400
C  -1.34700 15.95900 23.05000
C  -2.75300 17.96800 20.75500
C  0.44200 15.73300 21.21200
C  1.63200 16.36000 22.01000
N  -1.64200 15.19400 25.95500
C  -1.52700 14.21400 24.90400
C  -1.65800 12.89500 25.57400
C  -1.76200 13.09100 26.93500
C  -1.77000 14.49400 27.14200
C  -1.80800 11.59900 24.82900
C  -1.82600 12.38700 28.15600
O  -1.74100 11.19800 28.41900
C  -1.92100 13.50300 29.27500
C  -0.92000 13.39100 30.37700
O  0.25700 13.71000 30.36100
O  -1.54200 12.76100 31.44100
C  -0.75700 12.28400 32.52900
H  -2.22400 20.34400 28.86900
H  -1.50700 20.22600 22.52200
H  -1.35100 13.87000 22.82300
H  -3.75200 16.17500 30.35900
H  -2.06800 18.60100 30.83300
H  -4.65300 19.17100 29.85000
H  -3.92000 19.47200 31.47200
H  -4.75800 17.94600 31.19500
H  -0.98800 15.77900 31.31300
H  -2.55200 15.03500 31.74900
H  -2.91900 17.44800 32.98300
H  -1.24200 17.34100 32.85700
H  -2.98200 23.15400 26.93100
H  -1.23700 23.20500 27.41900
H  -2.49300 22.36300 28.35600
H  -2.54100 24.29800 25.08700
H  -1.37400 24.61700 23.85600
H  -0.89900 24.01500 25.52700
H  -0.55300 18.21300 21.09800
H  -1.69700 15.46900 21.09400
H  -3.30400 17.03300 20.64900
H  -2.57700 18.48800 19.81300
H  -3.36900 18.62600 21.36700
H  0.60000 15.96300 20.15800
H  0.62800 14.66300 21.29900
H  2.37900 15.65300 22.37000
H  1.21300 16.85800 22.88500
H  2.19000 17.09300 21.42700
H  -1.93400 11.92300 23.79600
H  -2.65400 11.02200 25.20200
H  -0.83200 11.12500 24.93100
H  -2.86900 13.53000 29.81100
H  -0.55800 13.14800 33.16200
H  0.16800 11.85600 32.14200
H  -1.28500 11.52100 33.10100
Mg 26.52500 -0.05500 28.29700
C  28.23600 -0.29500 31.31700
C  23.57500 0.20600 30.09100
C  25.03200 -0.53300 25.48300
C  29.66500 -0.72100 26.59500
N  25.98900 -0.20100 30.50100
C  26.82500 -0.17000 31.46100
C  26.10100 -0.01000 32.82700
C  24.61200 0.19300 32.42100
C  24.72800 0.03500 30.90400
C  23.63900 -0.83600 33.15700
C  26.63300 1.14500 33.78300
C  25.68400 1.75200 34.87400
H  26.22900 2.31800 36.23200
N  24.58000 -0.09300 27.83100
C  23.51100 0.12100 28.66900
C  22.32300 0.01600 27.90600
C  22.66200 -0.17700 26.52200
C  24.17300 -0.41800 26.55200
C  20.86700 0.04600 28.50200
C  21.95900 -0.14300 25.14900
O  22.42000 -0.52600 24.10000
C  20.60800 0.38800 25.26100
N  27.30700 -0.32100 26.32300
C  26.44800 -0.50600 25.32300
C  27.09600 -0.58600 23.88800
C  28.55800 -0.31300 24.30500
C  28.57200 -0.48700 25.81200
C  26.94000 -1.98800 23.31200
C  29.03300 1.11100 23.85000
C  29.71300 1.22600 22.47900
N  28.48600 -0.40400 28.80100
C  29.63800 -0.72200 28.03000
C  30.78900 -0.84900 28.87600
C  30.32900 -0.65700 30.17500
C  28.94100 -0.45800 30.07500
C  32.22300 -1.07700 28.49000
C  30.69200 -0.48800 31.52200
O  31.80200 -0.51900 32.04000
C  29.34200 -0.08900 32.33100
C  29.35900 -0.88800 33.57400
O  29.14500 -2.10400 33.67400
O  29.65300 -0.03600 34.63900
C  29.53000 -0.53800 36.02100
H  22.61900 0.26400 30.61500
H  24.72500 -0.56500 24.43500
H  30.52700 -0.89400 25.94600
H  26.31000 -0.92600 33.38000
H  24.40400 1.24600 32.61300
H  23.08900 -0.28600 33.92100
H  24.24500 -1.63100 33.59300
H  22.93200 -1.24700 32.43700
H  26.85600 2.02300 33.17700
H  27.48100 0.80000 34.37400
H  24.78500 1.13800 34.92600
H  25.29700 2.62400 34.34700
H  20.21500 0.90600 28.35100
H  20.84400 -0.28800 29.53900
H  20.29300 -0.74200 28.01400
H  20.06300 -0.41400 25.75900
H  20.14300 0.60400 24.30000
H  20.48700 1.24600 25.92200
H  26.60100 0.05100 23.15600
H  29.25700 -1.04800 23.90600
H  26.57100 -1.99300 22.28700
H  26.37500 -2.68700 23.93000
H  27.88300 -2.51400 23.16400
H  29.68600 1.60200 24.57100
H  28.18600 1.79200 23.76800
H  29.09100 0.96700 21.62300
H  30.49600 0.47300 22.56500
H  30.02500 2.24400 22.24300
H  32.86700 -0.20600 28.61100
H  32.32200 -1.35000 27.43900
H  32.54000 -1.90100 29.12900
H  29.39600 0.98400 32.51000
H  28.90100 0.19500 36.52600
H  30.53200 -0.40200 36.42700
H  29.10000 -1.53400 36.13700

