158

Mg 49.84700 35.71900 26.12600
C  47.88700 34.41500 28.78400
C  49.88700 38.71100 27.96400
C  51.21300 37.17000 23.53300
C  48.79300 33.03900 24.15600
N  49.26800 36.39900 28.24400
C  48.63800 35.60200 29.15200
C  48.52700 36.34500 30.51800
C  48.81300 37.82200 30.14600
C  49.31100 37.63600 28.71100
C  47.55800 38.72300 30.24900
C  49.48400 35.66900 31.45500
C  49.11800 35.45900 33.01400
H  47.89400 36.27700 33.55100
N  50.54200 37.67900 25.84500
C  50.47700 38.75300 26.70300
C  51.11300 39.87600 26.09100
C  51.69300 39.45500 24.83700
C  51.18800 38.04500 24.69900
C  51.16500 41.26400 26.87300
C  52.56200 40.21700 23.92500
O  53.01700 39.81700 22.85900
C  53.02400 41.55900 24.31400
N  49.88200 35.21000 24.13000
C  50.57600 35.93700 23.23500
C  50.65900 35.24500 21.84000
C  50.00500 33.84300 22.13200
C  49.47200 34.05100 23.55200
C  50.03100 36.07800 20.77200
C  51.07400 32.65500 22.07100
C  50.92700 31.60000 21.04800
N  48.70000 34.04600 26.37400
C  48.38200 33.01400 25.53400
C  47.52400 32.02600 26.17100
C  47.31500 32.52500 27.46200
C  48.03700 33.75600 27.57100
C  46.84800 30.83900 25.54100
C  46.56800 32.28700 28.63000
O  45.94200 31.30400 28.93700
C  46.82400 33.58200 29.49800
C  47.37400 33.07600 30.70800
O  48.33300 32.39400 30.88800
O  46.32300 33.25900 31.65800
C  46.30600 32.50900 32.84100
H  49.88800 39.65200 28.51900
H  51.84900 37.71100 22.82900
H  48.45500 32.25500 23.47400
H  47.56400 36.22000 31.01300
H  49.51100 38.34100 30.80300
H  47.16500 38.99400 29.26900
H  47.76200 39.62400 30.82700
H  46.71800 38.21100 30.71700
H  50.39200 36.27200 31.48000
H  49.68800 34.71900 30.96200
H  49.91900 35.77400 33.68200
H  48.94800 34.40100 33.21200
H  52.15600 41.70600 26.97600
H  50.90200 41.09400 27.91700
H  50.49400 41.92100 26.32000
H  52.23100 42.27700 24.52500
H  53.49100 41.96400 23.41600
H  53.83100 41.67800 25.03600
H  51.67700 35.07500 21.49000
H  49.22000 33.64900 21.40100
H  50.18500 37.14300 20.94300
H  48.95200 36.01100 20.91300
H  50.32300 35.72000 19.78500
H  51.11800 32.19500 23.05700
H  52.07900 33.07200 22.01500
H  51.29000 30.62500 21.37300
H  51.70100 31.85400 20.32400
H  49.88100 31.56400 20.74100
H  45.75800 30.80400 25.52800
H  47.19400 29.92900 26.03200
H  47.05700 30.87000 24.47200
H  45.98000 34.23500 29.71800
H  45.77600 31.57200 32.66900
H  45.78000 33.00100 33.65900
H  47.29200 32.18300 33.17300
Mg 36.33200 49.40800 25.54800
C  36.18800 47.35800 28.35800
C  34.98500 51.95600 27.48300
C  35.81200 51.25300 22.76200
C  36.84400 46.66000 23.60600
N  35.67300 49.59700 27.68900
C  35.88500 48.69500 28.68300
C  35.70800 49.31700 30.06400
C  35.03700 50.68900 29.74100
C  35.18100 50.76200 28.24200
C  33.64600 50.93800 30.27000
C  37.13100 49.41500 30.81900
C  37.17700 49.98200 32.25500
H  35.94200 49.86900 33.05600
N  35.70400 51.41600 25.16600
C  35.28300 52.27600 26.13500
C  34.84500 53.49700 25.52200
C  35.13200 53.39900 24.11800
C  35.58700 52.02000 23.91300
C  34.24400 54.72600 26.28500
C  34.99100 54.31900 22.93900
O  35.04000 53.91100 21.77000
C  34.66300 55.77900 23.07800
N  36.37800 49.03800 23.47700
C  36.09000 49.93300 22.49600
C  36.29800 49.39900 21.15200
C  36.98800 48.07900 21.43700
C  36.67300 47.84300 22.93200
C  34.92100 49.23500 20.32600
C  38.56100 47.97700 21.26000
C  38.95700 47.68400 19.78000
N  36.62400 47.33800 25.90900
C  36.80900 46.37600 24.98200
C  37.13600 45.08500 25.67700
C  36.91400 45.45200 27.06200
C  36.49700 46.81600 27.08100
C  37.54900 43.72300 25.07300
C  36.98600 44.90000 28.41900
O  37.25400 43.77200 28.85000
C  36.58700 46.23000 29.29000
C  35.58500 45.78400 30.29800
O  34.48100 45.28600 29.95700
O  35.99100 45.99500 31.60900
C  35.01500 45.57800 32.63400
H  34.60900 52.80300 28.06100
H  35.70700 51.80600 21.82600
H  37.07000 45.79800 22.97500
H  35.04100 48.59000 30.52500
H  35.61800 51.45100 30.26200
H  33.26100 50.06800 30.80200
H  32.96800 51.06800 29.42600
H  33.58400 51.81500 30.91500
H  37.77200 50.04000 30.19600
H  37.59700 48.43000 30.81000
H  37.57300 50.99400 32.16700
H  37.90700 49.33900 32.74600
H  34.08900 55.64600 25.72200
H  34.90600 54.95600 27.11900
H  33.31100 54.29900 26.65400
H  33.69100 56.00000 23.51800
H  34.73600 56.28000 22.11300
H  35.52300 56.16300 23.62700
H  37.04600 49.99500 20.62900
H  36.60600 47.34900 20.72400
H  34.12500 48.86400 20.97100
H  35.03000 48.48000 19.54700
H  34.68100 50.21600 19.91500
H  39.07100 47.22600 21.86300
H  39.05100 48.89800 21.57600
H  38.18000 47.17100 19.21400
H  39.85900 47.07500 19.73400
H  39.12100 48.63800 19.27800
H  37.16100 43.71700 24.05400
H  37.01300 42.98300 25.66800
H  38.63100 43.59700 25.02600
H  37.47200 46.39900 29.90400
H  34.94500 44.50600 32.81400
H  33.99700 45.94800 32.50900
H  35.38400 45.95700 33.58700

