158

Mg 46.81500 34.99000 28.39200
C  45.23100 32.91100 30.80900
C  47.12000 37.43200 30.72500
C  47.91500 37.00100 25.96000
C  46.23600 32.49100 25.98900
N  46.27400 35.15200 30.47600
C  45.69800 34.17900 31.29100
C  45.87700 34.54000 32.80500
C  46.09600 36.10400 32.66200
C  46.53300 36.24700 31.16500
C  44.85300 36.87100 33.11100
C  47.19600 33.79200 33.27000
C  47.38200 33.76300 34.79400
H  46.41200 34.55300 35.61700
N  47.49400 37.03100 28.39500
C  47.60500 37.84300 29.48200
C  48.27600 39.12200 29.11800
C  48.48600 38.95300 27.70900
C  47.91700 37.61800 27.29200
C  48.61500 40.24200 30.04900
C  49.04500 40.03800 26.70000
O  49.19900 39.82300 25.54300
C  49.51000 41.43600 27.16300
N  47.00700 34.78100 26.22500
C  47.55000 35.72800 25.45300
C  47.78400 35.25500 23.98600
C  47.36300 33.77800 24.07300
C  46.84300 33.67100 25.53600
C  46.99600 36.02800 22.84600
C  48.46100 32.66300 23.71000
C  48.13300 31.84600 22.47400
N  46.03500 33.07700 28.30200
C  45.84200 32.18700 27.29200
C  45.09800 30.99600 27.73500
C  44.79500 31.20900 29.05700
C  45.38500 32.46900 29.42100
C  44.69900 29.90700 26.78500
C  44.02500 30.72400 30.29600
O  43.27000 29.76300 30.47200
C  44.17100 31.89500 31.33800
C  44.57500 31.34900 32.70400
O  45.51800 30.63000 32.96300
O  43.51600 31.66500 33.55800
C  43.66000 31.19700 34.99400
H  47.36700 38.09400 31.55700
H  48.31100 37.65500 25.18000
H  46.03200 31.66300 25.30700
H  45.07200 34.28400 33.49400
H  46.90700 36.31400 33.35900
H  44.95200 37.65500 33.86300
H  44.21900 36.17400 33.65800
H  44.36400 37.36500 32.27200
H  48.01600 34.42700 32.93500
H  47.20000 32.78600 32.85100
H  48.40800 34.08900 34.96200
H  47.27200 32.75200 35.18500
H  48.20900 41.22000 29.79300
H  49.69000 40.42100 30.00900
H  48.47200 40.01700 31.10600
H  48.77800 42.20600 26.91800
H  50.43700 41.61900 26.62000
H  49.82400 41.52100 28.20300
H  48.87300 35.27000 23.94300
H  46.46200 33.63100 23.47800
H  46.82300 37.08900 23.02400
H  46.08900 35.64400 22.38000
H  47.74300 36.12600 22.05800
H  48.75600 32.02900 24.54600
H  49.40000 33.20100 23.57500
H  47.25000 32.10300 21.88900
H  48.13600 30.80300 22.79400
H  49.03900 31.95200 21.87800
H  44.86500 29.00900 27.37900
H  45.26900 29.83600 25.85800
H  43.63700 29.96200 26.54700
H  43.18900 32.35600 31.44600
H  44.23800 30.28200 35.12000
H  42.67400 30.87100 35.32700
H  43.98100 31.97100 35.69000
Mg 30.01000 58.95000 39.57200
C  26.98300 57.29500 38.31900
C  31.68200 56.02500 38.56200
C  32.74800 60.67200 39.58100
C  28.00300 62.04800 39.40400
N  29.37500 57.05900 38.32100
C  28.13600 56.53200 38.04300
C  28.25500 55.18300 37.37900
C  29.73200 54.71200 37.76200
C  30.28000 56.02500 38.26900
C  29.80100 53.40800 38.59700
C  27.99500 55.26100 35.81000
C  26.72900 54.58600 35.32500
H  25.82800 55.32400 34.38500
N  31.91400 58.40700 39.38900
C  32.42400 57.12500 39.04000
C  33.82900 57.21300 39.11000
C  34.20500 58.60300 39.44500
C  32.95400 59.29600 39.59400
C  34.72200 56.03200 38.64600
C  35.61600 59.06600 39.47100
O  36.54000 58.21600 39.31600
C  36.15100 60.49300 39.82500
N  30.30400 61.08300 39.75800
C  31.61100 61.45200 39.54500
C  31.61400 62.99400 39.40200
C  30.15400 63.43800 39.15700
C  29.43800 62.17400 39.49700
C  32.30700 63.67700 40.57200
C  29.82200 63.96800 37.65000
C  29.07000 65.34100 37.58000
N  27.89600 59.55700 39.33500
C  27.27400 60.80700 39.29000
C  25.81100 60.59800 39.06700
C  25.67600 59.20100 38.81800
C  27.00200 58.64800 38.81900
C  24.74600 61.62800 39.08200
C  24.73800 58.16000 38.43100
O  23.56200 58.16200 38.30200
C  25.56500 56.78000 38.07300
C  25.15600 55.71800 39.01800
O  25.35000 55.72500 40.23200
O  24.43000 54.76400 38.34500
C  23.90200 53.76400 39.24200
H  32.28500 55.18300 38.21400
H  33.66000 61.26900 39.51700
H  27.42300 62.97300 39.35600
H  27.52500 54.55700 37.89300
H  30.24600 54.48800 36.82600
H  28.85100 52.90700 38.78500
H  30.37500 53.70900 39.47300
H  30.39600 52.65200 38.08500
H  28.85900 54.90600 35.24900
H  27.93200 56.30100 35.48900
H  26.17000 54.23600 36.19300
H  26.96300 53.64500 34.82800
H  34.27000 55.38400 37.89600
H  34.88900 55.55300 39.61100
H  35.61300 56.40700 38.14100
H  37.24000 60.48300 39.85700
H  35.68600 60.97300 40.68600
H  35.97200 60.99500 38.87400
H  32.15100 63.23700 38.48600
H  29.90100 64.24800 39.84000
H  31.66900 63.71900 41.45500
H  32.46800 64.71700 40.29100
H  33.24200 63.19700 40.85900
H  29.30500 63.16500 37.12600
H  30.77000 64.01400 37.11300
H  28.11200 65.28700 38.09800
H  28.91100 65.66700 36.55200
H  29.62900 66.08100 38.15200
H  24.05500 61.24200 38.33200
H  25.20300 62.59600 38.87900
H  24.35200 61.67700 40.09700
H  25.33000 56.53700 37.03700
H  24.74200 53.22800 39.68400
H  23.29900 53.08200 38.64200
H  23.24100 54.19500 39.99500

