158

Mg -2.79100 17.44400 26.80800
C  -2.88400 15.61300 29.80200
C  -3.60000 20.23300 28.68300
C  -2.95300 19.09300 23.95200
C  -3.01800 14.40600 24.93300
N  -3.22700 17.77300 28.98600
C  -3.07300 16.92400 30.03900
C  -3.34000 17.57600 31.41500
C  -3.88100 19.02900 30.96200
C  -3.55700 19.06300 29.41000
C  -5.32300 19.29800 31.40300
C  -2.06800 17.71300 32.37500
C  -2.32500 17.87600 33.86100
H  -1.09200 17.61800 34.73000
N  -3.18700 19.40500 26.39600
C  -3.27900 20.46000 27.29100
C  -3.33600 21.70000 26.53100
C  -3.07300 21.40700 25.16400
C  -3.01900 19.91700 25.12300
C  -3.56700 23.06400 27.16600
C  -2.79700 22.33400 23.96600
O  -2.51200 21.92400 22.85900
C  -3.02700 23.75300 24.08500
N  -2.94000 16.85300 24.73300
C  -2.97500 17.78000 23.77600
C  -3.03500 17.00800 22.30900
C  -2.70600 15.51200 22.72800
C  -2.99200 15.57100 24.22800
C  -4.46700 17.26000 21.65600
C  -1.17600 15.22100 22.43100
C  -0.97900 13.79800 21.73500
N  -2.76500 15.45900 27.18400
C  -2.87500 14.37200 26.37400
C  -2.92900 13.16200 27.20600
C  -2.86900 13.64200 28.49800
C  -2.83100 15.01000 28.46900
C  -3.14200 11.77600 26.77000
C  -2.94700 13.14200 29.84300
O  -3.13100 11.99600 30.18200
C  -2.76000 14.34200 30.81800
C  -1.45400 14.31900 31.44800
O  -0.38100 14.52000 30.84600
O  -1.58700 13.93000 32.76600
C  -0.36000 13.66900 33.59400
H  -3.72900 21.17900 29.21300
H  -2.84200 19.56600 22.97400
H  -2.87400 13.44300 24.43800
H  -4.12800 16.95600 31.84300
H  -3.21200 19.80100 31.34000
H  -5.97700 19.33000 30.53100
H  -5.23800 20.27400 31.88100
H  -5.68500 18.55600 32.11400
H  -1.55100 18.61100 32.03700
H  -1.37500 16.91700 32.10200
H  -3.05500 17.16400 34.24700
H  -2.75300 18.87800 33.83400
H  -4.56800 23.46400 27.00900
H  -2.86400 23.79100 26.76000
H  -3.42500 23.13100 28.24500
H  -3.98300 23.92400 24.58000
H  -3.40100 24.15700 23.14400
H  -2.23700 24.30000 24.59900
H  -2.19900 17.43200 21.75300
H  -3.35700 14.76400 22.27500
H  -5.17000 17.41200 22.47500
H  -4.73500 16.39000 21.05500
H  -4.37100 18.18700 21.09000
H  -0.61200 15.13600 23.36000
H  -0.71000 15.87100 21.69000
H  -0.15000 13.83700 21.02900
H  -1.88500 13.57500 21.17000
H  -0.71500 13.00300 22.43200
H  -2.51300 11.20100 27.44900
H  -2.80300 11.62600 25.74500
H  -4.17200 11.43200 26.86500
H  -3.55000 14.45300 31.56000
H  -0.41500 14.08000 34.60200
H  0.56100 14.04900 33.15200
H  -0.30400 12.58300 33.66700
Mg 39.90400 10.09100 29.57500
C  42.15500 11.21300 32.30600
C  37.81700 8.92000 31.97100
C  38.27600 8.66800 27.10900
C  42.50700 10.92700 27.52100
N  39.98600 10.18200 31.88400
C  40.90700 10.74100 32.75400
C  40.43300 10.71600 34.15400
C  39.05500 9.79800 33.98900
C  38.89900 9.60600 32.51800
C  38.95700 8.46800 34.79400
C  40.13400 12.17800 34.69100
C  40.84100 12.48700 36.02000
H  40.02800 13.10100 37.24500
N  38.22800 8.98200 29.53500
C  37.48900 8.61700 30.63900
C  36.34300 7.85800 30.15200
C  36.46300 7.72100 28.72900
C  37.72600 8.42400 28.39700
C  35.30300 7.17800 31.08500
C  35.51700 7.12500 27.74900
O  35.72000 7.19900 26.52400
C  34.26400 6.54000 28.16400
N  40.41900 9.66300 27.60800
C  39.48900 9.22600 26.73800
C  39.90800 9.52200 25.25800
C  41.35300 10.18100 25.37700
C  41.41600 10.32900 26.89300
C  39.90800 8.22900 24.37200
C  41.54600 11.54500 24.53700
C  41.00800 12.82000 25.13400
N  41.81700 10.93800 29.76900
C  42.79600 11.15000 28.85100
C  44.00700 11.76000 29.29100
C  43.76500 11.85000 30.70400
C  42.50200 11.24200 30.95300
C  45.13500 12.29300 28.54000
C  44.30600 12.24400 31.93300
O  45.34000 12.77400 32.24000
C  43.32000 11.76400 33.05200
C  43.92200 10.78500 34.01800
O  44.30500 9.62800 33.75900
O  44.15200 11.44600 35.17000
C  44.81500 10.55700 36.14600
H  37.13300 8.57200 32.74700
H  37.63200 8.44400 26.25600
H  43.30400 11.10900 26.79700
H  41.26500 10.27400 34.70200
H  38.20400 10.45700 34.16400
H  39.18900 7.59100 34.19000
H  37.95400 8.37600 35.21000
H  39.70700 8.50900 35.58300
H  39.06300 12.35000 34.79400
H  40.49700 12.85600 33.91800
H  41.56800 13.28600 35.87200
H  41.49500 11.67000 36.32400
H  35.13500 6.10500 30.98700
H  34.35200 7.66600 30.87200
H  35.57600 7.38200 32.12100
H  34.26400 5.80300 28.96700
H  33.82800 6.08000 27.27700
H  33.72100 7.45300 28.40600
H  39.12700 10.21100 24.93800
H  42.14800 9.49300 25.09000
H  39.69400 7.43900 25.09200
H  40.91300 8.11000 23.96900
H  39.24900 8.41700 23.52400
H  40.89500 11.49100 23.66500
H  42.58400 11.59200 24.20700
H  40.59700 13.52600 24.41300
H  41.89500 13.28900 25.56000
H  40.22900 12.64500 25.87600
H  44.67100 12.85700 27.73200
H  45.65300 11.42700 28.12900
H  45.79600 12.82400 29.22600
H  42.98100 12.66100 33.57000
H  45.69700 10.06400 35.73600
H  44.15700 9.79500 36.56300
H  45.24800 11.26600 36.85100

