158

Mg 2.15400 -2.12000 43.97500
C  5.37400 -0.87000 43.59500
C  1.04400 0.69900 42.43000
C  -0.93400 -3.57900 43.67700
C  3.51500 -5.20000 44.93000
N  3.08900 -0.36200 43.09600
C  4.40300 -0.07300 43.08600
C  4.64500 1.21600 42.32400
C  3.24100 1.90600 42.30800
C  2.39600 0.70700 42.74500
C  3.19100 3.10900 43.21900
C  5.21600 0.90800 40.90600
C  6.36400 1.86200 40.32700
H  7.09400 1.18700 39.16100
N  0.28900 -1.50600 43.12800
C  0.07200 -0.33000 42.52900
C  -1.29800 -0.25500 42.11800
C  -1.91700 -1.42000 42.55900
C  -0.85000 -2.25400 43.15200
C  -1.89200 1.00700 41.44300
C  -3.38800 -1.77200 42.43300
O  -4.19000 -0.99500 41.94100
C  -3.94400 -2.96600 43.06500
N  1.36900 -4.12000 44.25000
C  0.05700 -4.38700 44.25700
C  -0.14800 -5.83100 44.69700
C  1.29100 -6.35400 45.12800
C  2.09700 -5.20300 44.64700
C  -1.19800 -5.96100 45.80500
C  1.78400 -7.70000 44.46500
C  2.50300 -8.59500 45.55200
N  4.04100 -2.91900 44.33600
C  4.43600 -4.10600 44.84900
C  5.88800 -4.09900 44.98400
C  6.28500 -2.85900 44.50100
C  5.10300 -2.19400 44.07600
C  6.66700 -5.25800 45.50500
C  7.43300 -2.01900 44.25800
O  8.65200 -2.20300 44.34500
C  6.88900 -0.67500 43.68400
C  7.24200 0.36700 44.74500
O  6.65400 0.59700 45.81400
O  8.33100 1.10100 44.25400
C  8.70500 2.38200 44.98300
H  0.70100 1.65200 42.02200
H  -1.85300 -4.14200 43.49500
H  3.93400 -6.13300 45.31200
H  5.37200 1.83800 42.84600
H  3.02800 2.22000 41.28600
H  4.07200 3.31700 43.82700
H  2.45100 2.92400 43.99800
H  3.03500 3.94000 42.53200
H  4.44200 1.11500 40.16600
H  5.46700 -0.15100 40.84800
H  7.13800 2.03800 41.07300
H  5.94400 2.84300 40.10800
H  -1.93600 1.68000 42.29900
H  -2.85400 0.87900 40.94600
H  -1.18700 1.37600 40.69800
H  -3.74300 -3.89000 42.52300
H  -5.01500 -2.76600 43.08800
H  -3.55000 -2.96600 44.08200
H  -0.38900 -6.34400 43.76600
H  1.35300 -6.41200 46.21500
H  -1.51400 -4.96800 46.12300
H  -0.90500 -6.58700 46.64800
H  -2.01100 -6.53900 45.36500
H  2.43600 -7.40800 43.64200
H  0.92800 -8.28500 44.13100
H  2.07200 -8.54700 46.55200
H  3.58900 -8.65500 45.47400
H  2.25600 -9.56700 45.12600
H  7.56600 -4.90700 46.01100
H  6.99500 -5.84000 44.64300
H  6.10000 -5.95200 46.12500
H  7.37500 -0.46200 42.73100
H  7.81400 2.93200 45.28700
H  9.45100 3.00500 44.49000
H  9.11100 2.14300 45.96600
Mg -12.36900 16.57400 41.05300
C  -9.70600 14.27800 40.73100
C  -10.40900 18.96500 39.60400
C  -15.09300 18.41900 40.90900
C  -14.36600 13.91700 42.20800
N  -10.27200 16.61600 40.25600
C  -9.36100 15.55100 40.20800
C  -7.99700 16.03900 39.72800
C  -8.16300 17.54600 39.45000
C  -9.70900 17.77100 39.81300
C  -7.19700 18.48300 40.11100
C  -7.60700 15.21500 38.48400
C  -6.29600 14.39900 38.61500
H  -5.14200 14.92700 37.79400
N  -12.69000 18.46900 40.41300
C  -11.79600 19.32600 39.84100
C  -12.44100 20.61100 39.54300
C  -13.75200 20.54400 40.10600
C  -13.90300 19.08000 40.44700
C  -11.79200 21.72800 38.87400
C  -14.73800 21.67600 40.23400
O  -14.38300 22.79200 39.82700
C  -16.06700 21.61100 40.88100
N  -14.54500 16.19900 41.36500
C  -15.38900 17.16800 41.44600
C  -16.74900 16.78100 41.94400
C  -16.49600 15.31200 42.30400
C  -15.03300 15.11200 42.00400
C  -17.30000 17.68300 43.09000
C  -17.25200 14.26100 41.51700
C  -17.90300 13.19600 42.38800
N  -12.13000 14.48500 41.37700
C  -13.03000 13.58600 41.88600
C  -12.33300 12.34100 42.06900
C  -11.01900 12.52000 41.67700
C  -10.94900 13.86800 41.21100
C  -13.00800 11.06900 42.49000
C  -9.78900 11.90500 41.49500
O  -9.46200 10.74900 41.78100
C  -8.92100 12.92200 40.82900
C  -7.63300 13.01700 41.53300
O  -7.43700 13.60800 42.50500
O  -6.78200 12.16700 40.89500
C  -5.50300 11.98500 41.53200
H  -9.69800 19.73600 39.30300
H  -15.98200 19.04300 40.79900
H  -14.73500 13.18100 42.92600
H  -7.24000 15.95400 40.50700
H  -8.16100 17.76700 38.38300
H  -6.34400 17.86400 40.38800
H  -7.67600 18.95700 40.96700
H  -6.88100 19.21900 39.37100
H  -7.65900 15.72700 37.52300
H  -8.36900 14.44300 38.37800
H  -6.57600 13.39500 38.29600
H  -5.99600 14.29500 39.65800
H  -10.79500 21.45600 38.52900
H  -11.79600 22.66200 39.43500
H  -12.48100 21.85000 38.03800
H  -16.02500 20.94800 41.74500
H  -16.85400 21.15800 40.27700
H  -16.39200 22.61500 41.15300
H  -17.30400 16.85000 41.00900
H  -16.63100 15.17600 43.37700
H  -16.35200 18.08100 43.45000
H  -17.78800 17.13800 43.89900
H  -17.98300 18.43600 42.69400
H  -16.61600 13.79000 40.76800
H  -18.03800 14.69800 40.90000
H  -18.99300 13.15500 42.37900
H  -17.58700 13.16700 43.43100
H  -17.58500 12.25600 41.93700
H  -13.58200 11.28400 43.39200
H  -12.41500 10.19600 42.76100
H  -13.67300 10.77800 41.67600
H  -8.65900 12.52000 39.85100
H  -4.75500 12.71900 41.23000
H  -5.17800 11.01600 41.15600
H  -5.51200 11.84300 42.61200

