158

Mg 46.81500 34.99000 28.39200
C  45.23100 32.91100 30.80900
C  47.12000 37.43200 30.72500
C  47.91500 37.00100 25.96000
C  46.23600 32.49100 25.98900
N  46.27400 35.15200 30.47600
C  45.69800 34.17900 31.29100
C  45.87700 34.54000 32.80500
C  46.09600 36.10400 32.66200
C  46.53300 36.24700 31.16500
C  44.85300 36.87100 33.11100
C  47.19600 33.79200 33.27000
C  47.38200 33.76300 34.79400
H  46.41200 34.55300 35.61700
N  47.49400 37.03100 28.39500
C  47.60500 37.84300 29.48200
C  48.27600 39.12200 29.11800
C  48.48600 38.95300 27.70900
C  47.91700 37.61800 27.29200
C  48.61500 40.24200 30.04900
C  49.04500 40.03800 26.70000
O  49.19900 39.82300 25.54300
C  49.51000 41.43600 27.16300
N  47.00700 34.78100 26.22500
C  47.55000 35.72800 25.45300
C  47.78400 35.25500 23.98600
C  47.36300 33.77800 24.07300
C  46.84300 33.67100 25.53600
C  46.99600 36.02800 22.84600
C  48.46100 32.66300 23.71000
C  48.13300 31.84600 22.47400
N  46.03500 33.07700 28.30200
C  45.84200 32.18700 27.29200
C  45.09800 30.99600 27.73500
C  44.79500 31.20900 29.05700
C  45.38500 32.46900 29.42100
C  44.69900 29.90700 26.78500
C  44.02500 30.72400 30.29600
O  43.27000 29.76300 30.47200
C  44.17100 31.89500 31.33800
C  44.57500 31.34900 32.70400
O  45.51800 30.63000 32.96300
O  43.51600 31.66500 33.55800
C  43.66000 31.19700 34.99400
H  47.36700 38.09400 31.55700
H  48.31100 37.65500 25.18000
H  46.03200 31.66300 25.30700
H  45.07200 34.28400 33.49400
H  46.90700 36.31400 33.35900
H  44.95200 37.65500 33.86300
H  44.21900 36.17400 33.65800
H  44.36400 37.36500 32.27200
H  48.01600 34.42700 32.93500
H  47.20000 32.78600 32.85100
H  48.40800 34.08900 34.96200
H  47.27200 32.75200 35.18500
H  48.20900 41.22000 29.79300
H  49.69000 40.42100 30.00900
H  48.47200 40.01700 31.10600
H  48.77800 42.20600 26.91800
H  50.43700 41.61900 26.62000
H  49.82400 41.52100 28.20300
H  48.87300 35.27000 23.94300
H  46.46200 33.63100 23.47800
H  46.82300 37.08900 23.02400
H  46.08900 35.64400 22.38000
H  47.74300 36.12600 22.05800
H  48.75600 32.02900 24.54600
H  49.40000 33.20100 23.57500
H  47.25000 32.10300 21.88900
H  48.13600 30.80300 22.79400
H  49.03900 31.95200 21.87800
H  44.86500 29.00900 27.37900
H  45.26900 29.83600 25.85800
H  43.63700 29.96200 26.54700
H  43.18900 32.35600 31.44600
H  44.23800 30.28200 35.12000
H  42.67400 30.87100 35.32700
H  43.98100 31.97100 35.69000
Mg 8.88100 47.87200 26.68200
C  6.95200 47.27700 29.52700
C  11.61100 48.29400 28.76800
C  10.58500 48.53400 24.08600
C  5.97100 47.48100 24.70800
N  9.22100 47.88400 28.87000
C  8.26200 47.60100 29.87100
C  8.86400 47.76600 31.24400
C  10.26900 48.43100 30.97300
C  10.37300 48.21000 29.42500
C  10.43200 49.99800 31.17900
C  8.77000 46.60600 32.22900
C  9.70000 46.57300 33.47300
H  9.25900 45.77200 34.70500
N  10.88400 48.15500 26.48200
C  11.85000 48.30100 27.42700
C  13.10600 48.51800 26.75200
C  12.83100 48.48700 25.31500
C  11.37100 48.33400 25.25100
C  14.38300 48.48600 27.47500
C  13.83700 48.66800 24.25400
O  13.46500 48.59600 23.10100
C  15.33300 48.94400 24.57800
N  8.28100 47.99300 24.70300
C  9.23000 48.35000 23.80400
C  8.65600 48.49600 22.36300
C  7.16300 48.06400 22.58100
C  7.08800 47.83500 24.01600
C  8.82700 49.92200 21.80200
C  6.81400 46.85100 21.73300
C  6.16700 47.09700 20.42100
N  6.90800 47.50700 26.99200
C  5.85600 47.36700 26.17100
C  4.67500 47.02400 26.82400
C  5.04600 46.98200 28.14100
C  6.37200 47.28000 28.20300
C  3.35100 46.74400 26.24300
C  4.60600 46.81500 29.49700
O  3.47400 46.53000 29.83300
C  5.77700 46.92000 30.44600
C  5.99900 45.63900 31.19200
O  6.68500 44.70500 30.85300
O  5.30700 45.67100 32.41000
C  5.43000 44.52800 33.26000
H  12.41700 48.54700 29.46000
H  11.12100 48.73800 23.15700
H  5.11400 47.37400 24.04000
H  8.16600 48.50600 31.63700
H  11.14900 47.94900 31.40100
H  10.18100 50.56600 30.28300
H  11.45500 50.22300 31.48200
H  9.79800 50.33500 31.99900
H  8.87600 45.66700 31.68500
H  7.76300 46.75100 32.62000
H  9.96500 47.58700 33.77300
H  10.65000 46.12400 33.18300
H  14.92900 47.66900 27.00400
H  14.31800 48.22200 28.53100
H  14.95100 49.40500 27.32400
H  15.78800 49.23800 23.63100
H  15.80100 47.99000 24.82000
H  15.41500 49.76100 25.29500
H  9.24200 47.86700 21.69300
H  6.52100 48.89600 22.29200
H  9.87800 50.20200 21.73900
H  8.32200 50.65100 22.43600
H  8.40300 50.01400 20.80200
H  6.19900 46.14300 22.28800
H  7.75700 46.34700 21.51900
H  6.07200 48.15000 20.15400
H  5.11900 46.80100 20.46800
H  6.75500 46.53400 19.69600
H  2.90400 45.92700 26.80900
H  3.52500 46.41000 25.22000
H  2.71900 47.61700 26.07800
H  5.59100 47.62200 31.25900
H  4.52100 43.95400 33.08400
H  5.43800 44.94400 34.26700
H  6.33600 43.92900 33.16600

