158

Mg 26.50400 50.93600 26.76100
C  24.21400 51.85100 29.42300
C  28.70400 50.10500 29.06500
C  28.74800 50.38600 24.13200
C  24.37500 52.34800 24.63800
N  26.53800 51.21000 29.04600
C  25.48300 51.39300 29.90400
C  25.90900 51.33700 31.36700
C  27.48300 51.03400 31.25900
C  27.58800 50.72200 29.72400
C  28.49000 52.13200 31.69100
C  25.11300 50.13200 32.11700
C  24.62400 50.31700 33.61900
H  25.58700 50.53800 34.83400
N  28.47500 50.27300 26.62700
C  29.25900 49.95500 27.71900
C  30.57300 49.50100 27.25500
C  30.52600 49.64500 25.88300
C  29.22400 50.14200 25.46000
C  31.60800 49.02700 28.27500
C  31.66300 49.26100 24.92800
O  31.55400 49.46900 23.73700
C  32.97500 48.67700 25.51400
N  26.60500 51.25100 24.69300
C  27.49700 50.91500 23.83400
C  27.06800 51.20500 22.38400
C  25.62600 51.63400 22.53400
C  25.57600 51.81400 24.05900
C  28.03000 52.23000 21.57500
C  24.47900 50.68600 22.18100
C  23.29800 51.31400 21.50200
N  24.74400 51.90000 26.92200
C  24.00500 52.48700 25.93600
C  22.73500 53.00300 26.38200
C  22.84200 52.80300 27.78100
C  24.03500 52.09300 28.08500
C  21.61800 53.41700 25.52600
C  22.12100 52.91000 29.01800
O  20.99000 53.26900 29.23300
C  22.93200 52.21900 30.03800
C  23.13900 53.16600 31.13000
O  23.74900 54.20700 30.99000
O  22.37100 52.89100 32.27400
C  22.44600 53.84300 33.40700
H  29.37200 49.83200 29.88500
H  29.44600 50.20100 23.31300
H  23.64900 52.73100 23.91800
H  25.65400 52.25100 31.90300
H  27.72900 50.09800 31.76100
H  28.00200 52.66500 32.50700
H  28.78400 52.79900 30.88100
H  29.28600 51.46200 32.01600
H  25.71400 49.22300 32.15300
H  24.27400 49.86200 31.47600
H  24.12800 49.38100 33.87700
H  23.86700 51.08900 33.75700
H  32.62200 49.39000 28.10600
H  31.75100 47.94800 28.22900
H  31.26500 49.26800 29.28100
H  33.71000 48.48600 24.73200
H  32.76800 47.66800 25.86900
H  33.34400 49.39900 26.24200
H  27.05500 50.20100 21.96100
H  25.45800 52.48700 21.87600
H  28.93900 52.58500 22.06100
H  27.48700 53.11400 21.24100
H  28.39700 51.69300 20.70000
H  24.11300 50.12400 23.04000
H  24.85100 49.92000 21.50000
H  23.07300 50.67800 20.64600
H  23.41800 52.37600 21.29000
H  22.38700 51.26500 22.09700
H  20.82700 53.83900 26.14600
H  21.28900 52.57500 24.91600
H  21.97300 54.24300 24.91000
H  22.39500 51.34600 30.40900
H  23.42200 53.73500 33.88000
H  21.63000 53.69300 34.11500
H  22.30600 54.87700 33.09300
Mg 0.65600 43.30700 26.39500
C  2.96800 43.14900 29.09900
C  -1.86800 42.84900 28.54500
C  -1.25900 43.26800 23.74600
C  3.55000 43.61900 24.28500
N  0.62900 43.05300 28.57000
C  1.62400 43.07700 29.50900
C  1.11000 42.93400 30.93800
C  -0.36600 42.44700 30.66600
C  -0.58300 42.79400 29.14500
C  -0.69300 41.00100 31.08900
C  1.28100 44.26800 31.82300
C  1.88100 44.04700 33.23100
H  1.55300 42.69500 33.81500
N  -1.35000 43.23000 26.18800
C  -2.27500 43.13000 27.21300
C  -3.61600 43.20200 26.59900
C  -3.44700 43.29700 25.23000
C  -1.99500 43.23700 24.97600
C  -4.96400 43.28000 27.43000
C  -4.52100 43.48200 24.14200
O  -4.23000 43.63000 22.94300
C  -6.01700 43.54100 24.47200
N  1.11300 43.16500 24.30100
C  0.15500 43.23200 23.40300
C  0.61700 43.38700 21.91200
C  2.09700 43.72700 22.19400
C  2.22700 43.55500 23.70900
C  0.29800 42.12600 21.00900
C  2.63200 45.09000 21.59400
C  1.94100 46.33200 22.11300
N  2.84400 43.28700 26.59000
C  3.86400 43.41700 25.62800
C  5.17600 43.38200 26.20900
C  4.86400 43.29700 27.64500
C  3.46500 43.27700 27.77100
C  6.39600 43.66600 25.44800
C  5.50500 43.25800 28.96100
O  6.68700 43.24000 29.24900
C  4.19300 43.26300 29.95000
C  4.48200 42.17100 30.82700
O  4.25800 41.00900 30.61400
O  5.11800 42.69700 31.92700
C  5.42000 41.72800 32.99800
H  -2.78900 42.56600 29.05900
H  -1.83600 43.26100 22.81900
H  4.39200 43.91400 23.65400
H  1.74500 42.16800 31.38100
H  -1.06100 43.06400 31.23600
H  -0.90200 40.37300 30.22300
H  -1.49300 41.00600 31.82900
H  0.19800 40.58900 31.56500
H  0.33100 44.76500 32.02200
H  1.90600 45.01900 31.34100
H  1.58900 44.83000 33.93000
H  2.93400 44.19100 32.98800
H  -5.34800 42.26500 27.53000
H  -5.73900 43.95600 27.06800
H  -4.77200 43.65000 28.43700
H  -6.40500 42.86200 25.23100
H  -6.50200 43.32000 23.52100
H  -6.20500 44.54500 24.85200
H  -0.00600 44.22000 21.58600
H  2.74100 42.94000 21.80100
H  -0.52500 41.58700 21.47800
H  1.12100 41.41200 21.05000
H  0.06400 42.43700 19.99100
H  2.53000 45.17700 20.51300
H  3.69100 45.16800 21.84300
H  1.33900 46.72100 21.29200
H  2.72700 47.06600 22.29200
H  1.37100 46.27400 23.04100
H  6.36400 44.26600 24.53900
H  6.91400 42.71700 25.30500
H  7.06600 44.21900 26.10600
H  4.21600 44.20900 30.49100
H  6.37200 41.25400 32.76000
H  4.72700 40.92800 33.25900
H  5.46300 42.28000 33.93700

