158

Mg 36.44200 1.00500 29.69200
C  33.99100 2.04800 32.09800
C  38.71900 1.02400 32.18400
C  38.68000 0.45600 27.31200
C  33.95400 1.41000 27.13000
N  36.31800 1.47400 31.90500
C  35.22700 1.78000 32.64900
C  35.54400 1.74600 34.11400
C  37.11300 1.79000 34.19900
C  37.45400 1.37600 32.69300
C  37.68000 3.19200 34.61600
C  34.92900 0.56300 34.91200
C  34.28600 0.79300 36.31400
H  34.64200 2.16500 37.01300
N  38.46600 0.82000 29.68800
C  39.21600 0.76800 30.83800
C  40.57800 0.36200 30.50900
C  40.57500 0.18000 29.09100
C  39.19100 0.50200 28.65200
C  41.71300 0.33000 31.56900
C  41.60900 -0.30200 28.12900
O  41.44700 -0.49200 26.90200
C  42.88900 -0.81100 28.67600
N  36.22300 0.72500 27.54100
C  37.34700 0.60100 26.85600
C  37.13600 0.76700 25.36900
C  35.53800 0.80200 25.23300
C  35.20200 0.95600 26.69700
C  37.77700 2.16300 24.91500
C  34.78900 -0.36100 24.54000
C  34.39500 -1.54800 25.54200
N  34.37500 1.52900 29.61800
C  33.50100 1.58700 28.50700
C  32.19400 2.07900 28.96200
C  32.39300 2.26500 30.37800
C  33.67100 1.93100 30.73800
C  30.92100 2.37500 28.07800
C  31.61900 2.62200 31.54500
O  30.51000 3.01800 31.76500
C  32.70100 2.50700 32.72100
C  32.83400 3.85900 33.36000
O  33.49300 4.80700 32.96000
O  31.99000 3.82900 34.46600
C  31.56800 4.97200 35.18300
H  39.41800 0.78000 32.98700
H  39.41100 0.31500 26.51300
H  33.26700 1.64600 26.31500
H  35.17600 2.70700 34.47300
H  37.39000 1.08200 34.98000
H  37.51600 3.21300 35.69300
H  37.11200 3.93700 34.05900
H  38.72700 3.20000 34.31100
H  35.59700 -0.29000 35.03000
H  34.08400 0.22000 34.31500
H  34.52400 -0.09000 36.90700
H  33.21100 0.74100 36.14300
H  42.60400 0.78000 31.13200
H  41.84800 -0.70500 31.88200
H  41.56400 1.01800 32.40100
H  43.20600 -0.17600 29.50300
H  43.72500 -0.62400 28.00200
H  42.93800 -1.85100 28.99800
H  37.61600 -0.13800 24.99600
H  35.12100 1.69900 24.77700
H  37.07200 2.94200 25.20800
H  37.85100 2.11300 23.82900
H  38.78900 2.27200 25.30500
H  35.24200 -0.78100 23.64200
H  33.83300 0.05800 24.22500
H  34.56900 -2.55400 25.15900
H  33.34800 -1.58700 25.84000
H  35.01500 -1.55200 26.43900
H  30.89900 1.79300 27.15600
H  31.00700 3.40900 27.74500
H  30.06000 2.29300 28.74200
H  32.32500 1.79500 33.45500
H  30.50300 4.92200 35.40800
H  31.69900 5.88300 34.59900
H  32.10100 5.04100 36.13200
Mg 8.54600 47.64600 25.01100
C  6.52400 47.59800 27.93000
C  11.17100 48.45800 27.02700
C  10.43900 47.66500 22.28900
C  5.69700 47.59400 23.03700
N  8.76400 48.12100 27.17000
C  7.84200 48.02200 28.21000
C  8.39900 48.53100 29.54200
C  9.77600 49.18800 29.04900
C  9.97900 48.51100 27.68800
C  9.84100 50.72800 28.95200
C  8.67300 47.30500 30.51800
C  9.04100 47.58400 31.96300
H  8.81300 46.52500 32.99500
N  10.51500 47.94200 24.68100
C  11.41900 48.16800 25.67100
C  12.73900 48.13300 25.05600
C  12.60800 47.80600 23.69300
C  11.13400 47.72900 23.49700
C  14.03600 48.42800 25.80000
C  13.69400 47.67000 22.55800
O  13.38500 47.49300 21.42200
C  15.10900 47.69400 22.87700
N  8.13400 47.48900 22.99300
C  9.08000 47.66000 22.04800
C  8.53200 47.74000 20.62400
C  7.07200 47.70100 20.90000
C  6.93100 47.52600 22.38400
C  9.09700 48.88000 19.70300
C  6.25400 46.60000 20.07600
C  6.12500 46.76300 18.53400
N  6.52500 47.53800 25.36700
C  5.52800 47.46100 24.45400
C  4.32700 47.27100 25.20700
C  4.66100 47.38000 26.57200
C  5.98400 47.54200 26.63100
C  2.99700 47.12500 24.71200
C  4.08800 47.25300 27.84000
O  2.95500 47.09800 28.14800
C  5.27400 47.30200 28.81800
C  5.33800 46.15500 29.73500
O  6.17800 45.24800 29.55000
O  4.57500 46.27900 30.81800
C  4.65800 45.19900 31.79000
H  11.96000 48.86500 27.66300
H  11.10500 47.50700 21.43800
H  4.82200 47.60600 22.38400
H  7.70000 49.28400 29.90500
H  10.56300 48.87700 29.73500
H  9.92800 51.08100 29.98000
H  8.86100 51.05400 28.60400
H  10.62200 51.10200 28.29100
H  9.43600 46.69700 30.03200
H  7.82800 46.61700 30.47600
H  8.52600 48.47300 32.32700
H  10.10100 47.81600 31.86100
H  14.39000 49.39500 25.44200
H  14.78900 47.64400 25.71900
H  13.84300 48.56800 26.86400
H  15.52700 48.66700 23.13700
H  15.75600 47.43100 22.04000
H  15.36500 47.00200 23.67900
H  8.80500 46.72700 20.33100
H  6.63800 48.68400 20.71600
H  9.79000 49.43400 20.33600
H  8.24100 49.51500 19.47300
H  9.48500 48.40700 18.80200
H  5.26200 46.50600 20.51800
H  6.78500 45.65200 20.16000
H  6.74900 47.58600 18.18300
H  5.09000 46.97600 18.26900
H  6.44600 45.81400 18.10400
H  2.89900 46.60800 23.75700
H  2.73700 48.17600 24.58400
H  2.51700 46.49600 25.46200
H  5.05600 48.19100 29.41000
H  4.56700 45.58500 32.80500
H  5.45800 44.46200 31.72300
H  3.77300 44.58600 31.61600

