158

Mg 46.99500 24.67200 28.31700
C  47.30700 27.02700 30.59800
C  46.57300 22.34400 30.75900
C  46.94300 22.38100 26.00900
C  47.72600 27.09800 25.79900
N  46.67100 24.71500 30.43700
C  46.85300 25.80100 31.17100
C  46.63100 25.53400 32.67200
C  46.80600 24.02800 32.69300
C  46.69000 23.65200 31.23300
C  48.11000 23.60000 33.43200
C  45.40300 26.20900 33.31600
C  45.26900 25.87000 34.83000
H  45.25200 26.95700 35.86000
N  46.65700 22.69400 28.35000
C  46.54000 21.91700 29.48400
C  46.32400 20.55200 29.08000
C  46.42700 20.49700 27.65200
C  46.69900 21.90100 27.27100
C  45.86900 19.39800 30.02000
C  46.40200 19.24200 26.69300
O  46.39000 19.42600 25.47100
C  46.35800 17.80000 27.13200
N  47.18800 24.80400 26.18200
C  47.19300 23.63300 25.48200
C  47.47000 23.97700 23.93600
C  47.22600 25.49300 23.86200
C  47.47100 25.83500 25.33000
C  48.84600 23.57700 23.44200
C  45.88400 26.13600 23.38800
C  44.63300 25.49100 23.94200
N  47.62400 26.64800 28.16400
C  47.92100 27.50200 27.12300
C  48.19300 28.84500 27.63200
C  47.87500 28.76000 28.98700
C  47.59200 27.35500 29.28600
C  48.54400 29.98800 26.72700
C  47.81800 29.47200 30.26000
O  48.11800 30.57900 30.65100
C  47.41100 28.36500 31.31600
C  48.55300 28.34400 32.28500
O  49.64900 27.85500 32.08500
O  48.11300 28.74400 33.53100
C  49.01000 28.50400 34.70900
H  46.55900 21.68600 31.63100
H  46.82200 21.69700 25.16600
H  47.81800 27.86200 25.02400
H  47.52000 26.05500 33.02700
H  46.02800 23.56300 33.29700
H  48.98400 23.38300 32.81800
H  47.82500 22.72800 34.02000
H  48.37600 24.35800 34.16900
H  44.48300 25.84300 32.86000
H  45.45600 27.29500 33.24100
H  46.12500 25.24200 35.07700
H  44.35900 25.29800 35.01600
H  46.54800 18.58300 29.76700
H  44.86000 19.20900 29.65300
H  45.95100 19.67900 31.07000
H  47.35600 17.56700 27.50400
H  46.07400 17.12000 26.32900
H  45.60600 17.62500 27.90200
H  46.79300 23.51300 23.22000
H  48.04900 25.90600 23.27800
H  49.24400 22.90300 24.20100
H  49.52400 24.39500 23.20000
H  48.85600 23.10400 22.46000
H  45.95600 26.06400 22.30300
H  45.89000 27.20500 23.59800
H  44.02400 26.32000 24.30400
H  44.80900 24.72800 24.70000
H  44.10000 24.94300 23.16600
H  48.36500 30.96100 27.18600
H  48.01000 29.90300 25.78000
H  49.58400 29.91100 26.41100
H  46.49800 28.68000 31.82000
H  49.58300 27.58200 34.61400
H  48.26800 28.43000 35.50300
H  49.53000 29.43800 34.92400
Mg 16.08900 51.72100 25.60900
C  18.00600 50.70700 28.39500
C  13.83700 53.14100 27.69600
C  14.33500 52.48300 22.95800
C  18.60600 50.20400 23.62300
N  16.11100 52.01400 27.83200
C  16.86800 51.45500 28.76800
C  16.40500 51.80200 30.29600
C  14.93700 52.37800 30.02200
C  14.94000 52.51300 28.38600
C  13.70000 51.47000 30.48900
C  17.36500 52.74600 31.02800
C  17.69500 52.40500 32.48300
H  16.72500 51.52100 33.26100
N  14.38500 52.86500 25.31900
C  13.57800 53.33200 26.32400
C  12.46900 54.03500 25.70300
C  12.54500 53.88600 24.24900
C  13.78700 53.01500 24.12500
C  11.37900 54.63500 26.54100
C  11.59300 54.26100 23.15200
O  11.89900 53.97100 21.99400
C  10.42500 55.13700 23.47600
N  16.40900 51.28800 23.59400
C  15.51000 51.82000 22.63200
C  15.98400 51.49400 21.24000
C  17.45200 50.86000 21.46900
C  17.52000 50.87000 22.97600
C  15.09400 50.46300 20.48900
C  18.61100 51.72600 20.90000
C  19.30400 51.15000 19.63200
N  17.85700 50.67500 25.90300
C  18.78400 50.15200 25.00600
C  19.88300 49.44400 25.75400
C  19.57900 49.67400 27.06900
C  18.37900 50.40100 27.06400
C  20.99000 48.65700 25.15200
C  20.03600 49.38600 28.45400
O  21.00500 48.82400 28.88400
C  19.03700 50.10700 29.34800
C  18.60300 49.03700 30.20400
O  17.81100 48.17800 29.82100
O  19.24500 49.09300 31.45600
C  19.08500 47.91900 32.33800
H  13.08900 53.57400 28.36400
H  13.85300 52.84100 22.04600
H  19.36900 49.63700 23.08400
H  16.37900 50.86200 30.84800
H  14.84300 53.40100 30.38700
H  14.06800 50.51200 30.85500
H  13.04700 51.31200 29.63000
H  13.06200 51.90000 31.26100
H  16.98600 53.75800 30.88200
H  18.28100 52.74600 30.43700
H  17.85200 53.27500 33.12000
H  18.61800 51.83300 32.38600
H  11.12900 55.65700 26.26000
H  11.77600 54.80300 27.54200
H  10.60800 53.86500 26.49800
H  10.83700 56.10600 23.75800
H  9.80500 54.78400 24.30000
H  9.72900 55.35400 22.66500
H  16.10700 52.47600 20.78200
H  17.37900 49.80600 21.20200
H  14.52300 49.95400 21.26600
H  15.64400 49.84500 19.78000
H  14.47300 51.05300 19.81500
H  19.41900 51.81800 21.62400
H  18.32000 52.75200 20.67400
H  20.36100 51.35000 19.81200
H  19.04500 51.74100 18.75400
H  19.16100 50.08700 19.43800
H  20.56800 47.96300 24.42500
H  21.33500 48.03300 25.97700
H  21.71800 49.32600 24.69400
H  19.51900 50.78100 30.05600
H  18.98800 46.94200 31.86400
H  18.17700 47.97900 32.93800
H  19.90600 47.88000 33.05400

