158

Mg 45.40900 2.88500 47.99500
C  43.20000 5.67700 47.10800
C  42.58900 0.87600 48.09600
C  47.39500 0.37500 48.04800
C  48.01000 5.22200 47.37500
N  43.15400 3.22800 47.44600
C  42.50300 4.40700 47.22500
C  40.95300 4.24700 47.21300
C  40.86000 2.68400 47.59800
C  42.28900 2.23000 47.79100
C  40.04700 2.49000 48.91600
C  40.29300 4.47400 45.80800
C  39.33100 5.60400 45.55900
H  39.62300 6.56300 44.34300
N  45.03100 0.85800 48.09800
C  43.82400 0.14600 48.19400
C  44.01400 -1.18600 48.36900
C  45.41700 -1.37400 48.24000
C  46.05100 -0.07000 48.10300
C  42.91600 -2.24400 48.30200
C  46.09200 -2.78900 48.31900
O  45.41500 -3.83900 48.57300
C  47.50400 -2.88700 48.12100
N  47.38700 2.72300 47.40500
C  48.00100 1.60400 47.75000
C  49.57700 1.86300 47.55600
C  49.65900 3.35500 47.35600
C  48.25600 3.84100 47.36800
C  50.47800 1.24100 48.70300
C  50.47600 3.85100 46.13600
C  51.85500 4.54900 46.52100
N  45.65200 5.05400 47.40800
C  46.75200 5.80400 47.34400
C  46.35800 7.19700 47.26200
C  44.99200 7.22300 47.14300
C  44.57100 5.86600 47.19500
C  47.24000 8.38900 47.31000
C  43.80500 8.05800 46.89300
O  43.67100 9.24100 46.70100
C  42.59000 7.07400 47.07300
C  41.80300 7.44500 48.34000
O  41.89100 6.96200 49.47200
O  40.99400 8.53500 47.98600
C  40.05200 8.94600 49.00500
H  41.67800 0.27500 48.08200
H  48.17300 -0.39100 48.05900
H  48.84100 5.93000 47.37700
H  40.41500 4.89100 47.90800
H  40.39600 2.07400 46.82200
H  39.48900 3.40900 49.09600
H  40.66100 2.30700 49.79800
H  39.30400 1.70400 48.78300
H  39.81300 3.54800 45.49000
H  41.07000 4.60900 45.05600
H  39.21500 6.31700 46.37500
H  38.40000 5.05300 45.42700
H  43.23500 -3.01100 49.00800
H  43.06500 -2.69300 47.32000
H  41.89300 -1.95600 48.54000
H  47.78200 -3.94100 48.13400
H  48.04900 -2.38600 48.92100
H  47.94300 -2.52900 47.19000
H  49.89700 1.35800 46.64400
H  50.20000 3.77000 48.20600
H  51.00800 0.37300 48.31100
H  49.89100 1.01500 49.59200
H  51.21900 1.98800 48.98900
H  49.81400 4.42200 45.48500
H  50.82500 2.98100 45.57900
H  51.78400 5.56700 46.13700
H  52.67800 3.92100 46.18100
H  51.99000 4.60000 47.60200
H  48.25700 8.07000 47.08000
H  47.17200 8.84000 48.30000
H  46.89900 9.15200 46.61000
H  41.94000 7.25700 46.21700
H  40.29400 10.00900 49.02700
H  40.22300 8.45900 49.96500
H  39.00700 8.87100 48.70200
Mg -1.64100 34.97700 26.92700
C  -3.56100 33.14200 29.28200
C  -0.77200 36.97200 29.51700
C  -0.27100 36.87300 24.75500
C  -2.83200 32.76700 24.36300
N  -1.97200 34.93400 29.24800
C  -2.81600 34.11800 29.93200
C  -2.85600 34.44800 31.43500
C  -2.20800 35.93100 31.40100
C  -1.53600 35.93800 30.01300
C  -3.25800 37.06400 31.51500
C  -2.15000 33.48400 32.42600
C  -2.83700 33.20000 33.81500
H  -2.93200 34.41000 34.83300
N  -0.67600 36.65200 27.11900
C  -0.40100 37.36000 28.25800
C  0.38600 38.51800 27.90100
C  0.61400 38.51400 26.51200
C  -0.07000 37.32600 26.07900
C  0.83900 39.63500 28.91100
C  1.28700 39.47800 25.62700
O  1.40800 39.34200 24.44000
C  1.85800 40.63700 26.28600
N  -1.51500 34.86500 24.83800
C  -0.96400 35.80100 24.13600
C  -0.70400 35.33400 22.69300
C  -1.34100 33.91800 22.60200
C  -1.92700 33.83000 24.00200
C  -1.15500 36.40900 21.62900
C  -0.35600 32.81800 22.27500
C  0.14700 31.86200 23.30900
N  -2.90600 33.34100 26.82400
C  -3.31600 32.55000 25.69800
C  -4.21200 31.48100 26.14400
C  -4.31900 31.66900 27.53400
C  -3.55600 32.82800 27.90600
C  -4.81600 30.36700 25.32700
C  -4.90900 31.13600 28.73900
O  -5.65400 30.20000 28.95300
C  -4.38200 32.05800 29.96200
C  -5.52700 32.54500 30.64300
O  -6.25700 33.45500 30.30000
O  -5.88400 31.67500 31.64600
C  -6.85300 32.20300 32.62500
H  -0.37200 37.58000 30.33100
H  0.27300 37.55600 24.10000
H  -3.13000 32.17100 23.49800
H  -3.92400 34.49300 31.65000
H  -1.44000 35.98900 32.17200
H  -4.25300 36.70500 31.25100
H  -3.07300 37.85100 30.78300
H  -3.30400 37.59300 32.46700
H  -1.15200 33.87000 32.63200
H  -2.17300 32.52200 31.91400
H  -2.27100 32.38700 34.27100
H  -3.86800 32.85300 33.87800
H  1.92800 39.60800 28.87600
H  0.57700 39.38900 29.94000
H  0.40200 40.61700 28.72800
H  1.12100 41.30200 26.73600
H  2.29800 41.18100 25.45100
H  2.63400 40.26300 26.95500
H  0.37700 35.19400 22.71300
H  -2.19900 33.96300 21.93100
H  -1.69100 37.23300 22.10000
H  -1.88700 36.03100 20.91600
H  -0.25200 36.70100 21.09300
H  0.43700 33.28900 21.69400
H  -0.78000 32.07000 21.60500
H  0.25000 32.33200 24.28700
H  1.11800 31.50300 22.96800
H  -0.54500 31.02000 23.32000
H  -4.57400 30.42200 24.26600
H  -5.86700 30.51500 25.57600
H  -4.41200 29.41200 25.66200
H  -3.70000 31.41100 30.51300
H  -7.81500 32.47500 32.19100
H  -6.51000 33.14700 33.04800
H  -6.93400 31.49000 33.44600

