158

Mg 44.60300 4.23900 46.41000
C  42.68600 7.18400 46.00800
C  41.60800 2.52600 46.30600
C  46.37500 1.47600 45.99500
C  47.43200 6.18500 46.35900
N  42.46600 4.83300 45.95600
C  41.90000 6.04200 45.94500
C  40.37600 6.01700 45.57900
C  40.05100 4.55000 46.07100
C  41.47400 3.93200 46.11200
C  39.33800 4.51200 47.40500
C  40.06700 6.30000 44.05400
C  39.36000 7.60300 43.71100
H  39.90700 8.52900 42.63300
N  44.05500 2.27600 46.22600
C  42.79300 1.73300 46.28700
C  42.89900 0.32800 46.32600
C  44.28200 -0.01700 46.19000
C  44.98400 1.26400 46.20600
C  41.76100 -0.66600 46.40900
C  44.85300 -1.39200 46.17200
O  44.09800 -2.31800 46.12700
C  46.34700 -1.68500 46.18000
N  46.58000 3.84900 46.29400
C  47.10600 2.62200 46.04000
C  48.63300 2.63700 45.96100
C  48.95800 4.20800 46.05000
C  47.58200 4.77100 46.26800
C  49.44700 1.67700 46.97200
C  49.79200 4.80100 44.81800
C  51.19700 5.43800 45.06500
N  45.03400 6.25700 46.24300
C  46.21600 6.88100 46.31300
C  46.02800 8.29000 46.18900
C  44.63500 8.47200 46.14900
C  44.08200 7.21500 46.13200
C  47.04800 9.33000 46.19700
C  43.57300 9.45700 46.07400
O  43.58200 10.68200 46.05500
C  42.29300 8.61200 45.89900
C  41.37800 9.03600 46.93300
O  41.32900 8.70000 48.11500
O  40.56400 10.03500 46.36700
C  39.52200 10.59000 47.23800
H  40.61800 2.07900 46.42200
H  47.02600 0.60900 45.86900
H  48.32400 6.81300 46.31300
H  39.88600 6.71400 46.25900
H  39.50800 4.00200 45.30200
H  38.99200 5.50400 47.69600
H  39.80300 4.08200 48.29300
H  38.48500 3.85800 47.22600
H  39.44100 5.49400 43.67100
H  40.98400 6.17500 43.47800
H  39.41400 8.20200 44.62000
H  38.31600 7.38000 43.49000
H  40.78500 -0.26500 46.68300
H  41.98800 -1.42500 47.15800
H  41.52600 -1.13500 45.45300
H  46.63500 -1.42100 45.16200
H  46.37500 -2.77300 46.23400
H  46.85300 -1.17500 47.00000
H  48.82800 2.27600 44.95200
H  49.56900 4.37800 46.93600
H  48.86000 1.03200 47.62500
H  50.24800 2.16600 47.52700
H  49.96200 0.99600 46.29500
H  49.18700 5.59100 44.37500
H  49.90700 4.09500 43.99500
H  52.00600 4.74400 44.84000
H  51.30500 5.80600 46.08500
H  51.20300 6.37700 44.51100
H  48.06700 8.95000 46.27500
H  46.85400 9.93900 47.08100
H  46.97600 9.99600 45.33700
H  41.93200 8.93500 44.92300
H  39.23900 11.50900 46.72600
H  39.87300 10.72700 48.26100
H  38.64000 9.95000 47.22600
Mg 30.69700 58.52200 40.68000
C  28.11100 56.49900 39.31700
C  32.85600 56.23900 39.30000
C  33.17700 60.75500 41.18100
C  28.33000 60.96000 41.39400
N  30.46400 56.67500 39.45800
C  29.34600 56.04500 38.99600
C  29.66800 54.67400 38.20500
C  31.10200 54.48000 38.72300
C  31.54000 55.89300 39.18200
C  31.28500 53.38300 39.80500
C  29.60900 55.03600 36.64300
C  28.55500 54.34700 35.71000
H  27.92900 55.13800 34.61900
N  32.75700 58.47500 40.34400
C  33.44500 57.41900 39.82500
C  34.79300 57.56800 40.15600
C  34.94600 58.80000 40.79100
C  33.58600 59.47100 40.72000
C  35.96600 56.59100 39.94100
C  36.25000 59.33600 41.46900
O  37.30900 58.66400 41.33100
C  36.24800 60.63800 42.27400
N  30.78600 60.61000 41.11600
C  31.94000 61.31500 41.33200
C  31.71200 62.70300 41.91100
C  30.10000 62.83500 41.88600
C  29.68200 61.36300 41.44900
C  32.47600 62.90300 43.29100
C  29.51400 64.02300 41.16100
C  28.70600 65.03900 41.91100
N  28.67800 58.64500 40.58500
C  27.87100 59.72700 40.91600
C  26.49000 59.36300 40.76400
C  26.57200 58.13300 39.98100
C  27.87300 57.69300 39.99600
C  25.24400 60.09400 41.14500
C  25.71400 57.05600 39.32400
O  24.51200 56.93600 39.18000
C  26.79200 55.92900 38.95200
C  26.60000 54.65800 39.82300
O  27.15200 54.35300 40.85800
O  25.67000 53.90500 39.19600
C  25.06900 52.74200 39.68500
H  33.54900 55.51000 38.87600
H  33.98800 61.37600 41.56700
H  27.64600 61.79600 41.55600
H  29.00700 53.87700 38.54600
H  31.74100 54.17300 37.89500
H  30.38600 52.80700 40.02300
H  31.65300 53.74600 40.76400
H  31.98500 52.63900 39.42600
H  30.55200 54.75100 36.17700
H  29.45900 56.10000 36.45900
H  27.89500 53.91700 36.46400
H  29.11000 53.52400 35.26100
H  36.72500 56.91800 39.23000
H  35.55700 55.66000 39.54800
H  36.42300 56.14700 40.82500
H  37.17500 60.68000 42.84500
H  35.39200 60.61000 42.94800
H  36.12400 61.42000 41.52500
H  32.14000 63.50900 41.31500
H  29.69600 62.92200 42.89500
H  33.34700 63.45800 42.94300
H  32.82100 61.92600 43.63100
H  32.02400 63.45000 44.11800
H  28.91300 63.61300 40.34900
H  30.35300 64.56800 40.73000
H  27.82900 65.40300 41.37600
H  29.33800 65.92400 41.98700
H  28.40900 64.70800 42.90600
H  25.04600 60.67700 40.24500
H  25.40700 60.71900 42.02300
H  24.45100 59.35600 41.26200
H  26.65200 55.64400 37.90900
H  25.69500 52.28900 40.45300
H  24.93400 52.12200 38.79800
H  24.16700 53.09300 40.18700

