158

Mg 41.05900 7.80700 29.81800
C  42.96300 9.42300 32.29200
C  39.06500 6.30700 32.16700
C  39.44300 6.20700 27.30900
C  43.62200 8.77200 27.49300
N  41.20500 7.69600 32.02400
C  41.87800 8.64500 32.82100
C  41.35600 8.51900 34.29000
C  40.19800 7.48900 34.25500
C  40.15800 7.05700 32.72100
C  40.45100 6.32100 35.17900
C  40.95200 9.93100 34.70400
C  40.63200 9.99400 36.24400
H  41.34100 11.10300 37.06000
N  39.48600 6.55200 29.73900
C  38.71000 6.09000 30.82100
C  37.66700 5.28200 30.29600
C  37.61700 5.41200 28.89700
C  38.87200 6.12600 28.60700
C  36.71900 4.35200 31.11200
C  36.63300 4.81600 27.91400
O  36.78600 4.94100 26.71700
C  35.40200 4.21600 28.37300
N  41.47800 7.40900 27.73500
C  40.65400 6.74900 26.95000
C  41.29000 6.60400 25.54900
C  42.61700 7.33200 25.62200
C  42.54100 7.94200 27.00600
C  41.39900 5.13600 25.06300
C  42.96800 8.26400 24.40300
C  42.29900 9.60500 24.46100
N  42.99200 8.95700 29.81400
C  43.88600 9.22000 28.81700
C  44.96500 9.93600 29.34900
C  44.64800 10.13900 30.69600
C  43.46100 9.44300 30.96000
C  46.28000 10.35800 28.69400
C  45.03000 10.67100 32.02500
O  46.05300 11.27500 32.28100
C  43.83800 10.38700 33.03400
C  44.35000 9.81100 34.30500
O  44.57900 8.64500 34.52300
O  44.60900 10.83200 35.20800
C  45.12700 10.34100 36.48500
H  38.35500 5.98200 32.92900
H  38.97100 5.74500 26.44000
H  44.35600 9.11000 26.75900
H  42.18800 8.22000 34.92800
H  39.28300 8.02900 34.50000
H  39.95400 5.36400 35.02100
H  40.08400 6.58900 36.17000
H  41.50800 6.17400 35.40500
H  40.10800 10.30500 34.12400
H  41.75600 10.64400 34.51900
H  40.76200 9.04800 36.77000
H  39.54800 10.10200 36.27100
H  36.88100 3.32500 30.78400
H  35.66000 4.61100 31.11200
H  37.07400 4.39200 32.14200
H  34.66800 4.37500 27.58300
H  35.06400 4.92900 29.12500
H  35.58700 3.19200 28.69700
H  40.60000 7.10500 24.87000
H  43.40000 6.57500 25.65500
H  40.77900 5.01200 24.17500
H  40.98200 4.46900 25.81800
H  42.41200 4.82700 24.80400
H  42.59600 7.84500 23.46900
H  44.05000 8.32100 24.27800
H  41.51000 9.71500 23.71800
H  43.07200 10.37300 24.42500
H  41.77200 9.80100 25.39400
H  46.10100 10.29200 27.62000
H  47.17900 9.82100 28.99800
H  46.41600 11.41300 28.93100
H  43.21800 11.25700 33.25200
H  46.16200 10.00100 36.51600
H  44.54100 9.56100 36.97100
H  45.18800 11.22000 37.12700
Mg 29.93600 59.46700 39.37800
C  26.79700 58.06200 38.51800
C  31.43700 56.82600 38.28300
C  32.49800 61.46000 39.34600
C  28.01600 62.58200 39.86300
N  29.15200 57.73700 38.26000
C  27.91700 57.25400 38.22500
C  27.90100 55.84300 37.70700
C  29.32900 55.34300 38.12600
C  30.04100 56.71500 38.27600
C  29.34600 54.53400 39.44800
C  27.60700 55.73400 36.17000
C  26.66400 54.60600 35.71200
H  26.04400 54.76800 34.26300
N  31.72600 59.12500 38.91500
C  32.20500 57.95600 38.40800
C  33.65400 58.10600 38.28800
C  34.01200 59.39700 38.65600
C  32.72700 60.09000 39.00200
C  34.42000 56.90300 37.65500
C  35.42800 60.04300 38.72400
O  36.39600 59.42500 38.32800
C  35.84700 61.24600 39.48300
N  30.18500 61.73600 39.73600
C  31.41200 62.21800 39.58300
C  31.43400 63.68900 39.40600
C  30.07100 64.12800 39.94300
C  29.34800 62.71500 39.83500
C  32.54900 64.62800 39.91700
C  29.35000 65.28600 39.23700
C  28.54900 66.11600 40.28500
N  27.84900 60.17400 39.35600
C  27.24800 61.42200 39.66300
C  25.81600 61.31800 39.59600
C  25.61400 59.99400 39.14900
C  26.83500 59.34300 39.05600
C  24.70700 62.44100 39.71200
C  24.57100 59.00800 38.78800
O  23.33300 59.01700 38.77700
C  25.37100 57.72800 38.30100
C  24.97300 56.51000 39.11300
O  25.53100 56.15600 40.14900
O  24.07200 55.82100 38.43300
C  23.94100 54.45600 38.94800
H  32.06300 55.95100 38.09500
H  33.38500 62.09500 39.29900
H  27.36800 63.46000 39.87200
H  27.05400 55.30500 38.13300
H  29.82200 54.65900 37.43500
H  28.59100 54.93000 40.12700
H  30.35500 54.71500 39.81600
H  29.25100 53.45400 39.33700
H  28.55000 55.43500 35.71300
H  27.28500 56.70600 35.79700
H  25.83600 54.54200 36.41800
H  27.20000 53.65900 35.65500
H  34.51700 56.09500 38.38100
H  35.44000 57.15800 37.36500
H  33.77200 56.48800 36.88400
H  36.93500 61.31200 39.48400
H  35.31600 61.25200 40.43400
H  35.50300 62.08900 38.88400
H  31.54300 63.95000 38.35300
H  30.14800 64.32000 41.01300
H  32.85900 65.33700 39.14900
H  33.38000 64.08700 40.36800
H  32.11600 65.18800 40.74600
H  28.53000 65.03500 38.56400
H  30.05200 65.92600 38.70300
H  28.26900 66.94200 39.63300
H  29.09800 66.37000 41.19200
H  27.61600 65.58800 40.48800
H  24.24000 62.75200 38.77800
H  25.08700 63.34700 40.18500
H  23.93300 61.97700 40.32300
H  25.21000 57.61300 37.22900
H  23.27500 53.82800 38.35600
H  23.42300 54.36700 39.90300
H  24.94100 54.02500 38.99900

