158

Mg 26.13100 1.02000 29.01700
C  28.08500 0.45500 31.85100
C  23.31000 0.94700 30.95000
C  24.25900 1.28900 26.25600
C  28.88000 0.16700 27.00600
N  25.79800 0.67600 31.15800
C  26.71800 0.64500 32.17300
C  26.05400 0.98900 33.51100
C  24.54800 0.84100 33.20200
C  24.53100 0.88200 31.64900
C  23.67200 -0.33100 33.73900
C  26.54200 2.39400 33.88200
C  27.50900 2.42200 35.10600
H  27.46800 3.31200 36.31400
N  24.00600 1.10400 28.63100
C  23.07200 1.00500 29.58600
C  21.80300 1.08000 28.87300
C  21.98000 1.23700 27.50900
C  23.43700 1.27100 27.42100
C  20.51200 0.99800 29.56300
C  20.95500 1.29000 26.29600
O  21.39700 1.56400 25.12700
C  19.50600 0.98200 26.45100
N  26.50400 0.71900 26.92400
C  25.60000 1.15100 26.00700
C  26.26900 1.15500 24.60900
C  27.76700 0.93500 24.90400
C  27.71200 0.59800 26.38300
C  25.68700 0.09100 23.67100
C  28.65300 2.24800 24.60400
C  28.32700 3.46400 25.37000
N  28.02900 0.41100 29.25300
C  29.05100 0.09700 28.38300
C  30.26800 -0.24800 29.03600
C  29.90600 -0.06500 30.39900
C  28.57200 0.32000 30.50100
C  31.45400 -0.83700 28.36800
C  30.44800 -0.10400 31.73300
O  31.61100 -0.30100 32.10600
C  29.31800 0.25900 32.69200
C  29.20800 -0.71600 33.83100
O  28.73100 -1.84500 33.76600
O  29.49000 -0.10700 35.00800
C  29.39200 -0.84600 36.28800
H  22.48800 1.07300 31.65900
H  23.71000 1.48500 25.33200
H  29.80400 -0.04500 26.46500
H  26.30600 0.15200 34.16200
H  23.99000 1.69100 33.59300
H  22.98600 0.11100 34.46100
H  24.27600 -0.95900 34.39400
H  23.25600 -0.87900 32.89300
H  25.73300 3.10300 34.05900
H  27.16600 2.83100 33.10100
H  28.49800 2.62500 34.69600
H  27.52500 1.39200 35.46200
H  19.89200 0.17200 29.21400
H  20.02300 1.94500 29.33800
H  20.57800 0.93100 30.64900
H  19.38200 0.19300 27.19300
H  18.98300 0.89400 25.49800
H  18.94300 1.82900 26.84200
H  26.02800 2.13800 24.20500
H  28.11000 0.03800 24.38800
H  24.78700 -0.39600 24.04700
H  26.31300 -0.71200 23.28200
H  25.27600 0.70900 22.87200
H  28.42100 2.43000 23.55400
H  29.72800 2.07100 24.61100
H  27.63800 3.15500 26.15600
H  27.82700 4.16900 24.70600
H  29.25800 3.93100 25.69100
H  31.94300 -0.01600 27.84400
H  31.14900 -1.68800 27.75800
H  32.09600 -1.15600 29.18800
H  29.60700 1.26300 33.00200
H  29.31100 -1.93100 36.20900
H  28.48300 -0.39000 36.67900
H  30.21900 -0.67600 36.97700
Mg -9.87900 16.83500 41.66900
C  -6.22900 16.57800 41.77700
C  -9.46700 20.33700 41.51700
C  -12.90700 16.77700 40.70700
C  -9.75700 13.26500 41.63700
N  -8.16400 18.23200 41.52500
C  -6.77200 17.90300 41.65200
C  -5.99400 19.15700 41.53800
C  -6.97300 20.24800 42.03000
C  -8.28200 19.59200 41.58900
C  -7.03100 20.55800 43.56200
C  -5.57000 19.34700 40.07900
C  -4.09100 18.83400 39.69500
H  -3.90900 18.03100 38.42300
N  -11.01900 18.36000 41.15800
C  -10.70000 19.71800 41.16900
C  -11.90000 20.37800 40.83200
C  -12.96000 19.41500 40.70800
C  -12.37100 18.07000 40.81500
C  -11.92700 21.93300 40.57700
C  -14.41100 19.71800 40.49400
O  -14.77700 20.82400 40.14100
C  -15.46100 18.66600 40.32300
N  -11.11500 15.17000 41.04100
C  -12.36400 15.51300 40.80100
C  -13.19000 14.24800 40.55700
C  -12.20100 13.07800 41.01300
C  -10.98400 13.83300 41.27900
C  -14.50800 14.26200 41.25400
C  -12.07500 11.97600 40.02100
C  -12.89400 10.67500 40.26700
N  -8.31400 15.15000 41.80900
C  -8.43600 13.78300 41.91500
C  -7.15600 13.11400 42.13300
C  -6.26500 14.18700 42.13400
C  -6.99000 15.38400 41.83300
C  -6.81500 11.72400 42.23300
C  -4.87500 14.58000 42.28000
O  -3.86600 13.97200 42.55900
C  -4.78300 16.10100 42.02000
C  -4.07500 16.80200 43.10200
O  -3.05900 17.46200 42.99400
O  -4.66200 16.63800 44.36100
C  -4.01800 17.22900 45.53500
H  -9.33800 21.42200 41.52900
H  -13.89400 16.71500 40.24200
H  -9.81500 12.19200 41.83300
H  -5.14900 19.12200 42.22600
H  -6.85000 21.15800 41.44200
H  -6.15300 20.32900 44.16600
H  -7.85200 20.05100 44.06700
H  -7.09300 21.62800 43.76400
H  -5.68800 20.41800 39.91200
H  -6.22000 18.72500 39.46300
H  -3.70000 18.32800 40.57700
H  -3.58100 19.78800 39.56200
H  -12.00700 22.47300 41.52000
H  -12.87600 22.30200 40.19000
H  -11.12200 22.35900 39.97900
H  -15.50900 18.06400 39.41600
H  -16.47100 19.07800 40.31100
H  -15.37300 17.99900 41.18000
H  -13.36700 14.25100 39.48100
H  -12.48500 12.63900 41.96900
H  -15.35500 14.39300 40.58100
H  -14.46600 15.05500 42.00000
H  -14.73200 13.33200 41.77600
H  -11.02000 11.73700 39.88600
H  -12.42800 12.34400 39.05700
H  -13.31100 10.71400 41.27400
H  -12.29800 9.77900 40.09500
H  -13.69000 10.57400 39.52900
H  -5.90400 11.62200 42.82400
H  -6.47100 11.39900 41.25100
H  -7.60700 11.03000 42.51300
H  -4.21300 16.22100 41.09800
H  -3.09300 16.66600 45.66000
H  -4.61900 17.12300 46.43800
H  -3.82800 18.29500 45.41100

