158

Mg 45.83600 5.34400 48.24700
C  43.45400 7.90800 47.29700
C  43.28700 3.07800 47.14400
C  48.09400 3.07900 48.11700
C  48.17000 7.86800 48.66700
N  43.52600 5.49700 47.38600
C  42.93900 6.62600 46.97900
C  41.62500 6.33800 46.25700
C  41.39600 4.82600 46.65200
C  42.83300 4.40000 47.06000
C  40.34200 4.66600 47.80700
C  41.60500 6.66300 44.75400
C  40.41300 7.56400 44.28500
H  39.57800 7.04400 43.10000
N  45.72900 3.31000 47.87100
C  44.60400 2.60300 47.47200
C  45.02700 1.17100 47.44700
C  46.44000 1.10300 47.54900
C  46.82700 2.51800 47.82400
C  44.06800 0.05500 47.17800
C  47.25900 -0.13300 47.47600
O  46.73200 -1.22800 47.22300
C  48.86900 -0.18900 47.58800
N  47.83800 5.51100 48.29200
C  48.58700 4.35300 48.34900
C  50.03500 4.59000 48.73100
C  50.00800 6.12400 48.94600
C  48.59600 6.52800 48.63600
C  50.61500 3.73600 49.84700
C  51.01400 6.94100 48.09900
C  52.00800 7.98700 48.79800
N  45.82700 7.46700 48.26700
C  46.89800 8.32500 48.41900
C  46.41600 9.66400 48.08100
C  45.07600 9.55900 47.73900
C  44.74400 8.17900 47.83000
C  47.34400 10.84600 48.07600
C  43.84900 10.27300 47.36000
O  43.73600 11.49500 47.06600
C  42.76000 9.24200 47.12700
C  41.78800 9.50500 48.29400
O  41.87600 8.85700 49.32300
O  40.87200 10.44900 47.98200
C  39.80000 10.66600 48.96200
H  42.55100 2.31800 46.87400
H  48.92900 2.39300 48.27300
H  48.91100 8.63700 48.89500
H  40.88400 6.90800 46.81600
H  41.00300 4.30300 45.78000
H  39.80900 5.55300 48.14900
H  40.78100 4.27800 48.72600
H  39.58300 3.91200 47.60000
H  41.68700 5.73000 44.19600
H  42.47300 7.27600 44.51100
H  40.87300 8.50000 43.96900
H  39.80000 7.84100 45.14300
H  43.07200 0.44700 46.97000
H  43.84900 -0.52900 48.07200
H  44.42200 -0.57400 46.36100
H  49.25700 -1.20700 47.55400
H  49.13600 0.10400 48.60300
H  49.41100 0.48500 46.92400
H  50.69100 4.33300 47.90000
H  50.24800 6.35400 49.98400
H  51.41300 4.18900 50.43400
H  50.93200 2.82000 49.34800
H  49.83900 3.29600 50.47400
H  50.41400 7.57000 47.44100
H  51.62800 6.28500 47.48300
H  51.80200 8.96300 48.35900
H  53.02000 7.68800 48.52500
H  52.05400 7.98500 49.88700
H  47.87900 10.86800 47.12700
H  47.98800 10.88600 48.95500
H  46.67200 11.70100 48.15200
H  42.20400 9.34500 46.19500
H  39.52700 9.76600 49.51300
H  38.93000 10.94900 48.36900
H  40.03700 11.50000 49.62400
Mg 42.70000 41.35100 26.22100
C  41.92200 43.92200 28.55100
C  43.62800 39.38300 28.66300
C  43.78200 39.25500 23.77600
C  41.99500 43.77700 23.68000
N  42.57500 41.59200 28.37000
C  42.26900 42.68400 29.12200
C  42.21800 42.26600 30.61700
C  43.01700 40.92100 30.58900
C  43.11900 40.60700 29.11100
C  44.41000 40.94500 31.32100
C  40.76900 42.27400 31.26700
C  40.58800 43.18100 32.45400
H  40.19200 42.59900 33.78600
N  43.35500 39.58500 26.20000
C  43.73700 38.91700 27.34900
C  44.36400 37.59600 26.96100
C  44.02400 37.42800 25.59100
C  43.70300 38.79000 25.09000
C  44.96800 36.68400 28.06300
C  43.98800 36.24600 24.72000
O  43.37500 36.35300 23.66600
C  44.47900 34.91500 25.14900
N  42.95100 41.52900 24.00800
C  43.44600 40.53100 23.29300
C  43.32000 40.73300 21.73800
C  42.63600 42.13300 21.72600
C  42.46500 42.49300 23.21300
C  44.70500 40.57000 20.92900
C  41.20200 42.13500 21.13600
C  40.67100 43.32900 20.31000
N  42.00000 43.40000 26.11900
C  41.73200 44.19000 25.02200
C  41.11100 45.41300 25.48400
C  41.17200 45.36500 26.83100
C  41.74200 44.16300 27.17000
C  40.67000 46.55600 24.51700
C  40.87500 46.14300 28.05600
O  40.25200 47.15500 28.17300
C  41.32200 45.22200 29.25400
C  42.38600 45.77700 30.11800
O  43.59800 45.59300 29.96700
O  41.83400 46.60800 31.06200
C  42.80800 47.26000 31.83800
H  43.94000 38.71000 29.46500
H  44.08900 38.66400 22.91100
H  41.72000 44.56800 22.98000
H  42.87200 43.03800 31.02300
H  42.41200 40.19900 31.13600
H  44.44300 40.09400 32.00100
H  44.48400 41.85600 31.91500
H  45.22200 40.98800 30.59400
H  40.58600 41.24600 31.58000
H  39.97800 42.48500 30.54800
H  39.75700 43.78400 32.08900
H  41.33800 43.96100 32.58400
H  45.30300 37.25900 28.92600
H  45.86000 36.20900 27.65600
H  44.25500 35.92500 28.38400
H  45.54800 35.04700 25.31500
H  44.44000 34.15500 24.36900
H  44.05100 34.60600 26.10300
H  42.54300 40.05400 21.38900
H  43.05800 42.94200 21.12900
H  45.27400 39.72700 21.32200
H  45.28200 41.47700 20.75000
H  44.43900 40.21800 19.93300
H  40.53500 42.08000 21.99700
H  40.93700 41.36500 20.41200
H  40.24000 44.07400 20.98000
H  39.93600 42.85200 19.66000
H  41.48400 43.81700 19.77300
H  40.14200 46.24900 23.61400
H  41.55900 47.16500 24.34800
H  39.97400 47.20100 25.05200
H  40.46100 44.99600 29.88300
H  43.54500 47.77200 31.22000
H  43.33500 46.60900 32.53500
H  42.33700 48.06500 32.40200

