158

Mg 1.40200 8.46000 25.09400
C  2.47300 10.42900 27.95100
C  1.69100 5.74200 27.03600
C  0.42200 6.72000 22.39600
C  1.67900 11.33700 23.08800
N  1.90500 8.11100 27.34100
C  2.32600 9.07200 28.27800
C  2.24200 8.39500 29.68400
C  2.32800 6.86400 29.30800
C  2.03400 6.89900 27.78500
C  3.58900 6.03400 29.67900
C  0.97600 8.76200 30.43200
C  1.02300 8.84400 31.97000
H  2.08600 7.99300 32.78100
N  0.95400 6.43100 24.78100
C  1.14000 5.44100 25.74300
C  0.65000 4.26700 25.16400
C  0.31500 4.51600 23.86300
C  0.52600 5.94000 23.60900
C  0.75600 2.95700 25.81100
C  -0.14300 3.59900 22.69300
O  -0.33900 3.99100 21.59100
C  -0.31900 2.13100 22.94400
N  1.28000 8.98900 23.07400
C  0.82100 8.05500 22.15200
C  0.95500 8.56600 20.73000
C  1.05800 10.16600 21.03100
C  1.47400 10.12700 22.49500
C  2.13800 8.06700 19.83400
C  -0.33700 10.82200 20.68500
C  -0.18900 12.21600 19.98500
N  1.96500 10.50000 25.42100
C  1.97900 11.53000 24.48000
C  2.36700 12.74500 25.15100
C  2.41400 12.40600 26.56900
C  2.20300 11.00300 26.66600
C  2.66600 14.05800 24.53700
C  2.72400 12.89700 27.88700
O  3.01700 13.99500 28.33900
C  2.75800 11.59000 28.82400
C  4.00900 11.37800 29.56000
O  4.97100 10.73500 29.26700
O  3.83000 11.92100 30.76200
C  4.94500 11.57800 31.69400
H  1.69700 4.89000 27.71900
H  0.10800 6.23000 21.47200
H  1.77400 12.27000 22.52900
H  3.03900 8.83300 30.28600
H  1.53700 6.25000 29.74100
H  4.03600 6.64800 30.46100
H  4.23300 5.77900 28.83700
H  3.17800 5.12600 30.11900
H  0.22000 8.06400 30.07200
H  0.72100 9.70700 29.95200
H  0.04300 8.74400 32.43700
H  1.26400 9.86800 32.25600
H  -0.23600 2.58300 26.06200
H  1.31900 2.93000 26.74400
H  1.37900 2.20900 25.32100
H  -0.89300 2.01400 23.86300
H  0.67700 1.69900 23.03900
H  -0.74400 1.64700 22.06500
H  0.07300 8.29300 20.15100
H  1.85600 10.63700 20.45700
H  2.78200 7.31700 20.29300
H  2.76500 8.84100 19.39100
H  1.59700 7.55100 19.04100
H  -0.81500 10.94500 21.65700
H  -0.98700 10.14400 20.13200
H  -0.91700 12.29600 19.17800
H  0.73400 12.51800 19.48800
H  -0.46000 12.99400 20.69800
H  2.04100 14.10700 23.64500
H  3.74600 14.13500 24.40700
H  2.40500 14.85600 25.23200
H  1.94600 11.68200 29.54600
H  5.00700 10.51500 31.92400
H  4.70000 12.10300 32.61800
H  5.89200 11.88900 31.25300
Mg -9.56700 18.34700 42.11600
C  -6.20800 17.58900 42.27600
C  -8.73100 21.67100 41.45300
C  -12.80600 18.86100 41.21000
C  -10.16400 14.79500 42.39400
N  -7.72700 19.48000 41.74500
C  -6.49500 18.97000 42.01900
C  -5.44500 19.99100 41.73200
C  -6.20300 21.35500 41.81700
C  -7.70600 20.79300 41.77100
C  -6.00300 22.34900 42.96800
C  -4.60900 19.89500 40.30100
C  -5.34000 19.28200 39.18300
H  -5.07400 19.78700 37.69000
N  -10.68200 20.03700 41.49100
C  -10.12400 21.29800 41.29600
C  -11.21300 22.21700 40.94400
C  -12.46400 21.50200 40.85800
C  -12.03000 20.07900 41.19800
C  -10.98500 23.71200 40.80500
C  -13.80700 22.08000 40.51200
O  -13.90300 23.28900 40.42400
C  -15.00000 21.22300 40.29100
N  -11.14500 17.00400 41.66500
C  -12.41000 17.48600 41.50200
C  -13.48000 16.37800 41.44500
C  -12.56000 15.08400 41.63800
C  -11.16400 15.62900 41.93900
C  -14.59100 16.47600 42.50500
C  -12.65200 14.09100 40.43800
C  -12.57900 12.57900 40.72100
N  -8.47600 16.45000 42.49600
C  -8.77000 15.13500 42.56900
C  -7.53700 14.32200 42.90600
C  -6.57200 15.35800 42.74000
C  -7.15400 16.59700 42.52800
C  -7.39500 12.91400 43.12600
C  -5.13800 15.43000 42.75100
O  -4.26400 14.58500 42.86700
C  -4.83800 16.90100 42.47000
C  -3.99900 17.35400 43.62100
O  -2.95400 17.99400 43.53000
O  -4.51200 16.94700 44.82600
C  -3.76200 17.26800 46.04100
H  -8.43300 22.70300 41.25200
H  -13.83800 19.06800 40.91800
H  -10.34000 13.73400 42.58500
H  -4.76300 19.91100 42.57800
H  -6.13300 21.84200 40.84400
H  -6.87400 22.79100 43.45100
H  -5.41700 23.19800 42.61500
H  -5.55500 21.80000 43.79600
H  -3.72000 19.31600 40.54700
H  -4.27300 20.87200 39.95200
H  -6.37400 19.43500 39.49000
H  -5.03400 18.23600 39.16000
H  -11.51800 24.05600 39.91800
H  -9.94000 24.00900 40.72300
H  -11.35400 24.25700 41.67300
H  -15.28300 20.67400 41.18900
H  -14.84700 20.49600 39.49300
H  -15.86700 21.84100 40.05300
H  -14.04600 16.33100 40.51500
H  -12.77100 14.50100 42.53400
H  -14.72900 17.55600 42.55300
H  -14.18900 16.08800 43.44200
H  -15.55200 16.10500 42.14900
H  -11.74900 14.37600 39.89700
H  -13.52300 14.26100 39.80500
H  -13.27600 12.11300 40.02500
H  -12.91900 12.36100 41.73400
H  -11.62600 12.05400 40.64800
H  -6.56500 12.56900 42.50900
H  -8.32800 12.38700 42.92500
H  -7.11500 12.71200 44.15900
H  -4.33200 16.84700 41.50600
H  -3.66200 16.35400 46.62600
H  -4.35100 18.02900 46.55300
H  -2.77600 17.68700 45.84100

