158

Mg 1.16600 7.51200 26.29000
C  1.46400 9.73300 29.05700
C  1.80400 5.01100 28.42300
C  1.17100 5.64300 23.68400
C  1.19600 10.44600 24.21800
N  1.64200 7.43700 28.54500
C  1.55300 8.36400 29.48400
C  1.63400 7.80400 30.91800
C  2.09200 6.28900 30.60000
C  1.89200 6.23700 29.11300
C  3.53200 5.85800 31.13000
C  0.25400 7.91000 31.67900
C  0.27500 8.05200 33.19900
H  1.40300 7.39600 33.98000
N  1.27800 5.55400 26.08000
C  1.61400 4.67900 27.09300
C  1.58700 3.33000 26.53600
C  1.38900 3.50300 25.09800
C  1.29400 4.95300 24.88700
C  1.71800 2.05500 27.30900
C  1.34300 2.46100 23.92000
O  1.23500 2.70100 22.67900
C  1.48800 0.95300 24.18600
N  1.29300 7.99400 24.19700
C  1.14600 6.98000 23.33500
C  0.99100 7.55900 21.92200
C  0.64200 9.05300 22.16300
C  0.96000 9.19200 23.63900
C  2.35700 7.40800 21.08000
C  -0.87400 9.42200 21.87000
C  -1.13700 10.33300 20.63100
N  1.37900 9.57300 26.50800
C  1.41100 10.64400 25.59000
C  1.49100 11.91300 26.23500
C  1.47600 11.61600 27.56600
C  1.46300 10.21100 27.68300
C  1.34600 13.25800 25.74500
C  1.55800 12.25500 28.87500
O  1.70000 13.39900 29.18300
C  1.56900 10.99700 29.92700
C  2.63800 11.05700 30.91900
O  3.83000 11.25000 30.59300
O  2.26100 10.78400 32.20400
C  3.27100 10.99600 33.20400
H  1.99200 4.16800 29.09200
H  1.16500 5.05500 22.76300
H  1.18200 11.26800 23.49900
H  2.46000 8.30800 31.42000
H  1.55000 5.46100 31.05700
H  4.13600 6.69300 31.48500
H  4.08100 5.35200 30.33600
H  3.52700 5.17600 31.98000
H  -0.34600 7.00900 31.55400
H  -0.30600 8.65800 31.11800
H  -0.63300 7.63300 33.63200
H  0.32500 9.10400 33.48100
H  0.74400 1.76200 27.70200
H  2.38700 2.25500 28.14600
H  2.26500 1.28900 26.75900
H  0.72000 0.68700 24.91200
H  2.37500 0.51500 24.64400
H  1.37900 0.23500 23.37200
H  0.19200 6.99200 21.44300
H  1.44900 9.52500 21.60200
H  2.14900 6.70300 20.27600
H  3.14100 6.92100 21.66100
H  2.70100 8.29600 20.55100
H  -1.21100 9.97800 22.74400
H  -1.44000 8.49300 21.79800
H  -1.92100 9.90300 20.00800
H  -0.20100 10.45800 20.08700
H  -1.45100 11.33700 20.91600
H  2.25200 13.86100 25.69200
H  0.67500 13.77900 26.42800
H  0.97800 13.28000 24.71900
H  0.65100 11.08000 30.50800
H  3.44900 12.06400 33.08400
H  4.16900 10.44500 32.92300
H  3.03400 10.80200 34.25000
Mg -1.32600 34.20900 27.67000
C  -2.94400 32.66100 30.47200
C  0.18700 36.30900 29.65900
C  -0.57700 36.01300 24.87200
C  -3.31700 32.02900 25.68700
N  -1.61000 34.53800 29.81500
C  -2.13600 33.70800 30.73200
C  -1.53900 34.02700 32.19400
C  -0.55400 35.23700 31.88700
C  -0.62400 35.35000 30.29600
C  -0.64800 36.57900 32.68500
C  -0.92000 32.84300 33.00100
C  -1.55800 32.25800 34.24700
H  -0.67400 32.13100 35.46500
N  -0.20700 35.87700 27.28300
C  0.37700 36.60600 28.28200
C  1.23400 37.56200 27.65000
C  1.08900 37.38300 26.27400
C  0.04800 36.39700 26.03500
C  2.15900 38.44600 28.41000
C  1.83300 37.98400 25.17400
O  1.80600 37.60800 24.02800
C  2.59900 39.24800 25.53800
N  -1.83900 34.10000 25.59300
C  -1.55200 35.03700 24.70900
C  -2.15200 34.71800 23.30100
C  -2.70100 33.24100 23.54200
C  -2.62000 33.07300 24.99200
C  -3.16900 35.70900 22.73000
C  -2.03300 32.03200 22.82800
C  -0.53600 31.87500 22.58800
N  -2.58400 32.53700 27.96200
C  -3.31900 31.81100 27.04800
C  -4.18700 30.88200 27.70800
C  -4.01500 31.18200 29.04200
C  -3.15300 32.20700 29.14300
C  -5.05500 29.85800 27.16500
C  -4.43800 30.85000 30.37100
O  -5.21900 30.00000 30.74600
C  -3.70200 31.77700 31.39600
C  -4.64700 32.61400 32.20700
O  -5.27100 33.54500 31.76500
O  -4.53800 32.24500 33.48100
C  -5.38100 33.06200 34.48000
H  0.83300 36.75100 30.42000
H  -0.27200 36.48200 23.93400
H  -3.89800 31.31800 25.09600
H  -2.29500 34.51200 32.81300
H  0.46200 34.87000 32.03000
H  -1.29700 36.42800 33.54800
H  -1.22600 37.20900 32.00900
H  0.26500 37.07800 33.00800
H  0.07300 33.20200 33.27000
H  -0.67700 32.08300 32.25900
H  -2.00700 31.29500 34.00400
H  -2.35800 32.92400 34.57000
H  3.16100 38.07600 28.19100
H  2.05100 38.47400 29.49400
H  2.07700 39.51800 28.23400
H  1.87500 39.91100 26.01200
H  3.10600 39.76800 24.72500
H  3.38000 38.83300 26.17500
H  -1.37300 34.71700 22.53800
H  -3.75000 33.25000 23.24800
H  -3.81600 36.04300 23.54100
H  -3.85000 35.30700 21.98000
H  -2.69300 36.53900 22.20900
H  -2.52700 31.96700 21.85800
H  -2.35900 31.03300 23.11600
H  0.02400 32.62100 23.15200
H  -0.34800 32.06400 21.53100
H  -0.29600 30.85400 22.88400
H  -4.87200 29.66400 26.10800
H  -6.06100 30.24300 27.33300
H  -4.94900 28.92200 27.71300
H  -2.99000 31.20000 31.98500
H  -4.84500 33.20800 35.41700
H  -6.32500 32.57200 34.71700
H  -5.59000 34.06400 34.10400

