158

Mg 30.11100 58.72500 39.48300
C  27.39700 56.45900 38.54200
C  32.27800 56.23000 38.43900
C  32.47800 60.97600 39.22900
C  27.59800 61.23500 39.77200
N  29.81500 56.57900 38.68500
C  28.67200 55.97200 38.27600
C  28.98900 54.66000 37.49600
C  30.52800 54.46600 37.73100
C  30.89500 55.85300 38.25400
C  30.97200 53.28400 38.66500
C  28.58800 54.86300 36.00500
C  27.75300 53.75200 35.29300
H  27.63900 53.85800 33.78900
N  32.12100 58.62600 39.02900
C  32.83100 57.44000 38.74800
C  34.22800 57.77000 38.73100
C  34.32500 59.16800 38.97100
C  32.96800 59.68800 39.03800
C  35.32100 56.70400 38.43800
C  35.59300 60.00100 39.04800
O  36.68700 59.49700 38.97200
C  35.59600 61.46500 39.10200
N  30.03500 60.85800 39.60200
C  31.19400 61.59600 39.50600
C  30.86900 63.10800 39.53800
C  29.42400 63.07400 40.02000
C  28.92200 61.63800 39.78400
C  31.82400 63.95100 40.42200
C  28.58900 64.22100 39.34300
C  27.50800 64.79800 40.26500
N  27.87500 58.85800 39.34200
C  27.07200 59.95500 39.47000
C  25.63700 59.55800 39.29300
C  25.73100 58.16900 38.97600
C  27.13400 57.81900 38.95600
C  24.35700 60.46000 39.49500
C  24.92100 56.97800 38.74900
O  23.68400 56.81800 38.71000
C  26.03400 55.88800 38.43600
C  25.88600 54.73300 39.37700
O  26.08600 54.72700 40.61300
O  25.26800 53.76300 38.63800
C  24.62900 52.67100 39.40900
H  32.95600 55.43700 38.11700
H  33.13100 61.85000 39.17700
H  26.82100 62.00200 39.80000
H  28.38900 53.89100 37.98200
H  31.17800 54.34400 36.86500
H  31.46800 53.72300 39.53000
H  31.66700 52.55300 38.25000
H  30.18300 52.61800 39.01400
H  29.44700 55.02700 35.35500
H  27.96000 55.75100 35.94200
H  26.72800 53.92300 35.62100
H  28.01400 52.74700 35.62600
H  36.19200 57.24800 38.07300
H  34.95100 55.91200 37.78700
H  35.58000 56.31300 39.42200
H  35.14600 61.83800 40.02200
H  34.98800 61.78500 38.25600
H  36.58500 61.88700 38.92400
H  30.91600 63.60700 38.57000
H  29.52500 63.18400 41.09900
H  32.63800 64.50500 39.95400
H  32.35300 63.14900 40.93600
H  31.33600 64.62700 41.12300
H  28.09900 63.84000 38.44700
H  29.25200 65.03400 39.04700
H  27.64100 64.40500 41.27300
H  26.48700 64.63300 39.92000
H  27.65600 65.86400 40.43900
H  24.24400 60.61900 40.56800
H  23.55100 60.00000 38.92300
H  24.37000 61.49200 39.14600
H  25.78700 55.49400 37.45100
H  25.34100 52.04500 39.94700
H  24.17600 51.93500 38.74500
H  23.86100 53.10600 40.04900
Mg 36.03000 48.56900 24.05900
C  36.51700 46.77000 27.04400
C  34.33700 50.93200 25.77500
C  35.39700 49.98200 21.14600
C  37.37000 45.65800 22.26200
N  35.46500 48.74200 26.14500
C  35.93600 48.04200 27.29500
C  35.54600 48.65600 28.56100
C  34.71900 49.92500 28.09100
C  34.76000 49.83200 26.58300
C  33.29000 50.19000 28.70100
C  36.84300 49.07900 29.34400
C  36.85800 48.89600 30.89600
H  35.56000 49.14400 31.63000
N  35.08200 50.25200 23.47500
C  34.40800 51.12600 24.33800
C  34.03000 52.30100 23.59900
C  34.23700 51.99200 22.21400
C  34.95600 50.69900 22.18800
C  33.56300 53.51200 24.31500
C  33.80500 52.78300 20.98700
O  34.12400 52.50200 19.82800
C  33.18400 54.10000 21.28300
N  36.46600 47.99200 21.99000
C  36.11300 48.80200 21.03000
C  36.49500 48.29600 19.63600
C  37.25600 46.90000 19.97500
C  37.07600 46.83500 21.47800
C  35.28500 48.02300 18.61400
C  38.81500 46.94800 19.65500
C  39.26900 46.18300 18.44000
N  36.73100 46.68200 24.50000
C  37.20400 45.60700 23.66300
C  37.36600 44.41400 24.50700
C  37.17400 44.87400 25.83300
C  36.72300 46.20300 25.77000
C  37.57200 43.03400 24.02000
C  37.27100 44.42200 27.26700
O  37.65100 43.42700 27.79400
C  36.87800 45.68400 28.04400
C  35.75900 45.44100 28.97300
O  34.62500 45.34700 28.59700
O  36.21100 45.28700 30.28000
C  35.11600 45.01500 31.27800
H  33.84700 51.73800 26.32500
H  35.23600 50.42600 20.16200
H  37.70500 44.76000 21.73700
H  34.80000 48.09500 29.12400
H  35.28800 50.82900 28.31200
H  33.37200 49.74500 29.69200
H  32.50000 49.71200 28.12000
H  33.08300 51.25800 28.76100
H  37.12500 50.07500 29.00300
H  37.66900 48.50400 28.92600
H  37.65600 49.52900 31.28400
H  37.24300 47.88600 31.03300
H  34.14800 54.30200 23.84300
H  33.81900 53.48600 25.37400
H  32.48100 53.48500 24.19200
H  32.27400 53.80500 21.80700
H  33.05000 54.53300 20.29100
H  33.78500 54.76100 21.90800
H  37.25900 48.96200 19.23500
H  36.80900 46.06900 19.43000
H  34.48300 48.69000 18.93200
H  34.93400 46.99100 18.58600
H  35.48800 48.38700 17.60700
H  39.47100 46.63400 20.46700
H  39.22100 47.94900 19.50800
H  38.49700 45.92500 17.71500
H  39.76800 45.23100 18.62000
H  39.96000 46.88500 17.97400
H  37.56100 42.33700 24.85800
H  38.55800 42.85700 23.59000
H  36.84500 42.68800 23.28500
H  37.69500 45.99400 28.69400
H  35.60900 44.94200 32.24700
H  34.75600 43.99600 31.13600
H  34.22600 45.64400 31.26900

