158

Mg 24.82800 -6.79100 47.28300
C  27.23900 -4.51900 46.16600
C  22.74600 -5.61100 44.86700
C  22.99200 -9.51600 47.75800
C  27.40300 -8.33300 49.31600
N  25.04600 -5.37100 45.59400
C  26.02700 -4.43600 45.46600
C  25.73800 -3.41800 44.38000
C  24.22500 -3.54700 44.26800
C  23.98000 -4.90000 44.88600
C  23.40000 -2.47300 45.09500
C  26.44100 -3.72900 43.05800
C  27.33200 -2.70000 42.34300
H  27.06700 -2.32700 40.81400
N  23.05900 -7.44600 46.57200
C  22.35000 -6.79200 45.56200
C  21.05500 -7.43700 45.51600
C  21.06300 -8.58600 46.38500
C  22.39100 -8.56500 46.98100
C  19.87800 -6.95900 44.64100
C  19.91600 -9.47800 46.69400
O  18.76800 -9.27800 46.12600
C  20.04300 -10.43200 47.76900
N  25.06400 -8.48300 48.58500
C  24.11700 -9.53300 48.41600
C  24.37000 -10.59500 49.49200
C  25.81500 -10.27600 49.99000
C  26.13800 -8.97800 49.24100
C  23.26400 -10.62500 50.60900
C  26.79300 -11.50300 49.84100
C  28.04000 -11.47400 50.70800
N  26.90800 -6.42700 47.85100
C  27.77900 -7.13600 48.65000
C  29.05100 -6.50900 48.59700
C  28.83900 -5.45300 47.64200
C  27.56700 -5.45800 47.18700
C  30.27000 -6.78700 49.46600
C  29.53300 -4.36700 47.00800
O  30.63500 -3.90900 47.16000
C  28.51200 -3.72800 45.98300
C  28.35300 -2.30600 46.28800
O  27.63400 -1.87400 47.19400
O  28.83700 -1.63000 45.21900
C  28.50000 -0.19000 45.36900
H  22.03000 -5.12400 44.20300
H  22.61400 -10.54000 47.76000
H  28.28100 -8.78600 49.78000
H  26.01600 -2.40500 44.66900
H  23.83800 -3.42900 43.25600
H  23.00400 -2.92700 46.00400
H  22.52100 -2.14800 44.53800
H  23.95600 -1.58700 45.40300
H  25.61700 -4.06700 42.42900
H  27.20900 -4.48100 43.23800
H  28.35200 -3.08400 42.34700
H  27.34100 -1.77600 42.92200
H  19.78000 -7.70900 43.85600
H  20.06900 -5.96900 44.22700
H  18.96300 -6.76300 45.20000
H  20.65900 -11.24400 47.38100
H  19.06100 -10.87900 47.92500
H  20.41900 -9.92400 48.65600
H  24.18200 -11.56600 49.03400
H  25.90100 -10.00000 51.04100
H  22.39000 -10.08200 50.24700
H  23.58000 -10.26900 51.59000
H  22.93200 -11.61900 50.90700
H  27.18800 -11.38100 48.83200
H  26.32700 -12.48800 49.88800
H  28.94400 -11.38300 50.10700
H  28.00400 -12.31200 51.40500
H  27.96300 -10.58000 51.32600
H  30.97500 -5.97300 49.63700
H  30.85900 -7.61900 49.08000
H  30.05000 -7.12200 50.48000
H  29.14100 -3.81700 45.09700
H  27.45600 -0.03600 45.64200
H  28.57100 0.22200 44.36200
H  29.10400 0.32500 46.11600
Mg 46.80300 16.39700 27.51600
C  45.19000 16.16700 30.64600
C  48.78400 18.85500 28.96100
C  48.11700 16.85100 24.47700
C  44.21100 14.57200 26.08500
N  47.01400 17.26500 29.63400
C  46.28800 17.00800 30.74100
C  46.94500 17.58600 32.07100
C  47.96400 18.62400 31.48400
C  47.90100 18.26500 29.94800
C  47.66400 20.14300 31.83000
C  47.52700 16.45800 32.94600
C  47.16100 16.42000 34.44500
H  48.41200 16.17400 35.33900
N  48.26100 17.59500 26.80700
C  48.97400 18.56000 27.56000
C  49.92000 19.15600 26.69700
C  49.84000 18.52000 25.38700
C  48.74100 17.58000 25.50100
C  50.83000 20.25800 27.24500
C  50.64300 18.71400 24.10100
O  50.49200 18.04000 23.06000
C  51.84100 19.59100 24.02500
N  46.14100 15.86400 25.52000
C  46.96400 16.04100 24.46500
C  46.43800 15.26500 23.23900
C  45.36700 14.34000 23.82500
C  45.30900 14.85600 25.26100
C  45.83500 16.27300 22.22200
C  45.30200 12.80500 23.57000
C  46.68400 12.17400 23.77800
N  45.12600 15.58100 28.16700
C  44.10500 14.98600 27.47400
C  43.03200 14.57500 28.32000
C  43.38000 15.00800 29.60800
C  44.71600 15.60100 29.44700
C  41.86400 13.65100 27.93100
C  43.01800 14.98300 31.07400
O  42.06300 14.45800 31.65900
C  44.20800 15.77800 31.78200
C  43.51000 17.01200 32.37200
O  43.36200 18.09200 31.76200
O  43.05200 16.68900 33.62200
C  41.98300 17.58500 34.16100
H  49.43100 19.63200 29.37300
H  48.50100 17.00400 23.46600
H  43.33500 14.03700 25.71400
H  46.21700 18.21700 32.58200
H  48.94000 18.52900 31.95900
H  47.72500 20.80200 30.96400
H  48.41700 20.65700 32.42800
H  46.65600 20.28500 32.22100
H  48.61100 16.50700 32.84200
H  47.08900 15.52400 32.59500
H  46.53400 15.55700 34.66800
H  46.71500 17.39600 34.63800
H  51.66500 20.60800 26.63700
H  51.22800 19.88300 28.18800
H  50.23000 21.11600 27.54600
H  51.53400 20.60300 24.29300
H  52.44700 19.50400 23.12300
H  52.55100 19.15900 24.73000
H  47.27300 14.78600 22.72800
H  44.41100 14.66400 23.41300
H  46.35500 17.23200 22.20100
H  44.79500 16.50100 22.45600
H  45.94500 15.83500 21.23000
H  44.86500 12.62100 22.58800
H  44.65600 12.34400 24.31600
H  47.32500 12.79500 24.40500
H  47.24200 12.04900 22.85100
H  46.47300 11.26000 24.33300
H  41.28500 14.05700 27.10200
H  41.22400 13.46000 28.79300
H  42.28400 12.69800 27.61000
H  44.55600 15.03200 32.49600
H  41.24900 16.94800 34.65400
H  41.48600 18.11500 33.34900
H  42.29300 18.30500 34.91900

