158

Mg 34.99700 2.10700 29.98200
C  32.99200 3.26400 32.42000
C  37.72200 2.29200 32.24900
C  37.08900 1.31300 27.40200
C  32.47300 2.61600 27.66800
N  35.34900 2.72600 32.07400
C  34.31600 3.04900 32.86400
C  34.78900 3.25400 34.27100
C  36.37400 3.47300 34.18100
C  36.52800 2.82500 32.76800
C  36.91600 4.92700 34.11500
C  34.32200 1.97400 34.94900
C  34.53800 1.93900 36.53000
H  35.28400 3.11200 37.16900
N  37.04500 1.67700 29.92100
C  37.94100 1.78800 30.93300
C  39.28900 1.50700 30.44400
C  39.14400 1.21800 29.02400
C  37.68700 1.39300 28.72800
C  40.52800 1.51900 31.23500
C  40.26200 0.90800 27.92600
O  40.03700 0.79100 26.72300
C  41.77400 0.52200 28.30300
N  34.70700 1.73200 27.89100
C  35.71000 1.40500 27.03700
C  35.24600 1.38700 25.54000
C  33.67700 1.66100 25.68000
C  33.58900 1.95300 27.19900
C  35.94800 2.48900 24.63700
C  32.84700 0.44300 25.25900
C  32.36000 0.29700 23.75800
N  33.06700 2.86500 29.99400
C  32.14700 3.05400 28.95800
C  30.85000 3.39700 29.53200
C  31.15900 3.56300 30.97600
C  32.50300 3.20100 31.16400
C  29.57900 3.59400 28.83800
C  30.62000 3.89200 32.26900
O  29.50400 4.28200 32.66200
C  31.80800 3.75900 33.26300
C  32.04000 5.01800 34.01800
O  32.57600 6.06300 33.61500
O  31.51000 4.84800 35.26800
C  31.61000 6.09000 36.11000
H  38.52900 2.48100 32.96100
H  37.80000 1.34800 26.57400
H  31.62300 2.82900 27.01700
H  34.39500 4.19600 34.65300
H  36.73900 2.94600 35.06300
H  37.57400 5.17200 34.94900
H  36.05100 5.57100 34.27700
H  37.36200 5.12400 33.14000
H  34.97400 1.16100 34.63000
H  33.30800 1.65500 34.70900
H  34.88000 0.92500 36.74000
H  33.62900 2.04500 37.12100
H  40.41200 0.61700 31.83500
H  40.55700 2.39900 31.87800
H  41.37600 1.53200 30.54900
H  42.32900 1.42800 28.54400
H  42.16700 0.05300 27.40200
H  41.85900 -0.19900 29.11700
H  35.53900 0.41000 25.15600
H  33.43300 2.50700 25.03700
H  36.63900 3.12700 25.18800
H  35.27300 3.13100 24.07100
H  36.55200 1.94200 23.91300
H  31.89000 0.37800 25.77700
H  33.40000 -0.48100 25.42600
H  32.61400 -0.70300 23.40800
H  32.87800 1.04200 23.15400
H  31.27800 0.41100 23.70400
H  29.51100 3.08400 27.87700
H  29.51700 4.65000 28.57700
H  28.78500 3.35500 29.54500
H  31.55600 3.01300 34.01600
H  30.78800 6.00600 36.82000
H  31.31000 6.96900 35.54000
H  32.58900 6.29400 36.54400
Mg 16.98900 51.39500 26.20800
C  19.06400 50.42900 28.92400
C  14.71600 52.68000 28.41400
C  15.15800 52.26500 23.62600
C  19.51000 50.10900 24.15100
N  16.98900 51.71000 28.40600
C  17.89800 51.14700 29.37600
C  17.44700 51.47300 30.81700
C  16.00300 52.01000 30.54800
C  15.87100 52.11200 29.02900
C  14.89700 51.24000 31.31000
C  18.33100 52.58400 31.40100
C  18.09200 52.97800 32.88300
H  17.26500 52.19700 33.93100
N  15.15000 52.53700 26.07800
C  14.37200 52.97500 27.08600
C  13.33300 53.68500 26.51900
C  13.39700 53.60800 25.12800
C  14.57100 52.70100 24.89100
C  12.30500 54.41100 27.34000
C  12.48500 54.13500 24.03600
O  12.76000 54.01800 22.85900
C  11.21600 54.87600 24.40400
N  17.26900 51.21800 24.22100
C  16.35800 51.60600 23.28000
C  16.84100 51.42400 21.84400
C  18.28700 50.93300 22.03400
C  18.34500 50.67700 23.58000
C  15.89500 50.50300 21.04500
C  19.37700 51.93400 21.49400
C  20.02500 53.01900 22.47200
N  18.90700 50.40500 26.41500
C  19.85000 49.97700 25.49500
C  20.99100 49.49200 26.16900
C  20.72600 49.64600 27.57100
C  19.42500 50.16500 27.64500
C  22.41900 49.00900 25.53400
C  21.18800 49.50800 28.85000
O  22.26800 49.11600 29.22800
C  20.09600 49.93400 29.80700
C  19.62800 48.80300 30.70200
O  18.80000 47.93800 30.47100
O  20.24600 49.06200 31.86700
C  19.73800 48.23100 32.97400
H  14.01100 52.90800 29.21600
H  14.69500 52.63000 22.70700
H  20.22100 49.77300 23.39300
H  17.57100 50.53300 31.35600
H  15.98500 53.01300 30.97400
H  15.22000 50.54800 32.08800
H  14.31300 50.62200 30.62800
H  14.22900 51.95600 31.79000
H  18.28300 53.51600 30.83900
H  19.37800 52.28900 31.32600
H  17.64300 53.97100 32.89500
H  19.06400 53.07000 33.36800
H  11.31100 54.11100 27.00900
H  12.51800 55.47900 27.38100
H  12.46600 54.08700 28.36800
H  11.41200 55.68800 25.10300
H  10.39800 54.27900 24.80800
H  10.94200 55.44300 23.51500
H  16.90300 52.41300 21.39000
H  18.42800 49.99500 21.49600
H  14.90600 50.47800 21.50300
H  16.22800 49.46600 21.01000
H  15.87800 50.97100 20.06100
H  18.86300 52.58000 20.78200
H  20.14900 51.32100 21.02900
H  19.61600 53.06400 23.48200
H  19.76300 54.01700 22.12300
H  21.11100 52.92700 22.48700
H  22.43700 49.47400 24.54900
H  22.29700 47.93900 25.36500
H  23.35000 49.30100 26.01900
H  20.51900 50.76300 30.37500
H  18.78900 48.65600 33.29900
H  20.46800 48.24800 33.78300
H  19.60400 47.19300 32.67100

