158

Mg 46.75400 25.76400 27.72300
C  47.95600 27.94800 30.34600
C  45.82400 23.40500 30.12400
C  46.04700 23.71100 25.20500
C  48.41200 27.91700 25.43300
N  46.93400 25.69500 29.90200
C  47.30600 26.69700 30.80800
C  46.89100 26.35800 32.24500
C  46.31600 24.92600 32.15200
C  46.28400 24.60900 30.63900
C  46.78300 23.82300 33.09100
C  46.05700 27.45200 33.05700
C  46.75900 27.96300 34.35800
H  45.76400 28.29200 35.54400
N  45.84600 23.86300 27.65000
C  45.74500 23.01700 28.74900
C  45.46900 21.66600 28.23300
C  45.34700 21.77900 26.81000
C  45.75300 23.17300 26.48300
C  45.18000 20.52000 29.20400
C  44.93100 20.78400 25.78800
O  44.98600 20.86600 24.55200
C  44.63300 19.36100 26.24300
N  47.08900 25.79800 25.63200
C  46.54800 24.91100 24.79500
C  46.82800 25.21300 23.29700
C  47.62100 26.54700 23.31500
C  47.62700 26.83600 24.87100
C  47.75300 24.13200 22.68200
C  46.95800 27.78600 22.60800
C  47.90100 28.60900 21.65500
N  47.82000 27.57300 27.84100
C  48.40900 28.34300 26.81900
C  49.13200 29.49700 27.37700
C  48.95100 29.37200 28.72400
C  48.13200 28.25400 28.98500
C  49.97000 30.43300 26.70000
C  49.42700 29.95500 30.03800
O  50.13500 30.86400 30.39000
C  48.67500 29.09800 31.12000
C  49.76400 28.53500 31.99500
O  50.62000 27.78300 31.66000
O  49.75500 29.22700 33.22900
C  50.86900 29.10100 34.15800
H  45.47300 22.63200 30.81200
H  45.73100 23.14200 24.32900
H  48.97100 28.62600 24.81800
H  47.88500 26.16400 32.64900
H  45.27300 25.14300 32.38400
H  45.95000 23.56400 33.74400
H  47.58900 24.09700 33.77300
H  47.00500 22.88100 32.59100
H  45.14400 26.99500 33.44100
H  45.95800 28.34000 32.43300
H  47.29600 28.87000 34.07900
H  47.52800 27.25800 34.67100
H  45.57700 19.52200 29.01500
H  44.09800 20.45200 29.31700
H  45.48300 20.76200 30.22200
H  45.53300 18.90400 26.65200
H  44.35900 18.70700 25.41500
H  43.95000 19.26400 27.08700
H  45.88000 25.18600 22.76100
H  48.68200 26.50200 23.06700
H  48.56000 23.71800 23.28600
H  48.19400 24.45600 21.73900
H  47.25600 23.17400 22.53000
H  46.53600 28.43800 23.37200
H  46.13400 27.29700 22.08900
H  47.78400 28.24500 20.63400
H  48.97800 28.51700 21.80000
H  47.63200 29.66600 21.65700
H  49.66400 30.46300 25.65400
H  51.01100 30.20600 26.92800
H  49.76800 31.41700 27.12200
H  47.89800 29.74600 31.52400
H  51.03600 30.09400 34.57500
H  51.80500 28.67200 33.80200
H  50.64700 28.55900 35.07800
Mg -1.62100 34.25500 27.00600
C  -3.38900 32.44000 29.51600
C  -0.57700 36.42400 29.33100
C  -0.25800 35.85000 24.50600
C  -3.11500 32.01600 24.69900
N  -1.97900 34.37900 29.16200
C  -2.64200 33.47000 29.99900
C  -2.31100 33.84700 31.49500
C  -1.51400 35.16500 31.37000
C  -1.39400 35.42200 29.87000
C  -2.10100 36.42700 32.12800
C  -1.61000 32.67200 32.34000
C  -2.48800 32.02600 33.36100
H  -1.83100 32.00100 34.73100
N  -0.46100 35.85600 26.90400
C  -0.19500 36.63800 27.95700
C  0.60600 37.69700 27.51900
C  0.78400 37.56700 26.12400
C  -0.05600 36.39600 25.78500
C  1.22800 38.68000 28.51400
C  1.63000 38.32100 25.19700
O  1.82500 37.87100 24.06700
C  2.38400 39.50000 25.71400
N  -1.66600 33.88200 24.86900
C  -0.96600 34.72200 24.10500
C  -1.25500 34.38800 22.62400
C  -2.12700 33.11800 22.73600
C  -2.27000 32.92200 24.18900
C  -1.87200 35.52100 21.71900
C  -1.65500 31.88600 21.89100
C  -2.69500 31.27700 20.97100
N  -3.06100 32.72600 27.03200
C  -3.53500 31.86800 26.04500
C  -4.35500 30.83200 26.55200
C  -4.35900 31.01700 27.92500
C  -3.60000 32.20200 28.19000
C  -4.86400 29.63900 25.83700
C  -4.77300 30.39600 29.14500
O  -5.37200 29.32100 29.31900
C  -4.09400 31.28300 30.27100
C  -5.23300 31.76500 31.18200
O  -6.13300 32.53600 30.81100
O  -5.15300 31.11300 32.31700
C  -6.29000 31.26700 33.30900
H  -0.16400 37.08100 30.09900
H  0.09000 36.42900 23.64800
H  -3.42300 31.34400 23.89500
H  -3.30500 34.02400 31.90800
H  -0.47800 34.97500 31.64700
H  -2.33800 37.12500 31.32600
H  -1.33200 36.85900 32.76800
H  -3.08900 36.20600 32.53300
H  -0.74800 33.10500 32.84800
H  -1.26400 31.84400 31.72000
H  -2.61200 31.03000 32.93700
H  -3.48900 32.45400 33.41500
H  0.34600 39.11400 28.98500
H  1.78900 39.50800 28.08300
H  1.88300 38.19000 29.23500
H  2.89700 40.01000 24.89900
H  3.14700 39.09000 26.37600
H  1.87200 40.31000 26.23300
H  -0.28800 34.14600 22.18300
H  -3.11900 33.39200 22.37600
H  -2.29100 36.20500 22.45700
H  -2.70900 35.22400 21.08800
H  -1.05500 35.95500 21.14400
H  -1.25400 31.15200 22.58900
H  -0.91900 32.14500 21.13000
H  -2.52800 31.37200 19.89800
H  -3.66000 31.66300 21.29900
H  -2.83100 30.22900 21.23500
H  -4.15600 28.81200 25.78900
H  -5.12500 29.95600 24.82800
H  -5.80000 29.39700 26.34100
H  -3.36400 30.73700 30.86800
H  -5.86100 31.77900 34.17000
H  -6.61100 30.23400 33.44400
H  -7.24700 31.72200 33.05100

