158

Mg 1.34200 -1.58900 43.52400
C  4.71700 -0.92700 42.90200
C  0.56500 1.03400 41.58500
C  -1.85800 -2.63500 43.58100
C  2.30300 -4.62000 44.91700
N  2.54100 -0.24500 42.26100
C  3.92400 -0.11100 42.14200
C  4.37900 1.00800 41.17600
C  3.03000 1.77100 41.03000
C  1.92100 0.77500 41.65800
C  2.85800 3.23300 41.69400
C  4.88600 0.41400 39.87200
C  6.27200 0.88500 39.28700
H  6.42000 0.96600 37.78900
N  -0.42800 -0.81200 42.72900
C  -0.56100 0.28400 42.01300
C  -1.94200 0.54100 41.77000
C  -2.67900 -0.48500 42.28800
C  -1.67700 -1.37500 43.02400
C  -2.34400 1.70400 40.86300
C  -4.17800 -0.68100 42.13700
O  -4.88900 -0.01100 41.38500
C  -4.98700 -1.77600 42.89600
N  0.35500 -3.39100 44.14500
C  -0.95700 -3.55600 44.09700
C  -1.37700 -4.98400 44.55300
C  -0.07500 -5.64200 44.92700
C  0.91300 -4.48700 44.61900
C  -2.64200 -5.16500 45.52300
C  0.14600 -7.09800 44.52900
C  -0.67300 -8.17600 45.19200
N  3.10100 -2.54700 44.02500
C  3.34700 -3.78600 44.63900
C  4.78400 -3.99800 44.84500
C  5.36400 -2.87500 44.23800
C  4.31500 -1.99700 43.80100
C  5.47400 -5.18500 45.49200
C  6.65800 -2.20600 43.88600
O  7.79500 -2.45600 44.30700
C  6.27900 -1.00000 42.99300
C  7.10000 0.21900 43.39400
O  7.86700 0.76700 42.61700
O  7.17300 0.42400 44.82300
C  8.11800 1.50500 45.20400
H  0.37200 1.90400 40.95300
H  -2.87400 -3.01600 43.46200
H  2.57800 -5.54900 45.42200
H  5.09700 1.63600 41.70300
H  2.76200 1.87500 39.97800
H  3.61400 3.48400 42.43800
H  1.90500 3.38000 42.20100
H  3.00400 4.05000 40.98700
H  4.17500 0.54200 39.05600
H  5.00100 -0.66000 40.01300
H  7.05600 0.21600 39.64400
H  6.40200 1.91100 39.62900
H  -1.86900 1.50600 39.90200
H  -1.96100 2.61400 41.32400
H  -3.43200 1.77000 40.85400
H  -6.01800 -1.45200 43.04100
H  -4.60000 -2.02600 43.88400
H  -4.86500 -2.71900 42.36400
H  -1.77800 -5.49900 43.68000
H  -0.01300 -5.77500 46.00700
H  -2.92400 -4.15600 45.82300
H  -2.11600 -5.68900 46.32100
H  -3.45600 -5.68900 45.02100
H  1.21400 -7.23500 44.69600
H  0.05500 -7.20800 43.44800
H  -1.24000 -8.72400 44.43800
H  -1.22300 -7.88200 46.08600
H  0.12800 -8.88100 45.41300
H  6.43000 -4.95500 45.96200
H  5.55600 -5.97000 44.74000
H  4.90200 -5.59000 46.32700
H  6.67300 -1.31000 42.02500
H  7.75800 2.51200 44.99600
H  9.06400 1.48200 44.66300
H  8.34100 1.43500 46.26900
Mg 4.47900 54.70400 40.76900
C  4.70700 51.18500 40.00300
C  7.32300 55.16600 39.31200
C  3.63200 57.97900 40.61900
C  1.11200 53.97700 41.83700
N  5.67100 53.32900 39.43700
C  5.70400 51.97400 39.44000
C  7.07100 51.46900 38.97300
C  8.03900 52.71900 39.11100
C  6.90300 53.85100 39.24800
C  8.87700 52.62300 40.39900
C  7.02800 50.90000 37.48800
C  6.14000 51.57300 36.43800
H  6.50800 51.25400 34.95900
N  5.38100 56.43700 40.05700
C  6.62400 56.39100 39.51300
C  7.11200 57.75700 39.51000
C  5.96300 58.55000 39.77000
C  4.84200 57.67900 40.10100
C  8.59800 58.14400 39.08800
C  5.86400 60.02500 39.59500
O  6.86400 60.64000 39.17900
C  4.74800 60.99000 39.98400
N  2.52400 55.78400 41.04400
C  2.59800 57.13200 41.11200
C  1.30500 57.72600 41.72700
C  0.49500 56.45700 42.02400
C  1.39300 55.32500 41.56100
C  1.56100 58.68200 42.99000
C  -0.88200 56.39300 41.37100
C  -2.08500 57.08600 41.96500
N  3.14200 52.91500 40.98200
C  1.80500 52.84800 41.47400
C  1.53300 51.46200 41.66300
C  2.64300 50.75900 41.06900
C  3.56000 51.71400 40.65700
C  0.31300 51.01700 42.32100
C  3.16800 49.46000 40.84000
O  2.74600 48.36200 41.18400
C  4.56000 49.69500 40.06400
C  4.54500 49.04400 38.67900
O  3.90000 49.34300 37.68900
O  5.26500 47.89600 38.64600
C  5.31000 46.96500 37.48300
H  8.38400 55.35400 39.13500
H  3.40700 59.03000 40.81200
H  0.15500 53.86100 42.34900
H  7.37600 50.66700 39.64500
H  8.52900 52.84400 38.14500
H  8.47300 53.29500 41.15700
H  9.92600 52.81400 40.17400
H  8.88000 51.59300 40.75500
H  6.79600 49.84000 37.59000
H  8.04300 50.98900 37.10200
H  6.08100 52.65800 36.52200
H  5.12300 51.20000 36.55200
H  9.26100 57.38600 39.50500
H  8.82300 59.15700 39.42100
H  8.82900 58.19100 38.02400
H  5.16400 61.99700 40.02800
H  4.46600 60.76300 41.01200
H  3.90500 61.05100 39.29500
H  0.84200 58.35300 40.96500
H  0.38000 56.36700 43.10500
H  2.53800 58.67000 43.47500
H  0.96400 58.28300 43.81000
H  1.30700 59.71900 42.77300
H  -1.21000 55.35800 41.46800
H  -0.79800 56.69100 40.32600
H  -1.76200 57.30900 42.98100
H  -3.00700 56.50400 41.97700
H  -2.28000 58.00500 41.41300
H  0.02400 51.64300 43.16500
H  0.44300 50.06200 42.83000
H  -0.56000 51.06500 41.67100
H  5.33000 49.13200 40.59000
H  5.32300 47.55100 36.56400
H  4.45700 46.29100 37.40100
H  6.28200 46.47700 37.55900

