158

Mg 26.35700 -0.04300 29.41600
C  28.16500 -0.31500 32.41900
C  23.48200 0.23600 31.27500
C  24.71800 -0.20500 26.62400
C  29.35200 -0.45400 27.67800
N  25.88900 0.08400 31.59200
C  26.81300 0.00200 32.64100
C  26.15200 0.01400 34.05100
C  24.58200 0.08000 33.59400
C  24.64400 0.05800 32.07600
C  23.74700 -1.13900 34.15900
C  26.62400 1.30200 34.83300
C  25.84100 1.89200 36.00600
H  26.62200 2.39100 37.20800
N  24.34400 0.03200 28.92200
C  23.35500 0.35800 29.83700
C  22.13100 0.69000 29.10500
C  22.40000 0.44900 27.69400
C  23.83900 -0.04100 27.71800
C  20.82800 1.01600 29.81600
C  21.54400 0.79100 26.45700
O  22.04000 0.80500 25.31600
C  20.06900 1.15000 26.60800
N  26.98000 -0.40200 27.42800
C  26.10500 -0.37900 26.45600
C  26.84200 -0.41300 25.08400
C  28.33200 -0.08300 25.45800
C  28.19700 -0.31800 26.95500
C  26.63600 -1.79600 24.31700
C  28.65500 1.40600 25.14800
C  29.65500 1.63100 23.96700
N  28.33300 -0.29700 29.86700
C  29.43600 -0.52900 29.09300
C  30.55400 -0.87800 29.91900
C  30.12000 -0.83500 31.24500
C  28.77400 -0.42000 31.16400
C  31.90400 -1.28900 29.53200
C  30.53800 -0.89000 32.67000
O  31.66900 -1.04400 33.17200
C  29.27400 -0.44000 33.45100
C  29.05600 -1.44600 34.51700
O  28.57900 -2.56200 34.44000
O  29.41700 -0.88400 35.69900
C  29.39500 -1.75500 36.86800
H  22.59100 0.40200 31.88300
H  24.22600 -0.09000 25.65600
H  30.20600 -0.49100 26.99900
H  26.50400 -0.89100 34.54700
H  24.14200 1.00100 33.97700
H  22.84800 -0.80600 34.67800
H  24.36300 -1.70700 34.85600
H  23.50400 -1.79600 33.32400
H  26.89500 2.08100 34.12100
H  27.59500 1.05000 35.25900
H  25.05900 1.23200 36.37900
H  25.29300 2.78400 35.70300
H  20.14800 0.25500 29.43300
H  20.52700 2.02100 29.52300
H  20.79000 0.95000 30.90300
H  19.55400 1.24900 25.65300
H  19.98100 2.11000 27.11800
H  19.49800 0.45000 27.21800
H  26.32900 0.30600 24.44500
H  29.00300 -0.83500 25.04500
H  27.57000 -2.26700 24.00900
H  25.95600 -1.57000 23.49700
H  26.22400 -2.56000 24.97700
H  29.22400 1.83500 25.97300
H  27.76300 2.01300 24.99100
H  30.61700 1.80700 24.44900
H  29.31200 2.46400 23.35300
H  29.73500 0.79300 23.27500
H  32.09600 -1.34100 28.46000
H  32.01400 -2.27300 29.98700
H  32.58200 -0.61000 30.04800
H  29.40800 0.52700 33.93700
H  29.37600 -2.84200 36.78900
H  28.47900 -1.50000 37.40100
H  30.22600 -1.38700 37.47000
Mg 29.73400 58.68000 41.63700
C  26.68400 57.55300 40.53700
C  31.29200 56.06100 40.26300
C  32.68600 60.37800 42.08200
C  28.06700 61.90400 42.26300
N  29.03100 57.04400 40.40900
C  27.76200 56.74000 40.03600
C  27.79400 55.38800 39.22500
C  29.26900 54.79000 39.39300
C  29.90200 56.02600 40.12200
C  29.34300 53.46700 40.13500
C  27.32600 55.68100 37.81000
C  26.33500 54.74200 37.19300
H  26.19700 54.51500 35.74100
N  31.66300 58.20600 41.41700
C  32.15100 56.99600 40.90500
C  33.56400 56.94800 41.03100
C  33.99100 58.18600 41.50300
C  32.71900 59.00600 41.71600
C  34.40900 55.78300 40.58700
C  35.41100 58.59400 41.72600
O  36.31400 57.84900 41.40200
C  35.85400 59.98200 42.11200
N  30.30800 60.90000 42.01100
C  31.62600 61.29000 42.19100
C  31.76000 62.67900 42.79200
C  30.23800 63.16700 42.84800
C  29.46600 61.97900 42.37200
C  32.65500 62.83600 44.05300
C  29.99500 64.46300 42.25200
C  28.83100 65.26300 42.97700
N  27.74600 59.54600 41.51500
C  27.26100 60.75700 41.85800
C  25.80900 60.75100 41.73900
C  25.56000 59.48900 41.25000
C  26.78100 58.82300 41.13100
C  24.95700 61.88800 42.11800
C  24.49400 58.54600 40.80600
O  23.26000 58.60300 40.85100
C  25.21600 57.27900 40.40400
C  24.82600 56.19000 41.30800
O  25.22900 55.95500 42.41600
O  23.69200 55.68000 40.74900
C  22.85100 54.99700 41.68400
H  31.77400 55.15800 39.88200
H  33.65200 60.87400 42.20400
H  27.54200 62.80300 42.59300
H  27.03300 54.81300 39.75300
H  29.81100 54.64100 38.46000
H  29.74700 53.59500 41.14000
H  29.95000 52.76400 39.56400
H  28.30100 53.15300 40.19500
H  28.16400 55.72300 37.11300
H  26.98500 56.70700 37.67100
H  25.35300 55.09800 37.50500
H  26.47600 53.79000 37.70400
H  34.73200 55.95600 39.56100
H  33.87600 54.83500 40.52000
H  35.18400 55.52500 41.30900
H  35.46700 60.62700 41.32300
H  36.94200 60.00000 42.16900
H  35.32900 60.23000 43.03500
H  32.21800 63.30800 42.02900
H  30.05700 63.31200 43.91300
H  32.97300 63.87900 44.05500
H  33.48300 62.13200 44.13800
H  32.04100 62.84100 44.95400
H  29.74200 64.40200 41.19300
H  30.89400 65.05600 42.41900
H  29.11200 66.26000 43.31500
H  28.35400 64.66200 43.75200
H  28.10200 65.64700 42.26400
H  25.27900 62.57800 41.33800
H  25.24600 62.29800 43.08500
H  23.91700 61.57300 42.03000
H  25.03900 57.04700 39.35400
H  22.28100 55.79600 42.15700
H  23.32800 54.30600 42.37900
H  22.10100 54.44000 41.12200

