158

Mg 16.77600 -2.36000 27.93800
C  16.02300 -0.28000 30.61600
C  18.33800 -4.52400 30.04400
C  17.87200 -3.97400 25.20800
C  15.45800 0.12500 25.78700
N  17.21100 -2.34700 30.08100
C  16.81200 -1.38500 31.00300
C  17.43000 -1.73500 32.45100
C  18.26000 -2.99000 32.15200
C  17.76700 -3.37500 30.66300
C  19.80300 -2.90900 32.21500
C  16.19000 -1.97100 33.49900
C  16.61000 -1.79700 35.00900
H  17.91200 -1.05100 35.37600
N  17.85000 -4.01700 27.66200
C  18.36400 -4.81300 28.72300
C  19.06700 -5.86500 28.09700
C  18.92000 -5.84300 26.71700
C  18.19500 -4.56400 26.48900
C  19.81400 -6.90500 28.84100
C  19.36600 -6.84900 25.64300
O  18.98500 -6.66100 24.45500
C  20.19000 -8.08900 25.90000
N  16.85900 -1.90300 25.81300
C  17.31100 -2.76700 24.93900
C  17.15200 -2.25500 23.52600
C  16.20100 -1.01100 23.68400
C  16.15300 -0.89400 25.17400
C  18.52000 -1.91000 22.87700
C  14.78700 -1.23700 23.02000
C  14.76500 -1.24000 21.48400
N  15.80600 -0.51600 28.06200
C  15.24500 0.31900 27.15100
C  14.46600 1.36800 27.83500
C  14.78200 1.20800 29.24400
C  15.65900 0.08100 29.27200
C  13.83500 2.58600 27.30900
C  14.57800 1.71000 30.56200
O  13.89100 2.66700 30.92400
C  15.38700 0.74300 31.55500
C  16.41000 1.64200 32.21500
O  17.47700 1.93900 31.74800
O  15.99300 1.95400 33.43800
C  16.72500 2.98200 34.14000
H  18.70300 -5.29200 30.72900
H  18.32900 -4.41500 24.32000
H  14.81400 0.79200 25.20900
H  18.15600 -0.96000 32.69600
H  17.79700 -3.73900 32.79500
H  20.08700 -1.89100 31.95100
H  20.27100 -3.60000 31.51400
H  20.10900 -3.13700 33.23600
H  15.92300 -3.02800 33.49400
H  15.26100 -1.45000 33.27000
H  16.84400 -2.76300 35.45800
H  15.75000 -1.30100 35.46000
H  20.75900 -7.05200 28.31800
H  19.27600 -7.85200 28.80900
H  20.12700 -6.49800 29.80300
H  19.71400 -8.64000 26.71200
H  21.22600 -7.77900 26.04100
H  19.98900 -8.68500 25.01000
H  16.56400 -2.82200 22.80500
H  16.66800 -0.09700 23.31800
H  18.85800 -0.89400 23.08300
H  18.54100 -2.00900 21.79100
H  19.31600 -2.54900 23.25800
H  14.17600 -0.37900 23.30000
H  14.31500 -2.13400 23.42200
H  15.74800 -1.25000 21.01400
H  14.34300 -0.27600 21.20000
H  14.12100 -2.05400 21.15000
H  12.77400 2.39700 27.14800
H  14.30300 2.89300 26.37400
H  13.98300 3.40800 28.00900
H  14.66400 0.33500 32.26000
H  16.78000 3.88300 33.52900
H  17.70000 2.55900 34.38500
H  16.24300 3.22400 35.08700
Mg 40.42500 41.25200 27.27600
C  39.81900 43.64500 30.00100
C  41.45100 39.05800 29.79200
C  41.16100 39.30200 24.91500
C  39.49400 43.87300 25.01500
N  40.53400 41.34700 29.58100
C  40.22700 42.37100 30.42400
C  40.28800 41.96100 31.92900
C  41.04900 40.64700 31.76700
C  41.06200 40.31100 30.26600
C  42.47200 40.61000 32.45000
C  38.91100 41.88600 32.61300
C  38.80500 41.37900 34.09500
H  38.15900 42.28700 35.09700
N  41.10700 39.37400 27.34000
C  41.52800 38.61800 28.40800
C  42.03600 37.34700 27.91800
C  42.02100 37.39400 26.50600
C  41.42700 38.71100 26.13200
C  42.57600 36.29900 28.91400
C  42.52100 36.31600 25.46100
O  42.55200 36.40700 24.25500
C  43.03000 35.07800 26.07100
N  40.48100 41.61500 25.24400
C  40.81000 40.58500 24.40400
C  40.57300 40.93200 22.91500
C  39.95400 42.32300 22.97500
C  39.83300 42.64000 24.50700
C  41.88700 40.92200 22.01800
C  38.55500 42.36300 22.39700
C  37.44800 41.55500 23.11600
N  39.73800 43.31700 27.42800
C  39.52500 44.23900 26.42400
C  39.24800 45.53400 27.02100
C  39.33500 45.30200 28.39100
C  39.69000 44.00600 28.61500
C  38.93500 46.78300 26.29100
C  39.17200 46.02900 29.60000
O  38.90700 47.17700 29.80300
C  39.44900 44.92300 30.73800
C  40.46100 45.37400 31.71100
O  41.62700 45.72700 31.39000
O  39.89200 45.55300 32.99700
C  40.89400 45.97100 34.00100
H  41.70800 38.38400 30.61100
H  41.38500 38.53100 24.17500
H  39.27000 44.67600 24.30900
H  40.73400 42.75900 32.52300
H  40.53400 39.83900 32.28600
H  42.85100 41.62500 32.56400
H  43.28700 40.16500 31.87800
H  42.43700 40.06300 33.39300
H  38.16900 41.28700 32.08500
H  38.40200 42.84800 32.56900
H  39.77300 41.01000 34.43500
H  38.16400 40.49800 34.11600
H  43.52400 35.86500 28.59600
H  41.81800 35.52500 29.03600
H  42.76800 36.79500 29.86500
H  43.97100 35.38300 26.53000
H  43.31000 34.38400 25.27900
H  42.25700 34.59700 26.67000
H  39.79100 40.25200 22.57500
H  40.63200 43.07500 22.57000
H  41.57500 40.59300 21.02700
H  42.63000 40.26100 22.46600
H  42.36100 41.89800 21.91700
H  38.66500 42.03600 21.36300
H  38.24900 43.40700 22.33200
H  37.80200 41.04100 24.00900
H  37.01100 40.87800 22.38200
H  36.58100 42.14900 23.40500
H  38.71300 46.57300 25.24500
H  39.77700 47.47100 26.37100
H  38.14100 47.27600 26.85300
H  38.54000 44.66300 31.28200
H  41.76600 46.48000 33.59100
H  41.27900 45.10100 34.53200
H  40.36500 46.65300 34.66700

