158

Mg 29.52600 57.67900 40.35800
C  26.73900 55.94600 39.25700
C  31.47700 55.12900 39.25300
C  32.12400 59.81100 40.61300
C  27.31000 60.37700 41.15800
N  29.16000 55.73500 39.30600
C  27.92700 55.24000 39.04200
C  28.12700 53.90700 38.30500
C  29.52500 53.47300 38.85100
C  30.11700 54.83900 39.14000
C  29.36100 52.72500 40.21700
C  28.16300 54.17700 36.75000
C  26.94300 53.74400 35.89300
H  26.40900 54.83600 34.91900
N  31.53900 57.55600 39.86600
C  32.17300 56.34100 39.56000
C  33.53600 56.67600 39.50800
C  33.73900 58.04900 39.89600
C  32.43500 58.57500 40.08700
C  34.55900 55.72200 39.01000
C  35.10700 58.66600 39.86800
O  36.11600 57.96200 39.64200
C  35.35900 60.14800 39.92100
N  29.69700 59.84000 40.81100
C  30.88900 60.44000 40.93500
C  30.73800 61.93100 41.12500
C  29.29000 61.94900 41.68000
C  28.70200 60.65500 41.18000
C  31.71700 62.50700 42.25900
C  28.51200 63.21800 41.33200
C  27.56600 63.73100 42.44700
N  27.46100 58.09800 40.31900
C  26.72500 59.23600 40.65000
C  25.29100 58.95900 40.56500
C  25.20700 57.66100 39.95100
C  26.54900 57.18100 39.85000
C  24.12000 59.81700 40.99600
C  24.26200 56.66800 39.39200
O  23.12600 56.67700 39.24500
C  25.25700 55.52500 38.82400
C  24.91700 54.20000 39.34000
O  25.42300 53.74300 40.37800
O  24.24300 53.46300 38.38500
C  23.94500 52.01800 38.75300
H  32.16900 54.30600 39.06400
H  33.03500 60.30300 40.96100
H  26.60200 61.18100 41.36700
H  27.30400 53.20500 38.43900
H  30.07800 52.96100 38.06300
H  28.37500 52.27300 40.31500
H  29.64700 53.32500 41.08100
H  30.11300 51.93700 40.26100
H  29.05900 53.69300 36.36300
H  28.22000 55.24900 36.56100
H  26.16400 53.23000 36.45600
H  27.27700 52.84500 35.37400
H  34.81100 56.17200 38.05000
H  34.18500 54.73300 38.74500
H  35.43500 55.55300 39.63700
H  34.52600 60.76300 39.58200
H  36.30000 60.37700 39.42000
H  35.52600 60.42000 40.96300
H  30.92200 62.51700 40.22500
H  29.25700 61.72100 42.74600
H  32.20800 61.67700 42.76700
H  31.16400 63.08800 42.99600
H  32.46600 63.19200 41.86100
H  27.81900 63.08800 40.50100
H  29.31300 63.93100 41.13500
H  27.45000 63.02600 43.26900
H  26.55600 63.90400 42.07700
H  28.03900 64.56800 42.96100
H  23.97800 60.70700 40.38200
H  24.09000 59.99500 42.07100
H  23.24900 59.17900 40.84700
H  25.10100 55.50900 37.74600
H  22.86700 51.87600 38.82300
H  24.35200 51.58900 39.66900
H  24.18800 51.30600 37.96400
Mg -11.45100 38.75600 42.48100
C  -10.14200 35.63400 41.65900
C  -8.95500 40.13900 40.71900
C  -13.19200 41.65000 42.56000
C  -14.52900 36.96200 43.24700
N  -9.76700 37.93800 41.33600
C  -9.39000 36.66700 41.17700
C  -8.13000 36.59600 40.33100
C  -7.53700 37.99000 40.37500
C  -8.87700 38.75200 40.81000
C  -6.29700 38.19300 41.17800
C  -8.41300 35.97300 38.94100
C  -7.60600 34.82000 38.57200
H  -6.61400 35.00200 37.39500
N  -11.00600 40.69000 41.84700
C  -9.88500 41.06400 41.20800
C  -9.95800 42.48900 41.00300
C  -11.17200 42.96800 41.55200
C  -11.87300 41.75900 42.03900
C  -8.88500 43.22600 40.16700
C  -11.67100 44.49300 41.56800
O  -10.90900 45.33800 41.06100
C  -12.93800 44.92600 42.14500
N  -13.51500 39.17200 42.86300
C  -13.89600 40.45800 42.96500
C  -15.32100 40.54500 43.51700
C  -15.77600 39.09400 43.62800
C  -14.55400 38.31800 43.21400
C  -15.44900 41.49200 44.74700
C  -16.92600 38.54800 42.75300
C  -18.13200 37.90200 43.40300
N  -12.20800 36.70800 42.70700
C  -13.38100 36.15100 43.08900
C  -13.21700 34.67900 43.09700
C  -11.95700 34.45400 42.52100
C  -11.42300 35.69800 42.22500
C  -14.14100 33.58900 43.59300
C  -11.15200 33.45300 42.00200
O  -11.33000 32.23700 42.02300
C  -9.78400 34.18700 41.48600
C  -8.61000 33.78400 42.37700
O  -7.63300 33.13100 42.01800
O  -8.76200 34.45600 43.60500
C  -7.49100 34.32300 44.45600
H  -8.06100 40.52700 40.22600
H  -13.84500 42.51500 42.68600
H  -15.39700 36.45400 43.67200
H  -7.39200 35.97100 40.83500
H  -7.28200 38.31900 39.36800
H  -5.68400 38.94500 40.68100
H  -5.87900 37.20800 41.38300
H  -6.66900 38.61300 42.11200
H  -8.15500 36.71900 38.18900
H  -9.47600 35.75700 38.83900
H  -8.34700 34.07200 38.29100
H  -7.13300 34.36100 39.44000
H  -9.04800 43.00500 39.11200
H  -7.94600 42.72900 40.40900
H  -8.80700 44.29400 40.37000
H  -13.78100 44.58600 41.54300
H  -13.01400 46.00400 42.29000
H  -13.03200 44.56300 43.16900
H  -15.87000 41.08700 42.74600
H  -15.88800 38.90100 44.69500
H  -14.54600 42.09300 44.85400
H  -15.77100 41.11000 45.71600
H  -16.24900 42.13800 44.38500
H  -16.43500 37.93000 42.00100
H  -17.30600 39.37500 42.15400
H  -18.16100 37.85400 44.49200
H  -18.26900 36.88900 43.02700
H  -19.04400 38.45000 43.16600
H  -14.52700 33.12800 42.68400
H  -14.91700 34.08600 44.17600
H  -13.63300 32.83300 44.19100
H  -9.54100 34.03800 40.43400
H  -7.63100 33.40500 45.02600
H  -7.36800 35.06100 45.24900
H  -6.57100 34.28400 43.87200

