158

Mg -1.91000 16.89300 25.11600
C  -2.16100 14.85500 27.90600
C  -2.92300 19.48900 26.96400
C  -1.78300 18.78600 22.27600
C  -1.20400 13.98500 23.21900
N  -2.59000 17.16800 27.25800
C  -2.59800 16.22000 28.18200
C  -2.96300 16.86800 29.60100
C  -3.52300 18.26300 29.13400
C  -3.05900 18.27700 27.67400
C  -5.07300 18.52200 29.21300
C  -1.80600 16.94600 30.59900
C  -1.78000 16.04600 31.84200
H  -2.47600 16.61200 33.00900
N  -2.20700 18.92100 24.71500
C  -2.56200 19.81500 25.64600
C  -2.56200 21.15200 25.05800
C  -2.26800 21.00000 23.68300
C  -2.13900 19.48300 23.47200
C  -2.70900 22.41400 25.86700
C  -2.21400 21.93200 22.57200
O  -1.94100 21.57400 21.47700
C  -2.43300 23.35500 22.87400
N  -1.63700 16.39300 22.96300
C  -1.42100 17.40000 22.10600
C  -1.04500 16.88100 20.72300
C  -0.68400 15.39300 21.15000
C  -1.20400 15.22300 22.54300
C  -2.05900 17.06300 19.47500
C  0.79400 15.07300 21.07600
C  1.64400 16.01300 21.90700
N  -1.82600 14.78400 25.43200
C  -1.55800 13.75500 24.54800
C  -1.69700 12.50300 25.24300
C  -1.86800 12.89800 26.61800
C  -1.97900 14.30800 26.63400
C  -1.56300 11.07000 24.67200
C  -1.95700 12.49700 27.97800
O  -1.91700 11.35200 28.46300
C  -1.95900 13.78100 28.84200
C  -0.74600 14.01900 29.54900
O  0.20200 14.68500 29.22000
O  -0.69100 13.28900 30.67500
C  0.61800 13.23300 31.29500
H  -3.23100 20.36500 27.54000
H  -1.63200 19.29000 21.31900
H  -1.01100 13.08800 22.62600
H  -3.76800 16.33100 30.10100
H  -3.09400 19.09800 29.68700
H  -5.64000 17.74600 29.72600
H  -5.52900 18.87800 28.28900
H  -5.10300 19.40200 29.85500
H  -1.55400 17.96000 30.90700
H  -0.93300 16.83800 29.95600
H  -0.77200 15.77000 32.15200
H  -2.14000 15.06900 31.52000
H  -1.87700 23.11800 25.84400
H  -2.81200 22.13300 26.91500
H  -3.59500 23.00900 25.64500
H  -2.84500 23.78400 21.96000
H  -1.48400 23.85600 23.06600
H  -3.21500 23.50600 23.61800
H  -0.13100 17.38900 20.41600
H  -1.21600 14.68000 20.52100
H  -1.62000 17.51600 18.58600
H  -2.92600 17.64600 19.78400
H  -2.33500 16.03800 19.22600
H  1.00400 15.08800 20.00600
H  0.87600 14.02100 21.34900
H  2.14700 15.42600 22.67600
H  1.26700 16.99000 22.21100
H  2.43900 16.40800 21.27500
H  -1.70700 11.01800 23.59200
H  -2.39300 10.67300 25.25700
H  -0.60200 10.61600 24.91200
H  -2.83700 13.81500 29.48700
H  1.50600 13.48100 30.71200
H  0.74800 12.23600 31.71500
H  0.64800 14.00000 32.06900
Mg 9.13800 2.81700 26.66900
C  10.52200 1.15500 29.51800
C  7.28900 4.70700 28.75300
C  7.96400 4.04700 24.07300
C  10.74600 0.15200 24.77600
N  9.00700 2.95100 28.90200
C  9.67000 2.23400 29.90500
C  9.23900 2.68400 31.29800
C  8.03600 3.72300 31.01000
C  8.18800 3.88200 29.50200
C  6.61400 3.19600 31.45000
C  10.48300 3.09500 32.23000
C  10.39100 4.14400 33.37500
H  10.96000 3.86700 34.76000
N  7.81900 4.17400 26.43900
C  7.15900 4.94200 27.36500
C  6.34900 5.95500 26.70700
C  6.57700 5.86400 25.27400
C  7.45200 4.61800 25.21300
C  5.72100 7.00900 27.44600
C  6.08600 6.75900 24.13900
O  6.45000 6.56900 22.98900
C  5.07800 7.89300 24.40800
N  9.39800 2.22800 24.69500
C  8.79400 2.93700 23.75300
C  9.15800 2.48600 22.32100
C  10.02200 1.23200 22.57400
C  10.15500 1.25600 24.12400
C  7.97500 2.24800 21.36500
C  11.39300 1.20800 21.84400
C  11.19700 1.07900 20.31600
N  10.39100 1.08800 27.03200
C  10.92800 0.10000 26.15600
C  11.56100 -0.95200 26.90600
C  11.52200 -0.46200 28.24600
C  10.81800 0.71800 28.27000
C  12.11900 -2.16800 26.38300
C  11.92900 -0.83900 29.53900
O  12.56700 -1.79200 29.87300
C  11.23600 0.18900 30.49900
C  10.30800 -0.56600 31.39100
O  9.24000 -1.02800 31.09800
O  10.84200 -0.60400 32.64400
C  10.08800 -1.30100 33.71700
H  6.63700 5.31200 29.38600
H  7.48800 4.44500 23.17400
H  11.21700 -0.61600 24.15900
H  8.73200 1.80600 31.69900
H  8.15900 4.63700 31.59100
H  5.97200 3.06600 30.57900
H  6.19400 3.93100 32.13600
H  6.83000 2.26600 31.97600
H  11.22200 3.64300 31.64500
H  10.92900 2.20500 32.67500
H  9.33100 4.39000 33.44400
H  10.91900 5.02500 33.01200
H  6.22300 7.96500 27.29600
H  5.71900 6.69800 28.49100
H  4.74000 7.12200 26.98400
H  4.16800 7.43300 24.79500
H  4.85000 8.30600 23.42500
H  5.55000 8.58000 25.11000
H  9.80100 3.26700 21.91500
H  9.40300 0.39600 22.24900
H  7.02700 2.64400 21.73000
H  7.93100 1.21000 21.03500
H  8.20400 2.77800 20.44100
H  11.85500 0.25600 22.10800
H  12.00900 2.07700 22.07700
H  10.16800 1.34600 20.07600
H  11.37300 0.05100 19.99900
H  11.85600 1.76300 19.78100
H  11.35000 -2.49900 25.68500
H  12.14500 -2.84400 27.23800
H  13.04200 -1.95700 25.84300
H  11.90800 0.74600 31.15300
H  10.48100 -2.28900 33.95700
H  9.05200 -1.39900 33.39300
H  9.97400 -0.73800 34.64400

