158

Mg -0.66400 6.94400 26.39000
C  0.43400 9.05300 28.88500
C  -0.63200 4.35000 28.60300
C  -1.68100 4.94600 23.88500
C  -0.11600 9.50000 24.02600
N  -0.22100 6.76500 28.49500
C  0.16300 7.79500 29.38200
C  0.12800 7.29800 30.82600
C  0.08000 5.73300 30.70200
C  -0.25400 5.57300 29.18200
C  1.41700 5.06400 31.08500
C  -1.17200 7.99400 31.51100
C  -1.36900 7.81700 32.99400
H  -0.22200 7.16100 33.68400
N  -1.09300 4.89700 26.23100
C  -1.02100 3.98000 27.26100
C  -1.46200 2.69200 26.77400
C  -1.90800 2.88600 25.44000
C  -1.62100 4.31000 25.15900
C  -1.27300 1.54000 27.54200
C  -2.42700 1.89200 24.36700
O  -2.80700 2.22100 23.23700
C  -2.41900 0.43800 24.68600
N  -0.64400 7.13000 24.20400
C  -1.23100 6.20900 23.48900
C  -1.33300 6.64200 21.95600
C  -0.72000 8.13900 22.02300
C  -0.48800 8.29900 23.55400
C  -0.64100 5.73700 20.88000
C  -1.66000 9.24400 21.38600
C  -2.85900 9.66900 22.26800
N  0.07300 8.81200 26.40700
C  0.18300 9.78000 25.41000
C  0.61900 11.02000 25.92100
C  0.76000 10.77000 27.33400
C  0.41500 9.46700 27.51800
C  0.68500 12.30800 25.12700
C  1.15800 11.42300 28.55200
O  1.67800 12.55000 28.68400
C  0.84700 10.33400 29.68100
C  2.00100 10.19700 30.52300
O  3.11500 9.73500 30.28500
O  1.71000 10.62700 31.75200
C  2.84000 11.11600 32.53500
H  -0.67000 3.54200 29.33700
H  -1.94600 4.31000 23.03800
H  -0.10200 10.32500 23.31200
H  0.95500 7.71700 31.40100
H  -0.65700 5.22800 31.32600
H  2.24000 5.77200 30.98300
H  1.72000 4.47100 30.22300
H  1.37400 4.62200 32.08100
H  -2.06600 7.58500 31.04100
H  -1.10800 9.03700 31.19900
H  -2.23800 7.17000 33.10700
H  -1.53700 8.83700 33.34000
H  -0.33300 1.43700 28.08500
H  -1.26200 0.70300 26.84300
H  -2.01200 1.40600 28.33200
H  -3.19800 0.38100 25.44700
H  -1.41900 0.16000 25.01700
H  -2.63100 -0.21000 23.83500
H  -2.39700 6.64100 21.71700
H  0.16400 8.29100 21.40300
H  -0.39900 4.70600 21.13600
H  0.27300 6.18700 20.49300
H  -1.33200 5.63800 20.04300
H  -2.16800 8.87900 20.49400
H  -1.14700 10.18200 21.17700
H  -2.54400 10.54400 22.83800
H  -3.14600 8.86200 22.94200
H  -3.74200 9.86000 21.65900
H  1.18000 13.05700 25.74500
H  -0.22600 12.82000 24.81800
H  1.35100 12.10300 24.28900
H  0.00100 10.71200 30.25500
H  3.45000 10.24500 32.77300
H  2.43700 11.56400 33.44400
H  3.38900 11.84900 31.94400
Mg 16.22100 -2.63600 27.79000
C  15.21800 -0.42800 30.46200
C  17.78500 -4.52700 30.20000
C  17.63000 -4.44100 25.40900
C  14.63300 -0.44900 25.48000
N  16.44700 -2.44100 30.08700
C  15.94100 -1.50600 30.94600
C  16.07200 -1.96000 32.41800
C  17.06000 -3.17300 32.31000
C  17.09100 -3.42000 30.75500
C  18.45600 -3.00700 33.01400
C  14.75000 -2.27800 33.03600
C  14.41400 -1.66700 34.42700
H  15.56400 -1.27400 35.30000
N  17.51200 -4.24800 27.87900
C  17.99800 -4.96400 28.90800
C  18.85600 -6.05200 28.49500
C  18.74900 -6.04100 27.05200
C  17.95700 -4.87100 26.71600
C  19.53200 -7.02500 29.47500
C  19.43700 -7.00000 26.07300
O  19.33800 -6.85300 24.84200
C  20.36900 -8.04700 26.67200
N  15.97700 -2.56600 25.78200
C  16.82600 -3.29700 25.07500
C  16.72200 -2.88800 23.57300
C  15.54900 -1.84600 23.58700
C  15.34700 -1.61500 25.06500
C  18.01800 -2.18500 23.07800
C  14.23400 -2.30800 22.91000
C  13.32800 -1.28700 22.16400
N  15.03600 -0.84300 27.86500
C  14.49600 -0.02400 26.85100
C  13.73800 1.07900 27.36000
C  14.03400 1.00500 28.78900
C  14.84000 -0.16500 29.01400
C  12.93700 2.06400 26.56600
C  13.84600 1.57100 30.08400
O  13.33100 2.62500 30.32100
C  14.42900 0.58600 31.22000
C  15.20300 1.49700 32.03600
O  16.35700 1.85300 31.88500
O  14.36300 1.85100 33.13000
C  14.93300 2.87000 33.95800
H  18.25000 -5.16200 30.95700
H  18.09700 -4.89400 24.53200
H  14.19600 0.19000 24.71000
H  16.51700 -1.09700 32.91300
H  16.63300 -4.06900 32.76000
H  18.54600 -3.83900 33.71300
H  18.45400 -2.04600 33.52800
H  19.15100 -3.11900 32.18200
H  14.69700 -3.34700 33.24500
H  13.93600 -1.97400 32.37900
H  13.78700 -2.37600 34.96900
H  13.84600 -0.75200 34.26300
H  19.65500 -8.06700 29.18000
H  19.17400 -6.90200 30.49700
H  20.55400 -6.64900 29.52700
H  19.69200 -8.87800 26.86800
H  21.10400 -7.73400 27.41400
H  21.02700 -8.37200 25.86600
H  16.43800 -3.82800 23.10000
H  15.82800 -0.86100 23.21300
H  18.19200 -2.39100 22.02200
H  18.92300 -2.23200 23.68500
H  17.91600 -1.10000 23.05500
H  13.62300 -2.68600 23.73000
H  14.58700 -3.09500 22.24400
H  12.66400 -0.98900 22.97500
H  12.72600 -1.71900 21.36400
H  13.98500 -0.45400 21.91400
H  12.90200 3.01400 27.10000
H  11.91700 1.68200 26.53600
H  13.31100 2.25100 25.56000
H  13.54100 0.24000 31.74800
H  15.36200 2.31300 34.79100
H  14.14500 3.46300 34.42100
H  15.70900 3.48700 33.50500

