158

Mg 16.41100 -2.19700 27.96200
C  15.57500 -0.27800 30.71100
C  18.46000 -4.07700 29.93800
C  17.56200 -3.74400 25.24600
C  14.42800 -0.13800 26.01700
N  16.96600 -2.20500 30.08000
C  16.60400 -1.19300 30.96800
C  17.18300 -1.54400 32.33600
C  18.32500 -2.61300 31.98800
C  17.84200 -3.04800 30.62200
C  19.80900 -2.06900 32.18800
C  16.14800 -2.17000 33.33100
C  16.42800 -1.93500 34.82300
H  17.50500 -1.00000 35.31100
N  17.75800 -3.84100 27.62800
C  18.49100 -4.46500 28.53500
C  19.29700 -5.48200 27.91400
C  18.84500 -5.53200 26.50200
C  18.06900 -4.34500 26.40600
C  20.34500 -6.34500 28.72600
C  19.29800 -6.46000 25.32900
O  18.87500 -6.27200 24.21200
C  20.29900 -7.54400 25.61900
N  16.12200 -1.85400 25.90400
C  16.79700 -2.61600 25.00800
C  16.39300 -2.13800 23.61300
C  15.37900 -0.96000 23.83000
C  15.31200 -0.90300 25.29000
C  17.78600 -1.68600 22.92100
C  14.04900 -1.25500 23.07300
C  13.72100 -0.45700 21.81600
N  15.19600 -0.55000 28.20400
C  14.30900 0.10400 27.35000
C  13.59700 1.14800 28.06100
C  14.02900 1.01400 29.37000
C  15.01500 0.00400 29.40500
C  12.58600 2.12700 27.53800
C  13.91700 1.49200 30.69900
O  13.13200 2.35500 31.10800
C  14.81600 0.63300 31.64200
C  15.66700 1.57000 32.29300
O  16.70700 2.02900 31.88500
O  14.98200 2.02900 33.42100
C  15.57100 3.23700 33.99000
H  19.12500 -4.62100 30.61200
H  18.03400 -4.17000 24.35900
H  13.65200 0.38900 25.45700
H  17.51800 -0.60200 32.76900
H  18.20500 -3.44900 32.67700
H  20.19800 -1.98100 31.17400
H  20.44500 -2.70000 32.80900
H  19.81600 -1.10600 32.69900
H  16.16000 -3.25200 33.19900
H  15.13200 -1.95300 33.00200
H  16.49800 -2.93700 35.24700
H  15.53800 -1.41000 35.17000
H  19.98100 -7.35500 28.91300
H  20.65900 -5.87900 29.66100
H  21.26600 -6.45600 28.15400
H  20.17800 -8.06500 26.56800
H  21.31000 -7.13700 25.66400
H  20.30800 -8.27000 24.80600
H  15.99800 -3.01000 23.09000
H  15.85100 -0.02200 23.53700
H  18.53800 -1.62700 23.70700
H  17.76700 -0.63000 22.65200
H  18.27100 -2.23200 22.11200
H  13.34800 -1.16000 23.90200
H  14.01000 -2.32100 22.85100
H  12.81900 0.07800 22.11300
H  13.76300 -1.05600 20.90700
H  14.57400 0.20300 21.65900
H  12.12900 2.63400 28.38800
H  11.83700 1.63600 26.91800
H  13.04200 2.79600 26.80800
H  14.08300 0.17300 32.30600
H  15.28200 4.05300 33.32800
H  16.65800 3.14900 34.00100
H  15.24600 3.38500 35.02000
Mg 49.76200 46.05400 43.36400
C  46.59600 46.87600 42.12900
C  49.65500 43.05500 41.51200
C  53.12100 45.67900 43.77300
C  50.02400 49.42500 44.44100
N  48.31000 45.20000 41.85600
C  47.05200 45.63500 41.58600
C  46.33300 44.72400 40.67000
C  47.14000 43.38300 40.88800
C  48.48700 43.87000 41.47300
C  46.47600 42.22300 41.71400
C  46.15300 45.14200 39.14300
C  44.69800 44.86900 38.59200
H  44.68800 43.77000 37.52000
N  51.18300 44.60500 42.79700
C  50.88400 43.42600 42.09400
C  52.14300 42.65300 41.87700
C  53.18400 43.52900 42.38200
C  52.52800 44.68300 43.03100
C  52.33700 41.37500 41.16200
C  54.66800 43.20100 42.32900
O  55.02800 42.15300 41.82000
C  55.83200 44.05200 42.84700
N  51.39400 47.41800 43.92400
C  52.66300 46.95300 44.15900
C  53.46900 48.08500 44.82600
C  52.51000 49.30700 44.91600
C  51.19800 48.66000 44.51800
C  54.11100 47.65100 46.17000
C  52.81200 50.58300 44.00100
C  52.43700 51.90500 44.74500
N  48.54600 47.76000 43.38800
C  48.74400 49.02300 43.92000
C  47.52600 49.82700 43.76300
C  46.66600 48.99200 43.10400
C  47.35900 47.79200 42.88500
C  47.29400 51.27000 44.25400
C  45.27500 48.85400 42.59400
O  44.30200 49.64000 42.58800
C  45.22500 47.44100 41.90900
C  44.12500 46.75400 42.66100
O  44.01500 46.55200 43.85700
O  43.26100 46.17500 41.75400
C  42.32300 45.16300 42.31900
H  49.57600 42.02900 41.14500
H  54.18700 45.54400 43.97000
H  49.98500 50.40300 44.92600
H  45.31400 44.55400 41.01900
H  47.45600 42.90100 39.96400
H  47.13700 41.94000 42.53300
H  46.39400 41.30500 41.13200
H  45.56500 42.56300 42.20600
H  46.88800 44.63700 38.51700
H  46.33300 46.21700 39.12500
H  44.15300 45.77600 38.33100
H  44.11100 44.39500 39.37900
H  51.32800 41.08500 40.87100
H  52.60000 40.58600 41.86600
H  52.98700 41.44400 40.28900
H  56.81700 43.61400 42.68400
H  55.62000 44.19600 43.90700
H  55.76600 44.97900 42.27800
H  54.25100 48.28900 44.09500
H  52.46500 49.60100 45.96400
H  53.56800 48.04600 47.02800
H  55.16400 47.93000 46.12500
H  54.15500 46.56300 46.20900
H  52.38900 50.60100 42.99600
H  53.89600 50.68600 43.96200
H  53.34600 52.48800 44.89500
H  51.99300 51.67500 45.71400
H  51.55000 52.38700 44.33700
H  47.92800 51.96200 43.69900
H  47.62100 51.23900 45.29300
H  46.23200 51.47900 44.12100
H  45.03600 47.46600 40.83600
H  41.65000 45.75000 42.94300
H  42.84500 44.44700 42.95500
H  41.85000 44.74200 41.43200

