158

Mg 48.13600 45.87000 43.17100
C  44.89900 46.23000 42.11000
C  48.31800 42.72000 41.83900
C  51.64400 46.20600 42.93000
C  48.08300 49.15400 44.30600
N  46.80500 44.72000 42.07900
C  45.52900 45.10200 41.70100
C  44.87700 43.94200 40.93200
C  45.83100 42.72000 41.19300
C  47.09300 43.42300 41.74900
C  45.27100 41.65400 42.14400
C  44.68800 44.29700 39.41300
C  43.43900 43.54700 38.83100
H  43.52700 43.16600 37.33000
N  49.76000 44.63300 42.57800
C  49.59700 43.32600 42.08300
C  50.90400 42.77800 41.75300
C  51.90100 43.69000 42.15500
C  51.14000 44.88600 42.55700
C  51.11200 41.36300 41.20900
C  53.37300 43.47200 42.06600
O  53.80700 42.40000 41.67900
C  54.33000 44.61000 42.44100
N  49.56300 47.45200 43.43300
C  50.92200 47.29400 43.34800
C  51.64900 48.49900 43.96400
C  50.60200 49.50200 44.27400
C  49.33200 48.65500 44.06400
C  52.63700 48.10100 45.08000
C  50.63800 50.79300 43.32700
C  51.48900 51.98300 43.87700
N  46.71200 47.33000 43.45400
C  46.78900 48.60800 43.99000
C  45.44600 49.19700 43.99900
C  44.68000 48.32500 43.22300
C  45.51900 47.23600 42.85200
C  45.15400 50.66900 44.46900
C  43.39800 48.12900 42.60000
O  42.45100 48.95900 42.66200
C  43.43200 46.77100 41.82700
C  42.43200 45.81400 42.30100
O  41.46200 45.44400 41.64400
O  42.42400 45.65200 43.62700
C  41.27000 44.92700 44.18200
H  48.42100 41.66000 41.60000
H  52.72600 46.34800 42.94000
H  48.07500 50.18900 44.65400
H  43.89800 43.74200 41.36500
H  46.06600 42.18300 40.27300
H  44.31200 41.98000 42.54600
H  45.98100 41.65800 42.97100
H  45.26700 40.62800 41.77600
H  45.54500 43.99700 38.81000
H  44.44400 45.35600 39.32600
H  42.49700 44.04100 39.07200
H  43.43900 42.66400 39.47000
H  51.58700 41.41200 40.22900
H  50.24900 40.71300 41.05900
H  51.74800 40.71000 41.80600
H  54.41000 45.36200 41.65600
H  55.35900 44.34300 42.68400
H  53.99800 44.96400 43.41600
H  52.22300 48.95800 43.15900
H  50.66200 49.81800 45.31500
H  52.48200 47.03900 45.26800
H  52.49800 48.70000 45.98000
H  53.64800 48.20500 44.68300
H  49.65600 51.25900 43.23800
H  50.98700 50.57800 42.31700
H  51.64400 51.94400 44.95500
H  50.97100 52.94000 43.81800
H  52.41500 52.07700 43.31000
H  45.93600 51.41100 44.30900
H  44.85200 50.67500 45.51700
H  44.23700 50.92900 43.94000
H  43.23900 47.16400 40.82900
H  41.48000 44.55400 45.18400
H  40.74200 44.17500 43.59600
H  40.52500 45.64700 44.52100
Mg -2.40600 34.60300 26.74400
C  -4.02900 32.68700 29.21600
C  -1.04100 36.52000 29.22100
C  -1.18700 36.62900 24.43600
C  -4.34700 32.98900 24.30600
N  -2.46900 34.48900 28.95300
C  -3.19000 33.70500 29.73100
C  -2.85300 34.00100 31.21600
C  -1.88600 35.28800 31.12700
C  -1.79600 35.42500 29.65700
C  -2.51400 36.46500 31.95700
C  -2.21300 32.77900 31.91700
C  -3.01100 32.19600 33.16600
H  -2.32200 32.07100 34.54100
N  -1.15700 36.29600 26.81800
C  -0.65900 36.90900 27.90800
C  0.22700 38.01600 27.50500
C  0.27600 37.91800 26.08400
C  -0.80500 36.98100 25.71800
C  0.87500 38.84100 28.54400
C  1.20100 38.69000 25.11300
O  1.15100 38.45100 23.94000
C  2.10000 39.71700 25.64000
N  -3.01100 34.95700 24.66300
C  -2.24000 35.80300 24.01700
C  -2.72900 35.84700 22.55900
C  -3.54700 34.56800 22.40300
C  -3.65000 34.11200 23.86100
C  -3.54800 37.22100 22.23200
C  -2.75900 33.55400 21.50600
C  -1.67900 32.70400 22.21700
N  -3.91300 33.16100 26.72400
C  -4.47400 32.48100 25.64100
C  -5.21200 31.32100 26.15200
C  -5.04600 31.44400 27.57300
C  -4.25800 32.53700 27.85000
C  -6.00900 30.25900 25.34400
C  -5.46600 30.78500 28.83600
O  -6.10700 29.67700 28.95500
C  -4.93800 31.67300 29.94800
C  -6.04400 32.29700 30.69400
O  -6.72900 33.14400 30.16800
O  -6.10800 31.89700 32.07800
C  -6.99500 32.69500 32.97400
H  -0.59400 37.11500 30.02100
H  -0.89100 37.29900 23.62600
H  -4.82800 32.33700 23.57300
H  -3.73100 34.33700 31.76900
H  -0.90100 35.20100 31.58500
H  -2.74400 37.24400 31.23100
H  -1.82400 36.97700 32.62800
H  -3.43100 36.25400 32.50800
H  -1.23400 33.07400 32.29500
H  -1.99000 31.94700 31.24900
H  -3.25200 31.13800 33.06400
H  -3.94800 32.75300 33.16900
H  1.93200 38.96200 28.30600
H  0.86300 38.51900 29.58500
H  0.45600 39.84500 28.49100
H  2.70600 39.23900 26.41000
H  1.52200 40.54800 26.04500
H  2.80400 40.03600 24.87100
H  -1.86100 35.87200 21.90000
H  -4.52500 34.82000 21.99400
H  -3.84800 37.12800 21.18800
H  -2.89600 38.06000 22.47700
H  -4.48500 37.30200 22.78300
H  -2.12000 34.10000 20.81200
H  -3.44400 32.88300 20.98700
H  -0.86200 32.66300 21.49600
H  -2.09300 31.69500 22.20700
H  -1.32900 32.98000 23.21100
H  -5.54600 30.20300 24.35900
H  -7.08700 30.42000 25.34600
H  -5.78500 29.32800 25.86400
H  -4.31000 31.04000 30.57300
H  -6.31800 33.38800 33.47300
H  -7.59200 32.07900 33.64700
H  -7.73400 33.31300 32.46400

