158

Mg 48.87000 45.48200 42.99900
C  45.33700 45.66700 42.08100
C  48.88500 42.48400 41.65100
C  52.24600 45.68700 43.14100
C  48.51600 48.77400 44.22000
N  47.29700 44.38300 41.80200
C  46.00800 44.58800 41.55200
C  45.36600 43.40600 40.78100
C  46.48200 42.31000 40.98500
C  47.61000 43.07900 41.62700
C  46.10000 41.07900 41.80300
C  45.02600 43.86000 39.31400
C  43.67000 43.37900 38.77200
H  43.71500 42.33000 37.60500
N  50.35200 44.23400 42.45100
C  50.17300 42.96400 41.91200
C  51.46400 42.22900 41.92500
C  52.44500 43.16900 42.32200
C  51.69600 44.43400 42.68700
C  51.70900 40.76300 41.41000
C  53.95200 42.86600 42.52400
O  54.38200 41.84800 42.00100
C  54.87900 43.62900 43.25700
N  50.22600 47.07500 43.39600
C  51.57400 46.92100 43.50000
C  52.26100 48.23100 44.05000
C  51.00300 49.21500 44.24300
C  49.81200 48.19400 44.13000
C  53.28100 48.11100 45.17300
C  51.00200 50.34300 43.16300
C  51.43900 51.73500 43.53000
N  47.26000 46.74000 43.33800
C  47.32900 48.07200 43.87500
C  45.90500 48.57500 43.88100
C  45.16500 47.62000 43.27600
C  46.01300 46.58300 42.86100
C  45.51300 49.97800 44.42500
C  43.79700 47.36300 42.80300
O  42.71000 47.88700 43.06300
C  43.88300 46.10800 41.92800
C  42.79600 45.08900 42.26600
O  41.91000 44.70800 41.48900
O  42.88300 44.65000 43.59800
C  41.67700 43.89300 44.03700
H  48.89000 41.41500 41.42900
H  53.29000 45.67200 43.46200
H  48.33800 49.80300 44.54000
H  44.46000 43.00300 41.23400
H  46.86400 41.93100 40.03700
H  46.25800 40.21500 41.15800
H  45.02500 41.13700 41.97800
H  46.59300 40.88100 42.75400
H  45.78800 43.40900 38.67800
H  45.08100 44.94900 39.29100
H  43.16000 44.23000 38.31900
H  43.06100 43.09900 39.63100
H  52.46500 40.67300 40.63000
H  50.74000 40.39300 41.07700
H  52.02200 40.18900 42.28200
H  55.02900 44.56500 42.71800
H  55.84000 43.12000 43.33700
H  54.50200 43.92400 44.23600
H  52.88500 48.59500 43.23300
H  50.90700 49.66700 45.23000
H  52.69600 48.19300 46.08900
H  53.95300 48.94900 44.98800
H  53.76900 47.13800 45.23000
H  50.08000 50.25900 42.59000
H  51.81600 50.14300 42.46600
H  51.45700 51.77600 44.61900
H  50.62500 52.34300 43.13600
H  52.43600 52.00900 43.18400
H  45.86500 50.73100 43.72000
H  45.86400 50.15300 45.44200
H  44.42400 49.94500 44.47500
H  43.59100 46.42500 40.92700
H  41.81600 42.84200 43.78400
H  40.76100 44.26900 43.58100
H  41.56200 44.03500 45.11100
Mg -5.50100 25.77500 25.65600
C  -4.10100 27.38900 28.39200
C  -7.15800 23.70800 27.69200
C  -6.43500 24.02500 22.96700
C  -3.55800 27.82800 23.63800
N  -5.57900 25.58600 27.81200
C  -5.00700 26.36300 28.79300
C  -5.55900 26.08800 30.21400
C  -6.37800 24.81800 29.92700
C  -6.29800 24.68600 28.37600
C  -6.03100 23.61800 30.76700
C  -6.34200 27.32100 30.83700
C  -5.89600 27.72800 32.19800
H  -5.32800 26.64800 33.09400
N  -6.68400 24.12900 25.35100
C  -7.36900 23.41500 26.36000
C  -8.13100 22.31600 25.90500
C  -7.89700 22.40100 24.43500
C  -6.88100 23.53400 24.19300
C  -8.87400 21.25400 26.73900
C  -8.56800 21.53800 23.34100
O  -8.33500 21.70800 22.17600
C  -9.70600 20.74400 23.74000
N  -5.15600 26.06100 23.48100
C  -5.60900 25.09700 22.58300
C  -5.05100 25.42800 21.14200
C  -4.14800 26.68700 21.39200
C  -4.25300 26.86700 22.93000
C  -4.32300 24.14100 20.66400
C  -4.56500 27.94800 20.54700
C  -4.66900 27.73900 18.98600
N  -4.16600 27.39400 25.85300
C  -3.51500 28.15100 25.01100
C  -2.69500 29.13300 25.71900
C  -2.90600 28.90800 27.07200
C  -3.82300 27.84200 27.12000
C  -1.75500 30.13900 25.11500
C  -2.47700 29.31500 28.42300
O  -1.74600 30.17400 28.85900
C  -3.28000 28.28000 29.28000
C  -2.30400 27.42700 30.10400
O  -1.74200 26.39300 29.67500
O  -2.23500 27.85500 31.42300
C  -1.22900 27.08600 32.28200
H  -7.75900 23.18000 28.43500
H  -6.65000 23.40200 22.09600
H  -2.97000 28.38900 22.90800
H  -4.69400 25.77900 30.80000
H  -7.42800 24.98700 30.16500
H  -6.90200 23.44500 31.39900
H  -5.11700 23.67200 31.35800
H  -5.93600 22.82800 30.02200
H  -7.38700 27.10900 31.06200
H  -6.23700 28.22800 30.24100
H  -6.81400 28.08900 32.66000
H  -5.19700 28.55400 32.06700
H  -8.57800 21.38600 27.78000
H  -8.69600 20.23600 26.39200
H  -9.95200 21.41500 26.73100
H  -10.37400 21.28700 24.40900
H  -9.28200 19.82700 24.14900
H  -10.32000 20.54700 22.86100
H  -5.97600 25.63900 20.60600
H  -3.09700 26.55200 21.13700
H  -4.77300 23.25800 21.11900
H  -3.24400 24.06000 20.80000
H  -4.53000 24.12700 19.59400
H  -3.79100 28.69700 20.71300
H  -5.55500 28.25900 20.88100
H  -4.25300 26.75700 18.76000
H  -4.04800 28.44200 18.43000
H  -5.66500 27.87500 18.56400
H  -1.56200 30.05900 24.04500
H  -0.77900 30.11400 25.60000
H  -2.11400 31.16300 25.22100
H  -3.90200 28.81400 29.99900
H  -0.27700 27.27700 31.78700
H  -1.45700 26.02200 32.34400
H  -1.15600 27.45500 33.30500

