158

Mg 40.76300 7.95300 30.08100
C  42.77000 9.29500 32.65700
C  38.41200 7.22200 32.43700
C  39.18300 6.25300 27.75500
C  43.42900 8.46500 27.91000
N  40.78300 8.05200 32.36700
C  41.55300 8.85200 33.11200
C  40.98100 9.15900 34.53700
C  39.64800 8.25500 34.53500
C  39.57000 7.71300 33.04200
C  39.53600 7.09200 35.57800
C  40.73900 10.68800 34.83100
C  39.99200 10.87400 36.15100
H  40.48200 11.91100 37.14100
N  38.98000 6.88100 30.11300
C  38.10400 6.75200 31.12400
C  36.88400 6.12600 30.63700
C  37.04700 5.99300 29.20600
C  38.40000 6.40600 28.94300
C  35.74400 5.79600 31.56500
C  36.09500 5.48000 28.14400
O  36.32700 5.55100 26.94000
C  34.77100 4.88100 28.58200
N  41.25800 7.36000 28.15800
C  40.40300 6.68800 27.36000
C  40.93800 6.46900 25.93700
C  42.21900 7.34200 25.94300
C  42.34100 7.74000 27.44900
C  41.17700 5.03100 25.40300
C  42.07800 8.51000 24.93200
C  41.28700 9.76500 25.40100
N  42.61800 8.88100 30.18000
C  43.62500 9.08900 29.22000
C  44.81100 9.63800 29.79900
C  44.49300 9.85400 31.10500
C  43.17000 9.34000 31.30800
C  46.14200 9.82700 29.16500
C  44.94300 10.46000 32.32300
O  45.95900 11.07900 32.62900
C  43.78300 10.15400 33.33000
C  44.36600 9.50200 34.61400
O  44.94200 8.41100 34.69500
O  44.15400 10.29800 35.65100
C  44.58000 9.76200 36.97900
H  37.56200 7.29700 33.11800
H  38.61500 5.85700 26.91100
H  44.25000 8.38100 27.19500
H  41.73700 8.80500 35.23700
H  38.79900 8.88100 34.80600
H  39.70600 6.18600 34.99600
H  38.54500 7.12300 36.03100
H  40.36200 7.24000 36.27300
H  40.26000 11.23400 34.01800
H  41.67300 11.11200 35.20000
H  39.77900 9.92200 36.63700
H  39.02800 11.34900 35.97000
H  36.10400 5.82500 32.59300
H  35.51500 4.75600 31.33100
H  34.92400 6.49400 31.39400
H  34.21100 4.55200 27.70600
H  34.14800 5.63400 29.06400
H  34.88000 3.99300 29.20400
H  40.26400 6.95300 25.23000
H  43.10400 6.71900 25.81400
H  40.63800 4.29200 25.99700
H  42.23300 4.83200 25.22400
H  40.82000 4.94700 24.37600
H  41.60300 8.12000 24.03100
H  43.12600 8.63600 24.66100
H  41.81700 10.68600 25.15900
H  41.15900 9.75600 26.48400
H  40.26100 9.81000 25.03700
H  46.27000 10.78300 28.65700
H  46.26300 9.09200 28.36800
H  46.91600 9.75500 29.92900
H  43.31900 11.11200 33.56300
H  43.94500 8.90400 37.19800
H  44.32400 10.50300 37.73700
H  45.63600 9.53400 37.12300
Mg 47.26300 15.28300 28.24600
C  45.19300 14.88600 31.11600
C  49.41900 17.08300 30.30300
C  49.11500 15.87400 25.58100
C  44.96400 13.26200 26.47000
N  47.26700 15.93900 30.40900
C  46.37300 15.54000 31.33200
C  46.70300 16.05400 32.72300
C  47.88800 17.08200 32.37300
C  48.24800 16.58700 31.00400
C  47.58500 18.60100 32.39300
C  47.00500 14.79000 33.66100
C  46.78300 14.99800 35.15900
H  46.88900 16.39200 35.73400
N  49.00800 16.27600 28.01800
C  49.74300 16.91700 28.94000
C  51.02500 17.25100 28.33300
C  51.01200 16.86800 26.95700
C  49.65200 16.38800 26.78400
C  51.97500 18.07300 29.13500
C  52.05800 17.01600 25.95500
O  51.89500 16.78000 24.75700
C  53.37200 17.50100 26.48200
N  46.97700 14.76200 26.31400
C  47.92300 15.11200 25.35300
C  47.54500 14.59700 23.93300
C  46.47200 13.51000 24.40500
C  46.08100 13.88500 25.79100
C  47.06200 15.65600 22.92500
C  47.03100 12.02200 24.57900
C  46.16700 10.83200 24.34500
N  45.40500 14.25500 28.67100
C  44.62100 13.52000 27.82400
C  43.45800 13.08300 28.63000
C  43.61100 13.66300 29.89800
C  44.83100 14.30100 29.87800
C  42.35100 12.11800 28.15100
C  43.03900 13.82100 31.25200
O  41.92400 13.49400 31.67700
C  44.07700 14.67300 32.06900
C  43.41400 15.87100 32.49400
O  42.85700 16.63300 31.76300
O  43.35700 15.94800 33.84500
C  42.60300 17.02800 34.40500
H  50.15100 17.54600 30.96900
H  49.63800 16.07400 24.64300
H  44.41000 12.61400 25.78700
H  45.90100 16.68300 33.10900
H  48.67300 16.88400 33.10300
H  46.67800 18.75200 32.97700
H  47.39100 18.99400 31.39500
H  48.40200 19.16000 32.84800
H  48.02200 14.49200 33.40600
H  46.42500 13.89800 33.42400
H  47.39300 14.26400 35.68600
H  45.73300 14.71200 35.22300
H  51.40900 18.68400 29.83800
H  52.45900 18.79600 28.47900
H  52.75100 17.44100 29.56600
H  54.19400 17.15600 25.85400
H  53.61500 17.03500 27.43600
H  53.59000 18.56900 26.45600
H  48.34800 14.02200 23.47300
H  45.55500 13.48600 23.81700
H  46.05800 15.40400 22.58300
H  47.75000 15.80100 22.09200
H  47.13200 16.54900 23.54600
H  47.38300 11.83300 25.59300
H  47.82500 11.99400 23.83400
H  45.19600 11.25000 24.08000
H  46.14000 10.19500 25.22900
H  46.41800 10.18400 23.50500
H  42.68200 11.48700 27.32600
H  41.49000 12.73000 27.88000
H  42.08100 11.47700 28.99000
H  44.35000 13.94800 32.83700
H  41.73400 17.20500 33.77200
H  43.23500 17.91400 34.33600
H  42.29800 16.74400 35.41200

