158

Mg 25.73100 0.36400 29.41900
C  27.81000 0.21200 32.32100
C  23.01800 0.82100 31.52900
C  23.77000 0.10200 26.71200
C  28.55000 -0.70200 27.50800
N  25.42900 0.47900 31.65400
C  26.42800 0.40100 32.62200
C  25.80300 0.53200 34.03100
C  24.26900 0.65500 33.74800
C  24.21400 0.67300 32.20000
C  23.31600 -0.36800 34.46000
C  26.50100 1.59100 34.94300
C  25.50400 2.09000 36.06300
H  25.95500 1.97800 37.44300
N  23.73100 0.60000 29.12900
C  22.79100 0.79100 30.10200
C  21.48200 0.85100 29.45900
C  21.74600 0.86400 28.02700
C  23.17600 0.46900 27.94300
C  20.20300 1.01800 30.28300
C  20.79200 1.11100 26.82200
O  21.02100 1.11100 25.57700
C  19.52600 1.76300 27.21600
N  26.15300 -0.39700 27.37800
C  25.16100 -0.27800 26.40600
C  25.61200 -0.85500 25.03800
C  27.17400 -0.96600 25.25200
C  27.33100 -0.65500 26.76100
C  24.99300 -2.17000 24.74300
C  28.02000 0.06400 24.40900
C  27.56500 1.46600 24.54900
N  27.76300 -0.05800 29.75300
C  28.73200 -0.52600 28.93800
C  29.98600 -0.62900 29.67600
C  29.65800 -0.37600 31.02100
C  28.28700 -0.10100 31.05700
C  31.23800 -1.07000 29.01300
C  30.18200 -0.25900 32.37000
O  31.36600 -0.33200 32.78200
C  29.02200 0.03200 33.27200
C  28.82400 -1.00900 34.33900
O  28.64000 -2.17800 34.11300
O  29.11400 -0.45900 35.59800
C  29.10200 -1.42600 36.79000
H  22.11800 0.97900 32.12600
H  23.03600 -0.11000 25.93200
H  29.40200 -1.11400 26.96400
H  26.05200 -0.41000 34.52000
H  23.91200 1.64100 34.04400
H  22.51900 0.16800 34.97500
H  23.84800 -1.02700 35.14700
H  22.92700 -1.00400 33.66500
H  26.96500 2.34200 34.30300
H  27.34900 1.03100 35.33700
H  24.59100 1.49700 36.11100
H  25.34400 3.16300 35.95400
H  20.33600 0.59000 31.27700
H  19.26200 0.67600 29.85200
H  19.93200 2.07100 30.37000
H  18.83400 1.08900 27.72000
H  19.02300 2.14400 26.32700
H  19.81300 2.67900 27.73200
H  25.34000 -0.19400 24.21500
H  27.55800 -1.96700 25.05500
H  24.17600 -2.37000 25.43600
H  25.73000 -2.91300 25.04800
H  24.63300 -2.27700 23.71900
H  28.00200 -0.30800 23.38400
H  29.06300 -0.07900 24.69200
H  26.72200 1.67100 25.20900
H  27.35600 1.85800 23.55400
H  28.32200 2.10700 25.00000
H  31.75700 -1.43200 29.90000
H  31.89900 -0.30900 28.59900
H  30.94800 -1.79500 28.25200
H  29.23600 1.01300 33.69600
H  29.03100 -2.47500 36.50000
H  28.23200 -1.36600 37.44400
H  29.97200 -1.33300 37.44000
Mg -9.65500 40.55100 39.50600
C  -8.61700 37.38600 38.68300
C  -6.55300 41.71700 38.73100
C  -10.91900 43.65700 39.57200
C  -12.89400 39.23300 39.96300
N  -7.81200 39.57700 38.78400
C  -7.58300 38.24800 38.55600
C  -6.04500 38.00800 38.12900
C  -5.41900 39.41100 38.40400
C  -6.66300 40.29200 38.63800
C  -4.49800 39.48700 39.69900
C  -5.89300 37.45200 36.65400
C  -6.69700 38.26400 35.54400
H  -7.58500 37.42100 34.64000
N  -8.91200 42.45200 39.05500
C  -7.58500 42.72900 38.80800
C  -7.39300 44.13600 38.58000
C  -8.59300 44.78200 39.08800
C  -9.52600 43.66400 39.30600
C  -6.13400 44.77600 38.17900
C  -8.79300 46.23900 39.21400
O  -8.03400 47.03700 38.66000
C  -9.92100 46.75300 39.97000
N  -11.69800 41.30500 39.48000
C  -11.86000 42.60000 39.65100
C  -13.36700 42.92900 39.84800
C  -14.01300 41.53500 40.05800
C  -12.78700 40.58600 39.94800
C  -13.64400 43.81600 41.06200
C  -15.21400 41.11700 39.20000
C  -16.49500 40.71500 39.97300
N  -10.56600 38.69000 39.45600
C  -11.88900 38.35400 39.61300
C  -12.09300 36.93500 39.48300
C  -10.77900 36.45300 39.07700
C  -9.90000 37.61400 39.08100
C  -13.35900 36.14900 39.68100
C  -10.02600 35.27800 38.72900
O  -10.39600 34.10400 38.72300
C  -8.52100 35.85600 38.50000
C  -7.53800 35.05500 39.33700
O  -7.72100 34.90400 40.54300
O  -6.48300 34.48700 38.65800
C  -5.37500 34.03700 39.49000
H  -5.52500 42.08300 38.69200
H  -11.23600 44.67400 39.81000
H  -13.87200 38.75000 40.01100
H  -5.73100 37.23300 38.82700
H  -4.81500 39.72500 37.55200
H  -4.98600 40.13200 40.42900
H  -3.45600 39.71500 39.47300
H  -4.50700 38.45400 40.04700
H  -6.09400 36.38600 36.54900
H  -4.83900 37.55800 36.39900
H  -5.94800 38.59500 34.82500
H  -7.31300 39.06800 35.94600
H  -6.38400 45.56300 37.46700
H  -5.36200 44.04500 37.93800
H  -5.77400 45.31700 39.05400
H  -9.99000 46.16400 40.88500
H  -10.84400 46.59600 39.41200
H  -9.80400 47.82000 40.15700
H  -13.73900 43.34800 38.91300
H  -14.28900 41.38600 41.10200
H  -14.31100 43.42100 41.82800
H  -14.01000 44.80200 40.77500
H  -12.66600 43.89200 41.53600
H  -14.85400 40.28300 38.59800
H  -15.38000 41.92300 38.48500
H  -17.19600 41.50200 39.69400
H  -16.27700 40.62900 41.03700
H  -16.83100 39.79800 39.48700
H  -14.22700 36.29400 39.03900
H  -13.76300 36.53500 40.61700
H  -13.04600 35.10500 39.69900
H  -8.30500 35.57100 37.47000
H  -4.46800 34.22500 38.91600
H  -5.46300 32.97400 39.71500
H  -5.41400 34.54100 40.45500

