158

Mg 9.23100 4.10800 27.07700
C  10.55900 2.75000 30.08400
C  7.47700 6.25000 29.01600
C  8.09400 5.33300 24.23900
C  10.54200 1.39000 25.35200
N  9.03400 4.47900 29.39300
C  9.70600 3.90400 30.36000
C  9.41600 4.54400 31.75600
C  8.30300 5.57700 31.38700
C  8.20500 5.40100 29.86800
C  6.96900 5.48300 32.16200
C  10.63800 5.13400 32.47700
C  10.25700 5.83700 33.78600
H  11.20900 5.55500 35.00700
N  8.01800 5.53700 26.73600
C  7.29500 6.31800 27.58800
C  6.57600 7.32700 26.91300
C  6.98200 7.28400 25.58500
C  7.71900 6.01100 25.45200
C  5.55900 8.22000 27.49200
C  6.55100 8.11900 24.50000
O  6.85400 8.00100 23.31900
C  5.69300 9.33800 24.78000
N  9.60500 3.54600 25.03900
C  8.90600 4.14600 24.02900
C  9.08900 3.44100 22.69500
C  9.72700 2.11400 23.15900
C  10.00600 2.37400 24.57600
C  7.81500 3.38600 21.76300
C  10.87700 1.65200 22.19900
C  10.58200 0.40800 21.37800
N  10.26500 2.40600 27.54300
C  10.79200 1.42100 26.70800
C  11.52600 0.46100 27.56900
C  11.53900 1.04100 28.88300
C  10.71400 2.16800 28.79300
C  12.21500 -0.73200 27.20300
C  12.06000 0.79900 30.21000
O  12.77100 -0.04700 30.78600
C  11.42000 1.97600 31.06200
C  10.66500 1.25500 32.09700
O  9.63400 0.64000 31.74700
O  11.22600 1.50300 33.37500
C  10.41400 1.10100 34.46300
H  7.06100 7.07100 29.60300
H  7.71800 5.71000 23.28600
H  10.89000 0.52800 24.77800
H  9.06400 3.82400 32.49500
H  8.69800 6.56700 31.61700
H  6.90500 6.31500 32.86300
H  6.86000 4.52500 32.67100
H  6.13300 5.59300 31.47000
H  11.31600 5.70200 31.84000
H  11.25200 4.26900 32.72600
H  9.29400 5.40800 34.06200
H  10.18300 6.91300 33.63400
H  4.61600 8.08300 26.96400
H  5.86100 9.25900 27.35900
H  5.47000 7.93800 28.54100
H  5.77200 10.01800 23.93200
H  6.23700 9.98200 25.47100
H  4.65700 9.20400 25.09300
H  9.90400 4.01000 22.24800
H  8.89000 1.41500 23.15200
H  6.94600 3.77900 22.29000
H  7.77700 2.30000 21.67700
H  8.03200 3.83600 20.79500
H  11.74300 1.55400 22.85400
H  11.27100 2.41200 21.52500
H  11.23000 -0.44300 21.59100
H  10.84100 0.59200 20.33500
H  9.51600 0.18300 21.36800
H  11.89400 -1.60400 27.77400
H  13.29000 -0.56400 27.26300
H  11.95200 -1.12400 26.22000
H  12.26400 2.45900 31.55300
H  9.50300 0.63400 34.08800
H  10.23500 1.88300 35.20000
H  10.99000 0.31700 34.95400
Mg -2.17400 34.73500 25.77600
C  -3.91300 33.10800 28.33000
C  -1.10500 36.98900 28.01500
C  -0.89300 36.58900 23.15400
C  -3.73700 32.67500 23.44800
N  -2.65100 35.04500 27.94300
C  -3.26900 34.27300 28.80800
C  -3.03800 34.70200 30.28300
C  -2.27000 36.02800 30.15300
C  -1.93500 36.00200 28.60600
C  -3.06400 37.35900 30.53500
C  -2.36900 33.58800 31.13600
C  -3.06900 33.28200 32.45600
H  -2.08400 33.16800 33.60100
N  -1.18400 36.52800 25.67000
C  -0.76100 37.25700 26.73100
C  0.04100 38.43500 26.20400
C  0.09200 38.32900 24.75400
C  -0.64600 37.14000 24.46900
C  0.53500 39.53200 27.10600
C  0.68200 39.27600 23.65000
O  0.72500 39.09900 22.42700
C  1.47900 40.51300 24.11400
N  -2.43400 34.72300 23.71700
C  -1.67200 35.49800 22.82800
C  -1.79100 35.00800 21.34900
C  -2.41100 33.60100 21.59500
C  -2.88900 33.67900 23.03800
C  -2.75100 35.96500 20.52600
C  -1.43600 32.35200 21.38200
C  -0.72500 31.70200 22.62300
N  -3.55900 33.10600 25.80300
C  -4.12000 32.41600 24.78300
C  -4.94000 31.30500 25.39400
C  -4.82500 31.51300 26.75900
C  -4.02600 32.65300 26.98300
C  -5.86000 30.42600 24.74200
C  -5.29800 31.03800 28.03500
O  -5.94900 30.04100 28.31100
C  -4.71500 32.06800 29.15600
C  -5.82500 32.60500 29.88100
O  -6.55000 33.48800 29.46300
O  -5.87400 32.08500 31.14000
C  -6.89100 32.44400 32.15500
H  -0.63600 37.69100 28.70700
H  -0.30600 36.93200 22.30000
H  -4.00900 31.95700 22.67000
H  -4.08100 34.80500 30.58200
H  -1.27700 36.09900 30.59700
H  -3.61300 37.75000 29.67800
H  -2.36300 38.13800 30.83500
H  -3.69600 37.13400 31.39500
H  -1.40700 33.97200 31.47600
H  -2.22200 32.71500 30.50100
H  -3.38500 32.24800 32.31900
H  -3.88300 33.98000 32.65100
H  0.98300 40.39900 26.62000
H  1.32000 39.31500 27.83100
H  -0.24700 39.92200 27.75700
H  1.91000 40.94800 23.21200
H  2.37400 40.03400 24.51000
H  1.00600 41.22800 24.78700
H  -0.89300 34.90100 20.74000
H  -3.31200 33.47500 20.99400
H  -2.21300 36.78300 20.04800
H  -3.47900 36.43400 21.18800
H  -3.08500 35.35900 19.68400
H  -0.64600 32.75000 20.74700
H  -1.92900 31.60500 20.76000
H  -1.15200 32.09900 23.54400
H  0.34300 31.89200 22.51400
H  -0.88200 30.62600 22.69600
H  -5.55800 30.29500 23.70300
H  -6.87400 30.81400 24.83400
H  -5.84700 29.48200 25.28700
H  -4.04900 31.43500 29.74200
H  -7.12800 31.57800 32.77300
H  -7.78600 32.96600 31.81500
H  -6.34600 33.11900 32.81500

