158

Mg 35.77300 2.64600 30.77700
C  33.30000 3.57400 33.24100
C  38.13300 2.79000 33.35300
C  38.15800 2.11300 28.55500
C  33.37100 2.81000 28.46500
N  35.70600 2.99200 33.04300
C  34.62000 3.37300 33.79700
C  35.01600 3.65100 35.23700
C  36.59000 3.64900 35.18200
C  36.84000 3.05000 33.82000
C  37.35900 4.94900 35.52500
C  34.25700 2.60600 36.17400
C  34.09300 2.88100 37.64300
H  35.01600 3.91400 38.31800
N  37.91000 2.50900 30.95900
C  38.66500 2.63000 32.05400
C  40.08000 2.43700 31.69700
C  40.10600 2.17400 30.30100
C  38.72000 2.27300 29.85700
C  41.23000 2.57100 32.64500
C  41.25700 1.73600 29.37300
O  41.12700 1.56300 28.15600
C  42.62300 1.58200 29.96700
N  35.73300 2.41900 28.83600
C  36.83700 2.19900 28.08400
C  36.45000 1.94600 26.63000
C  34.89300 1.96300 26.61600
C  34.64100 2.45500 27.98900
C  37.08000 2.96500 25.56500
C  34.09800 0.65000 26.29300
C  34.05900 0.32600 24.78500
N  33.78200 3.22300 30.78100
C  32.89000 3.15500 29.71400
C  31.58100 3.47400 30.12300
C  31.71100 3.74400 31.51100
C  33.04700 3.56000 31.87500
C  30.38200 3.52500 29.22200
C  30.97600 3.95400 32.74800
O  29.77200 4.01800 32.98100
C  31.99900 3.99700 33.96300
C  31.96500 5.32700 34.56700
O  32.56600 6.32800 34.12600
O  31.17300 5.32200 35.63900
C  31.23400 6.54500 36.52100
H  38.88400 2.83200 34.14500
H  38.90800 2.03200 27.76400
H  32.63300 2.87300 27.66200
H  34.67300 4.62500 35.58900
H  36.75600 2.92900 35.98300
H  37.86200 5.28400 34.61800
H  38.22500 4.73600 36.15100
H  36.65000 5.72600 35.81100
H  34.90300 1.73200 36.08700
H  33.29200 2.33100 35.75000
H  34.24500 1.98600 38.24600
H  33.04000 3.05300 37.86900
H  40.99700 3.04600 33.59800
H  41.91300 3.30000 32.20900
H  41.87000 1.73000 32.91300
H  42.55800 1.02300 30.90100
H  43.15200 2.51900 30.13800
H  43.33600 1.05800 29.33000
H  36.82800 0.93600 26.46900
H  34.60400 2.79800 25.97900
H  37.78800 2.48800 24.88700
H  37.58200 3.78000 26.08600
H  36.29300 3.45900 24.99600
H  33.08200 0.87800 26.61800
H  34.33000 -0.23400 26.88600
H  34.68100 1.06500 24.27900
H  33.10100 0.25300 24.27000
H  34.47200 -0.67300 24.64500
H  29.74300 2.79400 29.71700
H  30.46300 3.24200 28.17300
H  29.70500 4.37900 29.24300
H  31.73500 3.25100 34.71200
H  31.17200 6.22900 37.56200
H  30.40500 7.18700 36.22200
H  32.19300 7.05300 36.41700
Mg 17.43300 52.48600 25.55600
C  19.35300 51.40400 28.30500
C  15.09500 53.48500 27.74800
C  15.71900 53.42100 23.01200
C  19.86300 51.04500 23.41800
N  17.32900 52.53700 27.81200
C  18.27100 52.14400 28.70300
C  17.79800 52.35900 30.09500
C  16.31800 52.83300 29.96200
C  16.20700 52.87200 28.42600
C  15.28500 52.03400 30.65400
C  18.67400 53.24700 31.00600
C  18.40900 53.26400 32.53500
H  17.28300 52.30300 33.11300
N  15.62400 53.36500 25.42300
C  14.77000 53.75000 26.44600
C  13.48800 54.33900 25.86800
C  13.70700 54.33700 24.48200
C  15.05700 53.70800 24.19100
C  12.26900 54.74700 26.65900
C  12.78800 54.84300 23.26600
O  13.06700 54.88300 22.03700
C  11.57200 55.67000 23.70700
N  17.84800 52.38400 23.49100
C  16.95000 52.87400 22.60600
C  17.44200 52.72200 21.12300
C  18.86500 52.08000 21.25900
C  18.94300 51.91600 22.87900
C  16.46200 51.94700 20.17500
C  20.03500 52.96100 20.77600
C  21.29000 52.34100 20.27900
N  19.19200 51.33400 25.75500
C  19.97700 50.75200 24.82500
C  20.94200 49.88100 25.49300
C  20.77600 50.15900 26.86200
C  19.66800 51.07700 26.93800
C  22.06900 49.13700 25.00800
C  21.25200 49.87100 28.18400
O  22.29700 49.28800 28.52400
C  20.37300 50.66400 29.20300
C  19.79400 49.60000 30.02600
O  18.95800 48.80000 29.68800
O  20.35700 49.73500 31.26700
C  19.70100 48.95000 32.28500
H  14.28800 53.81000 28.40800
H  15.17100 53.74000 22.12300
H  20.58600 50.59800 22.73200
H  17.69600 51.39500 30.59300
H  16.18500 53.85000 30.33100
H  14.66500 51.52100 29.91900
H  14.78200 52.68600 31.36900
H  15.66500 51.28200 31.34500
H  18.49700 54.22600 30.56000
H  19.70100 52.88200 31.01100
H  18.10500 54.27400 32.81100
H  19.31800 52.91300 33.02400
H  11.99400 55.78400 26.46100
H  12.38400 54.69000 27.74100
H  11.40700 54.09900 26.49800
H  11.00400 56.01300 22.84300
H  11.90100 56.51500 24.31200
H  10.88800 55.00600 24.23500
H  17.48000 53.77200 20.83200
H  18.93800 51.06100 20.88000
H  16.11700 52.69300 19.45900
H  15.55000 51.62900 20.68100
H  17.10300 51.26100 19.62200
H  20.29500 53.50800 21.68200
H  19.71500 53.65600 20.00000
H  21.39700 52.46100 19.20000
H  21.26500 51.29500 20.58200
H  22.12800 52.80700 20.79600
H  21.85800 48.94500 23.95600
H  22.05900 48.19400 25.55300
H  22.99700 49.69200 25.14300
H  21.07100 51.29000 29.75900
H  19.97600 49.41400 33.23100
H  20.06700 47.92300 32.25100
H  18.63900 48.99200 32.04400

