158

Mg 54.25100 23.20000 44.33100
C  51.98900 25.77400 43.43400
C  51.73700 20.85600 43.54700
C  56.59200 20.90400 44.40300
C  56.64200 25.72100 44.81100
N  52.08200 23.23100 43.47500
C  51.49900 24.44900 43.25300
C  50.10400 24.09800 42.60300
C  49.82100 22.60100 43.05100
C  51.26700 22.21200 43.37700
C  48.90500 22.31100 44.22800
C  50.09600 24.26400 41.05700
C  48.81300 24.88500 40.44400
H  48.31800 24.11300 39.14500
N  54.21500 21.20700 43.93500
C  53.07000 20.42200 43.73100
C  53.51000 19.01900 43.86100
C  54.91800 19.04100 44.04800
C  55.31800 20.44600 44.10600
C  52.60500 17.84600 43.56700
C  55.76400 17.81100 44.15400
O  55.22200 16.70400 44.05500
C  57.26700 17.81700 44.60800
N  56.43000 23.32900 44.28900
C  57.05000 22.21300 44.56400
C  58.53000 22.50600 44.72300
C  58.55200 24.05900 44.92000
C  57.17300 24.43500 44.65600
C  59.18700 21.71100 45.88500
C  59.64200 24.75900 44.03200
C  60.57800 25.71500 44.84900
N  54.36100 25.31200 44.28900
C  55.32200 26.20600 44.61600
C  54.82400 27.58700 44.55700
C  53.48500 27.47400 44.14700
C  53.28100 26.07300 43.91300
C  55.58000 28.79300 44.94100
C  52.27300 28.17300 43.84700
O  52.03400 29.37600 43.84900
C  51.27100 27.14500 43.22700
C  51.20400 27.55600 41.78300
O  52.14100 27.34500 40.99700
O  50.02300 28.12500 41.48700
C  49.74400 28.56200 40.13500
H  50.94000 20.12700 43.38300
H  57.50000 20.29700 44.42300
H  57.32800 26.48100 45.19100
H  49.36200 24.78400 43.01300
H  49.52400 21.95700 42.22300
H  48.31000 21.41800 44.03800
H  48.21400 23.15100 44.29800
H  49.49500 22.24900 45.14200
H  50.27400 23.30900 40.56200
H  50.96100 24.91300 40.91800
H  48.98900 25.91500 40.13600
H  47.98900 24.96700 41.15200
H  52.76600 16.88600 44.05700
H  52.68100 17.58600 42.51100
H  51.61000 18.18700 43.85300
H  57.81000 18.32300 43.80900
H  57.70200 16.82100 44.52200
H  57.36900 18.28000 45.58900
H  58.98500 22.22900 43.77200
H  58.71700 24.22900 45.98400
H  59.45900 20.71200 45.54500
H  58.40000 21.55000 46.62200
H  60.02000 22.21400 46.37600
H  59.13400 25.33800 43.26100
H  60.25800 23.93900 43.66400
H  60.41000 26.77700 44.66600
H  61.62000 25.44200 44.68200
H  60.39400 25.57900 45.91500
H  56.50100 28.99500 44.39500
H  55.70900 28.76100 46.02300
H  54.90100 29.62300 44.74700
H  50.28100 27.17700 43.68200
H  48.89400 28.02800 39.71000
H  50.59000 28.66400 39.45500
H  49.28700 29.55000 40.19000
Mg 30.34700 57.85100 40.08600
C  27.77900 55.69800 38.69000
C  32.60300 55.58900 38.91300
C  32.62800 60.14000 40.45300
C  27.78900 60.31600 40.41100
N  30.18300 55.84000 38.96700
C  29.08900 55.19500 38.48300
C  29.51600 53.82100 38.01100
C  31.02800 53.75200 38.24400
C  31.32200 55.17800 38.68200
C  31.39100 52.64800 39.21600
C  29.03700 53.56100 36.50200
C  29.58800 54.60900 35.49500
H  28.75700 55.41600 34.39000
N  32.37600 57.83200 39.91400
C  33.16900 56.85200 39.38700
C  34.52000 57.23700 39.39500
C  34.57100 58.55900 39.89600
C  33.17400 58.91900 40.07800
C  35.63500 56.20700 39.08000
C  35.86400 59.36400 40.16900
O  36.88000 58.89800 39.80100
C  35.90900 60.72500 40.82900
N  30.22000 59.96000 40.19400
C  31.36100 60.65000 40.56400
C  31.06900 62.18400 40.68900
C  29.49900 62.21500 40.86600
C  29.13500 60.75900 40.45500
C  31.84400 62.96400 41.72900
C  28.79600 63.27200 39.98900
C  28.32200 64.53500 40.68600
N  28.24300 57.93100 39.81100
C  27.31100 58.99100 40.07100
C  25.92600 58.51300 39.81300
C  26.12800 57.27700 39.28500
C  27.49600 56.98900 39.20900
C  24.61900 59.20500 40.12500
C  25.38900 56.11900 38.81400
O  24.20400 56.03100 38.68200
C  26.39500 54.97100 38.57800
C  26.20800 53.87300 39.55700
O  27.05000 53.23100 40.17400
O  24.90700 53.55400 39.60100
C  24.59100 52.43000 40.52000
H  33.41000 54.88000 38.71600
H  33.37400 60.93100 40.55800
H  26.92600 60.97300 40.53500
H  29.02200 53.04800 38.60000
H  31.51300 53.50000 37.30100
H  31.50200 52.97100 40.25100
H  32.36500 52.24100 38.94400
H  30.72500 51.79500 39.08700
H  27.95200 53.47000 36.46300
H  29.45900 52.61200 36.17100
H  30.35700 54.09700 34.91600
H  30.10200 55.36400 36.09000
H  36.02300 56.33000 38.06900
H  35.29500 55.17900 39.20000
H  36.44900 56.28000 39.80200
H  36.91300 61.07200 41.07300
H  35.33200 60.61300 41.74700
H  35.49800 61.42300 40.10000
H  31.23000 62.60500 39.69700
H  29.30300 62.35900 41.92800
H  32.49500 62.25600 42.24200
H  31.13000 63.46800 42.38100
H  32.46500 63.68200 41.19500
H  27.97300 62.76700 39.48200
H  29.43200 63.56000 39.15200
H  28.25200 64.31800 41.75200
H  27.38200 64.98600 40.36600
H  29.13700 65.25500 40.60600
H  23.93800 58.46400 40.54400
H  24.03000 59.58200 39.28900
H  24.83600 59.86800 40.96200
H  26.27600 54.69500 37.53100
H  23.60700 51.98400 40.37800
H  24.62300 52.88400 41.51000
H  25.32700 51.62800 40.57800

