158

Mg -2.55600 16.99200 27.10800
C  -3.19800 14.65900 29.73000
C  -2.71300 19.39600 29.45500
C  -2.27300 19.27000 24.64400
C  -2.53900 14.41900 24.80700
N  -3.04100 16.94200 29.39300
C  -3.23100 15.95000 30.29000
C  -3.27100 16.42100 31.75300
C  -3.26600 18.04400 31.48100
C  -2.98500 18.14500 30.00100
C  -4.35600 18.92800 32.14300
C  -2.18800 15.86900 32.77300
C  -2.09000 16.88500 33.93500
H  -1.63900 16.29000 35.26400
N  -2.50900 19.06300 27.10400
C  -2.45900 19.88100 28.18900
C  -2.25700 21.27400 27.70900
C  -2.05200 21.22900 26.32000
C  -2.29100 19.81200 25.97200
C  -2.23000 22.45700 28.73800
C  -1.56400 22.31100 25.46100
O  -1.72800 22.34400 24.25900
C  -1.04800 23.51100 26.00900
N  -2.62500 16.83600 25.03200
C  -2.36200 17.92800 24.25100
C  -2.22700 17.56600 22.79800
C  -2.12400 16.01200 22.87000
C  -2.44600 15.70400 24.30800
C  -3.35800 18.17900 21.91600
C  -0.80300 15.47100 22.31400
C  0.45600 15.58700 23.18800
N  -2.87000 15.03100 27.18600
C  -2.81600 14.13000 26.15300
C  -3.15400 12.82400 26.64600
C  -3.20000 12.96700 28.03400
C  -3.06700 14.35500 28.34200
C  -3.00900 11.49800 25.89900
C  -3.16500 12.17000 29.25900
O  -3.10400 11.00300 29.42100
C  -3.43300 13.28800 30.35800
C  -2.38900 13.04800 31.38900
O  -1.19000 13.27500 31.19900
O  -2.87200 12.53300 32.56900
C  -1.85700 12.32700 33.63600
H  -2.91700 20.21700 30.14600
H  -2.07800 19.98800 23.84500
H  -2.45200 13.58400 24.10900
H  -4.29900 16.21300 32.05100
H  -2.26800 18.42200 31.70100
H  -4.86500 19.48500 31.35600
H  -3.90500 19.54600 32.91900
H  -5.13800 18.35900 32.64500
H  -1.24000 15.96900 32.24500
H  -2.26200 14.86800 33.19800
H  -3.05900 17.32500 34.17400
H  -1.32900 17.59100 33.60400
H  -2.74200 23.28300 28.24500
H  -1.21000 22.82200 28.85400
H  -2.68700 22.10800 29.66500
H  -1.74900 24.14200 26.55500
H  -0.77100 24.13100 25.15700
H  -0.16800 23.34400 26.63100
H  -1.29700 18.00100 22.43100
H  -2.93300 15.60600 22.26300
H  -3.84400 18.97400 22.48000
H  -3.99100 17.39300 21.50100
H  -2.82500 18.54200 21.03700
H  -0.65600 15.93700 21.33900
H  -0.93900 14.41500 22.08100
H  0.34700 16.21100 24.07500
H  1.24000 16.05100 22.59000
H  0.89200 14.61900 23.43800
H  -2.75400 11.68900 24.85600
H  -3.91400 10.92100 26.08200
H  -2.18700 10.99400 26.40700
H  -4.43300 13.24200 30.78900
H  -2.29700 11.43900 34.09000
H  -1.85300 13.07000 34.43400
H  -0.84300 12.01700 33.38400
Mg 1.54300 -2.91900 45.56700
C  4.77800 -2.11300 44.57400
C  0.33000 -0.61100 43.37700
C  -1.47000 -4.38700 45.94800
C  2.92800 -5.62700 47.29400
N  2.46100 -1.62600 43.99900
C  3.74200 -1.37600 43.88000
C  4.02800 -0.19700 42.90000
C  2.61500 0.36800 42.57300
C  1.70700 -0.62700 43.41000
C  2.28900 1.83000 42.75800
C  4.79000 -0.81500 41.70000
C  6.16200 -0.19500 41.30700
H  6.09100 0.78300 40.04000
N  -0.31900 -2.60600 44.72400
C  -0.59100 -1.55700 43.88800
C  -1.99300 -1.59700 43.49500
C  -2.52100 -2.65000 44.26000
C  -1.42400 -3.31800 44.98900
C  -2.69100 -0.56600 42.61700
C  -4.05300 -2.91900 44.18600
O  -4.75700 -2.29300 43.45600
C  -4.53700 -3.95600 45.12100
N  0.82700 -4.80400 46.44800
C  -0.45400 -5.10600 46.54800
C  -0.69900 -6.45300 47.26800
C  0.73400 -6.85000 47.74900
C  1.55000 -5.69000 47.18700
C  -1.70800 -6.50900 48.46500
C  1.16900 -8.28000 47.42900
C  1.57500 -8.56100 46.03500
N  3.49200 -3.70400 46.00300
C  3.87500 -4.76200 46.74300
C  5.31300 -4.70100 46.91500
C  5.76500 -3.60100 46.14600
C  4.57200 -3.11900 45.54700
C  6.12700 -5.64000 47.67000
C  6.89700 -2.82200 45.66100
O  8.07000 -2.89200 45.94400
C  6.25400 -1.82200 44.62300
C  6.52800 -0.50900 45.32100
O  6.04600 -0.03200 46.36100
O  7.39700 0.09500 44.56600
C  7.69900 1.47700 44.78600
H  -0.00000 0.11700 42.63400
H  -2.39700 -4.93400 46.12900
H  3.40400 -6.44300 47.84100
H  4.62500 0.51700 43.46800
H  2.28400 0.00400 41.60000
H  1.69700 2.16300 41.90600
H  3.18300 2.42200 42.95400
H  1.74700 1.95500 43.69600
H  4.15200 -0.87900 40.81800
H  5.13600 -1.83800 41.84700
H  6.88500 -0.99600 41.14800
H  6.56400 0.33000 42.17300
H  -3.08200 -0.98400 41.68900
H  -1.95700 0.14600 42.24100
H  -3.43500 0.00500 43.17200
H  -4.14000 -4.92000 44.80600
H  -5.62300 -3.94100 45.02500
H  -4.21500 -3.73300 46.13800
H  -1.07800 -7.15300 46.52400
H  0.79200 -6.73900 48.83100
H  -2.68700 -6.77200 48.06500
H  -1.92500 -5.55200 48.94000
H  -1.44000 -7.18600 49.27600
H  0.42300 -9.00000 47.76700
H  2.03400 -8.49500 48.05800
H  1.81100 -7.61900 45.53900
H  0.72100 -8.97400 45.49900
H  2.50500 -9.11700 45.91800
H  7.14800 -5.28100 47.80100
H  6.18100 -6.62900 47.21600
H  5.67300 -5.74300 48.65600
H  6.80000 -1.83500 43.68000
H  6.80800 2.10500 44.78300
H  8.27000 1.82000 43.92400
H  8.37700 1.71200 45.60700

