158

Mg 6.39900 54.40300 40.99100
C  6.11200 50.95900 41.10200
C  9.54900 53.96500 39.87200
C  6.64600 57.73700 40.88800
C  3.15100 54.53200 42.23700
N  7.60800 52.58300 40.25300
C  7.32100 51.25700 40.50000
C  8.48500 50.42100 40.16600
C  9.69700 51.49500 40.17200
C  8.91200 52.78100 40.05500
C  10.56600 51.32700 41.53700
C  8.20000 49.70300 38.79700
C  8.24600 50.55300 37.51300
H  6.99600 50.81600 36.61500
N  7.87100 55.66300 40.58700
C  9.14800 55.27500 40.25600
C  9.92200 56.46600 40.05500
C  9.13400 57.62900 40.39000
C  7.82400 57.05900 40.61600
C  11.39200 56.46900 39.63900
C  9.63900 59.06100 40.37300
O  10.85300 59.27800 40.22000
C  8.67800 60.20800 40.62800
N  5.02100 55.88500 41.45700
C  5.40900 57.24500 41.23800
C  4.25300 58.13000 41.46600
C  3.01400 57.12400 41.65700
C  3.77000 55.76500 41.81200
C  4.46900 59.15600 42.62000
C  1.95400 57.25200 40.56000
C  0.47600 57.28500 40.97100
N  4.85300 53.07800 41.44200
C  3.70100 53.29600 42.17700
C  3.13000 52.08100 42.74600
C  4.05700 51.10600 42.32500
C  5.11300 51.79500 41.61500
C  1.85800 51.92600 43.45100
C  4.39600 49.70500 42.40100
O  3.98200 48.74900 43.05100
C  5.71400 49.54900 41.55100
C  5.21200 48.59400 40.50200
O  4.38500 48.87800 39.62900
O  5.87700 47.35600 40.57600
C  5.47800 46.48700 39.46900
H  10.60600 53.81000 39.64600
H  6.64100 58.82900 40.92300
H  2.14600 54.56800 42.66200
H  8.58900 49.62600 40.90500
H  10.42700 51.35100 39.37500
H  10.26400 50.34000 41.88600
H  10.19700 52.06700 42.24800
H  11.63000 51.41100 41.31200
H  7.27500 49.13000 38.85900
H  8.93400 48.93600 38.54900
H  8.95300 50.13700 36.79500
H  8.57200 51.56500 37.75100
H  12.00500 56.84600 40.45700
H  11.64800 57.11800 38.80200
H  11.87700 55.53900 39.34200
H  7.91900 60.26400 39.84700
H  9.26800 61.10500 40.81700
H  8.22900 59.99800 41.59800
H  4.07100 58.70100 40.55500
H  2.57500 57.17200 42.65400
H  4.05300 58.76100 43.54600
H  4.29800 60.20200 42.36400
H  5.53600 59.14600 42.84500
H  2.07100 56.41900 39.86700
H  2.14200 58.19500 40.04600
H  -0.01000 57.69300 40.08500
H  0.17900 57.80200 41.88400
H  0.02100 56.29500 41.01200
H  1.76200 52.58800 44.31200
H  1.71500 50.93000 43.87000
H  1.06100 52.25000 42.78100
H  6.44500 49.11300 42.23200
H  6.06400 46.69700 38.57500
H  4.41700 46.53700 39.22800
H  5.73700 45.47100 39.77000
Mg -12.58400 38.16300 42.09700
C  -10.40700 35.64100 40.92900
C  -10.39200 40.56800 41.25400
C  -15.04800 40.48000 42.67900
C  -14.87400 35.50000 42.89100
N  -10.66000 38.13500 41.09200
C  -9.91700 36.98300 40.74300
C  -8.56600 37.37100 40.22700
C  -8.51700 38.93600 40.65000
C  -9.95300 39.23800 40.94800
C  -7.60200 39.25000 41.83100
C  -8.42300 37.10600 38.73500
C  -7.25300 36.18800 38.23200
H  -6.44200 36.75900 37.02800
N  -12.66300 40.28600 42.05100
C  -11.60400 41.03600 41.73900
C  -12.10700 42.43500 41.67700
C  -13.44600 42.45500 42.13800
C  -13.77700 41.01500 42.28800
C  -11.13300 43.60300 41.26000
C  -14.35500 43.72300 42.26300
O  -13.84700 44.82100 41.91100
C  -15.78400 43.73600 42.69500
N  -14.74800 37.99300 42.80400
C  -15.46800 39.16600 42.90000
C  -16.92000 38.80100 43.17400
C  -16.84200 37.21600 43.28500
C  -15.45400 36.80200 42.90300
C  -17.63500 39.50500 44.30500
C  -17.99500 36.58900 42.40900
C  -19.41400 36.64300 42.81600
N  -12.73800 36.05600 41.99200
C  -13.69000 35.14000 42.35400
C  -13.16600 33.80300 42.33100
C  -11.90100 33.92600 41.68000
C  -11.69200 35.33500 41.49900
C  -13.80300 32.58100 42.93600
C  -10.79500 33.21000 41.12900
O  -10.62400 32.00000 41.09300
C  -9.76600 34.27500 40.66100
C  -8.50500 34.08900 41.43000
O  -8.37600 34.28500 42.60000
O  -7.57700 33.52000 40.64800
C  -6.27700 33.30900 41.30300
H  -9.65600 41.37400 41.20200
H  -15.85400 41.20900 42.78800
H  -15.63200 34.74100 43.09700
H  -7.84600 36.88800 40.88800
H  -8.27400 39.67100 39.88200
H  -6.63400 38.78400 41.64400
H  -8.04700 38.69000 42.65300
H  -7.49100 40.29700 42.11200
H  -8.39500 38.12200 38.34200
H  -9.37600 36.65800 38.45200
H  -7.60800 35.22300 37.87100
H  -6.48800 35.91900 38.96100
H  -11.35600 44.50700 41.82700
H  -11.35400 43.84500 40.22000
H  -10.10100 43.27500 41.38600
H  -16.51400 43.20800 42.08200
H  -16.10700 44.77200 42.80400
H  -15.77300 43.25400 43.67200
H  -17.51000 39.11400 42.31200
H  -16.91000 36.88200 44.32000
H  -17.04800 40.40100 44.51100
H  -17.64500 38.84500 45.17200
H  -18.61900 39.83900 43.97600
H  -17.79700 35.52000 42.33200
H  -17.85100 36.96100 41.39500
H  -20.09600 36.56100 41.97000
H  -19.52600 37.45500 43.53500
H  -19.65200 35.74000 43.37800
H  -13.18300 31.69800 42.78100
H  -14.69600 32.32800 42.36400
H  -13.92400 32.75300 44.00500
H  -9.61200 34.07600 39.60100
H  -6.05100 34.21100 41.87100
H  -5.49200 33.10800 40.57400
H  -6.33600 32.45600 41.97900

