158

Mg 41.21300 6.57800 28.82300
C  42.77900 7.81700 31.66000
C  38.72300 5.30500 31.03100
C  39.64800 5.17300 26.22500
C  43.87600 7.62000 26.93800
N  40.68700 6.78600 31.12300
C  41.49400 7.30300 32.00800
C  40.97800 7.15400 33.41700
C  39.67700 6.31600 33.21300
C  39.65100 6.16200 31.71900
C  39.77200 4.97900 34.01900
C  40.86800 8.51000 34.15800
C  39.85000 8.55800 35.33200
H  40.22100 9.50200 36.45800
N  39.38000 5.56900 28.65700
C  38.53400 5.08800 29.64300
C  37.39600 4.43900 28.99500
C  37.51400 4.55900 27.64000
C  38.87000 5.17700 27.43400
C  36.27000 3.72400 29.77300
C  36.60900 4.15900 26.44000
O  36.88500 4.35700 25.26700
C  35.39700 3.45300 26.73600
N  41.75000 6.37100 26.86500
C  40.92500 5.65100 25.96800
C  41.45600 5.81200 24.55300
C  42.74000 6.71200 24.76200
C  42.87700 6.89800 26.27200
C  41.57600 4.46500 23.85000
C  42.78000 7.96600 23.87200
C  41.82500 9.15800 24.23300
N  42.93600 7.52500 29.14400
C  43.96100 7.91000 28.31900
C  44.98300 8.53500 29.08100
C  44.53000 8.53200 30.41700
C  43.32600 7.80400 30.43800
C  46.29100 9.07200 28.63700
C  44.93900 9.06300 31.71400
O  45.93100 9.58900 32.15300
C  43.72800 8.62400 32.54200
C  44.20500 7.82600 33.73100
O  44.49500 6.64600 33.69700
O  44.37400 8.63800 34.88000
C  44.75100 7.96500 36.12400
H  38.02000 4.80400 31.69900
H  39.17100 4.63800 25.40100
H  44.73900 7.97800 26.37400
H  41.85800 6.58900 33.72400
H  38.73900 6.84500 33.38700
H  39.15400 5.03300 34.91500
H  40.79900 4.81800 34.34600
H  39.42100 4.15000 33.40400
H  40.61200 9.29100 33.44200
H  41.84500 8.85100 34.50100
H  39.66600 7.54000 35.67700
H  38.86800 8.88600 34.99200
H  36.52300 3.58200 30.82300
H  36.24800 2.73200 29.32200
H  35.27600 4.17200 29.78800
H  34.69200 3.98300 27.37700
H  35.73100 2.54000 27.22800
H  34.85200 3.14900 25.84300
H  40.69200 6.39100 24.03400
H  43.61300 6.09100 24.56000
H  41.23200 3.55000 24.33200
H  42.63400 4.29000 23.65200
H  41.05800 4.46000 22.89100
H  42.41600 7.61100 22.90700
H  43.79900 8.35200 23.86200
H  41.17800 8.77200 25.02100
H  41.36500 9.43000 23.28300
H  42.39200 10.02800 24.56400
H  47.01000 8.90900 29.43900
H  46.19600 10.07000 28.20800
H  46.63700 8.45900 27.80400
H  43.42700 9.61100 32.89600
H  44.75500 6.87900 36.21800
H  44.06200 8.20600 36.93400
H  45.79800 8.18100 36.33400
Mg -11.04000 40.76600 41.71900
C  -10.00100 37.57300 41.07300
C  -8.36900 42.14800 40.22000
C  -12.58400 43.86800 41.96700
C  -14.29300 39.41700 42.72400
N  -9.50400 39.89100 40.49200
C  -9.06600 38.56800 40.57500
C  -7.73300 38.40600 39.93000
C  -7.15200 39.88800 40.07800
C  -8.46100 40.71400 40.24900
C  -6.01300 40.04100 41.11400
C  -7.85700 37.85900 38.43800
C  -7.13900 36.51300 38.12300
H  -6.02400 36.52400 36.97600
N  -10.45400 42.79400 41.23700
C  -9.31900 43.09100 40.65500
C  -9.24200 44.50100 40.57400
C  -10.44200 45.01900 41.04400
C  -11.26700 43.84900 41.36600
C  -8.10100 45.30900 39.96500
C  -10.75200 46.51800 41.13800
O  -9.89600 47.26900 40.78600
C  -12.13600 47.00400 41.54800
N  -13.25200 41.52700 42.04900
C  -13.47900 42.84400 42.18700
C  -14.90700 43.10600 42.66200
C  -15.46200 41.69300 42.72600
C  -14.25800 40.82300 42.50900
C  -14.92900 43.82700 44.13300
C  -16.62800 41.53500 41.75700
C  -17.75600 40.65200 42.32400
N  -11.96400 38.88100 42.01800
C  -13.21200 38.54400 42.41600
C  -13.27400 37.15800 42.54400
C  -12.01800 36.67000 42.00000
C  -11.30900 37.82500 41.66600
C  -14.40900 36.30500 42.97700
C  -11.19700 35.48100 41.65100
O  -11.37600 34.24700 41.71000
C  -9.98900 36.13100 40.79600
C  -8.76600 35.45600 41.26100
O  -8.06300 35.75900 42.26700
O  -8.56800 34.31300 40.50400
C  -7.61000 33.32600 41.06400
H  -7.37000 42.49000 39.94000
H  -13.13700 44.80500 42.05400
H  -15.19600 38.97600 43.15200
H  -7.21300 37.72900 40.60800
H  -6.75500 40.12900 39.09200
H  -5.54900 39.08700 41.36600
H  -6.31400 40.59100 42.00600
H  -5.21900 40.61500 40.63700
H  -7.53400 38.63900 37.75000
H  -8.89900 37.63900 38.20700
H  -7.89600 35.75900 37.90700
H  -6.51200 36.16800 38.94500
H  -7.30300 44.62200 39.68600
H  -7.68100 45.85200 40.81200
H  -8.51700 45.99600 39.22800
H  -12.85100 46.51000 40.89000
H  -12.27700 48.07700 41.41800
H  -12.21600 46.76100 42.60800
H  -15.25900 43.84000 41.93800
H  -15.87400 41.55000 43.72500
H  -15.07800 43.10700 44.93800
H  -15.70200 44.59100 44.05600
H  -13.94600 44.28000 44.26200
H  -16.42100 41.00800 40.82500
H  -17.05800 42.50900 41.52300
H  -18.49400 41.29800 42.80000
H  -17.35800 39.95700 43.06300
H  -18.25000 40.00000 41.60400
H  -14.69400 36.50800 44.00900
H  -14.14900 35.27800 42.71800
H  -15.25100 36.51800 42.31900
H  -10.14200 35.84900 39.75500
H  -6.60600 33.72200 41.21700
H  -7.64400 32.47200 40.38800
H  -8.00400 32.93800 42.00300

