158

Mg 30.82400 58.14700 40.92400
C  28.10800 56.45400 39.25100
C  32.88600 55.79700 39.51200
C  33.43600 60.13400 41.54200
C  28.56700 60.81700 41.42700
N  30.50700 56.38500 39.62200
C  29.36800 55.86500 39.07100
C  29.61000 54.55400 38.31600
C  31.10100 54.22600 38.74300
C  31.54900 55.57400 39.31200
C  31.40100 52.97400 39.71800
C  29.28100 54.72900 36.83800
C  28.40700 53.58700 36.20900
H  27.76600 53.93000 34.82900
N  32.85200 57.96700 40.61500
C  33.52500 56.93000 40.05500
C  34.98000 57.14400 40.11400
C  35.12200 58.38000 40.77100
C  33.76800 58.89100 41.02000
C  36.04300 56.26500 39.54700
C  36.42700 59.12400 41.15100
O  37.48800 58.76000 40.64200
C  36.48300 60.42700 42.10600
N  30.99300 60.25000 41.26300
C  32.16100 60.76800 41.71800
C  32.06400 62.26300 42.03700
C  30.50300 62.39300 42.29700
C  29.97400 61.06000 41.64000
C  32.96700 62.83100 43.17100
C  29.87300 63.68700 41.72800
C  28.86700 64.40400 42.65700
N  28.75700 58.55600 40.55400
C  27.97200 59.61700 40.96400
C  26.65300 59.44000 40.43900
C  26.61900 58.21300 39.80300
C  27.92700 57.67400 39.91600
C  25.48700 60.39200 40.63700
C  25.87000 57.29900 39.03600
O  24.71500 57.26900 38.69000
C  26.77300 55.97200 38.77900
C  26.34100 54.78600 39.65200
O  26.10000 54.88000 40.84400
O  26.29000 53.65300 38.94700
C  26.21800 52.33500 39.67300
H  33.58400 55.02800 39.17300
H  34.19400 60.88300 41.78200
H  27.87200 61.62700 41.65700
H  28.98400 53.81700 38.81900
H  31.80400 54.12300 37.91700
H  30.61900 52.21500 39.70600
H  31.51300 53.44300 40.69600
H  32.35900 52.55200 39.41500
H  30.27200 54.76100 36.38500
H  28.88300 55.73800 36.73300
H  27.62100 53.25500 36.88700
H  29.09800 52.75000 36.10500
H  36.73200 55.97700 40.34100
H  36.57800 56.79700 38.76000
H  35.68400 55.32700 39.12200
H  36.14900 61.33400 41.60200
H  37.52800 60.64300 42.32700
H  35.97800 60.29300 43.06300
H  32.38300 62.71300 41.09700
H  30.38000 62.30800 43.37700
H  33.76800 63.40400 42.70200
H  33.28800 61.97000 43.75800
H  32.38300 63.51300 43.78900
H  29.31000 63.34600 40.86000
H  30.58300 64.42400 41.35400
H  28.66100 63.74000 43.49700
H  27.93500 64.50900 42.10300
H  29.25300 65.40800 42.83600
H  25.65400 61.38700 40.22400
H  25.42800 60.48200 41.72200
H  24.58800 59.92800 40.23200
H  26.68600 55.61700 37.75200
H  25.66000 51.58000 39.11900
H  25.98400 52.42800 40.73400
H  27.14500 51.76100 39.66600
Mg 0.68300 43.44100 26.02500
C  2.98900 43.22400 28.66300
C  -1.79400 42.66800 28.24200
C  -1.42400 43.35400 23.36000
C  3.32600 43.88000 23.85400
N  0.63300 43.02600 28.20400
C  1.68000 43.07400 29.04600
C  1.13200 43.02100 30.46400
C  -0.28700 42.45500 30.35200
C  -0.55100 42.79200 28.86800
C  -0.52000 41.01000 30.62300
C  1.14600 44.45900 31.11100
C  1.45500 44.50500 32.66700
H  1.23100 43.20100 33.50800
N  -1.33900 42.98400 25.81600
C  -2.18900 42.68100 26.84300
C  -3.58400 42.54700 26.25600
C  -3.47800 42.87300 24.88300
C  -2.04900 43.10300 24.62700
C  -4.81200 42.14600 27.11200
C  -4.56900 42.90000 23.84700
O  -4.42500 43.25600 22.65900
C  -5.92600 42.48500 24.21500
N  0.86400 43.83600 23.93800
C  -0.07100 43.58600 23.05000
C  0.44900 43.59700 21.54800
C  1.88300 44.15900 21.83700
C  2.06700 43.87000 23.27100
C  0.37800 42.20200 20.87600
C  2.05000 45.63800 21.30400
C  1.82200 46.80100 22.28900
N  2.77500 43.52100 26.14600
C  3.71800 43.74000 25.20800
C  5.05400 43.71000 25.76500
C  4.81900 43.48600 27.15200
C  3.44800 43.35800 27.34900
C  6.28300 43.93300 25.01900
C  5.51200 43.32700 28.42600
O  6.68800 43.40500 28.69700
C  4.34500 43.17100 29.47500
C  4.64800 42.04200 30.29900
O  4.25900 40.87300 30.09200
O  5.39800 42.42900 31.44500
C  5.61200 41.36800 32.37000
H  -2.63200 42.52700 28.92800
H  -2.08000 43.32900 22.48700
H  4.07800 44.15600 23.11200
H  1.72100 42.35000 31.09000
H  -1.05800 43.00100 30.89600
H  0.34900 40.47500 31.00600
H  -0.91300 40.55600 29.71300
H  -1.31200 40.88500 31.36000
H  0.15600 44.90700 31.01800
H  1.79300 45.17100 30.59900
H  0.82000 45.29400 33.07200
H  2.51700 44.70000 32.81400
H  -5.62900 42.86500 27.04100
H  -4.49500 41.95000 28.13600
H  -5.19800 41.18900 26.76100
H  -6.07600 41.45600 24.54300
H  -6.52700 42.71400 23.33600
H  -6.10200 43.18100 25.03500
H  -0.21800 44.24100 20.97500
H  2.53100 43.53900 21.21800
H  1.38100 41.77600 20.82700
H  0.07900 42.17000 19.82800
H  -0.29300 41.49500 21.36300
H  1.44300 45.63500 20.39900
H  3.09400 45.72000 21.00200
H  2.59400 47.56700 22.21800
H  1.80900 46.37400 23.29200
H  0.85500 47.26900 22.10700
H  6.81900 44.77500 25.45800
H  6.15300 44.31800 24.00800
H  6.84800 43.00100 25.02800
H  4.41500 44.08400 30.06500
H  6.01200 40.39600 32.08000
H  4.64300 41.13000 32.80900
H  6.31300 41.79400 33.08700

