158

Mg 2.01700 -1.24900 44.07800
C  5.27600 -0.69800 43.32400
C  1.08500 1.46600 42.01000
C  -1.12300 -2.37900 44.02600
C  3.06800 -4.31900 45.57500
N  3.01700 0.13700 42.68700
C  4.40000 0.23800 42.73400
C  4.84500 1.53000 42.07400
C  3.51700 2.25200 41.75900
C  2.45200 1.25200 42.16400
C  3.30400 3.74200 42.14200
C  5.69200 1.15200 40.79900
C  6.95900 2.06800 40.67800
H  6.89500 3.10500 39.48000
N  0.13000 -0.47300 43.23100
C  -0.01300 0.63200 42.41400
C  -1.40100 0.82700 42.17700
C  -2.09100 -0.32600 42.77000
C  -1.01700 -1.09100 43.47800
C  -1.99300 2.05500 41.43900
C  -3.56300 -0.46600 42.66200
O  -4.31400 0.11800 41.85100
C  -4.22000 -1.61800 43.45800
N  1.09100 -3.16300 44.56600
C  -0.21500 -3.29300 44.59200
C  -0.52800 -4.66900 45.27600
C  0.75700 -5.01100 46.07200
C  1.72100 -4.16800 45.37500
C  -1.80100 -4.62000 46.12400
C  1.05200 -6.52400 46.15400
C  1.04500 -7.05000 47.58900
N  3.83500 -2.29200 44.39900
C  4.04800 -3.42500 45.18000
C  5.39600 -3.60200 45.33600
C  6.02800 -2.49400 44.69300
C  4.99900 -1.78700 44.11500
C  6.00800 -4.87900 45.77900
C  7.25700 -1.89100 44.35100
O  8.37100 -2.25000 44.70200
C  6.81500 -0.64100 43.48400
C  7.23400 0.54300 44.13900
O  6.76700 0.89300 45.22100
O  8.24000 1.29000 43.50100
C  8.55500 2.54300 44.21500
H  0.88400 2.38100 41.44900
H  -2.15300 -2.73700 44.09400
H  3.45600 -5.06600 46.27100
H  5.38800 2.03500 42.87300
H  3.43900 2.31600 40.67300
H  2.40700 3.96700 42.71900
H  3.22600 4.43500 41.30500
H  4.15200 4.16400 42.68200
H  5.07100 1.18500 39.90300
H  6.10800 0.14500 40.76100
H  7.86200 1.47200 40.54400
H  7.15600 2.71300 41.53400
H  -2.10100 1.76700 40.39300
H  -1.28200 2.87800 41.50700
H  -2.96200 2.31700 41.86400
H  -4.01400 -1.52600 44.52400
H  -3.87800 -2.55300 43.01300
H  -5.29600 -1.56100 43.29400
H  -0.68800 -5.34500 44.43600
H  0.79700 -4.53300 47.05100
H  -2.33900 -5.53200 45.86700
H  -2.39200 -3.70700 46.19600
H  -1.54100 -4.82900 47.16200
H  2.03100 -6.77000 45.74200
H  0.32600 -7.03800 45.52500
H  0.61500 -6.24100 48.17900
H  2.05100 -7.30600 47.92200
H  0.50500 -7.98200 47.75300
H  5.60100 -5.06200 46.77300
H  7.09100 -4.90100 45.89800
H  5.58900 -5.63900 45.12000
H  7.29400 -0.67900 42.50600
H  8.96000 3.15900 43.41200
H  9.27200 2.44000 45.03000
H  7.68100 3.03700 44.63900
Mg -6.13800 25.71600 25.37200
C  -4.43400 27.10900 28.21400
C  -7.45100 23.54900 27.59400
C  -7.34100 24.12600 22.68100
C  -4.17800 27.72000 23.35800
N  -6.03200 25.44000 27.69600
C  -5.28700 26.12500 28.59400
C  -5.63200 25.80100 29.99600
C  -6.39500 24.41000 29.78900
C  -6.57100 24.40400 28.26200
C  -5.76000 23.16100 30.43300
C  -6.40800 26.85800 30.78900
C  -5.82800 27.23000 32.14400
H  -6.59200 26.41100 33.23200
N  -7.31800 24.12300 25.19800
C  -7.90000 23.42900 26.24300
C  -9.05400 22.70000 25.72500
C  -8.95300 22.76800 24.28500
C  -7.85400 23.72200 23.95000
C  -10.07700 22.04600 26.57400
C  -9.63900 21.95000 23.28000
O  -9.50600 22.04600 22.06400
C  -10.61300 20.84300 23.69500
N  -5.84700 25.90600 23.37300
C  -6.45400 25.12600 22.43500
C  -6.06600 25.53600 20.98500
C  -5.17000 26.79200 21.23700
C  -5.03900 26.80500 22.74500
C  -5.36500 24.44100 20.05000
C  -5.65700 28.16500 20.73000
C  -5.78100 28.52500 19.19900
N  -4.65700 27.17300 25.70400
C  -3.93300 27.88200 24.74600
C  -3.00700 28.76300 25.43600
C  -3.26900 28.58800 26.77800
C  -4.20300 27.60100 26.90300
C  -2.06500 29.78700 24.76700
C  -2.93600 29.06900 28.06600
O  -2.21200 29.95100 28.46300
C  -3.61800 28.09500 29.03800
C  -2.67300 27.35800 29.89000
O  -1.96500 26.46300 29.53900
O  -2.59900 27.85600 31.17900
C  -1.86400 27.24900 32.26500
H  -8.09100 22.96700 28.26000
H  -7.82800 23.58600 21.86600
H  -3.47900 28.35100 22.80600
H  -4.64400 25.58200 30.40200
H  -7.43800 24.36700 30.10200
H  -6.32600 22.92600 31.33400
H  -4.73200 23.27300 30.77900
H  -5.85500 22.30900 29.75900
H  -7.38100 26.40800 30.98800
H  -6.54400 27.74800 30.17500
H  -6.03100 28.29200 32.27800
H  -4.76000 27.05100 32.26800
H  -9.95700 20.96300 26.55200
H  -11.08000 22.27100 26.21300
H  -10.00000 22.32700 27.62400
H  -10.02000 20.07400 24.19000
H  -10.95500 20.34700 22.78600
H  -11.42200 21.17700 24.34500
H  -7.02600 25.84900 20.57300
H  -4.13800 26.75900 20.88700
H  -6.07900 23.92200 19.41000
H  -4.83200 23.90900 20.83700
H  -4.67900 24.85300 19.30900
H  -5.16700 29.04400 21.14900
H  -6.71600 28.19100 20.98500
H  -5.64700 27.62200 18.60300
H  -5.02800 29.27000 18.94100
H  -6.76000 28.94600 18.97000
H  -1.45400 29.29900 24.00800
H  -1.43700 30.04300 25.62000
H  -2.67700 30.53900 24.26900
H  -4.25600 28.77000 29.60900
H  -2.46200 26.75100 33.02800
H  -1.27200 28.01800 32.76100
H  -1.10400 26.55900 31.89800

