158

Mg 48.48800 14.72700 28.01000
C  46.08000 14.75900 30.62300
C  50.30500 16.79900 30.02800
C  50.97100 14.36500 25.87000
C  46.28000 12.87100 25.98700
N  48.23700 15.61600 30.13600
C  47.23400 15.44700 30.96700
C  47.52700 16.05400 32.36200
C  48.81700 16.78000 32.11100
C  49.08600 16.47000 30.59800
C  48.77800 18.28600 32.27900
C  47.69700 14.89700 33.42500
C  47.42100 15.21700 34.93100
H  48.66200 15.14600 35.83200
N  50.32000 15.62300 27.91200
C  50.86800 16.42600 28.79400
C  52.17100 16.84500 28.36000
C  52.50900 15.98000 27.26600
C  51.26000 15.27700 26.96600
C  52.88300 18.07400 28.85000
C  53.76300 15.87600 26.39400
O  53.83700 15.07400 25.46700
C  55.02100 16.68200 26.68600
N  48.54400 13.86800 26.10000
C  49.78100 13.71700 25.46000
C  49.63800 12.71900 24.34500
C  48.11100 12.43300 24.21300
C  47.60000 13.15600 25.51200
C  50.31900 13.11500 23.08700
C  47.69100 10.94100 24.03600
C  46.81400 10.70100 22.80200
N  46.58600 14.00300 28.17500
C  45.81400 13.35300 27.26700
C  44.48300 13.15400 27.92000
C  44.54600 13.70300 29.16700
C  45.87800 14.13800 29.35800
C  43.33000 12.40500 27.31900
C  43.84800 13.93100 30.33400
O  42.65100 13.79200 30.51600
C  44.79800 14.51400 31.38400
C  44.22000 15.71400 31.98400
O  44.03100 16.78200 31.45000
O  43.88300 15.41900 33.29700
C  42.83400 16.30500 33.95700
H  50.98700 17.31000 30.71000
H  51.76000 14.17400 25.13900
H  45.57800 12.30500 25.37200
H  46.64900 16.61500 32.68300
H  49.69700 16.37000 32.60800
H  47.85700 18.56300 32.79100
H  48.85800 18.77300 31.30700
H  49.56200 18.74200 32.88300
H  48.76400 14.69600 33.32700
H  47.29200 13.96600 33.02800
H  46.72200 14.44600 35.25600
H  47.05800 16.24500 34.93900
H  53.65300 17.61000 29.46600
H  52.25700 18.67500 29.50900
H  53.32900 18.67700 28.05900
H  55.07400 17.65100 27.18400
H  55.45900 16.68500 25.68800
H  55.58500 15.96500 27.28200
H  50.07800 11.84700 24.82900
H  47.71400 13.12900 23.47400
H  51.30000 12.64700 23.00900
H  50.48500 14.19200 23.06300
H  49.66200 12.74400 22.30100
H  47.27800 10.62300 24.99400
H  48.62900 10.44300 23.79100
H  47.31400 10.10300 22.04000
H  46.63600 11.65600 22.30900
H  45.85400 10.22300 22.99600
H  43.66700 11.69300 26.56600
H  42.58800 13.06500 26.87100
H  42.82600 11.83000 28.09600
H  44.93200 13.76000 32.15900
H  43.26200 17.27200 34.22100
H  42.51000 15.69300 34.79900
H  41.92900 16.37400 33.35400
Mg 36.37300 49.74900 24.70000
C  36.22500 48.06700 27.77100
C  35.34900 52.65000 26.23000
C  35.97200 51.23400 21.58400
C  36.99600 46.67800 23.12700
N  35.76400 50.21400 26.71300
C  35.99000 49.42800 27.83400
C  35.74200 50.31700 29.15300
C  35.28000 51.72400 28.58300
C  35.47600 51.55000 27.09600
C  33.98600 52.22500 29.09800
C  37.09800 50.39300 29.95600
C  37.14900 50.51000 31.49300
H  35.93300 50.76600 32.31400
N  35.75300 51.70900 23.99000
C  35.48400 52.74300 24.81000
C  35.17600 53.91100 24.03300
C  35.39100 53.58900 22.65300
C  35.75100 52.11000 22.67700
C  34.74200 55.31700 24.60100
C  35.16900 54.32500 21.34000
O  35.28500 53.76400 20.22000
C  34.66600 55.76900 21.42800
N  36.51100 49.03000 22.66000
C  36.34600 49.87400 21.60700
C  36.77100 49.15200 20.29700
C  37.22300 47.75400 20.82500
C  36.79700 47.76900 22.25000
C  35.70500 49.09900 19.21700
C  38.79900 47.46400 20.69700
C  39.28400 46.04500 20.37900
N  36.60800 47.75800 25.24700
C  36.78300 46.61300 24.52100
C  36.90100 45.51300 25.39400
C  36.71600 45.96700 26.68300
C  36.50400 47.32800 26.57700
C  37.15700 44.11400 24.98100
C  36.60600 45.62700 28.09000
O  36.76900 44.56600 28.65900
C  36.28700 47.03200 28.83500
C  35.07200 46.90500 29.70900
O  33.96300 47.06600 29.35500
O  35.44700 46.41500 30.97300
C  34.32000 46.36400 31.94000
H  35.11700 53.56900 26.77400
H  35.75600 51.61300 20.58300
H  37.36200 45.71700 22.76000
H  34.95300 49.80800 29.70700
H  35.97300 52.50500 28.89200
H  33.80100 51.78500 30.07800
H  33.11700 52.23600 28.44000
H  34.25900 53.26200 29.29300
H  37.67900 51.22700 29.56300
H  37.66700 49.50200 29.69000
H  37.86600 51.30900 31.68000
H  37.68700 49.70400 31.99300
H  35.53800 56.04100 24.42700
H  34.43100 55.24200 25.64300
H  33.86400 55.60400 24.02200
H  35.36600 56.42500 21.94600
H  33.65000 55.78300 21.82200
H  34.58500 56.04900 20.37800
H  37.56600 49.71100 19.80200
H  36.70100 46.93600 20.32800
H  35.85900 49.87400 18.46700
H  34.70300 49.31300 19.58700
H  35.55700 48.11000 18.78500
H  39.32100 47.75400 21.60800
H  39.13800 48.26800 20.04200
H  39.99400 46.18000 19.56300
H  38.45600 45.42500 20.03400
H  39.70100 45.49300 21.22200
H  37.91100 43.98200 24.20400
H  36.20100 43.65900 24.72100
H  37.67200 43.67700 25.83600
H  37.06600 47.21800 29.57500
H  34.56700 46.04700 32.95300
H  33.51200 45.80500 31.46700
H  33.90500 47.36900 32.01900

