158

Mg 9.21400 3.26800 27.29500
C  10.58000 1.83100 30.15800
C  7.92500 5.75800 29.27500
C  7.67500 4.52600 24.60400
C  10.46900 0.77600 25.43800
N  9.14500 3.68000 29.56300
C  9.78400 2.90800 30.54000
C  9.53100 3.60000 31.93000
C  8.78500 4.91900 31.50200
C  8.56700 4.77600 30.06200
C  7.55800 5.35600 32.36300
C  10.90100 3.84400 32.66800
C  10.81000 4.80400 33.81200
H  11.55000 4.54200 35.10900
N  8.06700 4.95100 26.99400
C  7.62900 5.86600 27.92600
C  6.70000 6.77200 27.32200
C  6.49900 6.29500 25.98000
C  7.40900 5.19100 25.79500
C  6.15700 8.00900 27.96800
C  5.53000 6.87300 25.00500
O  5.38300 6.39100 23.85700
C  4.76100 8.11300 25.26400
N  9.28200 2.92000 25.27000
C  8.50600 3.48600 24.36800
C  8.61600 2.82100 22.95500
C  9.75400 1.80700 23.21200
C  9.85500 1.80800 24.72000
C  7.36300 2.18600 22.37200
C  11.05200 2.10000 22.47200
C  10.96000 1.76000 20.96700
N  10.41600 1.67700 27.67000
C  10.75100 0.69400 26.80100
C  11.43800 -0.43000 27.49200
C  11.45900 0.02000 28.83300
C  10.84200 1.31200 28.88200
C  12.08300 -1.53200 26.78000
C  11.82800 -0.27800 30.18800
O  12.50700 -1.22800 30.64200
C  11.35300 0.87400 31.09100
C  10.62300 0.34800 32.29000
O  9.47700 -0.12300 32.22300
O  11.38600 0.39300 33.43000
C  10.68600 -0.11500 34.63400
H  7.67200 6.63200 29.87800
H  7.05900 4.78000 23.73900
H  10.89700 0.03900 24.75500
H  8.85800 2.96700 32.50800
H  9.44300 5.78800 31.53700
H  7.18800 6.34000 32.07200
H  7.69000 5.32800 33.44500
H  6.72400 4.69300 32.13400
H  11.68300 4.23400 32.01600
H  11.22800 2.93400 33.17100
H  9.79800 4.97100 34.18000
H  11.32500 5.68500 33.42900
H  6.15600 8.84300 27.26600
H  6.86100 8.34800 28.72800
H  5.14000 7.77600 28.28300
H  4.01900 8.04300 24.46800
H  5.40000 8.99400 25.20200
H  4.32400 8.01400 26.25700
H  8.88000 3.62200 22.26400
H  9.41200 0.80300 22.96400
H  6.58100 2.24900 23.12900
H  7.40200 1.18500 21.94300
H  7.02100 2.83000 21.56200
H  11.78100 1.42500 22.92100
H  11.18800 3.16900 22.63800
H  10.10800 1.09000 20.84200
H  11.94200 1.35500 20.72700
H  10.72000 2.53100 20.23600
H  11.37600 -2.36200 26.77200
H  12.98400 -1.85600 27.30000
H  12.30000 -1.28200 25.74200
H  12.30400 1.23600 31.48400
H  10.18300 0.70900 35.14000
H  11.41700 -0.52400 35.33100
H  9.94700 -0.89300 34.44300
Mg -5.27000 24.59100 26.55900
C  -3.64600 26.29900 29.22500
C  -6.39900 22.33300 28.84000
C  -6.58000 23.34900 23.97500
C  -3.32200 27.03200 24.40700
N  -5.10900 24.27100 28.74700
C  -4.49500 25.22800 29.61400
C  -4.82100 24.91700 31.07600
C  -5.37300 23.46000 30.93300
C  -5.69400 23.33300 29.43800
C  -4.41400 22.25600 31.36000
C  -5.76000 25.89600 31.72800
C  -5.48600 26.25000 33.19600
H  -5.53300 25.00600 34.03400
N  -6.41500 23.00500 26.43800
C  -6.81200 22.17600 27.43700
C  -7.55500 21.11100 26.76500
C  -7.62300 21.44600 25.41100
C  -6.87000 22.70100 25.21300
C  -7.94500 19.84900 27.54500
C  -8.29400 20.69900 24.25600
O  -8.34400 21.03100 23.02300
C  -9.18600 19.54900 24.64100
N  -4.87100 25.07400 24.51900
C  -5.64800 24.32600 23.65100
C  -5.45300 24.81000 22.22700
C  -4.51500 26.06500 22.37400
C  -4.22100 26.07200 23.87100
C  -4.94100 23.75200 21.21800
C  -5.14900 27.34100 21.77600
C  -4.30400 28.17500 20.83900
N  -3.66500 26.17600 26.76600
C  -3.08300 27.05400 25.80600
C  -2.26100 28.10100 26.42600
C  -2.51100 27.81700 27.79300
C  -3.27800 26.67200 27.92400
C  -1.58000 29.20600 25.78300
C  -2.20200 28.31600 29.05100
O  -1.51600 29.32100 29.33600
C  -2.83500 27.27600 30.05300
C  -1.74200 26.63300 30.72700
O  -0.96700 25.87900 30.21500
O  -1.80000 26.93900 32.03600
C  -0.80600 26.34800 33.03300
H  -6.86100 21.56800 29.46900
H  -7.06700 22.92900 23.09300
H  -2.90300 27.78000 23.73000
H  -3.85800 24.93900 31.58600
H  -6.25800 23.30400 31.55000
H  -4.50800 22.16400 32.44200
H  -3.36500 22.47200 31.15700
H  -4.66900 21.39600 30.74000
H  -6.77000 25.48900 31.74500
H  -5.86900 26.68500 30.98500
H  -6.22100 26.93700 33.61600
H  -4.48800 26.68300 33.25100
H  -9.02000 19.88200 27.72400
H  -7.42700 19.88500 28.50300
H  -7.57300 18.94800 27.05800
H  -8.53100 18.74300 24.97100
H  -9.71100 19.20800 23.74800
H  -9.83800 19.76700 25.48600
H  -6.41000 25.10400 21.79700
H  -3.57000 25.85700 21.87100
H  -3.94400 24.01800 20.86700
H  -5.70000 23.51400 20.47300
H  -4.81500 22.79300 21.72000
H  -5.37500 28.04200 22.58000
H  -6.12800 27.08600 21.36900
H  -3.28700 27.79800 20.95600
H  -4.34100 29.22000 21.14700
H  -4.69500 28.04500 19.83000
H  -2.10800 29.39600 24.84900
H  -0.55400 28.89500 25.58100
H  -1.48000 30.16700 26.28700
H  -3.50600 27.81600 30.72100
H  -0.13500 27.06200 33.51100
H  -0.24500 25.53000 32.58200
H  -1.43200 25.98900 33.85000

