158

Mg 53.96700 24.53400 43.86400
C  51.38300 26.90600 43.27900
C  51.65600 21.99800 43.01500
C  56.50600 22.44300 43.82800
C  55.97600 27.15800 44.75700
N  51.87300 24.53800 43.15900
C  51.05000 25.59200 42.92600
C  49.56100 25.16300 42.57600
C  49.65700 23.59400 42.72200
C  51.15200 23.30100 43.07800
C  48.63200 22.91000 43.69000
C  49.04900 25.69600 41.28500
C  50.02100 25.85900 40.04900
H  49.97000 24.90500 38.87200
N  54.02500 22.52700 43.55700
C  52.99900 21.65900 43.22800
C  53.56200 20.37700 43.09900
C  54.98600 20.37800 43.40700
C  55.24000 21.83200 43.57700
C  52.67900 19.27500 42.64400
C  55.95200 19.21800 43.43500
O  55.50200 18.16700 43.02300
C  57.46700 19.24200 43.84900
N  55.94700 24.80600 44.01400
C  56.83100 23.82300 43.99500
C  58.31500 24.30200 44.33400
C  58.04600 25.77500 44.57600
C  56.55600 25.94600 44.35700
C  58.92800 23.53500 45.49400
C  59.00800 26.77300 43.72100
C  58.52800 26.97500 42.23700
N  53.86600 26.68300 43.78300
C  54.71800 27.58900 44.43300
C  54.14900 28.84300 44.58000
C  52.84300 28.68700 44.17600
C  52.67800 27.27000 43.70200
C  54.76800 30.12300 45.14900
C  51.51400 29.27900 44.00500
O  51.11100 30.43800 44.25100
C  50.55400 28.11900 43.40900
C  50.10200 28.72400 42.10600
O  50.87100 28.89200 41.14900
O  48.82200 29.20500 42.07500
C  48.36100 29.90500 40.90800
H  50.95000 21.21700 42.72200
H  57.40800 21.82700 43.83600
H  56.72500 27.89100 45.06300
H  48.92400 25.46800 43.40600
H  49.48300 23.12900 41.75200
H  47.81100 23.61600 43.81400
H  49.09500 22.55900 44.61200
H  48.26500 21.97000 43.27700
H  48.56800 26.64100 41.53500
H  48.28000 24.96600 41.03000
H  50.99400 25.60700 40.46900
H  50.12500 26.83600 39.57700
H  53.24100 18.64700 41.95300
H  51.84600 19.67300 42.06500
H  52.34100 18.76300 43.54600
H  57.59100 18.20400 44.15900
H  57.69900 19.84700 44.72500
H  57.97100 19.37000 42.89100
H  58.86700 24.12800 43.41000
H  58.27800 25.95000 45.62700
H  59.23200 24.29100 46.21800
H  59.74200 22.89600 45.15200
H  58.09100 22.94700 45.87100
H  59.97500 26.31400 43.51400
H  59.12800 27.66700 44.33300
H  58.42700 28.00800 41.90500
H  57.57400 26.50300 42.00400
H  59.24500 26.48400 41.57800
H  53.99900 30.81500 44.80500
H  55.79200 30.28100 44.81300
H  54.77600 29.96300 46.22700
H  49.73200 27.99000 44.11400
H  47.38200 30.33500 41.12200
H  48.36000 29.22300 40.05700
H  49.01100 30.76200 40.73200
Mg -6.01900 25.35700 25.54800
C  -4.63900 26.30800 28.62300
C  -8.10700 23.30500 27.44500
C  -6.97400 23.94400 22.69600
C  -3.61600 27.17700 23.89600
N  -6.40100 24.89900 27.74400
C  -5.85400 25.64800 28.74400
C  -6.32800 25.09300 30.11300
C  -7.20300 23.96400 29.75500
C  -7.20400 24.02000 28.22200
C  -6.76300 22.58000 30.22800
C  -7.01400 26.16100 31.09000
C  -6.50000 26.20800 32.56400
H  -6.04100 25.02800 33.44100
N  -7.39900 23.82700 25.10700
C  -8.25100 23.25700 26.03000
C  -9.21400 22.34200 25.26400
C  -8.85400 22.52100 23.86600
C  -7.70300 23.42600 23.81200
C  -10.35300 21.53900 26.01300
C  -9.50500 21.92000 22.68900
O  -8.96600 21.86200 21.59800
C  -10.85900 21.35800 22.85500
N  -5.23000 25.27200 23.68000
C  -5.89500 24.72900 22.62000
C  -5.17000 25.02000 21.20900
C  -4.26200 26.20600 21.56500
C  -4.36700 26.22800 23.17400
C  -4.41700 23.82700 20.60900
C  -4.33400 27.50200 20.78300
C  -3.08800 27.92300 20.00300
N  -4.41800 26.49100 26.06100
C  -3.51200 27.23100 25.31100
C  -2.62400 28.00100 26.20600
C  -2.96600 27.55200 27.45700
C  -4.01600 26.65600 27.40700
C  -1.51100 28.91900 25.80700
C  -2.67300 27.68000 28.89500
O  -1.83300 28.39600 29.46000
C  -3.76900 26.91100 29.74200
C  -3.11400 25.97100 30.68200
O  -2.89800 24.77700 30.48000
O  -2.83600 26.65100 31.86800
C  -2.34100 25.84500 32.96700
H  -8.60900 22.61900 28.12900
H  -7.33000 23.65800 21.70400
H  -2.84800 27.72200 23.34300
H  -5.46400 24.68500 30.63800
H  -8.21600 24.15100 30.11300
H  -7.57700 22.12700 30.79400
H  -5.81400 22.62600 30.76300
H  -6.73500 21.89000 29.38500
H  -8.06500 25.87600 31.15400
H  -7.08700 27.17900 30.70800
H  -7.30200 26.73200 33.08200
H  -5.66100 26.89400 32.44400
H  -11.34900 21.96900 25.90800
H  -10.30600 21.54100 27.10200
H  -10.42000 20.48100 25.75700
H  -11.61300 22.04600 23.23800
H  -10.90200 20.40900 23.38800
H  -11.24100 21.17600 21.85000
H  -5.95000 25.33900 20.51900
H  -3.25200 25.80500 21.48900
H  -4.13700 23.14700 21.41300
H  -3.62100 24.30600 20.03900
H  -5.08800 23.22300 19.99800
H  -4.56000 28.33000 21.45500
H  -5.24400 27.46700 20.18500
H  -2.82200 27.05600 19.39900
H  -2.29300 28.17800 20.70500
H  -3.11700 28.82300 19.39000
H  -1.82800 29.92500 25.53200
H  -1.04300 28.48500 24.92300
H  -0.72700 29.07500 26.54700
H  -4.43700 27.58200 30.28300
H  -1.27400 26.03500 33.08800
H  -2.33100 24.76400 32.82700
H  -2.83400 26.13100 33.89600

