158

Mg 16.18500 -1.33300 28.51100
C  15.06700 0.64300 31.11000
C  18.32300 -3.00800 30.65800
C  17.55100 -2.94000 25.80600
C  14.36100 0.74800 26.39300
N  16.82700 -0.96300 30.65600
C  16.01900 -0.30400 31.55800
C  16.55500 -0.59000 32.95600
C  17.57700 -1.77600 32.71900
C  17.59100 -1.96800 31.25800
C  18.99000 -1.63500 33.40600
C  15.35600 -1.01500 33.93000
C  15.75500 -1.13900 35.39600
H  16.94800 -0.41800 35.95900
N  17.80200 -2.79900 28.21000
C  18.45300 -3.38300 29.29000
C  19.27700 -4.40600 28.75200
C  19.09300 -4.50600 27.33100
C  18.12900 -3.44000 27.00900
C  20.18400 -5.23400 29.70000
C  19.81700 -5.45300 26.35100
O  19.53500 -5.56300 25.09100
C  20.94200 -6.33300 26.83800
N  15.91000 -1.25200 26.38000
C  16.72800 -1.89100 25.50400
C  16.60300 -1.29600 24.08200
C  15.39200 -0.29600 24.30700
C  15.21100 -0.22300 25.79900
C  17.90800 -0.76500 23.44200
C  14.09200 -0.52400 23.53700
C  12.83700 -1.11600 24.23900
N  14.98800 0.33200 28.61000
C  14.14200 0.99900 27.73100
C  13.35100 2.02000 28.31900
C  13.66200 1.89900 29.68800
C  14.70700 0.92300 29.78100
C  12.47700 2.96200 27.65800
C  13.40900 2.49500 30.94900
O  12.63800 3.39400 31.29800
C  14.24300 1.67400 31.98100
C  15.16900 2.55600 32.74400
O  16.17200 3.08300 32.28100
O  14.68800 2.80200 33.99200
C  15.42700 3.80800 34.72000
H  18.79100 -3.61400 31.43600
H  18.02100 -3.54600 25.02800
H  13.75900 1.36700 25.72500
H  17.15300 0.20100 33.41000
H  17.30000 -2.77600 33.05100
H  19.73900 -1.74100 32.62100
H  19.15300 -2.37800 34.18700
H  19.02000 -0.71000 33.98200
H  15.11400 -2.06000 33.73900
H  14.56600 -0.27600 33.79400
H  15.95000 -2.19400 35.59000
H  14.84000 -0.84600 35.91100
H  21.26300 -5.22700 29.54600
H  19.81000 -6.22100 29.42800
H  19.97400 -5.20600 30.76900
H  21.29700 -7.02300 26.07200
H  20.48200 -7.01500 27.55300
H  21.77900 -5.77300 27.25400
H  16.26200 -2.17900 23.54100
H  15.71300 0.72700 24.11000
H  18.74200 -1.12900 24.04200
H  17.71800 0.30800 23.41100
H  17.90700 -1.10000 22.40500
H  14.39800 -1.29800 22.83300
H  13.69700 0.35100 23.02100
H  12.14900 -0.37500 24.64800
H  13.08000 -1.68100 25.13800
H  12.25800 -1.74000 23.55700
H  12.82500 3.16500 26.64500
H  12.55600 3.91500 28.18100
H  11.47100 2.55400 27.75900
H  13.59100 1.09800 32.63700
H  16.48700 3.55900 34.69000
H  14.92500 4.01800 35.66400
H  15.31100 4.72200 34.13700
Mg 8.90600 47.88100 26.43700
C  6.88500 47.73200 29.22700
C  11.52000 49.01200 28.39300
C  10.85100 48.02900 23.71600
C  6.06400 47.06300 24.50700
N  9.08200 48.34400 28.56000
C  8.14200 48.13100 29.52500
C  8.72300 48.49000 30.89300
C  10.11000 49.16300 30.55000
C  10.27200 48.83500 29.09500
C  10.26500 50.64900 30.84400
C  8.73600 47.14300 31.67500
C  9.79000 46.94700 32.80000
H  9.23200 46.42500 34.08400
N  10.93900 48.36000 26.08900
C  11.87300 48.71000 27.03300
C  13.17700 48.73500 26.44300
C  12.98700 48.60900 25.04700
C  11.51500 48.36600 24.89100
C  14.42500 49.17700 27.24400
C  13.97600 48.48500 23.93400
O  13.62400 48.48200 22.76400
C  15.42900 48.38700 24.31500
N  8.46000 47.63300 24.36100
C  9.49900 47.70700 23.47800
C  8.94700 47.24700 22.04100
C  7.50500 46.78000 22.33000
C  7.29600 47.11500 23.82700
C  8.97000 48.28300 20.82100
C  7.28400 45.27700 22.08100
C  7.92300 44.08500 22.92700
N  6.82100 47.59300 26.78200
C  5.76700 47.29800 25.89300
C  4.54700 47.03300 26.57700
C  4.92600 47.26200 27.94000
C  6.33700 47.47600 27.99000
C  3.22800 46.57100 25.94800
C  4.48900 47.30300 29.34100
O  3.37200 47.27200 29.88300
C  5.77200 47.39900 30.17900
C  5.89400 46.04300 30.74000
O  6.38300 45.04500 30.26100
O  5.50700 45.99100 32.03900
C  5.73800 44.75600 32.81900
H  12.35600 49.35900 29.00400
H  11.39500 48.00300 22.77000
H  5.18500 46.63600 24.02000
H  8.06300 49.15500 31.44800
H  11.00500 48.67800 30.93900
H  10.91500 50.95100 31.66500
H  9.29100 51.01200 31.17300
H  10.63500 51.27100 30.02900
H  8.88900 46.34000 30.95500
H  7.74200 47.00900 32.10100
H  10.20400 47.92500 33.04400
H  10.59200 46.31700 32.41500
H  14.98400 48.25600 27.41100
H  14.22000 49.67000 28.19400
H  15.08800 49.78800 26.63100
H  15.85000 49.33100 24.66300
H  16.03800 48.13900 23.44600
H  15.55800 47.55200 25.00400
H  9.51500 46.37800 21.71200
H  6.71800 47.40500 21.91000
H  8.01300 48.52800 20.36000
H  9.53200 47.89000 19.97500
H  9.51800 49.15900 21.16800
H  7.34600 44.96500 21.03800
H  6.23800 45.32300 22.38400
H  7.47200 44.07500 23.91900
H  8.98700 44.15400 23.15400
H  7.97000 43.26700 22.20800
H  2.94300 47.19000 25.09700
H  2.41300 46.76800 26.64500
H  3.26100 45.53500 25.60900
H  5.69100 48.05200 31.04800
H  6.79700 44.78000 33.07700
H  5.38700 43.78800 32.46300
H  5.28200 44.77700 33.81000

