158

Mg 5.60000 55.35500 40.57900
C  3.91000 52.29400 40.14900
C  8.27200 53.99600 38.68000
C  7.03200 58.21300 40.82200
C  2.57200 56.71800 41.67600
N  5.95300 53.41500 39.44300
C  5.16400 52.32300 39.49000
C  5.78800 51.24000 38.61300
C  7.22500 51.72800 38.33400
C  7.15000 53.16800 38.77100
C  8.36700 50.92200 39.09200
C  5.00300 50.97400 37.35900
C  4.70800 49.46600 37.04500
H  5.19500 48.95100 35.70000
N  7.40900 55.96200 39.97000
C  8.38000 55.27500 39.30200
C  9.50900 56.17500 39.08600
C  9.20900 57.44200 39.63100
C  7.83700 57.23900 40.22000
C  10.68500 55.84500 38.16000
C  10.04400 58.69400 39.45600
O  11.16900 58.62800 38.96400
C  9.61600 60.10800 39.99100
N  4.93100 57.27600 41.23600
C  5.76200 58.22700 41.33900
C  5.06500 59.53100 41.82700
C  3.58200 59.05500 42.03800
C  3.63500 57.59500 41.58500
C  5.66900 60.20200 43.05200
C  2.49300 59.76900 41.23500
C  1.21900 60.07100 41.92000
N  3.63400 54.70300 40.92500
C  2.46200 55.37900 41.32200
C  1.29300 54.45600 41.43100
C  1.92000 53.21400 41.19100
C  3.25700 53.42200 40.70900
C  -0.13000 54.82100 41.83900
C  1.69500 51.76800 41.21600
O  0.71800 51.16600 41.66400
C  3.01700 51.11000 40.62700
C  2.73000 49.95800 39.72500
O  2.03800 49.93100 38.73300
O  3.09000 48.86000 40.51800
C  2.91600 47.55100 39.92700
H  9.08700 53.56000 38.09800
H  7.48700 59.16200 41.11300
H  1.61500 57.11600 42.01800
H  5.83000 50.33500 39.21800
H  7.42600 51.76200 37.26300
H  8.62100 51.52500 39.96300
H  9.26800 50.95900 38.48000
H  8.06500 49.89200 39.28500
H  5.58500 51.27700 36.48800
H  4.12900 51.61400 37.48100
H  3.62300 49.41000 36.95800
H  5.01500 48.84700 37.88800
H  11.62900 56.05700 38.66200
H  10.52000 56.39300 37.23300
H  10.85000 54.79700 37.90900
H  8.56000 60.36200 39.90000
H  10.13600 60.85800 39.39500
H  9.94200 60.29300 41.01400
H  5.01500 60.22600 40.98900
H  3.44400 59.02400 43.11800
H  5.00600 60.38600 43.89700
H  6.07200 61.18400 42.80500
H  6.42900 59.59500 43.54300
H  2.34500 59.25500 40.28500
H  2.84400 60.77600 41.00500
H  1.25900 61.04800 42.40200
H  1.11100 59.37700 42.75400
H  0.42200 59.80100 41.22800
H  -0.20000 55.59100 42.60700
H  -0.65800 53.92500 42.16600
H  -0.61400 55.13800 40.91600
H  3.56000 50.79800 41.51900
H  2.46400 47.66800 38.94200
H  2.42000 46.85400 40.60300
H  3.90000 47.20300 39.61100
Mg 9.98600 48.36400 25.18300
C  8.10400 48.61600 28.08900
C  12.68300 49.77100 27.23400
C  12.02700 48.16500 22.71700
C  7.29700 47.27900 23.47400
N  10.32200 49.19600 27.43600
C  9.32700 49.10400 28.44600
C  9.91800 49.39100 29.80600
C  11.28600 50.11700 29.40100
C  11.49700 49.58000 27.98300
C  11.30800 51.66800 29.43000
C  10.18400 48.19300 30.71400
C  9.45300 48.25100 32.08000
H  9.72900 47.16900 33.25800
N  12.05000 48.93400 25.01300
C  12.97600 49.45000 25.93600
C  14.28200 49.43600 25.35900
C  14.16700 49.01700 23.95600
C  12.68700 48.74600 23.84600
C  15.62400 49.82700 26.03900
C  15.11900 48.90400 22.77300
O  14.72300 48.78400 21.61800
C  16.55000 48.87100 23.13600
N  9.67300 47.93300 23.29200
C  10.68200 47.90300 22.44400
C  10.19400 47.09600 21.16800
C  8.70300 46.69300 21.44100
C  8.55500 47.36700 22.85700
C  10.33900 47.88600 19.83100
C  8.41800 45.18600 21.45100
C  8.65200 44.34000 22.67000
N  8.05500 48.05100 25.57400
C  7.07200 47.67800 24.77700
C  5.77900 47.70400 25.52100
C  6.16400 47.97800 26.78700
C  7.55500 48.25500 26.80300
C  4.37300 47.23300 25.11800
C  5.66000 48.10200 28.12000
O  4.48300 47.95200 28.50400
C  6.85200 48.35400 29.01500
C  6.93600 47.12000 29.84000
O  7.67300 46.13800 29.69400
O  5.99000 47.19900 30.91300
C  5.93500 46.14500 31.89200
H  13.42500 50.27600 27.85500
H  12.75500 48.03200 21.91400
H  6.44000 46.89800 22.91400
H  9.25600 50.15100 30.21900
H  12.09200 49.70000 30.00500
H  12.29400 52.00900 29.74700
H  10.58500 51.95800 30.19300
H  11.00500 52.28300 28.58300
H  11.22200 48.03700 31.00700
H  9.79200 47.31200 30.20600
H  8.38800 48.18800 31.85800
H  9.54800 49.21500 32.58100
H  15.44700 50.14400 27.06700
H  16.11100 50.62200 25.47400
H  16.30400 48.97700 26.00700
H  16.50400 48.04300 23.84400
H  16.83800 49.76800 23.68300
H  17.19600 48.84500 22.25800
H  10.78400 46.18100 21.11100
H  8.01200 47.15100 20.73300
H  11.03700 48.70400 20.00900
H  9.37900 48.21100 19.42900
H  10.76800 47.24400 19.06300
H  8.92700 44.71600 20.61000
H  7.33800 45.13900 21.31300
H  9.36200 44.90300 23.27500
H  9.15400 43.42200 22.36200
H  7.72500 44.12100 23.20000
H  4.23700 46.38500 25.78800
H  4.33100 47.13300 24.03300
H  3.53800 47.87600 25.39500
H  6.66700 49.26500 29.58400
H  5.96000 46.68900 32.83600
H  6.73400 45.40300 31.89200
H  4.99900 45.59100 31.82700

