158

Mg 8.71200 3.05700 28.21400
C  9.98000 1.49100 30.83900
C  6.90600 5.21100 30.23400
C  7.47400 4.67700 25.43800
C  10.35600 0.80800 26.03500
N  8.37600 3.21400 30.33100
C  9.11500 2.57200 31.24700
C  8.86200 3.01700 32.68400
C  7.61900 3.99600 32.48600
C  7.59800 4.14100 30.91900
C  6.22800 3.64700 33.17800
C  10.10600 3.49400 33.45000
C  9.90300 4.38000 34.70000
H  10.47000 3.97000 36.05600
N  7.31500 4.61100 27.93700
C  6.67000 5.35800 28.85300
C  6.08200 6.50600 28.28000
C  6.23100 6.39000 26.86100
C  7.04500 5.12100 26.68200
C  5.52000 7.63500 29.19800
C  5.72000 7.35000 25.77400
O  6.13400 7.24700 24.58100
C  4.79900 8.40000 26.18700
N  8.83300 2.71800 26.11200
C  8.18300 3.48400 25.19400
C  8.72100 3.27500 23.72400
C  9.66000 2.01700 23.89500
C  9.60800 1.77400 25.43600
C  7.50400 3.12400 22.69400
C  11.00800 2.15200 23.22700
C  12.06900 3.04000 23.88700
N  9.77600 1.39800 28.34000
C  10.44100 0.56400 27.36400
C  11.40200 -0.36800 28.01000
C  11.20000 -0.00800 29.39700
C  10.21600 0.99800 29.50900
C  12.30100 -1.38300 27.40100
C  11.62400 -0.39100 30.78100
O  12.39400 -1.26500 31.15400
C  10.89300 0.67100 31.76500
C  10.14400 -0.22200 32.71400
O  9.26100 -0.95100 32.31500
O  10.46400 0.05200 33.98500
C  9.58700 -0.68300 34.93900
H  6.63900 5.93000 31.01100
H  7.27100 5.26300 24.53900
H  10.79100 0.08000 25.34800
H  8.47400 2.13500 33.19300
H  7.92800 4.99800 32.78300
H  6.34200 2.66800 33.64500
H  5.46900 3.60500 32.39700
H  5.94400 4.34400 33.96600
H  10.86900 3.85400 32.76100
H  10.48400 2.56900 33.88600
H  8.84000 4.61500 34.76500
H  10.43400 5.30900 34.49200
H  5.90800 8.62900 28.97400
H  5.86400 7.50200 30.22400
H  4.43500 7.69900 29.10800
H  5.42300 9.13800 26.69100
H  3.99700 8.02600 26.82400
H  4.35900 8.79900 25.27300
H  9.41700 4.08800 23.51900
H  9.18100 1.14500 23.45000
H  6.62700 3.11900 23.34100
H  7.56400 2.16100 22.18700
H  7.46700 3.94400 21.97700
H  10.91200 2.60400 22.24000
H  11.38200 1.15200 23.00900
H  11.84800 3.35100 24.90800
H  12.44500 3.87200 23.29100
H  12.92000 2.35900 23.90900
H  13.00700 -1.02500 26.65200
H  11.64000 -2.14400 26.98700
H  12.95700 -1.72300 28.20300
H  11.52100 1.24000 32.45000
H  10.36400 -1.33800 35.33300
H  8.85900 -1.39300 34.54700
H  9.14200 -0.04700 35.70400
Mg 4.20000 55.03800 41.10000
C  4.45600 51.64900 40.25500
C  7.19700 55.49400 39.25800
C  3.74000 58.43800 41.23700
C  1.02600 54.49500 42.33700
N  5.46700 53.70500 39.65900
C  5.43000 52.37600 39.61700
C  6.56100 51.79900 38.78600
C  7.61500 52.89300 38.98700
C  6.72500 54.12500 39.28900
C  8.72200 52.83900 40.02400
C  6.03000 51.42800 37.29500
C  6.14900 52.54700 36.23800
H  5.45200 52.28800 34.84100
N  5.27900 56.71200 40.33000
C  6.46900 56.68300 39.64000
C  6.95100 58.01000 39.39400
C  5.95500 58.89100 39.96000
C  4.94000 58.02300 40.59600
C  8.35800 58.36200 38.95900
C  6.00300 60.38600 39.85500
O  6.95600 60.94500 39.37500
C  4.99000 61.30600 40.38600
N  2.53400 56.25800 41.48500
C  2.60500 57.61100 41.55200
C  1.39000 58.22800 42.13300
C  0.56300 57.04300 42.51000
C  1.37600 55.87300 42.04100
C  1.66000 59.15400 43.41300
C  -0.92300 57.12500 42.07400
C  -1.90400 56.96200 43.26200
N  2.99300 53.43700 41.42900
C  1.77600 53.33300 42.05800
C  1.50900 51.91800 42.24300
C  2.52500 51.25000 41.52100
C  3.32600 52.19600 40.96700
C  0.36900 51.29600 42.99700
C  2.97900 49.93200 41.13600
O  2.55200 48.85000 41.44500
C  4.36800 50.10000 40.38200
C  4.25600 49.19400 39.24300
O  3.35200 49.27400 38.42200
O  5.33700 48.36200 39.23500
C  5.18900 47.34200 38.23600
H  8.21800 55.72000 38.94300
H  3.52900 59.50600 41.32300
H  0.08600 54.34800 42.87300
H  6.90200 50.89400 39.28900
H  8.15300 53.00800 38.04600
H  9.67500 52.93500 39.50400
H  8.63600 51.92400 40.61000
H  8.54900 53.56800 40.81500
H  4.99100 51.11400 37.19300
H  6.60400 50.58000 36.92000
H  7.19900 52.76500 36.04500
H  5.81700 53.51600 36.61200
H  8.83800 58.78000 39.84400
H  8.21500 59.02000 38.10200
H  8.97900 57.52000 38.65300
H  5.27400 62.33800 40.17900
H  4.91300 61.14500 41.46100
H  4.12100 61.03000 39.78900
H  0.85700 58.78900 41.36500
H  0.54500 56.90500 43.59100
H  2.66300 58.97600 43.80100
H  0.84400 59.02500 44.12400
H  1.58900 60.16200 43.00500
H  -1.04000 56.41800 41.25200
H  -1.20200 58.08100 41.63100
H  -2.64000 57.76300 43.19200
H  -1.42200 57.03000 44.23700
H  -2.40700 55.99900 43.35200
H  0.58900 50.34000 43.47200
H  -0.38100 50.98300 42.27200
H  -0.08300 51.94300 43.74900
H  5.12400 49.69900 41.05800
H  4.16800 47.09800 37.94100
H  5.57100 46.37600 38.56600
H  5.73200 47.50500 37.30600

