158

Mg 55.38600 23.49300 45.35000
C  52.94500 25.71800 44.49200
C  53.39300 20.94200 44.04200
C  58.04900 21.43000 45.14200
C  57.40400 26.10200 46.39700
N  53.29400 23.39700 44.49300
C  52.49800 24.42500 44.14200
C  51.26600 23.88600 43.37000
C  51.33000 22.33900 43.57500
C  52.81400 22.22700 44.08000
C  50.26700 21.67800 44.57100
C  51.22700 24.38300 41.88000
C  49.86000 24.84000 41.34600
H  49.30200 24.33600 39.99100
N  55.65200 21.45900 44.77300
C  54.69300 20.52900 44.29300
C  55.24500 19.26600 44.13600
C  56.59000 19.32400 44.42700
C  56.84300 20.76600 44.79900
C  54.35700 18.11600 43.74500
C  57.64600 18.20500 44.37100
O  57.32400 17.05100 44.14600
C  59.16100 18.37000 44.55000
N  57.48500 23.73600 45.57200
C  58.36300 22.71400 45.57000
C  59.68600 23.09600 46.09600
C  59.48100 24.53000 46.54800
C  58.02000 24.85300 46.19700
C  60.22300 22.09400 47.15500
C  60.37700 25.65700 45.89700
C  61.61700 26.10900 46.66300
N  55.14600 25.45000 45.61200
C  56.07600 26.42900 46.01100
C  55.45000 27.73600 46.01000
C  54.23100 27.48100 45.41600
C  54.10200 26.12700 45.16400
C  56.13500 29.04700 46.39500
C  52.98700 28.09300 45.00100
O  52.66700 29.23900 45.05100
C  52.13500 26.99500 44.41600
C  51.67100 27.55800 43.10300
O  52.34300 27.66300 42.08200
O  50.44000 28.12800 43.24200
C  49.90900 29.03300 42.24300
H  52.73800 20.13100 43.71600
H  58.96600 20.83800 45.09600
H  57.96200 26.90500 46.88300
H  50.46200 24.39000 43.90600
H  51.27700 21.91300 42.57300
H  50.83300 21.13400 45.32600
H  49.65800 21.03200 43.93900
H  49.60300 22.38200 45.07300
H  51.63400 23.52300 41.34800
H  52.05400 25.08300 41.76500
H  49.94900 25.92600 41.32000
H  49.22100 24.50600 42.16400
H  54.07800 18.29900 42.70700
H  53.41300 18.04100 44.28600
H  54.91600 17.18000 43.73500
H  59.39100 19.11800 43.79200
H  59.54400 17.37000 44.34600
H  59.31900 18.76700 45.55300
H  60.38600 22.96000 45.27200
H  59.53400 24.56400 47.63700
H  61.17300 21.68600 46.80900
H  59.51900 21.27700 47.31100
H  60.41200 22.65600 48.07000
H  59.84300 26.56100 45.60500
H  60.74100 25.14000 45.00800
H  61.59300 27.16500 46.93000
H  62.58500 25.78500 46.28200
H  61.60200 25.71100 47.67800
H  57.07000 29.14100 45.84400
H  56.37500 28.98500 47.45700
H  55.49900 29.91300 46.20900
H  51.15300 26.91700 44.88100
H  48.87600 29.29500 42.47400
H  49.94300 28.62100 41.23500
H  50.42100 29.99400 42.27200
Mg 16.62200 51.76900 25.35900
C  18.26100 50.65700 28.23300
C  13.94400 52.73600 27.36000
C  15.01400 52.80100 22.55700
C  19.26000 50.32300 23.41300
N  16.13300 51.64300 27.48300
C  17.01400 51.23800 28.50500
C  16.36200 51.35600 29.92200
C  14.86500 51.76700 29.59800
C  14.92600 52.08800 28.05200
C  13.70200 50.84000 30.06900
C  17.04700 52.32300 30.86700
C  17.38900 51.73300 32.26500
H  16.33200 51.91000 33.49200
N  14.75300 52.66200 25.00600
C  13.86300 53.11000 26.00100
C  12.76500 53.83400 25.32600
C  12.96900 53.71000 23.93000
C  14.27500 52.98600 23.75600
C  11.63400 54.55500 26.01000
C  12.11300 54.24700 22.78400
O  12.46800 54.11100 21.63200
C  10.83200 54.89400 23.07800
N  17.12100 51.77200 23.34800
C  16.24900 52.20800 22.33300
C  16.89100 52.02600 20.94000
C  18.33000 51.47000 21.29100
C  18.24400 51.18700 22.79000
C  16.16300 51.06100 20.02000
C  19.58500 52.29600 20.86000
C  20.76900 51.56700 20.22900
N  18.38500 50.53400 25.66100
C  19.30900 50.04100 24.80300
C  20.29500 49.29300 25.55500
C  20.02300 49.63300 26.94000
C  18.79900 50.37100 26.95000
C  21.49500 48.56600 25.02000
C  20.43100 49.44300 28.27800
O  21.42100 48.83300 28.74500
C  19.34500 50.07000 29.20900
C  18.98600 49.03900 30.20500
O  18.36200 48.04700 29.89000
O  19.44600 49.26700 31.47000
C  19.18500 48.27500 32.54900
H  13.10500 53.07200 27.97300
H  14.44600 53.19500 21.71200
H  20.10900 50.08100 22.77000
H  16.30700 50.32800 30.28100
H  14.66200 52.75500 30.01100
H  13.97100 49.85100 30.43800
H  13.18000 50.81700 29.11200
H  13.08000 51.33900 30.81200
H  16.37300 53.16700 31.01700
H  17.89900 52.77500 30.35900
H  18.33400 52.16700 32.59300
H  17.53100 50.65900 32.14600
H  10.66000 54.11000 25.80400
H  11.70500 55.63300 25.86200
H  11.92600 54.30900 27.03000
H  10.17400 54.23400 23.64300
H  10.40700 55.11200 22.09900
H  10.86200 55.85400 23.59500
H  16.90000 53.03500 20.52900
H  18.55500 50.51300 20.81900
H  15.91400 50.14100 20.54900
H  16.90300 50.65900 19.32800
H  15.32400 51.53900 19.51500
H  19.85700 52.67800 21.84400
H  19.42900 53.18100 20.24200
H  20.82800 52.02100 19.24000
H  20.68700 50.48200 20.17400
H  21.67800 51.75600 20.80100
H  21.61800 48.60300 23.93800
H  21.52800 47.49400 25.21500
H  22.39700 49.00900 25.44400
H  19.75100 50.89900 29.78800
H  18.87400 48.78800 33.45900
H  20.14200 47.78600 32.73400
H  18.43100 47.51400 32.35200

