158

Mg 52.80000 24.09400 44.62700
C  49.87800 25.98700 43.76200
C  51.11300 21.34600 43.26400
C  55.70000 22.38200 44.93600
C  54.39300 27.07400 45.58800
N  50.74900 23.78500 43.57600
C  49.80700 24.71200 43.24600
C  48.62500 24.04800 42.59100
C  48.84500 22.52500 43.09500
C  50.33900 22.52600 43.33900
C  47.91700 22.10500 44.28800
C  48.75400 24.40600 41.09300
C  47.45800 24.47600 40.27100
H  47.45100 23.66500 38.94800
N  53.37900 22.18700 44.09100
C  52.54700 21.20700 43.54000
C  53.24400 19.91300 43.52800
C  54.53600 20.18600 44.03100
C  54.62700 21.64000 44.36300
C  52.70400 18.63200 42.98700
C  55.66500 19.16300 44.17800
O  55.45500 17.97000 44.00800
C  57.14600 19.59200 44.47500
N  55.00800 24.70900 44.85100
C  55.93200 23.76900 45.11800
C  57.13000 24.44400 45.82900
C  56.83600 25.92300 45.80900
C  55.28400 25.94600 45.43800
C  57.45900 23.85600 47.23400
C  57.64300 26.82600 44.75000
C  58.74200 27.59500 45.35400
N  52.26200 26.05000 44.85700
C  52.99100 27.13100 45.29600
C  52.11800 28.22800 45.28000
C  50.92500 27.83100 44.76400
C  51.04400 26.48300 44.44500
C  52.41200 29.60200 45.75600
C  49.61500 28.23100 44.46700
O  49.10600 29.33000 44.56400
C  48.85800 27.10300 43.73700
C  48.49400 27.61800 42.39900
O  49.11800 28.22200 41.58300
O  47.14700 27.30700 42.24800
C  46.51800 27.84200 41.03400
H  50.57800 20.45600 42.92600
H  56.49100 21.67700 45.20000
H  54.74200 28.02800 45.98900
H  47.70300 24.28700 43.12200
H  48.57200 21.86300 42.27300
H  46.92000 22.54300 44.24400
H  48.42800 22.44600 45.18700
H  47.84000 21.01800 44.32000
H  49.42900 23.72900 40.56900
H  49.18900 25.40400 41.02900
H  47.24300 25.51800 40.03500
H  46.63700 24.06700 40.86100
H  53.56600 18.24800 42.44100
H  51.85600 18.73100 42.30900
H  52.53800 17.94500 43.81700
H  57.49500 20.38500 43.81200
H  57.84300 18.77100 44.30600
H  57.25400 19.68700 45.55500
H  57.93300 24.19500 45.13600
H  56.86500 26.27800 46.84000
H  58.52700 23.65700 47.32600
H  56.97500 22.88900 47.37100
H  57.13300 24.46800 48.07500
H  56.92100 27.35500 44.12800
H  58.09700 26.20600 43.97800
H  59.04000 26.90500 46.14200
H  58.22100 28.49900 45.66900
H  59.57300 27.73800 44.66200
H  52.09500 30.27500 44.95900
H  53.48100 29.74500 45.91600
H  51.88200 29.82800 46.68200
H  48.07800 26.83500 44.45000
H  46.34900 28.90500 41.20800
H  45.52600 27.42100 40.87200
H  47.17000 27.69800 40.17300
Mg 41.46600 40.54900 26.96200
C  40.92400 43.06700 29.41100
C  42.22800 38.42300 29.45000
C  42.70700 38.46900 24.59400
C  41.20300 43.10500 24.51500
N  41.59600 40.82400 29.16800
C  41.19900 41.87900 30.01400
C  41.08500 41.45800 31.52400
C  41.67900 39.97100 31.41600
C  41.87800 39.72800 29.86600
C  43.00200 39.60200 32.25300
C  39.63400 41.51200 32.11500
C  39.34200 42.76700 33.02500
H  38.62100 42.59300 34.38700
N  42.13700 38.59700 27.06600
C  42.31400 37.86900 28.15100
C  42.59100 36.51500 27.74500
C  42.99600 36.49600 26.36900
C  42.60600 37.91100 25.95100
C  42.60000 35.31400 28.73600
C  43.72200 35.48800 25.56100
O  44.14000 35.64000 24.37800
C  43.98900 34.15300 26.13800
N  41.93000 40.74200 24.90000
C  42.32000 39.69100 24.11000
C  42.18300 39.95500 22.66400
C  41.46300 41.38100 22.62000
C  41.56100 41.78700 24.09500
C  43.44800 39.83100 21.92000
C  40.02400 41.50900 22.01200
C  38.93700 40.66200 22.63100
N  41.19000 42.62500 26.90100
C  40.93700 43.45100 25.80500
C  40.34500 44.68300 26.36000
C  40.39800 44.58700 27.72900
C  40.93000 43.35200 28.00400
C  39.71800 45.83300 25.56400
C  40.00900 45.32100 28.87400
O  39.67000 46.45400 29.11800
C  40.31500 44.29300 30.05800
C  41.30400 44.92400 31.00900
O  42.49200 44.71500 30.90000
O  40.68300 45.65600 32.00400
C  41.53700 46.24000 33.03700
H  42.42300 37.68300 30.22900
H  42.88700 37.66500 23.87700
H  40.84300 43.73700 23.70000
H  41.83100 42.00900 32.09700
H  40.97700 39.21700 31.77100
H  43.88600 39.57900 31.61600
H  42.85900 38.61800 32.69800
H  43.05300 40.39200 33.00200
H  39.33800 40.67200 32.74300
H  38.97400 41.65000 31.25900
H  38.62900 43.43900 32.54700
H  40.29300 43.28900 33.13200
H  43.63300 35.01800 28.92100
H  42.06800 34.47000 28.29700
H  42.14300 35.42000 29.72100
H  44.50500 34.25800 27.09200
H  44.51300 33.37800 25.57800
H  43.01900 33.74700 26.42400
H  41.49400 39.22200 22.24400
H  42.08400 42.02300 21.99600
H  43.38300 40.54400 21.09800
H  43.46300 38.80700 21.54500
H  44.32300 40.08500 22.51800
H  40.04700 41.23800 20.95700
H  39.83600 42.58200 21.97500
H  38.52000 39.99000 21.88000
H  38.19000 41.36700 22.99400
H  39.18700 39.89600 23.36600
H  39.33700 45.45900 24.61400
H  40.52500 46.54900 25.40700
H  38.87500 46.27800 26.09200
H  39.34500 44.15200 30.53400
H  42.37500 46.66500 32.48400
H  41.72000 45.40800 33.71700
H  40.91800 47.06800 33.38300

