158

Mg 16.16700 -1.74300 27.64800
C  15.46000 0.51000 30.29200
C  18.33000 -3.40200 29.81800
C  17.59200 -3.14100 25.00400
C  14.37600 0.39400 25.51700
N  16.95600 -1.32800 29.69900
C  16.39800 -0.50300 30.61900
C  16.77100 -0.91500 32.01000
C  17.81800 -2.02800 31.84100
C  17.66200 -2.32800 30.37200
C  19.29000 -1.93300 32.34800
C  15.55400 -1.23300 32.97800
C  15.72400 -0.52500 34.36000
H  17.01700 -0.05600 34.83800
N  17.72200 -3.15900 27.41800
C  18.44600 -3.76500 28.41500
C  19.26200 -4.73100 27.78700
C  19.06100 -4.70600 26.35800
C  18.15700 -3.63200 26.20600
C  20.03900 -5.57100 28.68500
C  19.56800 -5.58600 25.21400
O  19.27900 -5.47500 24.03200
C  20.42600 -6.66500 25.59200
N  16.02200 -1.38000 25.58900
C  16.71300 -2.11100 24.69800
C  16.61000 -1.50800 23.28600
C  15.36200 -0.59900 23.40000
C  15.17700 -0.55500 24.91800
C  17.81900 -0.69400 22.76800
C  14.18500 -1.06600 22.54500
C  13.68600 -0.11600 21.45900
N  15.02100 0.00700 27.80400
C  14.32900 0.73000 26.85600
C  13.57800 1.73100 27.48400
C  14.02200 1.75400 28.85200
C  14.92700 0.68100 28.95600
C  12.63200 2.70500 26.84200
C  13.89800 2.44600 30.05100
O  13.14800 3.35800 30.45400
C  14.80800 1.60800 31.10400
C  15.76900 2.59200 31.72600
O  16.71100 3.09100 31.16400
O  15.38900 2.82800 33.00900
C  16.05800 3.99900 33.60400
H  18.83800 -3.87500 30.66100
H  18.00800 -3.56900 24.09000
H  13.89200 1.00200 24.75000
H  17.13500 0.07400 32.28700
H  17.40800 -2.88600 32.37500
H  20.00300 -1.69800 31.55800
H  19.44400 -2.92500 32.77300
H  19.52900 -1.26300 33.17400
H  15.50400 -2.32100 33.02800
H  14.66700 -0.87200 32.45600
H  15.36600 -1.33800 34.99200
H  15.04800 0.32800 34.41400
H  20.93300 -5.82500 28.11500
H  19.42100 -6.42200 28.97100
H  20.36600 -5.08100 29.60200
H  20.76300 -7.25500 24.74000
H  19.93900 -7.28000 26.34900
H  21.32800 -6.26400 26.05400
H  16.44000 -2.33300 22.59400
H  15.47400 0.43600 23.07700
H  18.72500 -1.25500 23.00000
H  17.91300 0.30600 23.19200
H  17.76700 -0.66700 21.68000
H  13.27400 -1.35300 23.07000
H  14.50500 -1.85900 21.87000
H  12.98400 0.67600 21.72100
H  13.15200 -0.73300 20.73600
H  14.48500 0.38700 20.91500
H  11.62200 2.48500 27.18700
H  12.55900 2.71400 25.75400
H  12.85000 3.75800 27.02200
H  14.12500 1.30900 31.89900
H  16.48800 3.68000 34.55300
H  15.28800 4.73700 33.83200
H  16.88500 4.41400 33.03000
Mg -2.00100 33.97300 26.70300
C  -3.64000 32.87400 29.49900
C  -0.17600 36.11000 28.70400
C  -0.53200 35.20200 23.94000
C  -3.86700 31.84200 24.70400
N  -1.80200 34.30900 28.93400
C  -2.66900 33.70800 29.83600
C  -2.29500 34.14500 31.23900
C  -1.19600 35.22100 30.99000
C  -0.96800 35.22000 29.41600
C  -1.37200 36.61100 31.58200
C  -1.87300 32.88600 32.05200
C  -2.68200 32.43100 33.28000
H  -2.02500 32.26000 34.63800
N  -0.53700 35.48300 26.33400
C  0.05500 36.27400 27.31200
C  0.92300 37.27900 26.64400
C  0.90000 36.87100 25.29500
C  -0.08400 35.84700 25.11300
C  1.88000 38.25800 27.42000
C  1.55600 37.70000 24.18100
O  1.59100 37.34700 23.03400
C  2.03100 39.03500 24.49100
N  -2.32000 33.72100 24.57000
C  -1.49700 34.26300 23.69300
C  -1.77100 33.79500 22.27700
C  -2.47300 32.48900 22.59500
C  -2.99200 32.68500 24.05300
C  -2.55600 34.77500 21.33100
C  -1.60400 31.21700 22.48800
C  -2.13500 29.97900 21.67500
N  -3.39200 32.63200 26.95700
C  -4.15500 31.79800 26.08500
C  -5.19000 31.14700 26.87500
C  -5.00500 31.53100 28.17300
C  -3.92800 32.38200 28.20200
C  -6.14800 30.11300 26.30500
C  -5.45400 31.26600 29.51100
O  -6.28200 30.51600 29.97300
C  -4.60900 32.18500 30.40000
C  -5.63400 33.03300 31.07700
O  -5.96000 34.14200 30.65100
O  -6.12700 32.40000 32.23600
C  -6.74400 33.26200 33.21500
H  0.47800 36.77300 29.27400
H  -0.18300 35.73800 23.05500
H  -4.27700 31.06600 24.05500
H  -3.22700 34.55800 31.62500
H  -0.29900 34.81400 31.45600
H  -2.30300 36.67200 32.14700
H  -1.44500 37.33800 30.77300
H  -0.51500 36.80200 32.22800
H  -0.85300 32.93500 32.43500
H  -1.75600 32.13400 31.27200
H  -2.95900 31.39600 33.07600
H  -3.63800 32.95400 33.31500
H  1.58200 38.32100 28.46700
H  1.96300 39.28700 27.06900
H  2.89000 37.87500 27.27500
H  1.29200 39.66300 24.99000
H  2.41400 39.52100 23.59400
H  2.95200 38.98600 25.07200
H  -0.76800 33.77700 21.84900
H  -3.35700 32.39300 21.96500
H  -2.88000 35.65700 21.88400
H  -3.53400 34.49500 20.93900
H  -1.93200 35.21500 20.55300
H  -1.42900 30.87700 23.50900
H  -0.64300 31.44800 22.02800
H  -1.41800 29.75900 20.88400
H  -3.05100 30.26200 21.15600
H  -2.30200 29.09400 22.28800
H  -6.91700 30.57800 25.68800
H  -6.73500 29.62200 27.08100
H  -5.48800 29.45900 25.73500
H  -4.08500 31.61700 31.16900
H  -7.36600 34.05800 32.80600
H  -5.94400 33.73000 33.78900
H  -7.50200 32.61500 33.65700

