158

Mg 7.88000 3.77600 27.42400
C  9.36500 2.49700 30.28800
C  5.98400 5.84500 29.51400
C  6.52700 4.99200 24.70800
C  9.15500 1.11400 25.59300
N  7.62500 4.02700 29.70300
C  8.40300 3.48400 30.61700
C  8.31900 4.31000 31.88000
C  7.13500 5.29000 31.68100
C  6.85400 5.02600 30.17200
C  5.94400 5.19100 32.59600
C  9.59100 5.07000 32.35100
C  9.56100 5.62600 33.77500
H  10.49000 5.12300 34.92400
N  6.49800 5.20300 27.16400
C  5.81400 5.92400 28.11600
C  4.97300 6.91000 27.48300
C  5.09500 6.71600 26.04900
C  6.04900 5.56900 25.93300
C  4.10000 7.91800 28.26700
C  4.41400 7.35500 24.87700
O  4.59600 7.13800 23.66800
C  3.57500 8.57600 25.18300
N  7.80700 3.08500 25.44600
C  7.26900 3.77200 24.46700
C  7.61400 3.26100 23.02300
C  8.42100 2.05400 23.32800
C  8.46900 2.07500 24.88600
C  6.37500 3.16600 22.09900
C  9.80100 2.06900 22.64900
C  10.97000 2.88300 23.26700
N  9.12000 2.20700 27.78900
C  9.53600 1.16300 26.94200
C  10.45800 0.30400 27.69800
C  10.42500 0.80900 29.04700
C  9.59900 1.95000 28.99600
C  11.16600 -0.88900 27.20100
C  10.91900 0.58000 30.40000
O  11.73800 -0.27000 30.78400
C  10.27500 1.66200 31.24500
C  9.60800 1.10500 32.42600
O  8.44500 0.67700 32.37300
O  10.43100 1.14200 33.58900
C  9.88300 0.29900 34.66400
H  5.37800 6.49100 30.15300
H  6.06900 5.46200 23.83500
H  9.62500 0.31700 25.01200
H  8.05000 3.56400 32.62700
H  7.47200 6.32500 31.63900
H  5.46800 6.11600 32.92100
H  6.23600 4.71800 33.53400
H  5.18800 4.50700 32.21100
H  9.71700 5.80600 31.55800
H  10.48100 4.44200 32.31500
H  8.53200 5.59900 34.13300
H  9.94800 6.63500 33.63600
H  4.42500 8.95000 28.13800
H  4.17400 7.69200 29.33100
H  3.05900 7.83300 27.95600
H  3.14200 8.95300 24.25700
H  4.22300 9.33100 25.62800
H  2.75500 8.36300 25.86900
H  8.36300 3.93300 22.60400
H  7.86300 1.21400 22.91400
H  5.42000 3.38900 22.57500
H  6.34300 2.13700 21.74200
H  6.49500 3.86200 21.26900
H  9.76100 2.33600 21.59300
H  10.03200 1.00400 22.65800
H  11.85400 2.37500 23.65300
H  10.60700 3.70600 23.88300
H  11.40900 3.47300 22.46300
H  10.63100 -1.33100 26.36100
H  11.34900 -1.63800 27.97100
H  12.09100 -0.46900 26.80500
H  11.14300 2.21800 31.60000
H  9.12500 -0.41300 34.33900
H  9.62100 0.98100 35.47300
H  10.68900 -0.37100 34.96400
Mg 16.45700 51.10200 26.61200
C  18.58100 49.87900 29.12700
C  14.42800 52.20100 29.24400
C  14.52800 52.63000 24.32900
C  18.58700 50.02100 24.09200
N  16.48900 50.91000 28.95000
C  17.50100 50.43000 29.72600
C  17.29800 50.57600 31.23900
C  15.76400 51.00800 31.22600
C  15.56700 51.42200 29.72900
C  14.86800 49.78000 31.55200
C  18.20100 51.63700 31.96000
C  18.90700 51.09300 33.18100
H  18.25300 51.36200 34.46200
N  14.70100 52.20200 26.79100
C  14.08100 52.63900 27.98200
C  12.96600 53.46500 27.65600
C  12.92400 53.54500 26.18500
C  14.02100 52.75400 25.70200
C  11.94400 53.95200 28.73800
C  11.91100 54.21700 25.28500
O  11.93400 54.19200 24.04700
C  10.88400 55.00500 25.92400
N  16.47800 51.19100 24.43300
C  15.57400 51.96100 23.72100
C  15.78100 51.78000 22.19800
C  17.17000 51.01100 22.15000
C  17.45800 50.77300 23.60000
C  14.50700 51.06700 21.54500
C  18.33700 51.76000 21.46900
C  19.24000 50.77900 20.60900
N  18.13200 50.07000 26.53100
C  18.92300 49.70200 25.43800
C  20.08400 49.02800 26.02900
C  19.97300 49.03900 27.43800
C  18.76500 49.75100 27.68100
C  21.13500 48.39500 25.23500
C  20.60700 48.68100 28.66600
O  21.70800 48.06400 28.81700
C  19.75700 49.16500 29.82700
C  19.33000 48.13900 30.77700
O  18.31500 47.46000 30.76200
O  20.22900 48.02800 31.86600
C  19.92400 47.01300 32.91100
H  13.87000 52.53500 30.12100
H  14.03300 53.28900 23.61200
H  19.23300 49.65400 23.29100
H  17.43500 49.56100 31.61300
H  15.62500 51.85300 31.90100
H  13.95800 50.22400 31.95700
H  15.27500 48.96200 32.14700
H  14.67700 49.35000 30.56800
H  17.60400 52.47900 32.31100
H  18.97300 52.05900 31.31700
H  19.87300 51.58200 33.30800
H  19.11900 50.03600 33.02400
H  11.11200 53.27600 28.93300
H  11.59300 54.97300 28.58800
H  12.37100 53.92800 29.74000
H  10.09200 55.15800 25.19200
H  11.28800 55.93800 26.31800
H  10.44700 54.39800 26.71800
H  15.79000 52.72800 21.66100
H  16.99900 50.00200 21.77600
H  13.76500 50.95700 22.33600
H  14.84600 50.13700 21.08600
H  14.03800 51.75300 20.84000
H  19.08200 52.17500 22.14800
H  17.96600 52.60800 20.89300
H  19.08300 50.78200 19.53100
H  19.23700 49.77200 21.02600
H  20.29000 51.04600 20.73000
H  22.02300 48.20200 25.83800
H  21.49100 48.95000 24.36700
H  20.77100 47.39400 25.00200
H  20.28100 49.82900 30.51400
H  18.86400 46.85800 33.11500
H  20.37400 47.35700 33.84300
H  20.43000 46.11400 32.56000

