158

Mg 40.97200 7.99500 29.35600
C  42.68500 9.41900 32.12700
C  38.51600 6.87200 31.60100
C  39.60500 6.25300 26.83000
C  43.77300 8.72400 27.33600
N  40.63000 8.23300 31.61400
C  41.46800 8.77300 32.49500
C  40.94500 8.70800 33.97000
C  39.71200 7.70100 33.72400
C  39.60900 7.55200 32.25000
C  39.81400 6.35200 34.56600
C  40.60700 10.11300 34.54300
C  39.62100 10.17400 35.72400
H  40.18700 10.91800 36.90000
N  39.28100 6.68600 29.26100
C  38.41200 6.42100 30.27200
C  37.37200 5.64000 29.75500
C  37.63300 5.49100 28.39700
C  38.94500 6.11200 28.08600
C  36.26800 5.24400 30.57700
C  36.84000 4.83700 27.35600
O  37.21800 4.71900 26.19100
C  35.44900 4.30200 27.72800
N  41.67800 7.49800 27.37600
C  40.84900 6.77000 26.52800
C  41.50900 6.58600 25.16400
C  42.81600 7.49000 25.31500
C  42.75800 7.92600 26.77100
C  41.77800 5.08600 24.71300
C  42.80100 8.61600 24.30900
C  42.01000 9.84800 24.83200
N  42.79800 8.87800 29.60600
C  43.82500 9.12100 28.70300
C  44.81600 9.99000 29.33700
C  44.48800 10.04800 30.70500
C  43.20900 9.43800 30.78500
C  46.07200 10.53600 28.76300
C  44.94100 10.51100 32.04600
O  45.89900 11.14200 32.48500
C  43.74100 10.15900 32.98000
C  44.21100 9.29000 34.17500
O  44.72600 8.15900 34.10100
O  44.11100 10.00600 35.32000
C  44.49400 9.22300 36.41500
H  37.68800 6.61800 32.26600
H  39.26600 5.77100 25.91100
H  44.60900 9.00900 26.69500
H  41.70800 8.23400 34.58700
H  38.80300 8.22100 34.02800
H  40.39000 5.60300 34.02100
H  38.76500 6.06200 34.50800
H  40.11000 6.40000 35.61400
H  40.24500 10.60800 33.64300
H  41.51900 10.59000 34.90200
H  39.45400 9.13900 36.02400
H  38.71800 10.70000 35.41500
H  36.37500 4.18800 30.82700
H  35.32400 5.40100 30.05600
H  35.95600 5.86300 31.41900
H  35.47300 3.65700 28.60700
H  35.04000 3.68600 26.92800
H  34.69600 5.08700 27.78700
H  40.71600 6.82500 24.45400
H  43.73800 6.92000 25.20200
H  42.71400 4.70900 25.12500
H  41.89100 5.12100 23.63000
H  40.98600 4.38300 24.97000
H  42.27500 8.29000 23.41200
H  43.86200 8.81200 24.15000
H  41.46500 9.66900 25.75800
H  41.26600 10.18400 24.11100
H  42.73400 10.66300 24.84000
H  46.38000 11.48600 29.20000
H  45.82900 10.64800 27.70600
H  46.88800 9.82400 28.88300
H  43.44700 11.11800 33.40700
H  45.55900 9.00400 36.33500
H  43.75300 8.43000 36.51400
H  44.43900 9.70600 37.39000
Mg 41.79200 41.06200 26.10000
C  40.99700 43.31200 28.67300
C  42.86300 38.74400 28.57100
C  42.84300 39.07800 23.68600
C  41.13800 43.60300 23.76600
N  41.79600 41.03800 28.35000
C  41.39800 42.10000 29.15600
C  41.45600 41.65200 30.65600
C  42.25800 40.23600 30.55000
C  42.21200 39.94200 29.07800
C  43.66600 40.28800 31.10000
C  40.13400 41.45400 31.40200
C  39.67300 42.61300 32.32200
H  39.78000 42.50800 33.84000
N  42.63900 39.13100 26.13200
C  43.12200 38.39100 27.21900
C  43.66000 37.14100 26.68700
C  43.54700 37.18000 25.26800
C  42.97900 38.45600 24.96300
C  44.02000 36.09600 27.60800
C  43.99200 36.16900 24.15400
O  43.97000 36.39500 22.95000
C  44.52800 34.82300 24.61300
N  42.04700 41.31500 24.09700
C  42.39800 40.24400 23.32000
C  42.17100 40.55600 21.80700
C  41.30100 41.83000 21.83200
C  41.56700 42.33500 23.30000
C  43.51900 40.70700 21.06700
C  39.81100 41.75100 21.47600
C  38.96100 40.74000 22.29500
N  41.22600 43.06200 26.11500
C  41.00900 44.01200 25.06000
C  40.51800 45.23700 25.61000
C  40.44300 45.00500 26.97300
C  40.91900 43.72100 27.20100
C  40.08100 46.46900 24.82700
C  40.16900 45.59300 28.22900
O  39.85500 46.74800 28.51100
C  40.57500 44.51000 29.37000
C  41.66300 45.15600 30.18800
O  42.83600 45.26100 29.83300
O  41.18500 45.54300 31.40600
C  42.20400 46.32900 32.21300
H  43.20900 37.95300 29.24000
H  43.10400 38.53100 22.77700
H  40.77200 44.27900 22.99000
H  42.03600 42.44200 31.13300
H  41.73300 39.38200 30.97800
H  43.68600 39.98400 32.14700
H  43.96900 41.33100 31.00600
H  44.32000 39.70700 30.44900
H  40.14800 40.51600 31.95800
H  39.44900 41.28800 30.57100
H  38.66000 42.82300 31.97800
H  40.35200 43.41000 32.01800
H  43.16400 35.42100 27.62400
H  44.31500 36.35300 28.62500
H  44.83800 35.53800 27.15100
H  43.88100 34.24700 25.27500
H  45.44000 35.03100 25.17300
H  44.76800 34.29200 23.69200
H  41.56400 39.75500 21.38600
H  41.73600 42.56500 21.15500
H  43.95300 39.74000 20.81400
H  44.21700 41.34700 21.60700
H  43.26400 41.27300 20.17100
H  39.72400 41.61800 20.39800
H  39.37600 42.74500 21.57800
H  38.04600 41.20300 22.66500
H  39.54000 40.35300 23.13300
H  38.66000 39.90000 21.66900
H  39.13700 46.22700 24.33800
H  40.88000 46.78000 24.15400
H  39.94200 47.23800 25.58600
H  39.84500 44.43100 30.17600
H  42.25400 47.37300 31.90200
H  43.14100 45.77300 32.23100
H  41.81900 46.26700 33.23100

