158

Mg 34.90700 47.97600 24.88300
C  35.51300 46.17900 27.81000
C  33.46600 50.40500 26.83600
C  34.06700 49.52600 22.10100
C  35.95600 45.07700 23.11100
N  34.38000 48.12100 27.07200
C  34.88500 47.34100 28.14600
C  34.57700 48.05500 29.51700
C  33.86000 49.34900 29.09400
C  33.87400 49.27600 27.54200
C  32.41600 49.48100 29.72600
C  35.89400 48.24800 30.34500
C  35.77100 48.14400 31.89800
H  34.33900 48.08600 32.43500
N  34.09800 49.79000 24.49600
C  33.58600 50.65800 25.42000
C  33.18500 51.93800 24.75300
C  33.34200 51.65100 23.34000
C  33.90400 50.26900 23.23200
C  32.56800 53.19500 25.49200
C  33.02000 52.59800 22.14700
O  33.17000 52.26400 20.98700
C  32.41900 53.98500 22.36900
N  35.03300 47.37700 22.88900
C  34.53500 48.18300 21.95500
C  34.73900 47.57900 20.55700
C  35.65600 46.39400 20.82400
C  35.60600 46.24400 22.36900
C  33.36900 47.12200 19.89800
C  37.13400 46.69500 20.48700
C  37.92500 47.72600 21.29900
N  35.53700 46.04400 25.35800
C  35.95600 45.00400 24.50800
C  36.53500 43.92500 25.24000
C  36.34000 44.28900 26.62200
C  35.72200 45.59200 26.62700
C  36.99300 42.64400 24.75700
C  36.50400 43.95600 28.04000
O  37.09200 43.01800 28.52200
C  35.92900 45.10900 28.83600
C  34.72500 44.61100 29.67400
O  33.57400 44.60600 29.31700
O  35.14500 44.32800 30.91400
C  34.12800 44.14600 31.93900
H  33.04700 51.16300 27.50100
H  33.80300 49.96600 21.13700
H  36.40100 44.21200 22.61600
H  33.88200 47.43700 30.08400
H  34.46700 50.22100 29.33700
H  32.44800 50.37500 30.34900
H  32.13700 48.65500 30.38100
H  31.63700 49.48100 28.96400
H  36.27500 49.24900 30.14000
H  36.60800 47.50100 30.00100
H  36.33300 48.93800 32.39100
H  36.35300 47.25900 32.15400
H  33.28200 53.99900 25.66600
H  32.27400 52.88700 26.49600
H  31.66400 53.60400 25.04000
H  31.37300 53.83900 22.63800
H  32.59100 54.67200 21.54100
H  32.95500 54.49200 23.17100
H  35.26700 48.25100 19.88100
H  35.39100 45.52600 20.22100
H  33.28200 46.08000 20.20700
H  33.42700 47.19900 18.81300
H  32.48600 47.66100 20.24200
H  37.29400 46.72900 19.40900
H  37.58900 45.73500 20.73000
H  37.17900 48.35000 21.79100
H  38.63900 48.25400 20.66700
H  38.54800 47.28300 22.07600
H  37.76800 42.75200 23.99800
H  36.10200 42.24100 24.27600
H  37.30600 42.02700 25.59900
H  36.75500 45.40200 29.48500
H  33.70400 43.14200 31.97500
H  33.36700 44.90800 31.77400
H  34.68600 44.33200 32.85700
Mg 9.38900 48.18700 26.05600
C  7.03600 48.59100 28.70400
C  11.71300 49.44600 28.00200
C  11.36600 47.83700 23.41600
C  6.51000 48.06600 23.84100
N  9.39400 48.88700 28.17100
C  8.37700 48.78100 29.08900
C  8.95500 49.04500 30.49200
C  10.34400 49.71700 30.16500
C  10.51100 49.46000 28.65800
C  10.41100 51.30200 30.41400
C  8.95200 47.85400 31.49900
C  8.79700 48.27800 32.98500
H  8.64600 47.09200 33.95000
N  11.30700 48.50400 25.73600
C  12.12200 48.97400 26.70400
C  13.46000 48.88000 26.14400
C  13.37300 48.32600 24.83000
C  11.99900 48.15700 24.65600
C  14.64800 49.28700 26.92600
C  14.46300 47.77800 23.94000
O  14.26600 47.15200 22.88900
C  15.90800 47.87500 24.34600
N  9.02200 47.98600 23.87800
C  9.98200 47.79500 23.07400
C  9.44700 47.48100 21.62400
C  7.96000 47.89600 21.76000
C  7.79500 47.99700 23.28200
C  10.23400 48.13700 20.41400
C  6.93100 46.84100 21.14500
C  5.76700 47.52300 20.41400
N  7.28400 48.29500 26.19700
C  6.25300 48.20300 25.19800
C  4.94900 48.36200 25.84600
C  5.28500 48.46700 27.17400
C  6.65400 48.42600 27.33900
C  3.64400 48.34500 25.19900
C  4.63800 48.64000 28.48900
O  3.46700 48.68200 28.69000
C  5.79400 48.76100 29.50400
C  5.53600 47.64900 30.46100
O  5.92200 46.52000 30.20500
O  4.80800 47.99200 31.53800
C  4.58900 47.03100 32.65600
H  12.54000 49.80100 28.61900
H  11.90300 47.77600 22.46800
H  5.64200 48.06700 23.17800
H  8.43400 49.88900 30.94400
H  11.23800 49.36500 30.67900
H  9.40500 51.72100 30.39500
H  10.99200 51.69500 29.58000
H  11.02300 51.56200 31.27700
H  9.86100 47.26100 31.39800
H  8.14800 47.17700 31.20900
H  7.87100 48.85200 33.00500
H  9.64900 48.87300 33.31400
H  14.48200 49.67600 27.93100
H  15.11200 50.00700 26.25100
H  15.23500 48.37600 27.04600
H  16.21300 47.10400 25.05300
H  16.01000 48.83700 24.84800
H  16.46900 47.99600 23.41900
H  9.43800 46.39200 21.56500
H  7.85600 48.92300 21.40900
H  10.91100 48.87000 20.85300
H  9.71500 48.55600 19.55300
H  10.79300 47.43800 19.79200
H  6.53700 46.15300 21.89300
H  7.54400 46.33100 20.40200
H  5.71000 47.35800 19.33900
H  5.79300 48.60700 20.52800
H  4.91700 47.01100 20.86700
H  3.57800 49.18100 24.50200
H  2.92200 48.68300 25.94100
H  3.30700 47.38400 24.81200
H  5.79800 49.74000 29.98200
H  3.65200 47.36300 33.10400
H  5.26300 47.20000 33.49600
H  4.71000 45.98200 32.38400

