158

Mg -1.91700 34.97800 26.82900
C  -3.67400 33.15000 29.22900
C  -0.65200 36.95700 29.30100
C  -0.58500 36.70300 24.39900
C  -3.69900 33.03800 24.33800
N  -2.02500 34.96700 29.01400
C  -2.77300 34.11300 29.76900
C  -2.50800 34.37200 31.32400
C  -1.66500 35.67800 31.29000
C  -1.40200 35.85100 29.74100
C  -2.38500 36.93500 31.91800
C  -1.91500 33.08600 32.10300
C  -2.81200 32.54600 33.34800
H  -2.10400 32.63000 34.75400
N  -0.71800 36.51100 26.84900
C  -0.33700 37.25800 27.94600
C  0.57900 38.31200 27.53100
C  0.71600 38.16900 26.17200
C  -0.23100 37.11900 25.70400
C  1.30900 39.35100 28.44000
C  1.52000 38.98900 25.17400
O  1.47000 38.68800 23.97500
C  2.43500 40.08700 25.48600
N  -2.27500 34.92200 24.68200
C  -1.52400 35.73500 23.95800
C  -1.69500 35.55700 22.47600
C  -2.79800 34.40800 22.39200
C  -2.99700 34.14200 23.84700
C  -1.97800 36.84200 21.58000
C  -2.50300 33.11700 21.59000
C  -1.16800 32.46500 21.92000
N  -3.39700 33.41100 26.73300
C  -4.02200 32.78600 25.68100
C  -4.80900 31.66200 26.21200
C  -4.65800 31.78500 27.60300
C  -3.86100 32.87000 27.87800
C  -5.54800 30.55600 25.41800
C  -5.12000 31.25900 28.88300
O  -5.92600 30.34700 29.10800
C  -4.49300 32.17300 30.00700
C  -5.55800 32.87100 30.81400
O  -6.02200 33.99900 30.63000
O  -6.00400 32.05600 31.82300
C  -7.02300 32.66400 32.72800
H  -0.29900 37.55000 30.14700
H  -0.31800 37.40500 23.60700
H  -4.18400 32.35200 23.64000
H  -3.46100 34.48300 31.84100
H  -0.66200 35.65100 31.71600
H  -1.71600 37.26400 32.71300
H  -3.24900 36.61400 32.49900
H  -2.62900 37.68000 31.16000
H  -1.00400 33.39200 32.61600
H  -1.78600 32.25600 31.40800
H  -2.99000 31.47900 33.21200
H  -3.77200 33.06200 33.32100
H  0.83200 40.32100 28.30400
H  2.33700 39.53600 28.13100
H  1.21200 39.15000 29.50700
H  2.73800 40.53900 24.54200
H  3.34700 39.67500 25.91900
H  1.94300 40.84200 26.09800
H  -0.77600 35.08700 22.12400
H  -3.70400 34.83800 21.96600
H  -2.31300 37.70000 22.16300
H  -2.73600 36.58600 20.84100
H  -1.11600 37.11100 20.96800
H  -2.47300 33.35600 20.52700
H  -3.30600 32.38000 21.60600
H  -1.33900 31.44500 22.26600
H  -0.53100 33.03100 22.59900
H  -0.56900 32.34200 21.01800
H  -5.75000 29.87900 26.24800
H  -4.96800 30.16200 24.58300
H  -6.45800 30.89900 24.92600
H  -3.86200 31.55000 30.64100
H  -6.51300 33.17000 33.54800
H  -7.64300 31.86500 33.13600
H  -7.65200 33.28000 32.08600
Mg -5.40200 25.56800 25.99800
C  -4.06800 27.04500 28.93100
C  -7.28900 23.69800 28.03500
C  -6.32600 23.97100 23.21400
C  -3.21300 27.68300 24.11300
N  -5.49500 25.31600 28.23200
C  -4.92600 25.97700 29.24800
C  -5.56300 25.58500 30.62500
C  -6.43600 24.36400 30.24000
C  -6.49200 24.51700 28.75700
C  -6.03700 22.98500 30.80500
C  -6.39600 26.72400 31.25200
C  -7.06700 26.54600 32.65800
H  -6.39700 25.48100 33.58900
N  -6.70700 24.04500 25.68100
C  -7.45700 23.48300 26.66100
C  -8.40500 22.47400 26.02900
C  -8.08100 22.52300 24.64100
C  -6.93300 23.48300 24.46400
C  -9.44600 21.60800 26.88200
C  -8.62600 21.69300 23.57600
O  -8.26300 21.82800 22.44800
C  -9.64200 20.60300 23.88600
N  -4.85400 25.80800 23.98000
C  -5.36700 24.99800 22.98800
C  -4.66100 25.30300 21.67200
C  -3.87100 26.60400 21.96500
C  -4.08200 26.76500 23.45900
C  -3.76600 24.13600 21.26500
C  -4.16900 27.88800 21.13600
C  -3.15400 28.27400 20.04200
N  -3.99100 27.03700 26.36300
C  -3.22900 27.83800 25.50200
C  -2.47000 28.80600 26.33000
C  -2.76000 28.52500 27.64200
C  -3.66700 27.41900 27.64100
C  -1.57100 29.90600 25.78400
C  -2.52900 28.95500 28.94700
O  -1.90900 29.93100 29.34400
C  -3.36100 28.01800 29.82700
C  -2.57500 27.43800 30.92000
O  -1.56700 26.72600 30.81000
O  -3.12700 27.71900 32.16000
C  -2.31700 27.45300 33.35900
H  -7.89100 23.02500 28.65000
H  -6.49200 23.34800 22.33300
H  -2.46800 28.17400 23.48300
H  -4.74700 25.32700 31.30000
H  -7.41400 24.54800 30.68400
H  -6.68200 22.73100 31.64600
H  -5.01900 22.95700 31.19300
H  -6.13600 22.21500 30.04000
H  -7.15700 26.86200 30.48400
H  -5.81700 27.64200 31.35200
H  -8.13400 26.34800 32.56100
H  -7.00900 27.54200 33.09700
H  -9.47200 22.01200 27.89400
H  -9.39500 20.52500 26.77800
H  -10.46000 21.82200 26.54300
H  -10.62200 20.91000 24.25200
H  -9.06200 20.02100 24.60200
H  -9.68600 19.86500 23.08500
H  -5.45100 25.53300 20.95600
H  -2.79400 26.44500 21.91300
H  -3.89700 23.36400 22.02400
H  -2.68800 24.27600 21.19400
H  -4.13100 23.71500 20.32800
H  -4.36600 28.70600 21.82900
H  -5.14900 27.90000 20.65900
H  -2.83500 29.27200 20.34400
H  -3.59600 28.40700 19.05500
H  -2.31900 27.57300 20.04300
H  -2.25400 30.52900 25.20700
H  -0.78300 29.46400 25.17400
H  -1.10700 30.39900 26.63900
H  -4.09000 28.70900 30.25000
H  -1.64800 28.30000 33.51200
H  -1.77800 26.50600 33.31700
H  -3.06900 27.43300 34.14800

