158

Mg 48.58700 34.85900 27.04000
C  46.73600 33.18900 29.41000
C  49.17100 37.37200 29.41700
C  49.90700 36.62000 24.63200
C  47.58600 32.41300 24.68200
N  47.99900 35.25200 29.16400
C  47.36300 34.31100 29.96600
C  47.18600 34.80800 31.37700
C  47.54100 36.31900 31.21200
C  48.38700 36.33200 29.86700
C  46.42200 37.26100 31.05500
C  48.28500 34.00200 32.20300
C  48.23500 34.06700 33.72000
H  47.22900 34.91600 34.46000
N  49.64500 36.64700 27.01200
C  49.72200 37.54600 28.09000
C  50.46100 38.72700 27.62500
C  50.77500 38.48700 26.24000
C  50.08400 37.19400 25.86100
C  50.71400 39.93300 28.41000
C  51.55300 39.45100 25.27000
O  51.80100 39.02200 24.14000
C  52.01000 40.76600 25.48800
N  48.69100 34.56900 24.93200
C  49.36700 35.45400 24.23300
C  49.40400 34.97500 22.65900
C  48.90900 33.49900 22.78900
C  48.43100 33.42300 24.20500
C  48.59700 35.91900 21.64100
C  49.80100 32.36600 22.37200
C  49.61600 31.85700 20.91900
N  47.46500 33.06600 27.02400
C  47.15500 32.20500 25.95400
C  46.34600 31.15500 26.49200
C  46.04200 31.54100 27.86600
C  46.78400 32.70000 28.09700
C  45.90900 29.94600 25.76400
C  45.30300 31.17900 29.03400
O  44.52800 30.26500 29.32300
C  45.64300 32.30400 30.06600
C  46.14900 31.61600 31.24700
O  47.17100 30.97200 31.24400
O  45.27200 31.70100 32.26400
C  45.44200 30.67200 33.32100
H  49.33000 38.22700 30.07900
H  50.24600 37.30100 23.84900
H  47.38600 31.74200 23.84400
H  46.18900 34.69500 31.80300
H  48.19900 36.74500 31.96900
H  46.50200 38.11100 31.73200
H  45.53600 36.64500 31.21000
H  46.37700 37.68400 30.05100
H  49.29000 34.38200 32.01700
H  48.33600 32.95400 31.90600
H  49.24400 34.33200 34.03500
H  48.09000 33.02500 34.00600
H  51.80400 39.95500 28.40300
H  50.40900 39.71600 29.43400
H  50.32100 40.81800 27.90900
H  52.77200 40.75900 26.26700
H  51.19200 41.43900 25.74600
H  52.52500 41.08100 24.58100
H  50.40500 34.92900 22.23000
H  47.96400 33.38200 22.25800
H  47.82700 35.29100 21.19300
H  49.27300 36.26100 20.85800
H  48.06600 36.73900 22.12300
H  49.62600 31.52600 23.04400
H  50.87400 32.47600 22.53000
H  50.45900 32.19000 20.31300
H  48.73400 32.31400 20.47200
H  49.43100 30.78400 20.98000
H  45.10000 30.02200 25.03700
H  45.80300 29.08800 26.42700
H  46.73800 29.75100 25.08300
H  44.76400 32.81800 30.45600
H  44.82300 30.94200 34.17600
H  46.49600 30.72900 33.59400
H  45.14800 29.68500 32.96300
Mg -4.71600 25.49900 26.25000
C  -3.43800 26.92200 29.01900
C  -6.58800 23.49100 28.22600
C  -5.61500 23.85600 23.41700
C  -2.67300 27.63300 24.10700
N  -5.04600 25.40800 28.41500
C  -4.48600 26.08800 29.35900
C  -4.73800 25.52100 30.72000
C  -5.46800 24.24600 30.47500
C  -5.72000 24.36900 28.96500
C  -4.84300 22.94900 31.01300
C  -5.58500 26.55300 31.58000
C  -5.01600 26.73800 32.96500
H  -4.49600 25.52500 33.62300
N  -6.03000 23.91800 25.85200
C  -6.73200 23.30300 26.84200
C  -7.53200 22.30500 26.15500
C  -7.28100 22.28200 24.77300
C  -6.24500 23.38200 24.62500
C  -8.53500 21.47700 26.93600
C  -7.80700 21.42500 23.70700
O  -7.45000 21.53500 22.52300
C  -9.02100 20.52900 23.99300
N  -3.99100 25.57400 24.03800
C  -4.63600 24.80700 23.10700
C  -4.16900 25.17300 21.68700
C  -3.29600 26.40100 21.91000
C  -3.30700 26.56700 23.42900
C  -3.48200 23.96100 21.10700
C  -3.73700 27.79500 21.25100
C  -4.45300 27.82800 19.96000
N  -3.29700 26.95700 26.49600
C  -2.49500 27.73100 25.57700
C  -1.70600 28.61600 26.45200
C  -1.96600 28.29300 27.77900
C  -2.95800 27.27300 27.73300
C  -0.80500 29.59500 25.87800
C  -1.67000 28.67800 29.17900
O  -0.98100 29.59300 29.63000
C  -2.45100 27.55600 30.04300
C  -1.49500 26.57800 30.54200
O  -1.29800 25.46100 30.06300
O  -1.15000 27.01000 31.82200
C  -0.38400 25.94300 32.46100
H  -7.01600 22.77300 28.92800
H  -5.89900 23.43200 22.45100
H  -2.06500 28.29500 23.48600
H  -3.74600 25.37800 31.14800
H  -6.48200 24.18900 30.87200
H  -4.55700 22.40600 30.11200
H  -5.57900 22.44400 31.63800
H  -3.92400 23.13500 31.56900
H  -6.63100 26.24700 31.61300
H  -5.60400 27.53200 31.10100
H  -5.75100 27.17000 33.64400
H  -4.21300 27.47000 32.88000
H  -9.51400 21.55800 26.46400
H  -8.66400 21.76300 27.98000
H  -8.23200 20.43300 26.86400
H  -8.76200 19.79700 24.75800
H  -9.32600 19.91000 23.14900
H  -9.92000 21.05900 24.30600
H  -5.07600 25.44400 21.14700
H  -2.27000 26.23200 21.58100
H  -2.46800 24.12800 20.74500
H  -3.96100 23.60100 20.19700
H  -3.33900 23.15000 21.82200
H  -2.81700 28.29100 20.94200
H  -4.12500 28.41500 22.06000
H  -5.49500 27.70200 20.25200
H  -4.26700 27.00300 19.27200
H  -4.23500 28.78100 19.47800
H  -1.37600 30.36300 25.35700
H  -0.30900 29.05400 25.07300
H  -0.19000 30.02100 26.67100
H  -3.02900 28.03700 30.83200
H  0.58700 25.83400 31.97600
H  -0.84700 24.96000 32.54300
H  -0.13100 26.31000 33.45600

