158

Mg 45.47800 2.92500 47.42500
C  43.73700 5.87800 46.89800
C  42.65200 1.05900 47.05900
C  47.37000 -0.02500 46.87700
C  48.41800 4.77200 46.94100
N  43.46800 3.43700 46.93000
C  42.93600 4.71500 46.84400
C  41.39300 4.68100 46.65000
C  41.11700 3.17100 46.92100
C  42.44400 2.50400 47.04000
C  40.21800 3.02800 48.29100
C  40.97900 5.23600 45.27000
C  41.45100 4.42300 44.09600
H  42.07500 5.22100 42.92400
N  45.08100 0.82100 47.18600
C  43.82600 0.29100 47.02300
C  43.86700 -1.16800 46.80800
C  45.24100 -1.49700 46.97500
C  45.99800 -0.20800 47.01600
C  42.71100 -2.07900 46.52400
C  45.87000 -2.91700 46.93800
O  45.15500 -3.94100 46.84100
C  47.28200 -3.15800 47.21200
N  47.49400 2.46600 46.83700
C  48.03700 1.18500 46.81600
C  49.55200 1.17100 46.78200
C  49.88500 2.70300 46.69700
C  48.56200 3.34400 46.89800
C  50.16500 0.35700 48.02500
C  50.61500 3.19500 45.41400
C  51.88000 3.91100 45.65500
N  46.01200 4.91900 47.19100
C  47.22600 5.52200 46.94600
C  47.06000 6.91600 46.85000
C  45.71700 7.07600 47.00000
C  45.08900 5.83500 47.01600
C  48.21300 7.96500 46.73800
C  44.69100 8.14100 47.13300
O  44.71600 9.37200 47.18400
C  43.35600 7.38100 46.95100
C  42.39400 7.71400 48.09600
O  42.33000 7.23900 49.27500
O  41.45000 8.64700 47.66800
C  40.41400 8.91800 48.64000
H  41.70700 0.51200 47.04700
H  48.04400 -0.86700 46.70700
H  49.38700 5.27400 46.89200
H  41.09900 5.28400 47.50900
H  40.55600 2.80500 46.06100
H  39.66300 3.95600 48.43000
H  40.77600 2.77600 49.19300
H  39.43200 2.28100 48.18400
H  41.19000 6.30400 45.22200
H  39.89500 5.20700 45.16100
H  40.61500 3.80800 43.76500
H  42.21700 3.70200 44.38400
H  41.98000 -1.55700 45.90700
H  42.29600 -2.13700 47.53000
H  43.02200 -3.06600 46.18200
H  47.50400 -2.45300 48.01300
H  47.83200 -2.89600 46.30800
H  47.48200 -4.20700 47.43200
H  49.83600 0.70400 45.83900
H  50.55500 2.96300 47.51700
H  50.32400 -0.68700 47.75900
H  49.34300 0.35600 48.74200
H  51.12900 0.73300 48.36900
H  50.00100 3.97600 44.96500
H  50.71800 2.41800 44.65600
H  52.74600 3.25200 45.58500
H  51.92000 4.41300 46.62200
H  51.99400 4.71700 44.93100
H  47.86800 8.99800 46.68700
H  48.80100 7.70400 45.85800
H  48.91200 7.91000 47.57300
H  42.94600 7.69300 45.99000
H  40.73800 9.41700 49.55300
H  39.76600 8.08000 48.89800
H  39.65400 9.64300 48.34900
Mg -6.89700 25.75500 26.13900
C  -5.17900 27.73400 28.50900
C  -7.56400 23.65800 28.68100
C  -7.98800 23.57900 23.84600
C  -5.47400 27.74800 23.55800
N  -6.48900 25.78800 28.43200
C  -5.87400 26.68300 29.17000
C  -6.11200 26.48500 30.60400
C  -6.71700 25.03800 30.65100
C  -6.97800 24.79300 29.15200
C  -5.75600 24.00500 31.30800
C  -7.16600 27.39000 31.22000
C  -7.35500 27.71100 32.72000
H  -6.93400 26.79200 33.87800
N  -7.84300 23.95200 26.27500
C  -8.08600 23.24700 27.45600
C  -8.91400 22.19300 27.17100
C  -9.04200 22.09400 25.78300
C  -8.25200 23.17200 25.20900
C  -9.64300 21.35600 28.31800
C  -9.88500 21.08700 25.01300
O  -9.87500 21.14300 23.78800
C  -10.75700 19.89200 25.74900
N  -6.69500 25.68900 23.91000
C  -7.35500 24.66000 23.22900
C  -7.12000 24.91800 21.69000
C  -6.54500 26.39700 21.62500
C  -6.29400 26.72300 23.12500
C  -6.13800 23.90700 21.08600
C  -7.44400 27.44900 21.03100
C  -6.85200 28.31600 19.91200
N  -5.56200 27.33500 26.03800
C  -5.01500 28.03100 24.89300
C  -4.10800 29.09100 25.31800
C  -4.15300 28.96800 26.70900
C  -5.02000 27.93200 27.07400
C  -3.29900 30.06500 24.52600
C  -3.63700 29.53900 27.91100
O  -2.83400 30.46600 27.98900
C  -4.33900 28.76700 29.11500
C  -3.26400 28.25300 30.00900
O  -2.29000 27.54300 29.68600
O  -3.44200 28.66900 31.33200
C  -2.67800 27.98900 32.38900
H  -7.68800 23.12800 29.62700
H  -8.28600 22.92300 23.02600
H  -5.15600 28.39600 22.73900
H  -5.13400 26.44700 31.08400
H  -7.70300 24.93100 31.10500
H  -5.13200 24.51300 32.04400
H  -5.25400 23.39600 30.55700
H  -6.51500 23.40900 31.81400
H  -8.13800 27.04300 30.87100
H  -6.94900 28.42100 30.93900
H  -8.44200 27.78700 32.69800
H  -6.96800 28.70400 32.94800
H  -9.60300 20.28800 28.10400
H  -10.66400 21.72300 28.42000
H  -9.11800 21.44400 29.26900
H  -11.51500 20.32600 26.40000
H  -10.09100 19.20600 26.27100
H  -11.38200 19.24100 25.13700
H  -8.06100 24.78000 21.15700
H  -5.55200 26.34600 21.17800
H  -5.80300 23.24400 21.88500
H  -5.23500 24.25800 20.58700
H  -6.69900 23.23800 20.43400
H  -7.71500 28.15400 21.81700
H  -8.36200 27.03500 20.61200
H  -6.15400 27.74900 19.29600
H  -6.29400 29.15900 20.32000
H  -7.54000 28.83900 19.24900
H  -3.79400 31.02500 24.67800
H  -3.26000 29.98400 23.44000
H  -2.28800 30.16500 24.92200
H  -4.92200 29.46500 29.71500
H  -1.88700 28.59700 32.82800
H  -2.42600 26.97800 32.06600
H  -3.36500 27.84300 33.22300

