158

Mg 46.75000 24.60400 28.21800
C  47.40900 27.01000 30.80400
C  45.70400 22.41100 30.58300
C  46.68900 22.29200 25.78300
C  47.88200 27.05700 25.92600
N  46.54700 24.76700 30.43600
C  46.98400 25.76800 31.28500
C  46.74800 25.35200 32.77400
C  46.30400 23.83700 32.68600
C  46.20000 23.62400 31.16500
C  47.21700 22.77700 33.23400
C  45.66000 26.22300 33.58800
C  46.01700 26.41000 35.08800
H  44.89400 26.32000 36.11300
N  45.89900 22.70000 28.08800
C  45.57900 21.96300 29.21700
C  45.23100 20.58300 28.74500
C  45.61900 20.50000 27.33900
C  46.07100 21.87300 26.98400
C  44.74500 19.45600 29.70800
C  45.68500 19.22100 26.47600
O  46.05700 19.24900 25.30300
C  45.30500 17.89400 27.07900
N  47.35400 24.65200 26.20900
C  47.29400 23.55000 25.41200
C  47.66000 23.89100 23.93300
C  47.76100 25.43400 23.92200
C  47.70200 25.73200 25.43600
C  48.89000 23.10600 23.31000
C  46.78100 26.27500 23.06500
C  45.30000 26.44500 23.59800
N  47.68400 26.51500 28.26300
C  47.92800 27.40700 27.25000
C  48.31600 28.73000 27.79000
C  48.05500 28.64000 29.17900
C  47.65400 27.27900 29.40200
C  48.83600 29.90200 26.98300
C  48.05500 29.39400 30.47000
O  48.27400 30.56100 30.76800
C  47.71900 28.26600 31.54700
C  48.86000 28.14900 32.47300
O  49.95500 27.77800 32.15400
O  48.57900 28.70900 33.63500
C  49.60700 28.67300 34.69800
H  45.42400 21.72400 31.38400
H  46.85600 21.58000 24.97200
H  48.14100 27.85200 25.22300
H  47.71400 25.44300 33.27200
H  45.30500 23.63200 33.07300
H  47.93300 23.32800 33.84300
H  47.92300 22.25900 32.58500
H  46.64100 22.18600 33.94700
H  44.70800 25.71900 33.41900
H  45.62000 27.15100 33.01900
H  46.31800 27.45600 35.14900
H  46.93100 25.84000 35.25300
H  45.52900 18.69800 29.71700
H  43.85700 19.06200 29.21400
H  44.48100 19.87000 30.68100
H  45.79400 17.56000 27.99400
H  45.59000 17.09800 26.39100
H  44.22600 18.00500 27.19400
H  46.81200 23.61600 23.30600
H  48.76600 25.79200 23.69900
H  48.45400 22.70200 22.39700
H  49.28600 22.38500 24.02500
H  49.57600 23.90200 23.02100
H  46.69100 25.75200 22.11300
H  47.35000 27.18900 22.89400
H  44.57400 26.23500 22.81300
H  45.08600 27.47300 23.88800
H  45.02200 25.92500 24.51500
H  48.02500 30.29300 26.36900
H  49.71600 29.69800 26.37400
H  48.88200 30.69900 27.72500
H  46.94800 28.71000 32.17700
H  49.41800 27.73200 35.21500
H  49.50100 29.52000 35.37600
H  50.64900 28.66200 34.37700
Mg -9.70000 41.31300 41.76900
C  -8.56200 38.04900 41.12500
C  -6.80000 42.43400 40.39100
C  -11.11600 44.19800 41.87500
C  -12.76000 39.85200 43.01000
N  -8.03400 40.34800 40.73700
C  -7.75400 38.97900 40.63800
C  -6.38200 38.71000 39.82900
C  -5.80400 40.12400 39.83300
C  -6.90800 41.00500 40.39000
C  -4.42400 40.45200 40.59900
C  -6.59700 38.04900 38.40300
C  -5.85600 36.72700 38.04000
H  -4.99100 36.86700 36.75000
N  -9.05200 43.11900 41.20500
C  -7.84800 43.39700 40.68600
C  -7.72900 44.81200 40.51800
C  -8.99400 45.39200 40.89700
C  -9.81100 44.25900 41.30300
C  -6.43900 45.49400 39.84100
C  -9.35900 46.87600 40.86600
O  -8.55800 47.72300 40.43900
C  -10.68700 47.32600 41.21200
N  -11.68900 41.92100 42.29700
C  -11.88600 43.23400 42.40100
C  -13.31500 43.50400 42.85300
C  -13.62600 42.19300 43.67300
C  -12.64200 41.25700 42.96000
C  -13.55000 44.87100 43.64500
C  -15.13300 41.71300 43.47300
C  -15.92300 41.20800 44.68100
N  -10.55300 39.30900 42.07200
C  -11.81900 38.90400 42.51200
C  -11.71500 37.40500 42.59800
C  -10.44800 37.06600 42.08000
C  -9.82800 38.27200 41.72200
C  -12.84600 36.51400 43.12500
C  -9.55200 35.97500 41.84000
O  -9.71800 34.74500 42.04300
C  -8.34600 36.53200 41.10900
C  -7.16700 35.97300 41.85400
O  -6.42700 36.54300 42.62900
O  -6.85000 34.83900 41.14600
C  -5.56200 34.23800 41.43300
H  -5.81600 42.76400 40.05400
H  -11.52000 45.20300 42.01400
H  -13.57800 39.37900 43.55900
H  -5.66400 38.10300 40.38100
H  -5.60300 40.49600 38.82900
H  -3.82900 41.13100 39.98800
H  -3.99100 39.45500 40.67200
H  -4.57500 40.75000 41.63700
H  -6.36600 38.81100 37.65900
H  -7.66100 37.88900 38.23300
H  -6.69700 36.06700 37.82600
H  -5.20300 36.40800 38.85300
H  -6.47200 46.56200 39.62600
H  -6.11000 44.98700 38.93400
H  -5.63100 45.26800 40.53700
H  -10.86500 48.38400 41.01800
H  -10.92800 47.26400 42.27300
H  -11.48400 46.79300 40.69300
H  -13.80200 43.57400 41.88100
H  -13.43000 42.35800 44.73200
H  -13.96200 45.57100 42.91900
H  -12.64600 45.35000 44.02100
H  -14.26200 44.71000 44.45500
H  -15.22000 40.87700 42.77900
H  -15.71400 42.51900 43.02500
H  -16.82300 41.82100 44.71400
H  -15.31700 41.48400 45.54400
H  -16.01000 40.12300 44.74600
H  -13.55400 37.24600 43.51300
H  -12.56600 35.82300 43.92100
H  -13.12900 35.89100 42.27600
H  -8.29700 36.22200 40.06500
H  -5.49000 33.41200 40.72600
H  -5.56100 33.76000 42.41200
H  -4.80500 35.01800 41.34700

