158

Mg 27.05100 50.61200 25.94100
C  25.54200 51.91900 28.85100
C  29.73300 49.82300 28.10000
C  28.51500 49.14800 23.38400
C  24.70200 52.09400 23.96500
N  27.46600 50.68200 28.26500
C  26.64100 51.18700 29.24600
C  27.13100 50.93000 30.66900
C  28.58600 50.53800 30.34100
C  28.61200 50.30500 28.82600
C  29.58800 51.49400 30.95400
C  26.30900 49.80100 31.48700
C  25.60700 50.13600 32.84300
H  26.43200 50.89700 33.96700
N  28.83800 49.65300 25.72000
C  29.81500 49.50900 26.72200
C  30.93000 48.83500 26.10800
C  30.58600 48.36200 24.81400
C  29.25500 49.03800 24.58000
C  32.25500 48.52700 26.95200
C  31.28900 47.42400 23.86900
O  30.80300 47.03100 22.78700
C  32.66400 46.93900 24.24100
N  26.80700 50.80800 23.87000
C  27.40600 49.91200 23.06200
C  26.70900 49.98500 21.64000
C  25.41900 50.80300 21.96500
C  25.68000 51.27300 23.34200
C  27.61900 50.76900 20.72200
C  24.17200 49.91000 21.96300
C  22.87700 50.58600 21.41000
N  25.54200 51.81700 26.21700
C  24.55000 52.24800 25.35100
C  23.47200 52.93600 26.06900
C  23.81700 52.83700 27.38200
C  25.06900 52.10200 27.48600
C  22.28900 53.53900 25.52600
C  23.41500 53.15100 28.72300
O  22.40700 53.72700 29.12900
C  24.53100 52.59500 29.72000
C  25.15800 53.66400 30.53500
O  26.14700 54.31000 30.23700
O  24.40000 53.79100 31.69800
C  24.82700 54.84400 32.67300
H  30.52700 49.67900 28.83600
H  28.82200 48.44000 22.61100
H  23.80900 52.31600 23.37800
H  27.05300 51.82700 31.28400
H  28.84400 49.53900 30.69100
H  30.33600 50.98300 31.56000
H  29.05900 52.23300 31.55500
H  29.88200 51.90700 29.98900
H  26.96300 48.95300 31.69000
H  25.52000 49.42500 30.83500
H  25.24600 49.15000 33.13600
H  24.79300 50.80500 32.56200
H  32.26000 49.22600 27.78800
H  33.11900 48.76600 26.33300
H  32.22500 47.50000 27.31600
H  32.69700 46.35000 25.15800
H  33.36500 47.75300 24.42900
H  32.95400 46.25900 23.44000
H  26.50600 48.99000 21.24400
H  25.35000 51.66800 21.30500
H  27.67700 50.38200 19.70500
H  28.65000 50.54100 20.99500
H  27.64100 51.85900 20.74900
H  24.08700 49.49100 22.96600
H  24.41300 48.99400 21.42300
H  22.65800 49.97000 20.53700
H  23.01900 51.62600 21.11600
H  22.00900 50.49700 22.06200
H  21.43600 52.86100 25.55000
H  22.32100 53.68800 24.44600
H  22.00900 54.41900 26.10400
H  24.03500 51.96100 30.45500
H  25.03100 55.72700 32.06800
H  25.78600 54.58400 33.12100
H  23.94600 55.04700 33.28300
Mg 0.68700 43.45300 25.75000
C  2.92300 43.30000 28.52900
C  -1.93600 43.01000 27.95700
C  -1.33800 43.36300 23.12200
C  3.47700 43.66800 23.71100
N  0.55100 43.19200 28.02300
C  1.60900 43.17700 28.86000
C  1.05800 43.05600 30.27200
C  -0.49100 42.74100 30.07000
C  -0.66200 42.99100 28.62000
C  -0.90600 41.36200 30.65600
C  1.36500 44.35900 31.14700
C  1.89900 44.28600 32.54300
H  1.62400 42.96200 33.26600
N  -1.34800 43.16200 25.59200
C  -2.24700 42.95100 26.58900
C  -3.62800 42.92300 26.08700
C  -3.51100 42.96400 24.64300
C  -2.02600 43.22200 24.36100
C  -4.82400 42.80000 27.01500
C  -4.54500 42.90100 23.56500
O  -4.26600 42.90800 22.38600
C  -5.97100 42.92500 23.92500
N  1.01000 43.42100 23.76200
C  -0.00900 43.54100 22.87900
C  0.53500 43.97400 21.52300
C  2.07600 44.29400 21.77300
C  2.20600 43.74000 23.17500
C  0.27400 43.02800 20.32000
C  2.48500 45.77000 21.67700
C  3.70000 46.10000 20.78500
N  2.75900 43.55800 26.03700
C  3.75800 43.64800 25.08300
C  5.10900 43.69300 25.71300
C  4.79000 43.61000 27.13700
C  3.35700 43.41900 27.25100
C  6.46000 43.72700 24.95400
C  5.41600 43.47700 28.41300
O  6.60000 43.49700 28.74200
C  4.24500 43.38800 29.39500
C  4.44700 42.26700 30.34500
O  4.03800 41.13400 30.32200
O  5.37000 42.72200 31.27000
C  5.79700 41.79600 32.34400
H  -2.72900 42.88700 28.69800
H  -1.93500 43.56500 22.23000
H  4.34000 43.91700 23.08900
H  1.49100 42.15600 30.70800
H  -1.14400 43.50400 30.49400
H  -0.29700 41.05100 31.50500
H  -0.97700 40.62600 29.85500
H  -1.92000 41.48600 31.03600
H  0.46000 44.96500 31.18700
H  2.10400 44.95300 30.61000
H  1.39800 45.09700 33.07300
H  2.90900 44.65600 32.71800
H  -5.76200 42.50200 26.54600
H  -5.10300 43.82600 27.25200
H  -4.64300 42.23500 27.93000
H  -6.57300 43.03200 23.02300
H  -6.23700 43.55900 24.77100
H  -6.17000 41.94000 24.34600
H  -0.00100 44.92200 21.46300
H  2.75000 43.72500 21.13300
H  1.18000 43.05700 19.71400
H  -0.58900 43.39800 19.76600
H  -0.00900 42.04400 20.69200
H  2.58400 46.06200 22.72300
H  1.61700 46.28500 21.26600
H  4.49600 46.25800 21.51300
H  3.45500 47.02100 20.25700
H  3.90200 45.26300 20.11600
H  6.81500 42.69800 25.00900
H  7.22400 44.31800 25.45900
H  6.33600 44.04900 23.92000
H  4.34800 44.34000 29.91400
H  5.36500 42.14000 33.28300
H  6.83600 42.12300 32.32800
H  5.61900 40.77400 32.00900

