158

Mg 50.48900 46.37200 41.53400
C  47.42500 47.62400 40.75700
C  49.58400 43.20300 40.54400
C  53.91000 45.30200 41.71000
C  51.70900 49.69300 42.32300
N  48.61800 45.55700 40.90100
C  47.48900 46.20900 40.52000
C  46.44600 45.21900 39.95600
C  47.10300 43.77600 40.34700
C  48.52300 44.15700 40.68400
C  46.38400 43.03200 41.47800
C  45.91300 45.36400 38.42000
C  44.49100 45.01200 38.02500
H  44.42200 43.98900 36.85200
N  51.59900 44.55200 40.94100
C  50.99100 43.38300 40.58100
C  52.00300 42.40400 40.34700
C  53.24000 43.00900 40.67600
C  52.98000 44.38400 41.13900
C  51.65900 40.95700 39.96500
C  54.55200 42.34000 40.43400
O  54.53900 41.17000 40.07500
C  55.85200 42.91300 40.68900
N  52.63100 47.46500 41.70500
C  53.72100 46.71600 41.95900
C  54.89900 47.52600 42.50900
C  54.15400 48.80800 42.89100
C  52.74000 48.68900 42.27600
C  55.65600 46.88900 43.74100
C  54.90900 50.11900 42.40700
C  55.78000 50.86300 43.41900
N  49.69100 48.24000 41.76500
C  50.29300 49.47200 42.09000
C  49.24100 50.45600 42.01100
C  48.11800 49.72600 41.50900
C  48.43000 48.45700 41.31500
C  49.34700 51.88900 42.34100
C  46.68300 49.88300 41.17400
O  45.83500 50.75700 41.37600
C  46.26900 48.51400 40.52300
C  44.99100 47.93300 41.18500
O  45.03300 47.33800 42.20700
O  43.85800 48.06400 40.43500
C  42.61500 47.68300 41.12300
H  49.20900 42.20800 40.29400
H  54.87600 44.93600 42.06500
H  51.96800 50.67500 42.72200
H  45.55400 45.17800 40.58200
H  47.16400 43.09400 39.49900
H  47.11500 42.72700 42.22600
H  45.97200 42.11200 41.06200
H  45.64600 43.60800 42.03700
H  46.49800 44.70800 37.77500
H  46.09100 46.37500 38.05400
H  44.03700 45.95400 37.71500
H  43.92500 44.53400 38.82400
H  51.87100 40.23800 40.75600
H  52.27400 40.64700 39.12000
H  50.61800 40.98100 39.64300
H  56.02100 42.84600 41.76300
H  55.77600 43.95500 40.38000
H  56.61400 42.52300 40.01400
H  55.66400 47.65300 41.74300
H  53.96500 48.86500 43.96300
H  55.77700 47.66700 44.49400
H  56.60900 46.44600 43.45200
H  55.06500 46.08800 44.18600
H  54.10800 50.73600 42.00200
H  55.55000 50.05600 41.52700
H  55.35100 51.80900 43.74700
H  56.73700 51.02000 42.92000
H  55.90000 50.22400 44.29400
H  49.90500 52.49600 41.62800
H  49.83100 52.09000 43.29700
H  48.34400 52.29300 42.48000
H  46.13400 48.71300 39.46000
H  41.81000 47.73600 40.39000
H  42.35300 48.45200 41.85000
H  42.63200 46.69200 41.57700
Mg 26.70600 50.15100 26.42300
C  24.44900 51.35300 28.91600
C  28.74600 49.23900 29.03000
C  28.88500 49.10200 24.09300
C  24.81900 51.81100 23.96900
N  26.53500 50.23600 28.73600
C  25.41900 50.57000 29.49100
C  25.76700 50.42700 31.03200
C  27.21600 49.76100 31.03400
C  27.58000 49.79400 29.48500
C  28.25400 50.43200 31.99600
C  24.69200 49.59000 31.87800
C  24.21800 50.26700 33.17000
H  23.82000 49.38800 34.34900
N  28.52100 49.24000 26.59200
C  29.21000 48.94500 27.77100
C  30.47400 48.31200 27.45600
C  30.57200 48.25900 25.98000
C  29.25400 48.86200 25.47900
C  31.52400 47.98200 28.43900
C  31.63900 47.88100 25.07600
O  31.53200 48.19800 23.88900
C  32.87900 47.18400 25.68900
N  26.80200 50.38000 24.36000
C  27.78600 49.81200 23.63800
C  27.64400 50.05500 22.12100
C  26.26300 50.88500 22.07900
C  25.93400 50.97200 23.57300
C  28.80700 50.84600 21.51100
C  25.12400 50.11700 21.36600
C  24.27400 50.91000 20.28700
N  25.06300 51.38200 26.42000
C  24.36000 51.95200 25.33400
C  23.15700 52.63500 25.80900
C  23.10800 52.35700 27.22900
C  24.27600 51.64300 27.50000
C  22.00100 53.19200 24.97300
C  22.32100 52.48300 28.39300
O  21.19100 52.93000 28.50500
C  23.14300 51.88400 29.56400
C  23.47700 52.85100 30.65500
O  24.40800 53.66300 30.48900
O  22.55700 52.88900 31.69000
C  22.72200 53.98200 32.70200
H  29.38700 48.87200 29.83400
H  29.50300 48.75600 23.26200
H  24.21800 52.11400 23.10800
H  25.77900 51.45600 31.39000
H  27.13800 48.70700 31.30100
H  28.36400 49.75900 32.84700
H  27.85400 51.39200 32.32300
H  29.18800 50.55100 31.44600
H  25.21700 48.65800 32.08500
H  23.87200 49.51100 31.16400
H  23.44300 51.03200 33.11100
H  24.97000 50.92800 33.60100
H  32.27800 48.74300 28.23900
H  31.74700 46.93400 28.23900
H  31.26100 48.02400 29.49600
H  33.71700 47.13500 24.99400
H  32.67200 46.25300 26.21800
H  33.27000 47.84700 26.46000
H  27.60400 49.07900 21.63700
H  26.29900 51.86400 21.60200
H  28.49700 51.73700 20.96300
H  29.45900 50.29400 20.83400
H  29.38900 51.17400 22.37200
H  24.47700 49.70600 22.14000
H  25.65900 49.29100 20.89800
H  24.19600 50.12500 19.53500
H  24.65400 51.74700 19.70100
H  23.28300 51.19800 20.63800
H  21.18300 53.52300 25.61200
H  21.46500 52.50800 24.31500
H  22.33300 53.99700 24.31700
H  22.47000 51.11500 29.94400
H  21.89900 54.68200 32.55900
H  23.59600 54.60000 32.49900
H  22.66300 53.51800 33.68700

