158

Mg -1.20200 17.73100 27.47500
C  -1.93600 15.68200 30.18600
C  -2.11800 20.43300 29.46700
C  -1.03800 19.65000 24.79200
C  -1.00400 14.83000 25.39200
N  -1.86900 18.00200 29.52000
C  -2.02000 17.00000 30.44700
C  -2.26900 17.56400 31.93300
C  -2.55200 19.09700 31.53600
C  -2.20100 19.19400 30.07900
C  -3.86400 19.76100 32.14400
C  -1.11200 17.40700 33.02100
C  -1.54600 16.90800 34.34800
H  -0.50500 16.95500 35.46200
N  -1.45200 19.75600 27.23100
C  -1.76700 20.74100 28.16400
C  -1.71300 22.06300 27.56900
C  -1.30800 21.84500 26.23000
C  -1.30200 20.39500 26.01000
C  -2.17200 23.31600 28.20300
C  -1.06900 22.84200 25.11800
O  -0.72700 22.57300 23.95100
C  -1.11600 24.29700 25.42400
N  -0.80600 17.29000 25.46100
C  -0.90100 18.29100 24.53900
C  -0.51200 17.81600 23.16000
C  -0.32900 16.25700 23.39500
C  -0.70100 16.07400 24.81400
C  -1.56700 18.03600 22.04800
C  1.15000 15.85500 23.01500
C  2.17900 15.77000 24.16200
N  -1.48600 15.70000 27.67900
C  -1.39400 14.69000 26.75200
C  -1.62400 13.46500 27.50900
C  -1.87700 13.83400 28.82100
C  -1.77500 15.17800 28.90400
C  -1.69100 12.18500 26.84100
C  -2.21800 13.24700 30.12000
O  -2.31500 12.07200 30.49300
C  -2.19700 14.48700 31.08500
C  -1.13600 14.21800 32.07800
O  0.04800 14.51400 31.98800
O  -1.69500 13.54100 33.14400
C  -0.85900 13.21200 34.31700
H  -2.31100 21.28500 30.12300
H  -0.75700 20.15600 23.86600
H  -0.79800 13.93600 24.80000
H  -3.15300 17.03100 32.28100
H  -1.85100 19.77800 32.02100
H  -4.33200 19.16500 32.92700
H  -4.59400 19.93900 31.35400
H  -3.62800 20.66500 32.70600
H  -0.66000 18.32500 33.39500
H  -0.28900 16.77700 32.68300
H  -2.02600 15.93400 34.25700
H  -2.25800 17.66800 34.67100
H  -2.97000 23.78000 27.62300
H  -1.36100 24.04200 28.13800
H  -2.57600 23.15700 29.20200
H  -0.36400 24.56400 26.16700
H  -2.12200 24.58900 25.72600
H  -0.96500 24.86500 24.50600
H  0.45000 18.24400 22.88000
H  -0.98900 15.68200 22.74400
H  -1.04100 17.89300 21.10400
H  -2.09600 18.98600 21.96800
H  -2.27400 17.20800 22.09200
H  1.54900 16.57100 22.29600
H  1.01800 14.88000 22.54700
H  3.02500 16.35100 23.79400
H  2.44500 14.71300 24.18500
H  1.93600 16.30800 25.07800
H  -1.97100 11.47400 27.61800
H  -0.71400 11.91700 26.44200
H  -2.39600 12.18400 26.01000
H  -3.21900 14.31200 31.42000
H  0.15800 13.59600 34.24500
H  -0.82200 12.12900 34.43500
H  -1.26400 13.64300 35.23300
Mg 50.67300 45.30200 42.09900
C  47.75100 46.73000 40.64000
C  49.72300 42.32200 40.81900
C  53.78500 44.33400 42.43800
C  51.66000 48.74200 42.82000
N  48.97800 44.63100 40.76200
C  47.82400 45.29900 40.46000
C  46.81000 44.35400 39.75600
C  47.38800 42.89900 40.15300
C  48.76500 43.29800 40.72200
C  46.50500 42.05200 41.08700
C  46.73200 44.64900 38.20600
C  45.28000 44.88300 37.64200
H  44.86500 43.88600 36.53400
N  51.63000 43.47600 41.66500
C  51.08500 42.31900 41.14200
C  52.11400 41.32000 41.11400
C  53.30300 41.85500 41.55600
C  52.97900 43.28900 41.92100
C  51.78600 39.96800 40.61000
C  54.62300 41.04500 41.71000
O  54.71000 39.88800 41.34000
C  55.81600 41.66300 42.21500
N  52.43400 46.45500 42.47100
C  53.54400 45.69800 42.71200
C  54.82800 46.61900 43.10600
C  54.04200 48.00200 43.31000
C  52.62600 47.70600 42.87900
C  55.69100 46.07900 44.29300
C  54.76700 49.06500 42.41500
C  54.84700 50.64500 42.87100
N  49.83500 47.34200 41.93200
C  50.42400 48.55400 42.18400
C  49.56100 49.57900 41.76200
C  48.46100 48.88900 41.13300
C  48.66200 47.55900 41.25800
C  49.80500 51.08600 41.87000
C  47.21600 49.10100 40.41600
O  46.66500 50.14500 40.07900
C  46.62700 47.77000 40.15000
C  45.32000 47.60000 40.80100
O  45.07700 46.86100 41.74600
O  44.40400 48.36800 40.17900
C  43.10500 48.25900 40.87800
H  49.36400 41.33800 40.51100
H  54.84900 44.09900 42.36400
H  51.81800 49.76600 43.16500
H  45.79000 44.47800 40.12000
H  47.55300 42.20900 39.32600
H  45.48200 42.39900 40.94200
H  46.81400 42.15300 42.12700
H  46.42400 40.98200 40.89700
H  47.02100 43.73700 37.68300
H  47.27900 45.57300 38.01900
H  45.04400 45.90100 37.33400
H  44.50200 44.92400 38.40400
H  52.47100 39.65900 39.82100
H  50.81200 39.90400 40.12400
H  51.96500 39.23800 41.39900
H  55.68900 42.03900 43.23000
H  56.00900 42.49200 41.53500
H  56.72500 41.07200 42.09700
H  55.58800 46.60900 42.32400
H  54.13200 48.15200 44.38600
H  56.65200 45.68700 43.96000
H  55.13200 45.21500 44.65400
H  55.67600 46.78900 45.12000
H  54.25100 49.05400 41.45500
H  55.78800 48.76900 42.17400
H  54.60100 50.64000 43.93300
H  54.16400 51.25600 42.28000
H  55.82700 51.05400 42.62900
H  50.85300 51.38200 41.93300
H  49.37100 51.34300 42.83600
H  49.26200 51.50800 41.02400
H  46.49800 47.66700 39.07200
H  42.31000 48.70000 40.27600
H  43.11900 48.70900 41.87100
H  42.81400 47.22200 41.04800

