158

Mg 49.70200 45.44500 42.57600
C  46.21900 45.30700 41.37000
C  49.55300 42.06400 42.33500
C  52.83800 45.67700 42.83900
C  49.19600 48.82300 42.46700
N  48.01700 43.91000 41.89800
C  46.79100 44.05200 41.41600
C  46.06400 42.75400 41.15400
C  47.10400 41.71400 41.70500
C  48.26900 42.58900 42.00200
C  46.56000 40.98900 43.06300
C  45.59300 42.53100 39.70600
C  46.67300 42.78000 38.66600
H  46.12700 43.43400 37.35100
N  51.09100 43.98000 42.71300
C  50.83800 42.64600 42.50800
C  52.08600 41.99100 42.58300
C  53.16400 43.00200 42.74600
C  52.41400 44.29300 42.78800
C  52.13300 40.41100 42.67500
C  54.59300 42.80000 42.86200
O  55.03900 41.62000 42.97500
C  55.69300 43.95900 42.89300
N  50.92200 47.05400 42.48800
C  52.21200 46.93000 42.84400
C  52.84200 48.30300 42.92500
C  51.56800 49.25200 43.17000
C  50.48500 48.32600 42.63800
C  53.77600 48.44400 44.17700
C  51.66500 50.63500 42.38700
C  51.14100 51.78800 43.30100
N  48.07400 46.87800 42.07000
C  48.04300 48.19600 42.05800
C  46.75500 48.76000 41.61300
C  46.05900 47.56500 41.33900
C  46.85400 46.47500 41.74400
C  46.48600 50.17500 41.49300
C  44.71100 47.18800 40.96100
O  43.72700 47.84200 40.62100
C  44.71800 45.68600 41.02300
C  43.65300 45.11700 41.95200
O  42.49600 44.92300 41.68200
O  44.25500 44.96600 43.15100
C  43.42200 44.47600 44.27500
H  49.60200 41.00000 42.09500
H  53.88000 45.68500 43.16300
H  49.04300 49.90000 42.55600
H  45.17000 42.74000 41.77800
H  47.35100 40.90600 41.01600
H  45.48200 40.83500 43.09700
H  46.88700 41.58200 43.91700
H  46.97500 39.98100 43.06300
H  44.72700 43.17800 39.56900
H  45.26100 41.51100 39.51200
H  47.06800 41.81000 38.36600
H  47.54600 43.34100 39.00000
H  52.83900 40.20500 41.87000
H  51.18400 39.90500 42.49700
H  52.48700 40.22400 43.68900
H  55.59200 44.53900 41.97600
H  56.63200 43.41500 42.79100
H  55.69100 44.44400 43.86900
H  53.32500 48.51200 41.97000
H  51.33500 49.27600 44.23400
H  54.48000 47.62100 44.29700
H  53.27600 48.53000 45.14200
H  54.44700 49.26600 43.93000
H  51.00100 50.50300 41.53300
H  52.67500 50.82000 42.02200
H  50.13000 51.97400 42.94100
H  51.74100 52.68600 43.15600
H  51.09300 51.59400 44.37200
H  45.65600 50.20300 40.78700
H  47.32800 50.65300 40.99400
H  46.24900 50.64300 42.44900
H  44.44600 45.32600 40.03000
H  43.90400 43.54700 44.57900
H  42.38800 44.20900 44.05600
H  43.41900 45.02000 45.21900
Mg 1.05900 41.39600 25.17600
C  2.93200 41.90000 28.10300
C  -1.60500 40.46200 27.23700
C  -0.64300 40.57800 22.42800
C  4.09600 41.67300 23.28900
N  0.63500 41.32900 27.49200
C  1.61100 41.51400 28.39600
C  1.04600 41.30800 29.80700
C  -0.42200 40.77200 29.54900
C  -0.51100 40.86700 28.04200
C  -0.64200 39.22100 29.92200
C  1.04200 42.62900 30.65400
C  0.28200 42.71100 31.93100
H  0.07400 41.45400 32.76000
N  -0.82700 40.87600 24.87300
C  -1.77200 40.48200 25.86300
C  -3.02200 40.12300 25.15300
C  -2.75000 40.23700 23.76000
C  -1.34300 40.60400 23.58600
C  -4.34500 39.87600 25.91100
C  -3.79500 40.15400 22.60900
O  -3.43900 40.17400 21.42200
C  -5.25100 39.99400 22.80300
N  1.63200 41.06200 23.14600
C  0.74400 40.82500 22.16600
C  1.35500 40.87500 20.73500
C  2.82700 41.32800 21.03300
C  2.87500 41.44200 22.59400
C  1.33000 39.50500 19.99400
C  3.12500 42.69100 20.28800
C  3.06500 43.98500 21.18100
N  3.05200 41.79400 25.52900
C  4.17800 41.91800 24.66600
C  5.29100 42.20600 25.45900
C  4.91900 42.26000 26.78200
C  3.52100 41.96000 26.73600
C  6.63400 42.43900 24.93800
C  5.32200 42.43800 28.16200
O  6.43000 42.66300 28.59700
C  4.02700 42.19000 29.04200
C  4.29600 41.10500 30.03500
O  4.37600 39.88200 29.77500
O  4.75600 41.70600 31.16700
C  5.33800 40.66200 32.09800
H  -2.43400 40.04500 27.81400
H  -1.26200 40.50700 21.53100
H  5.04700 41.74900 22.75700
H  1.68100 40.61700 30.36100
H  -1.19100 41.36900 30.03900
H  0.24400 38.70600 30.29400
H  -1.04600 38.69100 29.06000
H  -1.39200 39.28800 30.71000
H  0.68600 43.41200 29.98500
H  2.06700 42.91600 30.89000
H  -0.65600 43.26200 31.86700
H  0.85700 43.26600 32.67200
H  -4.34900 39.94900 26.99900
H  -4.73600 38.90900 25.59500
H  -5.05500 40.62000 25.54900
H  -5.70600 40.85700 23.29100
H  -5.43900 39.06000 23.33300
H  -5.61100 39.98200 21.77500
H  0.83900 41.54900 20.05100
H  3.50200 40.54000 20.70000
H  2.27300 38.96900 20.10800
H  1.11900 39.68900 18.94100
H  0.55900 38.84800 20.39800
H  2.30300 42.98600 19.63600
H  4.02600 42.66200 19.67400
H  4.05000 44.15900 21.61300
H  2.35500 43.89300 22.00300
H  2.73300 44.80000 20.53800
H  6.52000 43.17600 24.14400
H  7.00200 41.52600 24.47100
H  7.25700 42.77500 25.76700
H  3.87600 43.11000 29.60700
H  5.95800 40.98300 32.93500
H  5.88400 39.92000 31.51500
H  4.43000 40.27800 32.56300

