158

Mg 41.50200 41.35900 25.88200
C  40.64500 43.84700 28.33900
C  42.32100 39.27900 28.57400
C  42.36400 39.14500 23.66800
C  40.83100 43.68700 23.43700
N  41.45700 41.53600 28.08600
C  40.99700 42.55800 28.85600
C  40.83600 42.27600 30.38900
C  41.64500 40.90000 30.45000
C  41.78100 40.50900 28.95800
C  43.05300 40.90000 31.13700
C  39.35000 42.08800 30.77500
C  38.95000 42.88100 32.01500
H  38.76500 42.20800 33.43400
N  42.20800 39.42400 26.07300
C  42.50400 38.73400 27.26000
C  42.88700 37.38300 26.86300
C  42.92300 37.35900 25.47300
C  42.52300 38.65200 25.05400
C  43.23500 36.39100 27.93300
C  43.38900 36.26100 24.51700
O  43.29600 36.32000 23.30700
C  44.08700 35.04300 25.01100
N  41.75900 41.48800 23.88100
C  42.05100 40.36800 23.11000
C  41.89400 40.60600 21.62700
C  41.04300 41.94200 21.62900
C  41.24900 42.44100 23.04900
C  43.25100 40.68000 20.87300
C  39.58500 41.67500 21.20500
C  38.78700 40.88500 22.27000
N  40.96900 43.37700 25.85900
C  40.73000 44.19000 24.77200
C  40.47400 45.53000 25.16500
C  40.41300 45.45200 26.58900
C  40.66700 44.10100 26.91100
C  40.28700 46.75700 24.31500
C  40.16300 46.20000 27.84800
O  39.79900 47.35100 28.01900
C  40.37400 45.12600 29.00000
C  41.41400 45.60200 29.91400
O  42.63800 45.37700 29.84400
O  40.82500 46.21100 30.98500
C  41.64700 46.63200 32.08400
H  42.29700 38.77000 29.54000
H  42.55300 38.40700 22.88600
H  40.47800 44.41200 22.70100
H  41.28900 43.07400 30.97700
H  41.15200 40.09200 30.99000
H  43.32400 41.90900 31.44800
H  43.84900 40.55900 30.47500
H  43.06100 40.23600 32.00100
H  39.02100 41.05800 30.91400
H  38.79500 42.30600 29.86300
H  37.99300 43.39000 31.90400
H  39.67200 43.67200 32.21800
H  42.99800 36.64500 28.96600
H  44.28800 36.14000 28.06700
H  42.80100 35.40100 27.79200
H  45.05700 35.36500 25.39100
H  44.31200 34.40200 24.15900
H  43.48900 34.40300 25.65900
H  41.29300 39.81000 21.18600
H  41.53100 42.75100 21.08500
H  43.51700 41.72800 20.73400
H  43.16800 40.05700 19.98200
H  44.06100 40.25700 21.46900
H  39.58000 41.21900 20.21500
H  39.04600 42.61600 21.09500
H  38.00600 41.53200 22.66900
H  39.33400 40.48900 23.12700
H  38.29000 40.06600 21.75000
H  40.81400 47.57100 24.81200
H  39.27400 47.15500 24.25400
H  40.77400 46.60400 23.35200
H  39.43300 45.07800 29.54900
H  41.93100 47.68400 32.09000
H  42.57500 46.07700 32.22200
H  41.15400 46.37900 33.02300
Mg 7.25200 53.96000 40.88400
C  7.16200 50.46400 40.52200
C  10.52200 54.00800 39.92800
C  7.00500 57.39800 40.51600
C  3.82600 53.97200 41.68000
N  8.66900 52.40700 40.22400
C  8.44200 51.08800 40.16800
C  9.71500 50.35500 39.85100
C  10.80800 51.42100 39.87000
C  10.01200 52.70500 40.07000
C  11.92000 51.29900 40.98600
C  9.62600 49.52200 38.57200
C  9.31900 50.26800 37.24800
H  8.13800 49.83400 36.39300
N  8.60700 55.48800 40.39400
C  9.94600 55.30600 39.99300
C  10.52800 56.53900 39.63600
C  9.48900 57.54300 39.65500
C  8.30200 56.80700 40.19800
C  11.97500 56.61300 39.17400
C  9.58900 59.03100 39.18700
O  10.53600 59.45600 38.67700
C  8.46100 59.96600 39.26500
N  5.46900 55.47300 40.75900
C  5.72600 56.83200 40.80500
C  4.53500 57.63500 41.27900
C  3.47000 56.46700 41.44900
C  4.32200 55.18300 41.34500
C  4.64300 58.68600 42.38400
C  2.27900 56.47500 40.44800
C  1.60500 57.83400 40.12400
N  5.78800 52.57700 41.17000
C  4.47500 52.74500 41.53200
C  3.84400 51.43300 41.67800
C  4.85700 50.50700 41.32200
C  6.04300 51.23000 40.95100
C  2.44100 51.16400 42.00700
C  5.13900 49.10200 41.14900
O  4.51700 48.07800 41.39000
C  6.56800 49.07800 40.44000
C  6.24800 48.51800 39.11300
O  5.76800 49.15500 38.21800
O  6.59900 47.14500 39.14700
C  5.97600 46.32300 38.17800
H  11.56500 53.84300 39.65000
H  7.00200 58.48900 40.57400
H  2.88600 53.98800 42.23400
H  9.86000 49.72100 40.72600
H  11.28900 51.29000 38.90100
H  11.57300 52.02800 41.71800
H  12.89100 51.47300 40.52100
H  11.95700 50.29200 41.40100
H  9.03700 48.61900 38.73100
H  10.62900 49.09900 38.52300
H  10.20900 50.19200 36.62300
H  9.24100 51.32300 37.50800
H  11.99900 56.53400 38.08700
H  12.51900 55.79700 39.65000
H  12.49400 57.54800 39.38300
H  7.51600 59.57500 38.88900
H  8.61100 60.91600 38.75100
H  8.36500 60.13700 40.33700
H  4.23900 58.17100 40.37700
H  3.06500 56.54800 42.45800
H  5.71100 58.74100 42.59200
H  4.10200 58.59400 43.32600
H  4.26600 59.63200 41.99600
H  1.41400 56.04400 40.95400
H  2.48200 55.91800 39.53300
H  2.04100 58.69200 40.63500
H  0.56700 57.71600 40.43600
H  1.56700 58.02700 39.05200
H  2.50600 50.63700 42.95900
H  1.96600 50.51500 41.27100
H  1.81400 52.03400 42.20300
H  7.10100 48.37100 41.07600
H  6.66100 46.22600 37.33600
H  5.06200 46.79200 37.81400
H  5.88300 45.38000 38.71700

