158

Mg 49.31700 34.55100 26.30900
C  47.30800 33.49500 28.83900
C  49.41200 37.76400 27.54600
C  51.24100 35.35300 23.69000
C  48.89100 31.23900 24.81700
N  48.43400 35.48700 27.94900
C  47.68800 34.85900 28.91500
C  47.37200 35.91700 29.98500
C  47.92800 37.23400 29.52500
C  48.58300 36.78200 28.21300
C  46.82500 38.33600 29.38300
C  47.91700 35.52900 31.44000
C  46.81200 35.43400 32.58400
H  47.04500 36.15300 33.91900
N  50.24900 36.34900 25.69000
C  50.22000 37.53500 26.41200
C  50.99500 38.46800 25.61700
C  51.50400 37.77700 24.44900
C  51.01600 36.42700 24.55900
C  51.24700 39.89400 26.02400
C  52.50200 38.29500 23.38400
O  53.07400 37.56900 22.60300
C  52.84700 39.77700 23.23500
N  49.80400 33.50600 24.39100
C  50.79800 34.06900 23.59600
C  51.06600 33.26700 22.34800
C  50.37800 31.89600 22.78400
C  49.55500 32.22700 24.06800
C  50.61700 33.90700 21.00000
C  51.29000 30.74300 22.98900
C  51.18700 29.62200 21.99300
N  48.26900 32.75900 26.66900
C  48.20800 31.50000 26.03000
C  47.30100 30.65700 26.74900
C  46.90300 31.36100 27.88900
C  47.54800 32.55900 27.83100
C  46.95900 29.19500 26.43100
C  46.08800 31.33400 29.08900
O  45.26300 30.39700 29.46800
C  46.42000 32.69000 29.86300
C  47.00100 32.16400 31.14600
O  48.15000 31.72900 31.35000
O  46.00900 32.18400 32.07300
C  46.20900 31.68700 33.44300
H  49.60300 38.74000 27.99600
H  51.77500 35.65700 22.78700
H  48.75400 30.28600 24.30400
H  46.29100 36.01700 30.08500
H  48.69500 37.52200 30.24400
H  46.29800 38.34200 30.33700
H  46.08800 38.05700 28.63000
H  47.22800 39.34100 29.25200
H  48.66200 36.21100 31.84800
H  48.37500 34.55500 31.26800
H  46.56900 34.37700 32.68800
H  45.89000 35.87900 32.21100
H  50.99300 40.10400 27.06300
H  50.83700 40.68600 25.39700
H  52.32300 40.01900 25.89900
H  53.40100 39.93800 22.31000
H  53.45000 39.97000 24.12300
H  51.95800 40.40600 23.18200
H  52.15000 33.20400 22.44200
H  49.63000 31.61100 22.04400
H  51.48600 34.43900 20.61300
H  49.83600 34.64700 21.16800
H  50.11300 33.20400 20.33700
H  51.23300 30.34000 24.00000
H  52.27500 31.20800 22.93700
H  52.14500 29.31900 21.56900
H  50.59300 29.88300 21.11800
H  50.81200 28.73500 22.50300
H  46.28500 29.14500 25.57600
H  46.38900 28.74600 27.24400
H  47.87400 28.65900 26.18300
H  45.57300 33.36800 29.96900
H  46.43000 32.47900 34.15900
H  47.05700 31.00500 33.49800
H  45.30100 31.20500 33.80700
Mg -2.78400 34.77500 27.02900
C  -4.72600 33.49100 29.70000
C  -1.25000 37.05500 29.10500
C  -1.50200 36.28300 24.34900
C  -4.48500 32.44800 24.98200
N  -3.04000 35.23600 29.12300
C  -3.82800 34.54400 30.04900
C  -3.40900 34.95400 31.41800
C  -2.34300 36.17100 31.20700
C  -2.14000 36.09600 29.70300
C  -2.92600 37.58400 31.62100
C  -2.80300 33.76300 32.23600
C  -3.51600 33.35300 33.57000
H  -2.80100 33.17900 34.93800
N  -1.62200 36.49300 26.79400
C  -0.99100 37.19400 27.75300
C  -0.10600 38.23600 27.17700
C  -0.18200 38.02600 25.76100
C  -1.13800 36.92600 25.55900
C  0.51900 39.32600 27.96400
C  0.47700 38.74500 24.63400
O  0.37800 38.41900 23.49300
C  1.32800 39.92200 25.00300
N  -3.15600 34.56200 25.00000
C  -2.39200 35.21700 24.09900
C  -2.53500 34.71100 22.66400
C  -3.29900 33.38700 22.89800
C  -3.70800 33.47500 24.38300
C  -3.18500 35.70900 21.71400
C  -2.40800 32.12300 22.55300
C  -3.16300 31.07400 21.66800
N  -4.32800 33.19900 27.25600
C  -4.88500 32.36800 26.31000
C  -5.77400 31.44900 27.00700
C  -5.77100 31.84800 28.38900
C  -4.82000 32.93200 28.42700
C  -6.52000 30.25900 26.50300
C  -6.29600 31.55100 29.62900
O  -6.98200 30.59900 29.94200
C  -5.73800 32.65600 30.56300
C  -6.82300 33.39100 31.21000
O  -7.23700 34.44500 30.74000
O  -7.26600 32.84300 32.38300
C  -8.40900 33.45000 33.07000
H  -0.67300 37.68000 29.79000
H  -0.93300 36.46500 23.43500
H  -4.90700 31.72100 24.28500
H  -4.27000 35.33500 31.96700
H  -1.45700 35.99300 31.81600
H  -3.98500 37.46200 31.84700
H  -2.93600 38.23000 30.74300
H  -2.31500 38.05700 32.39000
H  -1.78300 34.08700 32.44200
H  -2.80000 32.84200 31.65300
H  -3.81600 32.32700 33.35800
H  -4.30300 34.09600 33.70400
H  -0.12600 40.20000 27.88000
H  1.57400 39.48500 27.74000
H  0.50500 39.05600 29.02000
H  0.78300 40.76800 25.42100
H  1.65800 40.37700 24.06900
H  2.17600 39.62300 25.61900
H  -1.52200 34.49600 22.32400
H  -4.24100 33.32300 22.35200
H  -2.58500 35.84200 20.81400
H  -3.30900 36.70800 22.13200
H  -4.21200 35.37100 21.57500
H  -2.18000 31.54400 23.44800
H  -1.52800 32.46700 22.00800
H  -3.20100 30.12100 22.19600
H  -2.67600 30.87500 20.71400
H  -4.16600 31.38500 21.37300
H  -6.43700 29.45200 27.23100
H  -5.91600 29.86600 25.68500
H  -7.54000 30.38700 26.13900
H  -5.29700 32.11400 31.40000
H  -8.05400 34.35800 33.55700
H  -8.79700 32.78400 33.84000
H  -9.31200 33.56600 32.47000

