158

Mg 17.64600 -1.67900 28.19100
C  16.69800 0.39400 31.00000
C  19.07300 -3.82800 30.42600
C  18.92000 -3.30700 25.51100
C  16.33500 0.77800 26.02900
N  17.97500 -1.60500 30.56300
C  17.51300 -0.70300 31.45000
C  17.78300 -1.13100 32.85300
C  18.68700 -2.44600 32.62600
C  18.56800 -2.69500 31.11200
C  20.11900 -2.36400 33.15700
C  16.44500 -1.44800 33.69300
C  16.41300 -1.09100 35.21600
H  17.70600 -0.54100 35.87600
N  18.76900 -3.37600 28.08200
C  19.25000 -4.16700 29.12900
C  19.88800 -5.37800 28.47100
C  19.80900 -5.21900 27.02800
C  19.16400 -3.93500 26.83400
C  20.36100 -6.53200 29.32400
C  20.21200 -6.15400 25.94500
O  19.89200 -5.93400 24.80400
C  20.97700 -7.49700 26.29600
N  17.64500 -1.31300 26.10000
C  18.28200 -2.11400 25.23400
C  18.15200 -1.57700 23.84000
C  17.19000 -0.34200 23.93200
C  17.01900 -0.28800 25.42900
C  19.49300 -1.24400 23.12600
C  15.91000 -0.51600 23.06500
C  15.35000 0.73700 22.41300
N  16.63100 0.08700 28.38200
C  16.15500 0.98500 27.44600
C  15.47100 2.09900 28.12400
C  15.65800 1.91900 29.49100
C  16.31300 0.61900 29.57800
C  14.80400 3.16900 27.38500
C  15.36300 2.50200 30.82400
O  14.73100 3.49200 31.05600
C  15.95100 1.51700 31.82200
C  16.89600 2.36900 32.60000
O  18.01400 2.78500 32.25200
O  16.32800 2.70900 33.82800
C  17.20200 3.44500 34.67500
H  19.57800 -4.57900 31.03700
H  19.38600 -3.80000 24.65500
H  15.92100 1.54800 25.37500
H  18.38900 -0.35500 33.32000
H  18.31900 -3.27200 33.23500
H  20.12700 -1.48800 33.80500
H  20.74300 -2.13000 32.29400
H  20.52300 -3.25300 33.64100
H  16.24900 -2.50900 33.53700
H  15.60200 -0.89000 33.28700
H  16.29400 -1.99800 35.80900
H  15.65400 -0.38200 35.54800
H  19.53400 -7.24000 29.37300
H  20.49700 -6.28100 30.37600
H  21.36300 -6.83800 29.02300
H  20.47500 -8.16600 26.99500
H  21.86400 -7.10700 26.79600
H  21.22900 -8.02200 25.37500
H  17.82900 -2.48400 23.32800
H  17.63400 0.60100 23.61600
H  19.61700 -1.90400 22.26700
H  20.28100 -1.45400 23.84900
H  19.55100 -0.27100 22.63800
H  15.15600 -0.95300 23.72100
H  16.07100 -1.20700 22.23800
H  14.26100 0.77500 22.44100
H  15.70500 0.67900 21.38400
H  15.69200 1.59000 22.99800
H  14.13600 3.72300 28.04400
H  14.23100 2.86400 26.50900
H  15.55300 3.92100 27.13800
H  15.15200 1.06800 32.41100
H  18.14800 2.90400 34.69500
H  16.80800 3.33600 35.68500
H  17.28000 4.49400 34.38800
Mg 35.86800 0.71400 29.56400
C  33.73200 1.81400 32.07200
C  38.51500 0.41800 31.88000
C  37.86400 -0.04800 27.03000
C  33.27400 1.11200 27.29700
N  36.05400 1.30100 31.72500
C  35.09300 1.56600 32.53200
C  35.58700 1.50000 33.97000
C  37.09500 1.35600 33.89500
C  37.26700 0.88500 32.39200
C  37.92300 2.70000 34.22200
C  34.80300 0.46400 34.81600
C  34.24100 0.75800 36.22400
H  35.00800 1.89200 36.97800
N  37.89100 0.21600 29.49300
C  38.78400 0.15600 30.54300
C  40.05600 -0.34600 30.01300
C  39.92900 -0.54200 28.64300
C  38.52000 -0.07900 28.31000
C  41.24000 -0.64900 30.83500
C  40.88600 -1.18300 27.63300
O  40.60900 -1.10200 26.45300
C  42.03300 -1.92100 28.05400
N  35.62300 0.43900 27.49700
C  36.61100 0.23300 26.59400
C  36.12800 0.34900 25.10100
C  34.64300 0.44800 25.30500
C  34.47200 0.60900 26.77300
C  36.85600 1.44500 24.27100
C  33.87000 -0.72800 24.63100
C  33.38700 -1.92200 25.52000
N  33.89500 1.38900 29.55800
C  32.98300 1.46200 28.55600
C  31.69600 1.79500 29.13100
C  31.93400 2.05000 30.48800
C  33.33300 1.72600 30.74200
C  30.38600 1.91800 28.38500
C  31.39700 2.51300 31.75200
O  30.28200 2.86800 32.11300
C  32.53500 2.27600 32.82600
C  32.72700 3.56000 33.53700
O  33.41700 4.52600 33.24100
O  31.80100 3.60800 34.59200
C  31.66300 4.84200 35.29700
H  39.19200 0.27900 32.72600
H  38.54700 -0.32700 26.22500
H  32.46900 1.14000 26.56100
H  35.41900 2.45700 34.46300
H  37.44500 0.52400 34.50500
H  38.33300 2.62100 35.22900
H  37.30000 3.58300 34.07700
H  38.79100 2.80600 33.57200
H  35.42600 -0.41700 34.97100
H  33.95200 0.08500 34.25000
H  34.28800 -0.09600 36.89900
H  33.25800 1.20900 36.08500
H  42.19600 -0.35500 30.40200
H  41.19800 -1.68400 31.17300
H  41.21700 0.01000 31.70300
H  42.35100 -2.48600 27.17800
H  41.62500 -2.60300 28.79900
H  42.80800 -1.21600 28.35600
H  36.38800 -0.60600 24.64500
H  34.25100 1.39200 24.92600
H  37.55700 1.98100 24.91000
H  36.20000 2.18100 23.80600
H  37.44800 0.92900 23.51500
H  34.33400 -1.08400 23.71100
H  32.95200 -0.25200 24.28800
H  33.67900 -2.87400 25.07800
H  32.31900 -1.84700 25.72700
H  33.81400 -1.83600 26.51900
H  29.54700 1.44700 28.89700
H  30.40400 1.43500 27.40800
H  29.95700 2.91700 28.30300
H  32.22300 1.52400 33.55200
H  32.57900 5.02000 35.85900
H  31.01100 4.77000 36.16700
H  31.40800 5.58700 34.54300

