158

Mg 25.43000 1.09200 29.27300
C  27.37300 0.60700 32.23000
C  22.68200 1.71000 31.13900
C  23.78400 1.31700 26.44100
C  28.41300 0.14300 27.43400
N  25.03500 0.89100 31.46300
C  25.99100 0.91000 32.51000
C  25.38100 1.36000 33.82800
C  23.84300 1.51100 33.44300
C  23.84400 1.48500 31.94000
C  22.98000 0.33000 34.14700
C  25.94900 2.73400 34.45000
C  26.44900 2.82800 35.85400
H  25.98700 3.94600 36.77300
N  23.45300 1.29800 28.91700
C  22.46900 1.58100 29.79100
C  21.22700 1.70200 29.06900
C  21.56700 1.59500 27.66200
C  23.03600 1.44100 27.62400
C  19.92800 1.81500 29.70500
C  20.62500 1.65900 26.39700
O  21.01000 1.59200 25.25800
C  19.20400 1.83600 26.65300
N  26.11100 0.80300 27.29600
C  25.19800 1.03100 26.27400
C  25.83600 0.98600 24.86900
C  27.35700 0.61700 25.20100
C  27.33100 0.57500 26.72800
C  25.19300 0.00200 23.80800
C  28.38900 1.65100 24.68900
C  28.46900 2.14000 23.24300
N  27.45400 0.54800 29.71500
C  28.56100 0.24100 28.85600
C  29.71200 -0.07600 29.72500
C  29.32100 0.18500 31.07500
C  27.94600 0.48800 30.97100
C  30.95600 -0.72400 29.18600
C  29.73700 0.17400 32.42300
O  30.83300 -0.20000 32.87600
C  28.49100 0.54000 33.24700
C  28.37900 -0.46300 34.28600
O  27.67100 -1.46600 34.27300
O  29.22600 -0.17400 35.31300
C  29.32700 -1.00400 36.46700
H  21.91000 2.05800 31.82800
H  23.24600 1.44600 25.50000
H  29.32800 0.12800 26.83900
H  25.71700 0.56800 34.49600
H  23.43000 2.43800 33.84000
H  22.89600 0.54800 35.21200
H  23.40100 -0.65000 33.92600
H  22.01500 0.36000 33.64000
H  25.10900 3.42500 34.37300
H  26.75900 3.17300 33.86700
H  27.45500 3.22600 35.71800
H  26.29900 1.86300 36.33900
H  19.99300 1.57100 30.76500
H  19.28200 1.10800 29.18400
H  19.48900 2.80200 29.56100
H  19.09500 2.80100 27.14800
H  18.82400 1.00400 27.24600
H  18.74000 1.73200 25.67200
H  25.79300 1.99900 24.46900
H  27.59500 -0.35200 24.76200
H  24.64100 -0.86600 24.17100
H  26.00500 -0.36100 23.17800
H  24.47300 0.55400 23.20500
H  29.39300 1.25900 24.84600
H  28.26600 2.54200 25.30400
H  29.43100 2.17800 22.73200
H  28.08600 3.14000 23.04300
H  27.93100 1.40600 22.64300
H  31.53900 -0.09600 28.51200
H  30.63300 -1.56000 28.56600
H  31.61400 -1.12900 29.95500
H  28.72800 1.50100 33.70400
H  28.38300 -0.82400 36.98100
H  30.13500 -0.66900 37.11800
H  29.44200 -2.08300 36.36700
Mg 34.99700 2.10700 29.98200
C  32.99200 3.26400 32.42000
C  37.72200 2.29200 32.24900
C  37.08900 1.31300 27.40200
C  32.47300 2.61600 27.66800
N  35.34900 2.72600 32.07400
C  34.31600 3.04900 32.86400
C  34.78900 3.25400 34.27100
C  36.37400 3.47300 34.18100
C  36.52800 2.82500 32.76800
C  36.91600 4.92700 34.11500
C  34.32200 1.97400 34.94900
C  34.53800 1.93900 36.53000
H  35.28400 3.11200 37.16900
N  37.04500 1.67700 29.92100
C  37.94100 1.78800 30.93300
C  39.28900 1.50700 30.44400
C  39.14400 1.21800 29.02400
C  37.68700 1.39300 28.72800
C  40.52800 1.51900 31.23500
C  40.26200 0.90800 27.92600
O  40.03700 0.79100 26.72300
C  41.77400 0.52200 28.30300
N  34.70700 1.73200 27.89100
C  35.71000 1.40500 27.03700
C  35.24600 1.38700 25.54000
C  33.67700 1.66100 25.68000
C  33.58900 1.95300 27.19900
C  35.94800 2.48900 24.63700
C  32.84700 0.44300 25.25900
C  32.36000 0.29700 23.75800
N  33.06700 2.86500 29.99400
C  32.14700 3.05400 28.95800
C  30.85000 3.39700 29.53200
C  31.15900 3.56300 30.97600
C  32.50300 3.20100 31.16400
C  29.57900 3.59400 28.83800
C  30.62000 3.89200 32.26900
O  29.50400 4.28200 32.66200
C  31.80800 3.75900 33.26300
C  32.04000 5.01800 34.01800
O  32.57600 6.06300 33.61500
O  31.51000 4.84800 35.26800
C  31.61000 6.09000 36.11000
H  38.52900 2.48100 32.96100
H  37.80000 1.34800 26.57400
H  31.62300 2.82900 27.01700
H  34.39500 4.19600 34.65300
H  36.73900 2.94600 35.06300
H  37.57400 5.17200 34.94900
H  36.05100 5.57100 34.27700
H  37.36200 5.12400 33.14000
H  34.97400 1.16100 34.63000
H  33.30800 1.65500 34.70900
H  34.88000 0.92500 36.74000
H  33.62900 2.04500 37.12100
H  40.41200 0.61700 31.83500
H  40.55700 2.39900 31.87800
H  41.37600 1.53200 30.54900
H  42.32900 1.42800 28.54400
H  42.16700 0.05300 27.40200
H  41.85900 -0.19900 29.11700
H  35.53900 0.41000 25.15600
H  33.43300 2.50700 25.03700
H  36.63900 3.12700 25.18800
H  35.27300 3.13100 24.07100
H  36.55200 1.94200 23.91300
H  31.89000 0.37800 25.77700
H  33.40000 -0.48100 25.42600
H  32.61400 -0.70300 23.40800
H  32.87800 1.04200 23.15400
H  31.27800 0.41100 23.70400
H  29.51100 3.08400 27.87700
H  29.51700 4.65000 28.57700
H  28.78500 3.35500 29.54500
H  31.55600 3.01300 34.01600
H  30.78800 6.00600 36.82000
H  31.31000 6.96900 35.54000
H  32.58900 6.29400 36.54400

