158

Mg 34.71400 2.97600 29.65900
C  32.63900 3.97700 32.17900
C  37.43300 2.98700 31.91700
C  36.95300 2.38900 27.13300
C  32.19900 3.33700 27.33300
N  34.98800 3.27800 31.85400
C  33.98100 3.79500 32.63500
C  34.38900 3.85500 34.13300
C  35.94400 3.77300 33.92500
C  36.20700 3.32600 32.49100
C  36.69800 5.08400 34.28900
C  33.78900 2.75600 35.08600
C  33.57700 3.12400 36.58000
H  34.66300 4.05500 37.12600
N  36.81600 2.49400 29.55900
C  37.73600 2.62200 30.55700
C  39.00200 2.30200 30.03800
C  38.94800 2.09400 28.71000
C  37.51300 2.40400 28.36100
C  40.25700 2.43100 30.88600
C  39.95700 1.56900 27.70200
O  39.75800 1.49900 26.45700
C  41.28900 1.04600 28.10600
N  34.64100 2.87600 27.53200
C  35.67300 2.50900 26.72000
C  35.31200 2.51500 25.32000
C  33.71600 2.40200 25.45900
C  33.44500 2.82900 26.91000
C  35.96000 3.76200 24.53400
C  33.14100 0.96400 25.16000
C  32.09300 0.92600 24.06600
N  32.83500 3.53900 29.68800
C  31.87800 3.62600 28.65700
C  30.62100 4.01800 29.22900
C  30.84300 4.20900 30.56400
C  32.25500 3.87200 30.79600
C  29.35300 4.21200 28.47000
C  30.26100 4.52500 31.86100
O  29.10200 4.69600 32.18600
C  31.36400 4.44400 32.90000
C  31.50000 5.54000 33.75800
O  32.01200 6.58100 33.40300
O  31.29500 5.29300 35.05500
C  31.54500 6.31600 36.05600
H  38.27300 2.92300 32.61200
H  37.71400 2.32500 26.35200
H  31.40100 3.47400 26.59900
H  34.23300 4.88700 34.44800
H  36.37800 2.89500 34.40200
H  36.05900 5.73800 34.88200
H  36.93900 5.59200 33.35600
H  37.63500 4.83700 34.78700
H  34.45600 1.89800 35.16300
H  32.80800 2.42000 34.75000
H  33.71100 2.21500 37.16600
H  32.56900 3.51100 36.72700
H  40.04200 2.80900 31.88500
H  40.86900 3.13300 30.31900
H  40.62200 1.40400 30.89200
H  41.19500 0.14200 28.70700
H  41.75900 1.80000 28.73800
H  41.77300 0.91400 27.13800
H  35.83100 1.66500 24.87700
H  33.23900 3.08600 24.75600
H  35.35700 4.42900 23.91800
H  36.75700 3.42200 23.87200
H  36.34600 4.46700 25.27000
H  32.59700 0.68200 26.06200
H  33.94300 0.25100 24.97100
H  32.40100 0.16600 23.34800
H  31.78500 1.82800 23.53700
H  31.23900 0.53800 24.62300
H  29.60700 4.87200 27.64100
H  28.58700 4.68400 29.08500
H  29.02400 3.20500 28.21600
H  31.02000 3.59100 33.48400
H  31.07600 5.91800 36.95600
H  30.98000 7.23800 35.92100
H  32.58400 6.64500 36.09300
Mg 54.42500 25.25900 44.93800
C  51.67500 27.49600 44.37200
C  52.20000 22.72600 43.96700
C  57.02600 23.21900 44.69800
C  56.47000 27.91900 45.47600
N  52.15800 25.14700 44.28000
C  51.25000 26.19400 44.13900
C  49.87000 25.75100 43.57800
C  49.94200 24.23700 44.01300
C  51.52300 24.00300 44.00500
C  49.27200 23.83100 45.33400
C  49.67600 25.87800 42.07800
C  48.21700 25.83300 41.56500
H  47.99100 25.49700 40.07400
N  54.58400 23.21100 44.48600
C  53.54600 22.37300 44.07100
C  54.08100 20.99800 43.94200
C  55.46100 21.13600 44.31500
C  55.78700 22.57200 44.54200
C  53.16100 19.83000 43.71500
C  56.33900 19.86700 44.57800
O  56.01400 18.68300 44.33900
C  57.93100 19.97500 44.83600
N  56.51400 25.65800 44.84600
C  57.33600 24.62100 44.94200
C  58.78100 25.13200 44.97300
C  58.58100 26.57400 45.47200
C  57.14500 26.77500 45.24000
C  59.79200 24.26100 45.81100
C  59.49100 27.53900 44.65700
C  59.94000 28.75500 45.48400
N  54.16700 27.30400 45.07900
C  55.08900 28.21800 45.25500
C  54.48100 29.55400 45.27400
C  53.14700 29.33000 44.88200
C  52.96500 27.91400 44.79900
C  55.08700 30.90000 45.74200
C  51.83300 29.93600 44.62300
O  51.48800 31.12800 44.65500
C  50.84600 28.82800 44.18700
C  50.43600 29.14100 42.75300
O  51.20600 29.22000 41.79800
O  49.12100 29.32800 42.66200
C  48.74300 29.60300 41.21600
H  51.63700 21.79900 43.83900
H  57.83700 22.51300 44.89000
H  57.04100 28.82000 45.70500
H  49.05100 25.97900 44.26000
H  49.45600 23.68700 43.20700
H  48.29300 23.38100 45.17000
H  49.29700 24.72700 45.95300
H  49.90100 23.19600 45.95700
H  50.25300 25.12300 41.54600
H  50.09300 26.86100 41.85900
H  47.77700 26.81700 41.72700
H  47.71900 25.01500 42.08700
H  52.49000 19.81700 44.57400
H  53.67900 18.87600 43.81100
H  52.55500 19.92500 42.81400
H  58.40500 19.02900 44.57300
H  58.02900 20.37000 45.84700
H  58.33900 20.74600 44.18200
H  59.10200 25.08600 43.93200
H  58.84000 26.70500 46.52300
H  60.34300 23.63100 45.11200
H  59.34000 23.59700 46.54700
H  60.51800 24.84800 46.37200
H  58.85100 27.84600 43.82900
H  60.41300 27.05300 44.34000
H  59.72200 29.66400 44.92300
H  60.97900 28.73300 45.81300
H  59.35700 28.67100 46.40100
H  55.96400 31.10500 45.12800
H  55.23000 30.75400 46.81300
H  54.30500 31.62200 45.50600
H  49.95700 28.96100 44.80400
H  47.66700 29.43700 41.15700
H  49.12500 28.93000 40.44900
H  48.98200 30.64200 40.98900

