158

Mg 25.23600 1.33900 29.96700
C  27.62700 1.37900 32.59600
C  22.73500 1.62700 32.30900
C  23.08800 1.30100 27.41200
C  27.87800 0.63000 27.83500
N  25.18300 1.60000 32.15500
C  26.30000 1.53500 33.10800
C  25.76600 1.90200 34.53300
C  24.20800 2.04700 34.39300
C  23.98500 1.68900 32.85300
C  23.36500 1.06700 35.34400
C  26.42600 3.20900 35.07000
C  27.41900 3.04100 36.29400
H  27.16000 4.03000 37.38900
N  23.14900 1.38100 29.85300
C  22.32600 1.43500 30.93300
C  20.94400 1.49000 30.39200
C  21.04400 1.44700 28.96200
C  22.46700 1.34700 28.68700
C  19.65700 1.58200 31.20800
C  19.90800 1.28800 27.98000
O  20.04600 1.12100 26.78800
C  18.53100 1.46900 28.50300
N  25.41900 0.86900 27.97900
C  24.41700 1.03700 27.06400
C  24.94400 1.05700 25.65000
C  26.44700 0.87600 25.75600
C  26.61600 0.76900 27.25900
C  24.26700 -0.08700 24.76700
C  27.29600 1.91600 24.98600
C  27.42900 3.33200 25.74100
N  27.31900 0.94000 30.14000
C  28.21400 0.62300 29.19500
C  29.48200 0.36600 29.78200
C  29.35100 0.70800 31.13000
C  27.97200 1.08800 31.28700
C  30.74900 0.18300 28.95800
C  30.02900 0.79000 32.38700
O  31.19400 0.58400 32.70100
C  28.94800 1.23600 33.38800
C  28.89000 0.16600 34.44500
O  28.20000 -0.78600 34.39000
O  29.67900 0.56200 35.51100
C  29.60600 -0.26500 36.73800
H  21.93400 1.70100 33.04700
H  22.38100 1.46700 26.59700
H  28.72300 0.57300 27.14600
H  26.12300 1.13400 35.21900
H  23.78000 3.04500 34.48200
H  22.67400 1.55200 36.03400
H  24.04300 0.59800 36.05700
H  22.87000 0.31700 34.72700
H  25.71000 4.01100 35.24500
H  27.05500 3.65000 34.29700
H  28.43100 3.21900 35.92900
H  27.44400 2.04400 36.73200
H  20.00700 1.64300 32.23900
H  19.02900 0.69200 31.17100
H  19.03500 2.45800 31.02600
H  18.22600 0.68800 29.19900
H  17.78800 1.32300 27.71800
H  18.55300 2.49000 28.88500
H  24.70000 2.05000 25.27300
H  26.76000 -0.09700 25.37700
H  23.38700 -0.42600 25.31500
H  25.02500 -0.80600 24.46000
H  24.01600 0.39600 23.82300
H  26.75500 2.01300 24.04500
H  28.27700 1.51900 24.72300
H  28.46800 3.66000 25.76100
H  27.10100 3.25300 26.77800
H  26.77800 3.94500 25.11700
H  31.68300 0.38500 29.48100
H  30.56600 0.87000 28.13200
H  30.88900 -0.84300 28.61900
H  29.18000 2.17200 33.89800
H  29.67100 -1.33700 36.55400
H  28.58100 -0.10700 37.07500
H  30.28600 0.09400 37.51000
Mg -3.99300 25.22500 24.90000
C  -3.07900 26.45600 28.06300
C  -6.02500 22.94200 26.39900
C  -4.44100 23.89400 21.95200
C  -1.75000 27.52200 23.55600
N  -4.50600 24.76000 27.03400
C  -4.02900 25.42400 28.16200
C  -4.76700 24.93100 29.37000
C  -5.50700 23.62200 28.87300
C  -5.43200 23.82600 27.34300
C  -4.96300 22.31300 29.46700
C  -5.54700 25.96300 30.22500
C  -5.38800 26.01400 31.74400
H  -4.89000 24.73400 32.45500
N  -5.14600 23.67300 24.23700
C  -5.88600 22.84800 24.97500
C  -6.56100 21.85100 24.17500
C  -5.98200 21.97500 22.86900
C  -5.18900 23.27600 22.96300
C  -7.47500 20.74700 24.64700
C  -6.22200 21.18800 21.55600
O  -5.72400 21.46400 20.46000
C  -7.08600 19.95000 21.52200
N  -3.27900 25.71200 23.03700
C  -3.57600 24.99900 21.96400
C  -2.68900 25.45600 20.82000
C  -2.28300 26.87800 21.15000
C  -2.42900 26.74600 22.65000
C  -1.48400 24.58500 20.66800
C  -3.04900 27.98600 20.48400
C  -2.22100 29.02500 19.76100
N  -2.63300 26.69400 25.56300
C  -1.81900 27.54800 24.93500
C  -1.05600 28.29000 25.88300
C  -1.59000 27.99000 27.14600
C  -2.59100 27.02600 26.85700
C  0.09300 29.18600 25.60600
C  -1.57600 28.28100 28.53300
O  -0.81700 29.07700 29.09200
C  -2.72300 27.36800 29.19800
C  -1.99400 26.71300 30.27900
O  -1.42900 25.63700 30.18400
O  -1.99900 27.42600 31.43800
C  -1.14000 26.98500 32.50500
H  -6.67300 22.22500 26.90600
H  -4.43000 23.30100 21.03600
H  -1.19600 28.33300 23.07800
H  -3.86900 24.59900 29.89100
H  -6.55700 23.61800 29.16800
H  -4.35700 22.46300 30.36000
H  -4.36600 21.75700 28.74500
H  -5.67600 21.56300 29.81000
H  -6.62400 25.85100 30.09500
H  -5.35700 26.99000 29.91300
H  -6.32800 26.31600 32.20500
H  -4.71400 26.83900 31.97400
H  -7.07800 19.75500 24.43200
H  -8.34800 20.97300 24.03500
H  -7.78100 20.73200 25.69400
H  -8.08300 20.36200 21.67300
H  -6.89800 19.18100 22.27100
H  -7.01500 19.55000 20.51000
H  -3.28100 25.31300 19.91600
H  -1.24100 27.03700 20.87000
H  -1.74600 23.71400 20.06700
H  -1.07000 24.40500 21.66000
H  -0.69200 24.90900 19.99300
H  -3.74000 28.50300 21.15100
H  -3.69500 27.59000 19.70000
H  -2.66500 28.97400 18.76700
H  -1.20500 28.63400 19.69900
H  -2.35100 29.98700 20.25700
H  -0.37600 30.01600 25.07800
H  0.82800 28.71100 24.95700
H  0.59300 29.47600 26.53000
H  -3.47100 28.02200 29.64700
H  -1.28600 27.84200 33.16100
H  -0.08900 26.98800 32.21500
H  -1.49000 26.09200 33.02300

