158

Mg 0.59000 6.94200 25.93400
C  1.56400 9.16100 28.53300
C  0.74300 4.38200 28.29500
C  -0.25200 4.85300 23.54500
C  1.12600 9.53700 23.68700
N  1.04600 6.84400 28.21700
C  1.32900 7.85900 29.04500
C  1.35800 7.39600 30.50300
C  1.39600 5.86200 30.30900
C  1.06400 5.65900 28.86400
C  2.79300 5.42200 30.66200
C  0.07700 7.83400 31.32200
C  0.34700 8.08400 32.84800
H  1.62500 7.62000 33.56600
N  0.23000 4.98200 25.96600
C  0.40100 4.07700 26.98400
C  0.06600 2.73700 26.52500
C  -0.16700 2.81800 25.08100
C  -0.14200 4.27900 24.80000
C  0.05500 1.65900 27.51800
C  -0.47800 1.76700 24.13500
O  -0.78400 2.00800 22.95700
C  -0.26200 0.32100 24.50500
N  0.65200 7.09200 23.84000
C  0.14500 6.10900 23.07400
C  -0.19900 6.66600 21.67200
C  0.57300 8.01700 21.61200
C  0.71200 8.27900 23.17500
C  0.12900 5.77800 20.36600
C  -0.24300 9.25300 20.91300
C  0.51800 10.12600 19.84800
N  1.21200 9.00900 25.99100
C  1.37100 9.94700 24.97700
C  1.71100 11.27500 25.55400
C  1.84500 10.97400 26.89400
C  1.51000 9.64700 27.14700
C  2.02700 12.50100 24.84200
C  2.15800 11.52400 28.17400
O  2.59100 12.64000 28.38300
C  1.96500 10.44200 29.31400
C  3.23900 10.40800 30.18400
O  4.27300 9.79900 29.84000
O  3.15200 11.19900 31.30000
C  4.31800 11.28100 32.12800
H  0.78200 3.51100 28.95300
H  -0.54800 4.25800 22.67900
H  1.46900 10.25800 22.94200
H  2.15300 7.86900 31.08000
H  0.70900 5.40100 31.01900
H  3.53900 5.36000 29.87000
H  2.71800 4.43900 31.12700
H  3.18700 6.03400 31.47400
H  -0.78400 7.16600 31.29300
H  -0.16600 8.85100 31.01300
H  -0.42800 7.50700 33.35200
H  0.15000 9.13800 33.04300
H  -0.50600 0.79900 27.15000
H  -0.40200 2.04500 28.42900
H  1.02000 1.36700 27.93100
H  0.65300 0.34200 25.09800
H  -0.02500 -0.23600 23.59800
H  -1.18800 -0.01200 24.97100
H  -1.25500 6.93600 21.66700
H  1.57600 7.96800 21.18700
H  0.42400 6.46500 19.57300
H  -0.78700 5.31500 19.99700
H  0.96500 5.09100 20.49200
H  -0.51500 9.95700 21.69900
H  -1.17900 8.84500 20.53200
H  0.41500 11.09500 20.33700
H  0.06900 10.21700 18.85900
H  1.58500 9.93600 19.73900
H  2.90100 12.37700 24.20200
H  2.44300 13.08900 25.66100
H  1.15600 12.86200 24.29600
H  1.15600 10.77200 29.96600
H  5.28000 11.10800 31.64600
H  4.35300 10.52600 32.91300
H  4.40800 12.27400 32.56900
Mg 16.53600 -2.69000 28.20200
C  15.47300 -0.45500 30.77700
C  18.18000 -4.56900 30.46200
C  18.21300 -4.25400 25.62200
C  15.02700 -0.50500 25.87300
N  16.79100 -2.41400 30.34400
C  16.17600 -1.56800 31.24400
C  16.41000 -1.99900 32.68700
C  17.39100 -3.19200 32.52500
C  17.45700 -3.47300 30.98700
C  18.80000 -3.07100 33.09700
C  15.12900 -2.26900 33.51000
C  14.97800 -1.89300 34.98600
H  16.19600 -1.30700 35.63300
N  17.97700 -4.24400 28.06100
C  18.47900 -4.92800 29.11300
C  19.25300 -6.08000 28.60700
C  19.42300 -5.91100 27.17400
C  18.54000 -4.75500 26.91400
C  19.83400 -7.09900 29.50500
C  20.06500 -6.83800 26.14500
O  19.88900 -6.81100 24.91700
C  21.05500 -7.83100 26.60200
N  16.70400 -2.35000 26.07800
C  17.34300 -3.24100 25.23900
C  17.14500 -2.83100 23.77200
C  16.11400 -1.65900 23.88300
C  15.86500 -1.56400 25.39300
C  18.51000 -2.60500 23.06200
C  14.80000 -1.88200 23.11400
C  14.62200 -1.08400 21.86900
N  15.50400 -0.90600 28.26500
C  14.91200 -0.19100 27.20500
C  14.40400 1.06800 27.73500
C  14.51800 0.99500 29.14300
C  15.20700 -0.25800 29.40900
C  13.75100 2.12700 26.91200
C  14.23100 1.62200 30.37400
O  13.48700 2.59700 30.63100
C  14.91500 0.75200 31.47600
C  15.95800 1.57700 32.16000
O  16.98400 1.93300 31.58700
O  15.59500 1.94500 33.40300
C  16.53300 2.91600 34.07100
H  18.68000 -5.14900 31.24100
H  18.75400 -4.70300 24.78700
H  14.43000 0.14900 25.23400
H  16.92500 -1.15800 33.15200
H  16.99100 -4.10400 32.96800
H  18.77300 -2.31100 33.87700
H  19.59100 -2.94800 32.35600
H  19.06400 -3.99500 33.61300
H  14.93200 -3.32900 33.35200
H  14.38400 -1.67800 32.97800
H  14.72800 -2.84000 35.46500
H  14.09800 -1.26300 35.11900
H  19.52200 -8.03800 29.04900
H  19.58400 -6.93400 30.55300
H  20.92200 -7.02500 29.50700
H  21.45800 -7.47700 27.55100
H  21.79300 -8.09000 25.84300
H  20.45500 -8.70200 26.86900
H  16.65100 -3.67100 23.28400
H  16.58900 -0.75100 23.51200
H  19.21100 -2.60800 23.89700
H  18.46800 -1.66300 22.51500
H  18.66600 -3.46200 22.40700
H  13.94900 -1.59500 23.73200
H  14.62700 -2.91400 22.80600
H  13.92400 -0.24700 21.85000
H  14.35600 -1.79100 21.08300
H  15.52400 -0.51800 21.63600
H  12.78400 1.81600 26.51600
H  14.27900 2.30600 25.97500
H  13.68700 3.02900 27.52100
H  14.03400 0.50600 32.06900
H  16.08600 3.41500 34.93100
H  16.77100 3.73200 33.38900
H  17.42200 2.41000 34.44900

