158

Mg 24.23700 -7.30400 47.04100
C  26.77300 -5.20900 46.11000
C  22.04400 -5.57300 44.93800
C  22.00300 -9.79000 47.41900
C  26.64400 -9.28600 48.76700
N  24.41800 -5.52100 45.63200
C  25.57700 -4.89000 45.38100
C  25.36000 -3.74400 44.34300
C  23.82200 -3.73100 44.18900
C  23.38000 -5.02200 44.97400
C  23.06300 -2.41700 44.67300
C  26.22300 -3.98200 43.13200
C  26.71700 -2.60900 42.54900
H  25.89400 -2.00900 41.42100
N  22.25600 -7.58600 46.41200
C  21.59600 -6.76300 45.53300
C  20.24800 -7.26000 45.46000
C  20.13700 -8.44000 46.30800
C  21.49100 -8.64700 46.77000
C  19.16400 -6.51400 44.62700
C  18.87800 -9.16600 46.62600
O  17.74400 -8.77300 46.21700
C  18.87600 -10.38100 47.58400
N  24.30800 -9.27300 48.08400
C  23.21300 -10.02900 48.14300
C  23.50700 -11.27000 48.98300
C  24.93000 -11.08000 49.45200
C  25.34200 -9.82000 48.72400
C  22.44000 -11.70400 50.13500
C  25.87800 -12.21000 49.12700
C  26.32500 -13.01600 50.30800
N  26.32200 -7.26700 47.40800
C  27.15400 -8.08600 48.13400
C  28.50100 -7.55800 48.11600
C  28.41400 -6.35800 47.37300
C  27.06200 -6.31400 46.97800
C  29.72200 -8.18200 48.67700
C  29.07400 -5.22500 46.82300
O  30.18800 -4.76900 47.00300
C  28.04200 -4.51200 45.93900
C  28.08800 -3.02800 46.24600
O  27.73800 -2.53400 47.34300
O  28.64000 -2.37600 45.19200
C  28.82300 -0.91500 45.50900
H  21.30300 -4.98200 44.39600
H  21.36900 -10.65500 47.62700
H  27.39100 -9.82100 49.35800
H  25.68700 -2.84200 44.86000
H  23.66600 -3.86100 43.11800
H  23.76900 -1.87400 45.30300
H  22.20600 -2.64200 45.30800
H  22.79500 -1.86900 43.77000
H  25.72500 -4.43400 42.27400
H  27.05100 -4.65200 43.36300
H  27.76800 -2.70300 42.27500
H  26.65100 -1.90900 43.38200
H  18.30300 -7.15200 44.42700
H  19.52800 -6.10200 43.68500
H  18.93000 -5.68500 45.29500
H  17.83100 -10.68600 47.63700
H  19.19100 -10.18700 48.61000
H  19.44600 -11.22200 47.19000
H  23.46600 -12.05300 48.22500
H  25.11000 -10.92000 50.51500
H  22.64300 -11.12300 51.03500
H  22.77100 -12.73300 50.27400
H  21.41500 -11.62400 49.77200
H  26.79500 -11.87100 48.64300
H  25.34300 -12.88300 48.45700
H  27.19700 -12.58700 50.80000
H  26.56800 -14.01400 49.94300
H  25.58900 -13.09800 51.10800
H  29.87200 -9.18500 48.27700
H  29.64500 -8.26900 49.76100
H  30.58700 -7.57900 48.39800
H  28.38800 -4.67600 44.91900
H  27.92900 -0.30300 45.40000
H  29.46000 -0.42900 44.77000
H  29.17800 -0.73800 46.52500
Mg 1.19400 43.09100 25.11900
C  3.03800 43.13900 28.12900
C  -1.66300 42.19500 27.20000
C  -0.47400 42.41600 22.38300
C  4.24900 43.41800 23.33500
N  0.79500 42.74100 27.36800
C  1.68400 42.98200 28.34900
C  1.01900 42.94800 29.76200
C  -0.47400 42.46900 29.47500
C  -0.47900 42.48100 27.96300
C  -0.77600 41.05200 30.14700
C  1.18200 44.34200 30.58700
C  1.37500 44.21700 32.16100
H  1.05700 42.99100 32.91100
N  -0.79900 42.50700 24.78900
C  -1.75200 42.06000 25.75300
C  -2.93900 41.59900 25.05500
C  -2.53900 41.60400 23.63500
C  -1.26900 42.24900 23.53500
C  -4.22300 41.23600 25.69200
C  -3.44000 41.15400 22.39800
O  -3.10800 41.37900 21.24100
C  -4.69700 40.39600 22.65100
N  1.81300 42.97800 23.14200
C  0.87500 42.75600 22.14200
C  1.59000 42.77500 20.80100
C  3.07000 43.20700 21.11000
C  3.07100 43.26300 22.64000
C  1.44700 41.35300 20.10800
C  3.51400 44.58400 20.52500
C  3.77500 44.66500 19.07500
N  3.19800 43.41800 25.59400
C  4.30700 43.50700 24.77200
C  5.53200 43.64800 25.57700
C  5.07400 43.43700 26.91600
C  3.68300 43.31500 26.89500
C  6.95500 43.81200 25.06600
C  5.44000 43.27400 28.30400
O  6.54400 43.13700 28.84600
C  4.13600 43.13800 29.09600
C  4.33000 41.97500 29.97600
O  4.11800 40.82800 29.70700
O  4.85800 42.38100 31.11600
C  5.46000 41.35800 32.00500
H  -2.52900 41.96100 27.82200
H  -0.87300 42.02700 21.44400
H  5.13500 43.51600 22.70400
H  1.63600 42.23500 30.30800
H  -1.18100 43.22900 29.80800
H  -0.99200 40.38900 29.31000
H  -1.59900 41.18700 30.85000
H  0.03200 40.72400 30.80100
H  0.18600 44.78100 30.52700
H  1.90800 44.99500 30.10400
H  0.64700 44.96200 32.48500
H  2.37000 44.58300 32.41200
H  -4.27100 41.66000 26.69500
H  -4.45300 40.17100 25.72400
H  -5.04600 41.69800 25.14700
H  -4.85800 39.65900 21.86400
H  -5.54500 41.03400 22.89900
H  -4.52300 39.70800 23.47900
H  1.12800 43.52000 20.15300
H  3.72600 42.37700 20.84800
H  2.38500 41.00600 19.67500
H  0.76400 41.54700 19.28000
H  1.08600 40.70300 20.90500
H  4.29600 44.98600 21.16900
H  2.67400 45.26700 20.65100
H  3.03700 45.25800 18.53500
H  3.80000 43.68100 18.60700
H  4.69800 45.20900 18.87500
H  7.59900 44.37800 25.73800
H  6.92000 44.42200 24.16300
H  7.44200 42.88400 24.76600
H  4.09500 44.06600 29.66500
H  6.39200 41.76900 32.39300
H  5.93700 40.57900 31.40900
H  4.89600 41.14700 32.91400

