158

Mg 46.18100 16.86400 27.66500
C  44.41900 16.56800 30.80300
C  48.37100 18.94400 29.27900
C  47.70800 17.48500 24.72100
C  43.69700 15.06700 26.04300
N  46.37800 17.57400 29.83100
C  45.60600 17.22400 30.90400
C  46.20600 17.90600 32.18500
C  47.34600 18.79800 31.60700
C  47.44700 18.37800 30.12400
C  47.23400 20.42100 31.75500
C  46.73800 16.79800 33.11700
C  47.16900 17.40100 34.52900
H  46.46300 18.57100 35.19700
N  47.81900 18.06600 27.07900
C  48.62100 18.78900 27.88400
C  49.70000 19.39800 27.15300
C  49.58200 18.98900 25.76800
C  48.32500 18.15400 25.77100
C  50.80200 20.19000 27.77200
C  50.47200 19.24100 24.62000
O  50.11500 18.92100 23.51300
C  51.73900 20.14100 24.81600
N  45.71300 16.36200 25.69400
C  46.50700 16.71700 24.63100
C  45.92000 16.18000 23.34600
C  44.88400 15.08700 23.88300
C  44.72100 15.51000 25.29000
C  45.15800 17.15300 22.41300
C  45.35900 13.61500 23.66300
C  44.76200 12.78900 22.55600
N  44.38900 16.02900 28.17600
C  43.44000 15.32300 27.40300
C  42.37300 14.94800 28.25000
C  42.63600 15.49300 29.53700
C  43.96400 16.00600 29.49700
C  41.12200 14.34600 27.78800
C  42.06800 15.63100 30.84900
O  41.01600 15.33400 31.32800
C  43.26600 16.28700 31.77400
C  42.70100 17.46600 32.61800
O  42.84400 18.64800 32.31900
O  42.07000 17.01800 33.80500
C  41.71600 18.01300 34.87100
H  49.03700 19.54600 29.89900
H  48.26600 17.58900 23.78800
H  42.94000 14.40000 25.62500
H  45.47900 18.61100 32.59000
H  48.29300 18.52700 32.07500
H  46.28700 20.51600 32.28700
H  47.29300 20.89400 30.77500
H  48.00600 20.75400 32.44800
H  47.55200 16.35500 32.54400
H  45.94600 16.05000 33.15800
H  48.22200 17.65100 34.40100
H  47.16800 16.59900 35.26800
H  50.63900 20.41300 28.82600
H  50.89400 21.16100 27.28700
H  51.68100 19.57200 27.95700
H  52.24000 20.29900 23.86100
H  52.51600 19.77400 25.48700
H  51.49400 21.15500 25.13100
H  46.67400 15.65900 22.75500
H  43.89900 15.23700 23.44200
H  45.80200 17.18700 21.53400
H  45.14100 18.13400 22.88900
H  44.19500 16.78300 22.06400
H  45.36400 12.92900 24.51000
H  46.40900 13.66700 23.37500
H  45.48700 12.56400 21.77300
H  43.83400 13.22200 22.18400
H  44.37000 11.83900 22.91800
H  41.19300 13.28000 28.00600
H  41.16600 14.58200 26.72500
H  40.22000 14.83900 28.15100
H  43.65900 15.59200 32.51700
H  42.36800 18.88700 34.84800
H  41.76300 17.37100 35.75100
H  40.69200 18.33600 34.68300
Mg 36.18000 49.55500 25.52900
C  35.87900 47.47700 28.33200
C  35.39800 52.20600 27.68300
C  35.98800 51.53500 22.89600
C  36.82000 46.74100 23.53000
N  35.36300 49.79600 27.73300
C  35.51300 48.82900 28.67700
C  35.38700 49.35700 30.11700
C  34.98000 50.81900 29.84800
C  35.32700 50.98300 28.31800
C  33.53400 51.29700 30.06400
C  36.66900 49.20100 31.02500
C  36.32700 48.89900 32.50400
H  34.95400 49.31400 33.15200
N  35.83700 51.56300 25.31400
C  35.64400 52.53400 26.31300
C  35.61400 53.86200 25.70000
C  35.57000 53.58500 24.33200
C  35.79000 52.21000 24.10200
C  35.54400 55.19400 26.44300
C  35.36000 54.57700 23.19200
O  35.22100 54.24800 22.00300
C  35.51600 56.01600 23.44300
N  36.20800 49.13000 23.51500
C  36.23100 50.13600 22.64900
C  36.23500 49.58800 21.22500
C  36.78200 48.12700 21.39800
C  36.71700 47.99300 22.94200
C  34.92000 49.55300 20.46900
C  38.23000 47.87200 20.90700
C  39.43900 48.44900 21.84900
N  36.28000 47.52000 25.78200
C  36.61100 46.50100 24.92700
C  36.72600 45.22600 25.70700
C  36.45900 45.62400 27.00400
C  36.19100 46.98100 27.06000
C  37.10300 43.85600 25.23900
C  36.34800 45.05700 28.27800
O  36.49500 43.89500 28.67400
C  35.99600 46.23100 29.24800
C  34.75400 46.05900 30.04800
O  33.62900 46.50500 29.83500
O  35.12400 45.31800 31.15900
C  34.01600 45.14800 32.11300
H  35.27000 53.05500 28.35800
H  35.94400 51.94800 21.88700
H  36.90900 45.79700 22.98800
H  34.58200 48.81700 30.61400
H  35.66900 51.50700 30.33900
H  32.88000 50.56300 30.53400
H  33.10200 51.68700 29.14200
H  33.67100 52.19600 30.66500
H  37.23600 50.13100 31.07000
H  37.26700 48.40800 30.57600
H  37.15900 49.31500 33.07200
H  36.45900 47.81800 32.55200
H  36.20200 55.97300 26.05700
H  35.86400 55.02300 27.47100
H  34.52300 55.57700 26.41300
H  36.52800 56.22200 23.79100
H  34.79600 56.32400 24.20100
H  35.33600 56.46900 22.46800
H  36.82600 50.30500 20.65500
H  36.06700 47.33800 21.16500
H  34.51800 48.55300 20.30900
H  34.98000 49.96100 19.46000
H  34.26900 50.27200 20.96700
H  38.34400 48.23100 19.88400
H  38.31200 46.80400 21.11200
H  39.90000 47.65800 22.44100
H  39.14600 49.24400 22.53500
H  40.28800 48.82100 21.27700
H  36.89700 43.77000 24.17200
H  36.49900 43.09800 25.73900
H  38.15100 43.76200 25.52300
H  36.71100 46.51100 30.02200
H  33.13900 44.78500 31.57600
H  33.92100 46.08400 32.66500
H  34.29800 44.31000 32.75000

