158

Mg -11.76800 38.44900 41.11400
C  -9.68800 35.72200 40.21200
C  -9.60200 40.56600 39.60700
C  -14.08100 40.84800 41.32400
C  -14.05500 36.14100 42.34600
N  -10.00600 38.10800 39.93900
C  -9.27800 36.97400 39.73700
C  -8.06600 37.19000 38.81300
C  -7.95600 38.79200 38.69800
C  -9.32300 39.18500 39.42600
C  -6.72400 39.40300 39.45200
C  -8.18600 36.35100 37.46500
C  -6.78700 35.67400 37.08500
H  -6.10500 36.00600 35.74000
N  -11.80400 40.45600 40.55000
C  -10.81700 41.17200 40.06800
C  -11.16300 42.58800 39.94600
C  -12.57300 42.63100 40.34000
C  -12.89000 41.29300 40.74600
C  -10.28000 43.62600 39.27400
C  -13.40500 43.87600 40.25500
O  -12.88300 44.93700 39.82300
C  -14.90700 43.91000 40.67400
N  -13.79300 38.41600 41.47200
C  -14.50700 39.56600 41.68800
C  -15.94100 39.34700 42.28200
C  -15.84000 37.85900 42.61500
C  -14.51900 37.46200 42.08200
C  -16.41600 40.38300 43.48500
C  -16.99200 36.99700 42.04700
C  -17.75900 36.22300 43.08500
N  -11.84500 36.32200 41.29800
C  -12.82600 35.54000 41.90800
C  -12.31600 34.14800 42.10100
C  -11.08100 34.18600 41.35500
C  -10.89600 35.48600 40.87700
C  -12.95600 33.08700 42.89500
C  -9.96600 33.40900 40.76800
O  -9.75200 32.23300 40.71100
C  -8.93300 34.40900 40.08300
C  -7.62400 34.33700 40.84400
O  -6.87300 33.38700 40.80700
O  -7.41900 35.41500 41.67200
C  -6.22400 35.66400 42.46400
H  -8.86200 41.31800 39.32500
H  -14.83100 41.62600 41.48000
H  -14.70800 35.55600 42.99700
H  -7.16900 36.79500 39.28900
H  -7.98600 39.18100 37.68000
H  -6.21700 38.70700 40.12000
H  -7.04600 40.24800 40.06000
H  -6.03500 39.84300 38.73100
H  -8.66800 36.88800 36.64800
H  -8.82600 35.49300 37.67400
H  -6.81600 34.59400 37.23200
H  -6.01500 35.92100 37.81400
H  -10.60500 43.86800 38.26200
H  -9.21200 43.41300 39.30200
H  -10.21200 44.61700 39.72400
H  -15.42500 44.82000 40.37100
H  -14.93500 43.87700 41.76300
H  -15.45500 43.05300 40.28300
H  -16.59900 39.53600 41.43300
H  -15.76800 37.70800 43.69300
H  -17.29900 40.90500 43.11600
H  -15.64300 41.13600 43.63200
H  -16.79400 39.99700 44.43200
H  -16.63700 36.19900 41.39500
H  -17.74800 37.53500 41.47600
H  -17.62300 36.59700 44.10000
H  -17.39500 35.19700 43.13700
H  -18.81400 36.24300 42.81400
H  -12.08400 32.55800 43.28100
H  -13.55200 32.44400 42.24800
H  -13.51600 33.48100 43.74400
H  -8.75600 34.03200 39.07600
H  -6.16300 35.04300 43.35800
H  -6.15800 36.70600 42.78000
H  -5.43100 35.41500 41.76000
Mg 0.84600 42.38000 25.21700
C  2.08900 43.05000 28.47300
C  -2.13100 41.38700 26.68800
C  -0.12500 41.65000 22.20500
C  4.20200 42.91700 24.08300
N  0.11200 42.23900 27.26500
C  0.72300 42.69800 28.45200
C  -0.11400 42.42000 29.66400
C  -1.49000 41.84500 29.06400
C  -1.16400 41.85700 27.55900
C  -1.92800 40.41400 29.53800
C  -0.25600 43.67800 30.48000
C  0.25200 43.70600 31.92400
H  -0.70400 43.10200 32.95600
N  -0.88200 41.66200 24.51200
C  -1.98100 41.23400 25.28300
C  -2.92900 40.66000 24.36000
C  -2.39100 40.85300 23.01600
C  -1.09900 41.42200 23.21500
C  -4.23400 40.20300 24.76900
C  -3.01700 40.55700 21.55700
O  -2.46700 40.90100 20.51400
C  -4.29000 39.81200 21.45600
N  1.89200 42.38700 23.51000
C  1.26100 41.93000 22.35400
C  2.20100 41.75700 21.12400
C  3.57400 42.19700 21.73400
C  3.20400 42.57400 23.17300
C  2.04400 40.20500 20.63600
C  4.29200 43.30100 21.06600
C  3.69600 44.74400 21.28900
N  2.77800 43.02900 26.05800
C  4.01700 43.16700 25.48900
C  4.99800 43.49200 26.45200
C  4.24600 43.41600 27.60000
C  2.94200 43.15800 27.36300
C  6.47600 43.58100 26.26600
C  4.40000 43.41700 28.96900
O  5.46000 43.53400 29.54300
C  3.00200 43.16000 29.70000
C  3.18800 41.92200 30.51400
O  2.84900 40.75200 30.26500
O  3.88600 42.20700 31.62800
C  3.87800 41.13300 32.57900
H  -3.04900 41.00200 27.13800
H  -0.39300 41.36300 21.18600
H  5.15400 43.08600 23.57600
H  0.42100 41.70200 30.28500
H  -2.34500 42.51500 29.15800
H  -2.20700 39.75500 28.71500
H  -2.77700 40.45500 30.22000
H  -1.16400 40.06400 30.23200
H  -1.30600 43.95500 30.57200
H  0.39400 44.44400 30.05800
H  0.55600 44.71200 32.21400
H  1.17000 43.15000 32.11700
H  -4.31200 40.24100 25.85500
H  -4.26600 39.13000 24.57900
H  -5.02000 40.81800 24.33000
H  -4.27600 39.52500 20.40400
H  -5.08000 40.51700 21.71500
H  -4.25000 38.94700 22.11800
H  1.89400 42.52800 20.41700
H  4.07200 41.22900 21.68500
H  2.97600 39.63900 20.66700
H  1.83300 40.16000 19.56800
H  1.31500 39.74500 21.30400
H  4.21900 43.16600 19.98700
H  5.36100 43.39300 21.25900
H  3.24700 45.07800 20.35400
H  4.51300 45.37900 21.63100
H  2.94500 44.69300 22.07800
H  6.66600 44.10000 25.32600
H  6.83100 42.57900 26.02400
H  6.92300 44.06500 27.13400
H  2.86700 44.04100 30.32700
H  4.46200 41.50500 33.42100
H  4.38600 40.31400 32.07100
H  2.83500 40.99000 32.86500

