158

Mg 15.94200 -2.22500 28.64200
C  15.02900 0.18000 31.05900
C  17.97900 -3.77900 31.00000
C  17.49000 -4.07800 26.23800
C  14.48100 -0.24100 26.23800
N  16.61400 -1.68600 30.80100
C  16.03500 -0.75700 31.54700
C  16.61100 -1.02400 32.94600
C  17.64400 -2.19200 32.86100
C  17.40600 -2.63100 31.46600
C  19.10400 -1.63500 33.22600
C  15.55600 -1.20100 34.01000
C  15.61500 -0.18400 35.15000
H  16.90300 0.52100 35.55500
N  17.33700 -3.83500 28.66800
C  17.88800 -4.46000 29.74900
C  18.63700 -5.63800 29.31800
C  18.55200 -5.67600 27.85700
C  17.76600 -4.50700 27.51200
C  19.57500 -6.40200 30.20500
C  19.14200 -6.66500 26.91400
O  19.03000 -6.56500 25.73200
C  19.93000 -7.84900 27.45200
N  16.19500 -2.04200 26.62000
C  16.80800 -2.94600 25.81700
C  16.58100 -2.61600 24.31300
C  15.44500 -1.61300 24.37600
C  15.36600 -1.28200 25.85900
C  17.88900 -2.00600 23.68200
C  14.04800 -2.09300 23.91600
C  13.23900 -1.17200 22.98000
N  14.87000 -0.50400 28.58800
C  14.36300 0.22800 27.53200
C  13.53300 1.26600 28.06400
C  13.80800 1.27000 29.43000
C  14.67600 0.27600 29.70800
C  12.64000 2.21900 27.32700
C  13.41500 1.98900 30.64600
O  12.67400 2.98200 30.78400
C  14.23600 1.31800 31.78900
C  15.05500 2.43900 32.30900
O  16.13700 2.77500 31.88700
O  14.30100 3.05500 33.32300
C  14.87200 4.22800 33.93100
H  18.58200 -4.30500 31.74300
H  17.97300 -4.52700 25.36700
H  13.82900 0.15800 25.45800
H  17.10800 -0.08400 33.18500
H  17.54500 -3.03600 33.54400
H  19.05400 -0.89300 34.02300
H  19.53700 -1.18100 32.33500
H  19.88800 -2.34100 33.50100
H  15.76200 -2.23400 34.29000
H  14.57300 -1.25900 33.54300
H  15.31900 -0.77600 36.01600
H  14.90500 0.62800 34.99000
H  20.61500 -6.15400 29.99300
H  19.36700 -7.46300 30.06600
H  19.33200 -6.32600 31.26500
H  19.35900 -8.38100 28.21300
H  20.90800 -7.54600 27.82600
H  20.14200 -8.60600 26.69700
H  16.24700 -3.45100 23.69800
H  15.63400 -0.74400 23.74500
H  18.10800 -1.03100 24.11900
H  17.57800 -1.89300 22.64400
H  18.82500 -2.56100 23.62000
H  13.40300 -2.37700 24.74700
H  14.18400 -3.01400 23.34900
H  12.20600 -1.50900 23.06100
H  13.74000 -1.22200 22.01300
H  13.36800 -0.11200 23.19800
H  12.61400 1.93100 26.27600
H  13.11800 3.18100 27.14700
H  11.68200 2.35200 27.83100
H  13.66800 0.84300 32.58900
H  14.25700 4.57400 34.76200
H  15.23000 5.08300 33.35700
H  15.73700 3.78200 34.42200
Mg 10.23200 46.65300 25.27700
C  8.23300 47.02900 28.22100
C  12.83300 48.15000 27.19300
C  12.11600 46.47200 22.64900
C  7.35900 46.24700 23.55500
N  10.51700 47.39000 27.45100
C  9.59100 47.37500 28.46700
C  10.20000 47.71800 29.78200
C  11.43200 48.51300 29.33100
C  11.66900 48.01300 27.88700
C  11.31700 50.04600 29.45600
C  10.43900 46.43000 30.65900
C  10.77800 46.72900 32.16600
H  10.20900 45.82600 33.24500
N  12.30400 47.06500 24.97900
C  13.14200 47.68400 25.86600
C  14.44700 47.68400 25.29100
C  14.25500 47.19100 23.94300
C  12.86200 46.93300 23.79400
C  15.67900 47.87500 26.17600
C  15.30700 46.89500 22.84000
O  15.01500 46.30500 21.80900
C  16.74900 47.39300 23.09900
N  9.77500 46.55700 23.30700
C  10.71800 46.35600 22.38700
C  10.21100 45.78400 21.00500
C  8.69300 45.78700 21.29500
C  8.59500 46.22600 22.78200
C  10.63400 46.52900 19.66500
C  7.91900 44.42000 20.99900
C  6.61300 44.64300 20.14700
N  8.19500 46.47800 25.70400
C  7.11700 46.32900 24.85300
C  5.87900 46.29600 25.61100
C  6.29200 46.61700 26.86700
C  7.71100 46.68200 26.93900
C  4.49500 46.05200 25.07400
C  5.79200 46.66100 28.26700
O  4.65900 46.53500 28.69800
C  7.07600 46.92700 29.25500
C  7.16300 45.83600 30.25200
O  7.65700 44.71500 30.19300
O  6.37700 46.26100 31.31900
C  6.07500 45.24900 32.26500
H  13.56400 48.68900 27.79900
H  12.56800 46.28300 21.67300
H  6.48600 46.12300 22.91100
H  9.51400 48.27200 30.42300
H  12.26100 48.16500 29.94800
H  10.34000 50.39500 29.78900
H  11.61600 50.44800 28.48800
H  12.05900 50.37900 30.18200
H  11.33600 45.99100 30.22300
H  9.58300 45.77600 30.82500
H  10.33200 47.67800 32.46100
H  11.84100 46.85500 32.37500
H  16.40700 47.11600 25.88900
H  15.49700 47.73900 27.24200
H  16.13600 48.86000 26.07900
H  17.19100 47.73300 22.16200
H  17.31900 46.59200 23.57200
H  16.53700 48.25200 23.73500
H  10.60700 44.79400 20.77800
H  8.18900 46.59600 20.76700
H  11.06300 45.77500 19.00500
H  11.32600 47.27800 20.05000
H  9.80100 47.02100 19.16300
H  7.59000 44.13600 21.99800
H  8.54000 43.67100 20.50700
H  6.57400 45.59500 19.61900
H  5.73200 44.75200 20.77900
H  6.38600 43.94400 19.34200
H  3.83000 46.37300 25.87600
H  4.16500 45.08200 24.70200
H  4.32300 46.73400 24.24100
H  6.82300 47.86000 29.75900
H  5.08500 44.83100 32.08400
H  6.16600 45.73000 33.23900
H  6.74500 44.39900 32.39800

