158

Mg 9.07000 3.78500 27.86600
C  10.42700 2.08300 30.75400
C  7.58200 6.04400 29.95200
C  7.20700 4.68600 25.23600
C  10.24500 0.97000 25.91600
N  8.83200 3.82500 30.11600
C  9.54300 3.15200 31.08500
C  9.45200 3.84700 32.45300
C  8.28700 4.92100 32.21300
C  8.25600 4.93200 30.66600
C  6.87700 4.59400 32.78800
C  10.81600 4.53700 32.94300
C  11.26200 4.02000 34.29500
H  10.21300 3.73100 35.38500
N  7.68900 5.18700 27.61800
C  7.32300 6.14300 28.53300
C  6.44500 7.16000 27.90600
C  6.26600 6.72100 26.56400
C  7.02700 5.45800 26.42200
C  5.89200 8.33400 28.63900
C  5.38100 7.35200 25.46600
O  5.19200 6.78900 24.37300
C  4.85300 8.64100 25.65900
N  8.66900 2.90500 25.93500
C  7.98900 3.60500 24.96500
C  8.08400 3.05800 23.58300
C  9.20100 1.91900 23.79800
C  9.38300 1.89400 25.31600
C  6.76100 2.53100 22.97300
C  10.60200 2.29400 23.12100
C  11.39700 3.35200 23.89100
N  10.28800 2.00500 28.16500
C  10.61800 0.90400 27.30600
C  11.38300 -0.08700 28.04300
C  11.39800 0.42900 29.35500
C  10.68100 1.63200 29.39700
C  11.80800 -1.35100 27.50400
C  11.84000 0.09300 30.71200
O  12.44200 -0.83300 31.25200
C  11.34700 1.28600 31.68200
C  10.59500 0.60200 32.79100
O  9.41400 0.27100 32.68900
O  11.30600 0.41200 34.00000
C  10.50700 -0.22200 35.13600
H  7.14100 6.75500 30.65300
H  6.82400 5.24500 24.37900
H  10.54600 0.19000 25.21400
H  9.16700 3.08400 33.17800
H  8.64100 5.85800 32.64400
H  6.40700 5.50900 33.14900
H  6.94000 3.84900 33.58100
H  6.23500 4.18400 32.00800
H  11.00200 5.61100 32.94300
H  11.59600 4.20000 32.26100
H  11.85100 4.76100 34.83600
H  11.93300 3.19700 34.04600
H  6.30000 8.45300 29.64300
H  4.82600 8.12900 28.73200
H  6.09500 9.24500 28.07700
H  5.80500 9.16900 25.72800
H  4.20000 8.79200 26.51800
H  4.26400 8.95100 24.79600
H  8.45100 3.68900 22.77300
H  8.95800 0.96800 23.32500
H  5.90200 2.57700 23.64200
H  6.87000 1.45400 22.85300
H  6.50900 3.04100 22.04300
H  10.45900 2.60600 22.08600
H  11.13400 1.34800 23.22500
H  10.71100 4.06400 24.35100
H  12.01400 3.94900 23.21900
H  11.92700 2.79800 24.66600
H  12.83900 -1.32200 27.15300
H  11.24500 -1.62200 26.61100
H  11.78200 -2.13300 28.26400
H  12.24200 1.78600 32.05300
H  11.22600 -0.35800 35.94300
H  10.09600 -1.17700 34.81000
H  9.71700 0.46100 35.45000
Mg 47.43700 24.61400 28.94900
C  48.10200 26.79700 31.52900
C  46.38700 22.25600 31.14500
C  47.90300 22.19300 26.59100
C  49.18200 26.87700 26.85200
N  47.11600 24.60000 31.01000
C  47.57000 25.57200 31.91700
C  47.47200 25.13800 33.40400
C  47.06300 23.64600 33.25500
C  46.73700 23.47400 31.67800
C  48.17600 22.50400 33.75900
C  46.47500 26.03800 34.20800
C  46.72300 25.91000 35.75200
H  45.58800 26.46500 36.65800
N  46.82200 22.52900 28.82100
C  46.36300 21.79700 29.83200
C  45.96700 20.50900 29.28300
C  46.37800 20.49800 27.96600
C  47.07500 21.74300 27.70900
C  45.16600 19.42400 30.04600
C  46.32500 19.37800 26.92300
O  46.75600 19.64700 25.82300
C  45.76800 18.03100 27.26900
N  48.53100 24.57400 27.12700
C  48.47300 23.45100 26.31800
C  49.39900 23.62300 25.15300
C  49.43900 25.21300 25.02200
C  48.97200 25.63700 26.35400
C  50.77700 22.93600 25.22600
C  48.67100 25.92400 23.89200
C  47.18200 26.35700 24.19600
N  48.21800 26.54400 29.10000
C  48.79300 27.32000 28.13300
C  49.02100 28.66300 28.63700
C  48.82100 28.44600 30.03600
C  48.41800 27.17800 30.24400
C  49.40800 29.87000 27.75300
C  49.02600 29.04800 31.38300
O  49.34300 30.17500 31.71600
C  48.57900 27.97700 32.38400
C  49.71200 27.65800 33.32000
O  50.60500 26.83300 33.08000
O  49.55500 28.39700 34.47500
C  50.57500 28.03700 35.48600
H  46.07700 21.46800 31.83500
H  48.07800 21.47800 25.78400
H  49.61700 27.56400 26.12300
H  48.46600 25.01600 33.83500
H  46.24400 23.46400 33.95100
H  47.79300 21.69400 34.38000
H  49.06700 22.99500 34.15100
H  48.52200 22.12000 32.80000
H  45.50200 25.59200 33.99900
H  46.46200 27.06500 33.84300
H  47.65800 26.38400 36.05000
H  46.76800 24.85300 36.01500
H  44.91700 19.75700 31.05300
H  45.77300 18.51900 30.00300
H  44.27300 19.20800 29.46000
H  44.70700 18.17900 27.47300
H  46.36300 17.71500 28.12600
H  45.94000 17.39800 26.39900
H  48.86900 23.22400 24.28800
H  50.43400 25.64300 24.90300
H  51.59600 23.58500 25.53500
H  51.01200 22.41100 24.30000
H  50.78800 22.18300 26.01400
H  48.76000 25.36000 22.96300
H  49.13300 26.90800 23.82300
H  46.63300 26.16800 23.27300
H  47.02000 27.39500 24.48700
H  46.65500 25.79700 24.96800
H  48.94800 29.66900 26.78500
H  50.49100 29.83900 27.63200
H  49.06800 30.86000 28.05700
H  47.84200 28.57500 32.91900
H  50.67000 28.89700 36.14900
H  51.51400 27.63400 35.10600
H  50.13300 27.26900 36.12100

