158

Mg 1.69000 -1.07100 44.12900
C  5.09800 -0.25300 43.43300
C  0.81400 1.69400 42.26600
C  -1.37600 -2.05200 44.54200
C  2.87700 -4.04800 45.47300
N  2.84700 0.48000 42.88700
C  4.19100 0.64500 42.83200
C  4.58500 1.76200 41.91600
C  3.22800 2.58700 41.75200
C  2.21300 1.54200 42.26400
C  2.99900 3.82400 42.65200
C  5.35700 1.34300 40.58500
C  6.70000 2.01000 40.28300
H  7.00200 2.72900 39.02100
N  -0.01800 -0.19400 43.62600
C  -0.18800 0.87100 42.80400
C  -1.63700 1.14400 42.60900
C  -2.28600 0.14400 43.28500
C  -1.25000 -0.74400 43.91500
C  -2.22200 2.22600 41.79100
C  -3.86600 0.08300 43.36100
O  -4.56600 0.88500 42.75600
C  -4.59200 -1.01400 44.06400
N  0.91000 -2.85200 44.79900
C  -0.44700 -3.03500 44.83100
C  -0.86700 -4.41700 45.36500
C  0.48000 -4.90500 45.99200
C  1.48200 -3.90700 45.33600
C  -2.21400 -4.67500 46.18500
C  0.69300 -6.45200 45.91400
C  0.87700 -7.17900 47.23100
N  3.57100 -2.01700 44.37200
C  3.87900 -3.26200 44.88200
C  5.32600 -3.47700 44.91400
C  5.82200 -2.24100 44.49000
C  4.73800 -1.43200 44.03500
C  6.03500 -4.69100 45.45400
C  7.04600 -1.47400 44.36200
O  8.16300 -1.73000 44.77400
C  6.60800 -0.16700 43.63500
C  6.99900 0.95300 44.50700
O  6.67500 1.06600 45.67900
O  7.77500 1.84600 43.82900
C  8.57900 2.81600 44.61400
H  0.55500 2.55300 41.64300
H  -2.41600 -2.37300 44.63600
H  3.18200 -4.92500 46.04800
H  5.36500 2.35100 42.39900
H  2.90900 2.82200 40.73600
H  3.84200 4.13800 43.26700
H  2.18500 3.69300 43.36500
H  2.69400 4.65700 42.02000
H  4.69100 1.40200 39.72300
H  5.58700 0.28100 40.67100
H  7.47900 1.25300 40.38100
H  6.83900 2.77100 41.05100
H  -2.91300 1.82500 41.05000
H  -1.48300 2.87900 41.32800
H  -2.89700 2.81100 42.41600
H  -5.62500 -0.70500 44.22600
H  -4.18400 -0.95800 45.07400
H  -4.35200 -2.00900 43.68900
H  -1.01100 -4.87500 44.38600
H  0.41300 -4.67600 47.05500
H  -2.91000 -5.35300 45.69000
H  -2.66500 -3.71200 46.42100
H  -1.88600 -5.17400 47.09700
H  1.58600 -6.60600 45.30700
H  -0.09900 -6.89500 45.31100
H  0.34500 -8.12300 47.11200
H  0.41500 -6.65300 48.06700
H  1.95600 -7.16400 47.38500
H  7.07800 -4.58400 45.15600
H  5.64900 -5.58200 44.95900
H  5.98100 -4.72200 46.54200
H  7.23800 -0.13400 42.74700
H  9.51000 2.97000 44.06900
H  8.69000 2.46200 45.64000
H  8.18200 3.83100 44.60800
Mg 17.51900 -0.42800 28.31100
C  16.70600 1.35700 31.16200
C  19.55400 -2.55700 30.27500
C  18.88200 -1.81700 25.38900
C  15.78800 1.87600 26.32600
N  18.19600 -0.43500 30.37200
C  17.66500 0.30200 31.37400
C  18.04900 -0.25600 32.79900
C  19.27800 -1.13500 32.48000
C  19.05600 -1.38600 30.92300
C  20.68300 -0.65500 32.71600
C  16.81100 -0.88100 33.51000
C  16.76900 -0.93200 35.07000
H  17.83200 -0.25600 35.85100
N  18.80100 -2.04500 27.90700
C  19.43900 -2.83700 28.86700
C  20.03100 -4.01700 28.19800
C  19.94300 -3.73600 26.81700
C  19.14600 -2.48300 26.63200
C  20.49000 -5.17000 29.06200
C  20.27500 -4.62100 25.75700
O  20.02800 -4.44800 24.57800
C  21.10700 -5.79500 26.02900
N  17.32800 0.04000 26.18800
C  18.01600 -0.68200 25.16700
C  17.59300 -0.15900 23.76900
C  16.54500 0.97600 24.06100
C  16.47000 0.88400 25.63600
C  18.89000 0.31000 22.88200
C  15.20900 0.91400 23.28700
C  14.79400 2.12700 22.45400
N  16.41700 1.26600 28.62400
C  15.72900 2.05100 27.74400
C  15.01800 3.03900 28.52600
C  15.36500 2.74300 29.83600
C  16.25500 1.68500 29.81500
C  14.20400 4.18300 28.09600
C  15.15100 3.22200 31.23300
O  14.46900 4.11500 31.69300
C  16.05400 2.33300 32.10200
C  16.94900 3.13600 33.03800
O  18.09000 3.51400 32.82600
O  16.23000 3.44500 34.13300
C  16.87600 4.32400 35.10400
H  20.16700 -3.31300 30.77100
H  19.20700 -2.24500 24.43800
H  15.19500 2.63000 25.80500
H  18.40000 0.59000 33.39000
H  19.10200 -2.07800 32.99700
H  21.23900 -0.73300 31.78200
H  21.19400 -1.25500 33.46900
H  20.58100 0.39700 32.98100
H  16.72000 -1.90700 33.15300
H  15.88900 -0.44700 33.12200
H  16.70600 -1.94600 35.46600
H  15.88300 -0.30900 35.19300
H  20.17600 -6.12600 28.64300
H  20.05000 -5.01300 30.04700
H  21.56700 -5.05600 29.18700
H  21.84200 -5.42500 26.74400
H  21.58200 -6.26700 25.16900
H  20.34600 -6.47600 26.41000
H  17.16100 -1.04200 23.30000
H  16.96900 1.97000 23.91500
H  19.21400 -0.42200 22.14200
H  19.72600 0.67700 23.47700
H  18.60200 1.17500 22.28500
H  14.43300 0.65500 24.00800
H  15.28600 0.04200 22.63700
H  14.87600 1.83000 21.40800
H  15.38100 3.02500 22.64200
H  13.76200 2.34800 22.72600
H  13.68300 3.98700 27.15800
H  14.79100 5.10100 28.07500
H  13.38700 4.31500 28.80600
H  15.34300 1.82700 32.75400
H  16.45700 4.02700 36.06500
H  16.74000 5.40000 34.98800
H  17.95900 4.23300 35.18400

