158

Mg 16.29900 -2.28100 27.72700
C  15.27600 -0.24100 30.26700
C  18.45100 -3.98000 29.97600
C  17.63700 -4.07600 25.20400
C  14.39200 -0.44300 25.39700
N  16.95800 -1.96100 29.88100
C  16.22700 -1.20600 30.73700
C  16.62600 -1.52400 32.25900
C  17.77300 -2.55000 32.05600
C  17.64900 -2.90900 30.58600
C  19.18800 -2.16900 32.48700
C  15.47500 -2.03100 33.15500
C  15.51400 -1.43500 34.52100
H  16.73700 -0.68400 35.03300
N  17.71100 -3.90700 27.60200
C  18.46100 -4.45300 28.64500
C  19.36700 -5.41600 28.08500
C  19.03300 -5.54600 26.72400
C  18.12100 -4.45400 26.43500
C  20.31300 -6.16400 29.01900
C  19.55700 -6.53400 25.70400
O  19.31700 -6.43300 24.54000
C  20.40600 -7.72300 26.08200
N  16.16500 -2.13100 25.59400
C  16.64900 -3.15700 24.83700
C  16.20000 -3.00100 23.36000
C  14.89500 -2.09900 23.54200
C  15.13600 -1.56200 24.95500
C  17.36000 -2.44200 22.46400
C  13.59200 -3.02900 23.43200
C  13.05500 -3.23200 21.98700
N  15.22000 -0.58700 27.74900
C  14.45800 0.03900 26.74300
C  13.64900 0.99400 27.37400
C  13.97200 0.96900 28.71800
C  14.88500 -0.02700 28.91900
C  12.64300 1.81800 26.71500
C  13.57600 1.50100 29.99100
O  12.70100 2.33800 30.23500
C  14.35000 0.63100 31.08300
C  15.13400 1.56700 31.90100
O  16.26100 1.95700 31.67600
O  14.28400 1.86800 32.99600
C  14.79100 2.86200 34.01100
H  19.18800 -4.49800 30.59200
H  17.85000 -4.76800 24.38700
H  13.62900 -0.04700 24.72400
H  17.05900 -0.57700 32.58100
H  17.69500 -3.50500 32.57600
H  19.21900 -1.51400 33.35700
H  19.57200 -1.63000 31.62100
H  19.82000 -3.04200 32.65100
H  15.59500 -3.11000 33.25400
H  14.54900 -1.98800 32.58100
H  15.31000 -2.24300 35.22300
H  14.64200 -0.82400 34.75500
H  19.84500 -7.11300 29.28100
H  20.76300 -5.59900 29.83600
H  21.21100 -6.47300 28.48400
H  20.08800 -8.11200 27.05000
H  21.45200 -7.41900 26.06800
H  20.24300 -8.46600 25.30100
H  15.90600 -3.97700 22.97600
H  14.85700 -1.33400 22.76600
H  17.50000 -3.05900 21.57600
H  18.28700 -2.30700 23.02000
H  17.13000 -1.42200 22.15400
H  12.90900 -2.52100 24.11300
H  13.83300 -3.98300 23.90100
H  12.19600 -2.58300 21.81800
H  12.78000 -4.28400 22.05500
H  13.83800 -2.93900 21.28800
H  11.78800 1.57300 27.34500
H  12.34700 1.40200 25.75300
H  12.81900 2.85500 26.42800
H  13.67800 0.14200 31.78900
H  14.96800 3.76300 33.42300
H  15.69600 2.42400 34.43100
H  14.02300 3.06900 34.75600
Mg 26.89100 49.50000 26.39200
C  24.83500 50.59200 29.23500
C  29.01100 48.29000 28.69400
C  28.57800 48.62300 23.85700
C  24.41200 50.94000 24.36000
N  26.88900 49.54400 28.67300
C  25.96500 49.89300 29.61400
C  26.38700 49.54000 31.07100
C  27.84900 49.10300 30.82300
C  27.92600 48.98900 29.31000
C  28.81500 50.15400 31.46100
C  25.45600 48.46800 31.73500
C  24.93400 48.78300 33.17100
H  25.96600 49.42700 34.13700
N  28.56300 48.59400 26.34000
C  29.36700 48.16300 27.33800
C  30.64000 47.68000 26.73600
C  30.53500 47.91700 25.32100
C  29.21100 48.37300 25.11400
C  31.76300 47.12000 27.61700
C  31.54400 47.74400 24.23700
O  31.38200 47.98800 23.03800
C  32.97600 47.44300 24.61100
N  26.53000 49.73400 24.41700
C  27.37500 49.20200 23.56900
C  26.89300 49.29300 22.12100
C  25.51600 50.07500 22.22800
C  25.40400 50.27300 23.77300
C  27.86800 49.68100 20.98100
C  24.33000 49.26100 21.69700
C  23.08500 50.03800 21.38100
N  25.07900 50.74400 26.65300
C  24.13100 51.16000 25.68500
C  23.00200 51.71400 26.35900
C  23.20000 51.61000 27.76900
C  24.51700 50.94200 27.89500
C  21.77300 52.29900 25.74200
C  22.65000 51.69100 29.10000
O  21.63600 52.17400 29.54100
C  23.64900 51.05200 30.09700
C  24.05900 52.07900 30.98400
O  24.94300 52.93000 30.81400
O  23.28800 52.06700 32.14800
C  23.66100 53.11700 33.16800
H  29.75000 47.92200 29.40800
H  29.19900 48.35000 23.00100
H  23.68900 51.36400 23.65900
H  26.33300 50.45900 31.65600
H  28.10000 48.12900 31.24100
H  29.84800 49.87400 31.25900
H  28.67700 50.07300 32.53900
H  28.56500 51.14800 31.08800
H  25.98000 47.53000 31.91800
H  24.52400 48.39300 31.17400
H  24.61000 47.81300 33.54900
H  23.98000 49.31000 33.15900
H  31.64500 47.46000 28.64600
H  32.69800 47.64800 27.42800
H  31.68800 46.03300 27.60300
H  33.65700 47.24500 23.78300
H  32.86300 46.44100 25.02400
H  33.32600 48.16500 25.34800
H  26.50200 48.30300 21.88800
H  25.53600 51.10600 21.87600
H  28.75600 50.19800 21.34300
H  27.29100 50.38200 20.37900
H  28.07500 48.85100 20.30500
H  24.12900 48.59600 22.53700
H  24.61800 48.60100 20.87900
H  22.37700 49.53500 22.04000
H  22.73000 50.10900 20.35300
H  23.26500 51.04800 21.75000
H  21.33400 51.44300 25.22900
H  21.97400 53.09000 25.02000
H  21.07100 52.71800 26.46200
H  23.18500 50.18100 30.55900
H  23.68800 54.01000 32.54400
H  24.62200 52.99600 33.66900
H  22.84600 53.16200 33.89100

