158

Mg 44.98600 4.55300 48.28100
C  42.85600 7.21100 47.45900
C  42.49400 2.40300 47.86000
C  47.29000 2.14800 48.45500
C  47.70100 6.95900 48.24800
N  42.89600 4.80100 47.73900
C  42.20800 5.89000 47.42400
C  40.69300 5.58000 47.14500
C  40.51900 4.06000 47.38700
C  42.05800 3.72300 47.71400
C  39.54000 3.75600 48.49500
C  40.21000 6.08600 45.75700
C  38.99300 6.93700 45.68500
H  38.23300 6.80700 44.33400
N  44.93700 2.46600 48.34500
C  43.75600 1.85800 48.16400
C  44.01500 0.41200 48.12100
C  45.39400 0.24700 48.31000
C  45.96300 1.65100 48.38100
C  42.79800 -0.64100 48.03600
C  46.07500 -1.13800 48.41200
O  45.48100 -2.15700 48.33300
C  47.63900 -1.28300 48.60200
N  47.18700 4.52500 48.19500
C  47.83600 3.38500 48.48900
C  49.36900 3.59800 48.82300
C  49.59900 5.17200 48.55800
C  48.09100 5.61400 48.31600
C  49.82200 3.04600 50.18200
C  50.53300 5.52700 47.40300
C  51.96200 5.13300 47.57200
N  45.21700 6.59700 47.98900
C  46.35200 7.39500 48.05900
C  45.96800 8.79100 47.99800
C  44.60500 8.76400 47.74500
C  44.19400 7.41100 47.76100
C  46.83800 9.98900 47.93900
C  43.50900 9.58700 47.39100
O  43.37000 10.79300 47.45700
C  42.28500 8.63600 47.21400
C  41.19900 8.99400 48.14800
O  41.11800 8.58100 49.26800
O  40.21100 9.84300 47.56600
C  39.11000 10.20100 48.42100
H  41.68800 1.66700 47.84300
H  47.98200 1.37000 48.78200
H  48.52300 7.67900 48.24800
H  40.20900 6.17100 47.92200
H  40.26800 3.51100 46.47900
H  40.00800 3.31400 49.37400
H  38.76300 3.06800 48.16400
H  38.93300 4.55900 48.91200
H  40.09400 5.25700 45.05900
H  41.09300 6.65000 45.45600
H  39.16700 7.99400 45.88400
H  38.39400 6.62600 46.54100
H  43.08800 -1.52700 47.47200
H  41.92500 -0.33700 47.45700
H  42.49200 -0.84600 49.06200
H  48.00500 -2.31000 48.61500
H  47.85500 -0.84900 49.57800
H  48.21000 -0.78800 47.81700
H  49.94100 3.20200 47.98300
H  49.96400 5.67400 49.45400
H  49.00200 2.77000 50.84500
H  50.50800 3.74100 50.66600
H  50.32100 2.10500 49.95000
H  50.53100 6.61700 47.40700
H  50.14000 5.02000 46.52200
H  52.15200 4.66900 48.54000
H  52.51400 6.06000 47.41500
H  52.26400 4.48800 46.74600
H  47.59400 9.65400 47.22900
H  47.30800 10.20000 48.89900
H  46.25000 10.86900 47.67700
H  41.94700 8.63000 46.17800
H  39.22500 9.89900 49.46200
H  38.27600 9.65300 47.98200
H  38.81700 11.25100 48.39200
Mg 47.21300 35.16000 27.10400
C  45.49100 33.16300 29.43200
C  47.37200 37.77500 29.32100
C  48.70100 36.95200 24.68500
C  46.41200 32.62900 24.67300
N  46.56000 35.42300 29.16600
C  45.99500 34.38800 29.94000
C  45.96300 34.85500 31.28800
C  46.09800 36.40800 31.20000
C  46.67500 36.65400 29.76500
C  44.68800 37.10400 31.56100
C  47.19800 34.22900 32.10500
C  46.96800 34.15700 33.66000
H  45.98200 35.04300 34.33100
N  48.05200 37.01800 27.09100
C  48.05400 37.94400 28.11500
C  48.75200 39.13100 27.72900
C  49.13100 38.92300 26.30300
C  48.70300 37.54700 25.97900
C  48.95600 40.19400 28.78000
C  49.81500 39.94400 25.39900
O  50.25700 39.60000 24.32300
C  50.04600 41.41000 25.75000
N  47.20200 34.96700 24.79500
C  48.04700 35.81000 24.17000
C  48.41400 35.20200 22.76600
C  47.76600 33.75500 22.84400
C  47.07000 33.78000 24.16600
C  47.91800 36.02600 21.61500
C  48.83900 32.56300 22.68000
C  48.31800 31.49400 21.69000
N  46.08500 33.33200 27.07200
C  45.99400 32.42900 25.98200
C  45.40100 31.20500 26.56000
C  45.12700 31.43900 27.90800
C  45.55200 32.74300 28.09900
C  45.16700 29.95200 25.94300
C  44.62300 30.90800 29.08100
O  44.09800 29.83600 29.38300
C  44.56300 32.12500 30.08200
C  45.05000 31.47200 31.35900
O  46.20000 31.01900 31.52300
O  44.06800 31.50500 32.23200
C  44.52400 30.93600 33.48300
H  47.42200 38.68300 29.92600
H  49.00000 37.58000 23.84400
H  46.34400 31.74700 24.03300
H  45.13500 34.57300 31.93700
H  46.90700 36.69600 31.87200
H  43.95300 36.41200 31.97200
H  44.19400 37.55900 30.70300
H  44.86400 37.91400 32.27000
H  48.19100 34.60300 31.85500
H  47.41000 33.20800 31.78900
H  47.94000 34.38100 34.09900
H  46.76700 33.14600 34.01400
H  49.49600 41.05400 28.38500
H  49.43300 39.67800 29.61400
H  48.00100 40.47800 29.22200
H  50.45200 42.00600 24.93300
H  50.69800 41.18800 26.59400
H  49.13900 41.81800 26.19500
H  49.50000 35.26000 22.69300
H  47.00800 33.62200 22.07200
H  47.42300 35.36100 20.90700
H  48.79300 36.45900 21.13100
H  47.24800 36.82700 21.92600
H  49.07700 32.06100 23.61800
H  49.74400 32.98400 22.24100
H  47.53100 31.99300 21.12600
H  47.83800 30.68800 22.24500
H  49.14300 31.26100 21.01700
H  44.40300 29.33900 26.42300
H  46.07600 29.35600 25.86200
H  44.92900 30.04700 24.88400
H  43.55600 32.51700 30.22400
H  44.75300 29.87200 33.41100
H  43.87100 31.21300 34.31000
H  45.37900 31.55100 33.76600

