158

Mg 17.09100 -2.32600 27.17900
C  16.17700 -0.36700 29.85900
C  18.94200 -4.26200 29.31600
C  18.36000 -3.90400 24.48500
C  15.73100 0.02300 25.00100
N  17.43800 -2.34200 29.44600
C  16.97100 -1.45100 30.31400
C  17.35000 -1.84700 31.69100
C  18.51000 -2.97400 31.49900
C  18.28900 -3.22200 30.02700
C  19.96600 -2.58000 31.98200
C  16.20600 -2.30700 32.59500
C  16.19800 -1.66000 33.99400
H  17.40300 -1.05600 34.63900
N  18.29800 -3.93400 26.92500
C  18.99400 -4.61300 27.93100
C  19.83100 -5.70200 27.31000
C  19.56700 -5.62700 25.89400
C  18.69300 -4.47000 25.71100
C  20.62900 -6.66100 28.09900
C  20.17600 -6.54200 24.76100
O  19.99300 -6.29300 23.54600
C  21.08700 -7.73700 25.15200
N  16.85500 -2.11200 25.03400
C  17.59100 -2.82000 24.14300
C  17.74300 -2.14100 22.79000
C  16.55900 -1.09600 22.87700
C  16.31800 -1.04300 24.37800
C  19.13800 -1.50100 22.44800
C  15.24700 -1.46600 22.14600
C  14.93100 -0.49200 21.02100
N  15.93600 -0.59400 27.27800
C  15.52600 0.31900 26.36100
C  14.86000 1.41800 27.00900
C  15.10100 1.23900 28.35600
C  15.74100 -0.04400 28.47600
C  14.23900 2.64700 26.30400
C  14.89400 1.83200 29.68300
O  14.25200 2.82000 29.99000
C  15.52600 0.81700 30.64100
C  16.41800 1.52900 31.56500
O  17.62200 1.64000 31.32500
O  15.81000 2.06000 32.65000
C  16.72300 2.96800 33.44300
H  19.56800 -4.84600 29.99400
H  18.78300 -4.36100 23.58800
H  15.37700 0.76700 24.28400
H  17.80000 -0.91600 32.03700
H  18.23800 -3.86800 32.06000
H  19.97400 -1.56900 32.38900
H  20.73600 -2.83200 31.25400
H  20.07000 -3.16600 32.89600
H  16.22900 -3.38100 32.78300
H  15.30400 -1.98900 32.07300
H  15.94100 -2.43600 34.71500
H  15.36600 -0.96000 34.06000
H  20.82200 -6.25800 29.09300
H  21.56200 -6.92600 27.60200
H  20.00900 -7.55100 28.20700
H  20.37500 -8.33200 25.72400
H  22.00300 -7.51600 25.70000
H  21.43800 -8.30200 24.28800
H  17.44400 -2.98000 22.16200
H  16.92400 -0.12800 22.53400
H  20.03500 -2.05100 22.73100
H  19.30800 -0.55000 22.95300
H  19.07200 -1.58700 21.36300
H  14.37800 -1.57000 22.79600
H  15.37700 -2.45800 21.71300
H  13.98000 -0.01800 21.26300
H  14.70700 -1.13400 20.16900
H  15.69200 0.26200 20.82000
H  13.23500 2.35100 25.99900
H  14.85100 2.91600 25.44300
H  14.07300 3.43700 27.03600
H  14.84600 0.37400 31.36700
H  16.22600 3.14600 34.39700
H  16.71800 3.88800 32.85900
H  17.74800 2.61400 33.55600
Mg 15.49500 51.81700 26.49800
C  18.04100 50.90600 28.78300
C  13.28900 51.76900 29.12900
C  13.02800 52.41800 24.35400
C  17.82400 51.30100 23.85200
N  15.71900 51.53500 28.74800
C  16.87200 51.34100 29.43500
C  16.56100 51.50900 30.95700
C  15.06000 51.17600 30.98900
C  14.63800 51.50400 29.54700
C  14.82300 49.75300 31.36400
C  16.93000 52.92700 31.51300
C  17.02300 53.06600 32.98800
H  16.23800 52.16800 33.92700
N  13.49700 52.07400 26.70800
C  12.72800 51.98400 27.88100
C  11.32100 52.16600 27.67500
C  11.24500 52.43500 26.25300
C  12.60400 52.37100 25.71900
C  10.20900 52.10900 28.72500
C  10.00500 52.76500 25.39000
O  10.08000 52.99600 24.20700
C  8.58900 52.84100 26.10400
N  15.38800 51.78500 24.39000
C  14.25600 52.28100 23.79000
C  14.43700 52.44900 22.27600
C  15.94700 51.91400 22.06600
C  16.44200 51.70800 23.49200
C  13.48300 51.59700 21.42600
C  16.78200 52.90900 21.18600
C  17.63400 52.40400 20.04600
N  17.50500 51.25200 26.33800
C  18.30400 51.10600 25.21400
C  19.66300 50.76700 25.55400
C  19.52900 50.54100 26.97900
C  18.23800 50.92500 27.37500
C  20.86400 50.54200 24.70300
C  20.24400 50.08400 28.17500
O  21.41700 49.67300 28.30200
C  19.25600 50.37500 29.40700
C  19.01300 49.11900 30.21500
O  18.31300 48.17700 29.91800
O  19.56800 49.35100 31.43000
C  19.21900 48.48200 32.58500
H  12.60300 51.67400 29.97300
H  12.23600 52.64800 23.63900
H  18.56700 51.20700 23.05800
H  17.14900 50.74100 31.45900
H  14.44800 51.91600 31.50600
H  14.07300 49.25100 30.75300
H  14.58300 49.63300 32.42100
H  15.74200 49.17400 31.27700
H  16.34100 53.65600 30.95600
H  17.98000 53.02100 31.23700
H  16.71900 54.11000 33.05000
H  18.04600 53.01400 33.36200
H  9.52900 52.94500 28.56100
H  10.66000 52.13800 29.71700
H  9.60700 51.20600 28.62500
H  8.44500 51.90600 26.64600
H  7.78700 52.93400 25.37200
H  8.48900 53.70200 26.76500
H  14.39800 53.50600 22.01300
H  15.89500 50.90300 21.66200
H  13.13900 50.70300 21.94600
H  14.06700 51.09500 20.65500
H  12.66400 52.15200 20.96700
H  17.57800 53.29000 21.82600
H  16.28000 53.80200 20.81500
H  17.40200 52.91300 19.11000
H  17.58900 51.31600 19.98800
H  18.68900 52.54900 20.27900
H  20.72100 51.09900 23.77700
H  20.83800 49.49800 24.39000
H  21.79300 50.81600 25.20100
H  19.68500 51.11700 30.08000
H  18.71200 49.08800 33.33600
H  20.09600 48.12600 33.12600
H  18.55400 47.63600 32.41500

