158

Mg 23.90000 -6.64600 46.06800
C  26.27900 -4.29300 44.85500
C  21.56500 -5.05100 44.11600
C  21.98900 -9.25100 46.62700
C  26.53400 -8.12100 47.81500
N  23.99600 -4.87000 44.58800
C  25.06800 -4.14700 44.24800
C  24.70100 -3.29700 42.99900
C  23.13800 -3.31100 43.03700
C  22.86300 -4.45300 43.99600
C  22.48400 -1.98700 43.49700
C  25.31800 -3.91000 41.69000
C  25.87600 -3.00600 40.58900
H  25.25100 -3.04800 39.19500
N  21.97100 -7.11500 45.43000
C  21.12500 -6.31700 44.68300
C  19.79100 -6.87300 44.67400
C  19.89100 -8.07100 45.45900
C  21.31100 -8.18100 45.87700
C  18.60600 -6.31700 44.12300
C  18.74600 -8.99900 45.68600
O  17.69800 -8.85300 45.08700
C  18.88300 -10.27800 46.58100
N  24.21300 -8.38000 47.14900
C  23.23800 -9.33600 47.30400
C  23.67700 -10.50700 48.12200
C  25.13800 -10.11900 48.57200
C  25.30300 -8.71800 47.89400
C  22.64400 -10.95200 49.27800
C  26.32600 -11.07400 48.17800
C  27.33800 -11.47600 49.26100
N  26.00900 -6.34600 46.34000
C  26.96400 -6.96100 47.10700
C  28.27300 -6.29500 46.99400
C  28.06700 -5.27800 46.02600
C  26.65000 -5.31700 45.75400
C  29.48200 -6.76900 47.65000
C  28.71700 -4.20400 45.33500
O  29.86400 -3.74300 45.28200
C  27.50400 -3.41700 44.60900
C  27.35600 -2.05500 45.22100
O  26.69600 -1.16400 44.78600
O  28.00900 -1.98500 46.40900
C  27.96200 -0.66600 47.01600
H  20.83100 -4.48300 43.54100
H  21.33500 -10.10900 46.79200
H  27.30600 -8.72600 48.29500
H  25.13600 -2.29800 43.02300
H  22.65000 -3.55800 42.09400
H  22.15500 -2.01900 44.53600
H  21.57400 -1.96300 42.89800
H  23.12200 -1.13100 43.27900
H  24.52300 -4.50100 41.23600
H  26.14800 -4.56000 41.96700
H  26.94900 -3.18700 40.52600
H  25.77300 -1.96500 40.89700
H  18.48100 -6.88200 43.19900
H  18.67600 -5.23000 44.08800
H  17.83600 -6.58900 44.84600
H  19.26600 -9.97200 47.55400
H  19.59300 -10.87200 46.00500
H  17.98600 -10.87500 46.74200
H  23.73000 -11.33500 47.41500
H  25.15800 -10.06700 49.66100
H  21.77700 -10.29500 49.35700
H  23.02100 -11.10700 50.28900
H  22.15900 -11.87200 48.95200
H  26.83800 -10.70400 47.29000
H  25.86900 -12.03800 47.95800
H  27.63100 -12.51400 49.10400
H  26.86900 -11.42100 50.24300
H  28.19600 -10.80600 49.20900
H  30.29800 -6.73700 46.92800
H  29.22100 -7.79300 47.91600
H  29.78400 -6.24500 48.55700
H  27.77500 -3.14000 43.59000
H  26.96800 -0.27000 47.22100
H  28.56400 -0.06000 46.33900
H  28.46900 -0.82100 47.96800
Mg 33.67100 48.62700 25.03700
C  34.09800 47.19900 28.23700
C  31.97300 51.24800 26.62300
C  33.16400 49.80300 22.09200
C  35.18100 45.69100 23.68200
N  33.31000 49.22200 27.25300
C  33.56700 48.52100 28.33400
C  33.28400 49.36600 29.61100
C  32.46800 50.55700 29.05100
C  32.64900 50.38600 27.54800
C  31.05600 50.63900 29.50700
C  34.50100 49.72000 30.35200
C  34.41400 49.69600 31.85600
H  33.01500 49.56000 32.54200
N  32.70100 50.31500 24.43300
C  32.07000 51.26100 25.17500
C  31.64400 52.35900 24.28200
C  31.90900 51.93800 22.96200
C  32.61600 50.59800 23.16000
C  30.99300 53.59500 24.71700
C  31.56500 52.71300 21.72600
O  31.91700 52.23600 20.65400
C  30.73700 54.00500 21.69000
N  34.12900 47.85500 23.14900
C  33.89100 48.58400 21.99000
C  34.47900 47.97400 20.73800
C  35.06300 46.65400 21.28500
C  34.85900 46.77800 22.78400
C  33.38800 47.84700 19.60300
C  36.56500 46.30100 20.78700
C  37.75900 46.75500 21.70500
N  34.31300 46.69600 25.66800
C  34.96200 45.69300 25.09700
C  35.31600 44.63600 26.02800
C  34.92800 45.22300 27.31100
C  34.42300 46.43800 27.05800
C  35.87300 43.30100 25.66800
C  34.97300 45.01300 28.77200
O  35.35200 44.04100 29.34500
C  34.40400 46.30100 29.38800
C  33.17000 45.79500 30.00400
O  32.08600 45.65900 29.45700
O  33.50800 45.46800 31.32500
C  32.44800 44.77100 32.12000
H  31.50600 52.10300 27.11600
H  32.99800 50.20700 21.09100
H  35.68500 44.81400 23.26900
H  32.63500 48.75700 30.24100
H  32.98000 51.49100 29.28300
H  30.70600 49.72800 29.99200
H  30.45800 50.70200 28.59700
H  30.85600 51.42200 30.23800
H  34.72200 50.75200 30.08200
H  35.35700 49.16200 29.97000
H  34.98500 50.52900 32.26500
H  34.93400 48.77300 32.11600
H  31.54000 54.44200 24.30500
H  31.12500 53.69600 25.79400
H  29.92300 53.68300 24.52500
H  29.80600 54.00500 22.25700
H  30.51000 54.28600 20.66100
H  31.35900 54.80000 22.10000
H  35.27600 48.68000 20.50500
H  34.40600 45.83400 20.99500
H  32.62900 48.62000 19.47900
H  32.82200 46.95400 19.87000
H  33.76700 47.68200 18.59400
H  36.79900 46.77600 19.83400
H  36.62200 45.21500 20.71200
H  37.52900 47.43500 22.52600
H  38.34400 47.38400 21.03500
H  38.34600 45.93500 22.11900
H  36.95600 43.35100 25.55600
H  35.37700 42.86900 24.79900
H  35.75500 42.62400 26.51400
H  35.16900 46.67400 30.07000
H  32.82700 43.75200 32.19800
H  31.47300 44.89500 31.64900
H  32.35600 45.26400 33.08800

