158

Mg -2.51800 17.06000 26.80500
C  -2.60500 15.04300 29.53800
C  -3.28000 19.77300 28.84200
C  -2.59800 19.02600 24.03600
C  -2.35800 14.23500 24.73600
N  -3.02900 17.46300 28.92200
C  -2.78500 16.45600 29.89200
C  -3.00200 17.08400 31.28100
C  -3.28200 18.53900 30.96300
C  -3.30000 18.61800 29.51900
C  -4.48200 19.27100 31.73200
C  -1.85700 16.88000 32.31100
C  -2.32400 16.29800 33.63900
H  -1.20000 16.20700 34.66000
N  -2.75900 19.04600 26.53000
C  -3.10500 19.93400 27.46500
C  -3.28500 21.24400 26.82000
C  -3.07900 21.15200 25.47800
C  -2.75800 19.68700 25.28400
C  -3.58300 22.45900 27.55000
C  -3.24100 22.20400 24.40000
O  -3.10800 21.98800 23.20100
C  -3.40400 23.67000 24.79400
N  -2.51200 16.70800 24.75000
C  -2.48200 17.68300 23.74700
C  -2.62200 17.14500 22.36900
C  -2.29900 15.56100 22.54300
C  -2.36200 15.47500 24.09500
C  -4.02700 17.39100 21.64500
C  -0.86300 15.07100 22.24900
C  0.39500 15.90200 22.58400
N  -2.53800 15.02700 27.03400
C  -2.53700 14.02100 26.11200
C  -2.45800 12.74100 26.80300
C  -2.47100 13.03400 28.14200
C  -2.56000 14.43800 28.23900
C  -2.33600 11.36100 26.15500
C  -2.33100 12.51300 29.49100
O  -2.32800 11.35400 29.89700
C  -2.38700 13.73100 30.38300
C  -1.04300 13.77500 31.13600
O  -0.01800 14.16900 30.67400
O  -1.19600 13.24200 32.39600
C  0.13000 13.18600 33.15800
H  -3.39000 20.64700 29.48700
H  -2.60000 19.60600 23.11100
H  -2.19700 13.36000 24.10300
H  -3.90500 16.64300 31.70500
H  -2.40800 19.07900 31.32900
H  -4.17100 20.06700 32.40900
H  -5.03000 18.51100 32.28900
H  -5.20300 19.72600 31.05300
H  -1.22700 17.74800 32.50700
H  -1.17000 16.11600 31.94700
H  -2.41100 15.25900 33.32200
H  -3.31100 16.66400 33.92100
H  -4.56300 22.86600 27.30500
H  -2.72600 23.13200 27.49900
H  -3.65200 22.39500 28.63600
H  -3.43200 24.30000 23.90400
H  -2.55700 23.99800 25.39600
H  -4.33200 23.82400 25.34500
H  -1.79700 17.43500 21.71800
H  -3.10700 14.92100 22.18600
H  -4.63000 16.48400 21.62400
H  -4.01600 17.84200 20.65200
H  -4.51200 18.16200 22.24400
H  -0.89000 15.04700 21.16000
H  -0.62200 14.06600 22.59700
H  0.50900 16.35200 21.59800
H  1.32900 15.34300 22.64500
H  0.28500 16.71900 23.29800
H  -3.33900 11.26700 25.74000
H  -2.15500 10.58100 26.89600
H  -1.59800 11.30600 25.35500
H  -3.22200 13.66400 31.08000
H  -0.17500 12.98100 34.18400
H  0.77500 14.06300 33.10800
H  0.75800 12.32800 32.91900
Mg 48.16200 25.08400 28.27800
C  49.33100 27.51100 30.69400
C  47.46200 23.14900 30.96900
C  47.71300 22.72900 26.04300
C  49.95200 27.02100 25.79300
N  48.33700 25.36200 30.62300
C  48.72000 26.49000 31.32700
C  48.55400 26.23500 32.79100
C  48.13500 24.72200 32.87200
C  48.01000 24.37100 31.38900
C  49.11300 23.81500 33.66000
C  47.55800 27.19700 33.42700
C  47.67100 27.36000 34.95000
H  46.40900 27.64500 35.74600
N  47.39800 23.26300 28.42200
C  47.16900 22.54900 29.64500
C  46.59800 21.23500 29.35200
C  46.62600 21.20200 27.91000
C  47.27600 22.41200 27.37800
C  46.16100 20.23900 30.45200
C  46.13700 20.12100 26.98400
O  46.37200 20.12300 25.77500
C  45.54200 18.97500 27.65500
N  48.83000 24.90300 26.28200
C  48.31400 23.86900 25.52700
C  48.78000 23.95800 24.05200
C  49.20700 25.47900 23.96500
C  49.38200 25.80300 25.42100
C  49.93700 22.98700 23.70100
C  48.20400 26.52200 23.31500
C  48.75200 27.90600 22.91100
N  49.35600 26.89000 28.14400
C  49.92100 27.53700 27.06600
C  50.55000 28.74700 27.49900
C  50.22300 28.86000 28.87600
C  49.55900 27.65200 29.24100
C  51.45400 29.61100 26.63100
C  50.38800 29.66000 30.04900
O  50.88100 30.78100 30.07800
C  49.77200 28.88100 31.30400
C  50.89300 28.76400 32.28000
O  51.83600 27.96300 32.20000
O  50.61800 29.45200 33.48700
C  51.37200 29.07000 34.71100
H  47.09900 22.49100 31.76200
H  47.38800 21.97300 25.32500
H  50.40900 27.63900 25.01800
H  49.51700 26.40400 33.27200
H  47.14100 24.58100 33.29700
H  49.77600 24.34900 34.34000
H  49.73800 23.26100 32.96000
H  48.44400 23.17000 34.23000
H  46.56700 26.76300 33.29200
H  47.62900 28.15400 32.90800
H  48.42600 28.13100 35.10500
H  48.21600 26.44900 35.19600
H  46.17600 20.65000 31.46200
H  46.69000 19.28600 30.45400
H  45.11800 19.95300 30.31900
H  44.63700 19.15100 28.23600
H  46.23100 18.28700 28.14200
H  45.02000 18.46200 26.84700
H  47.95500 23.68500 23.39500
H  50.17000 25.50600 23.45500
H  50.13500 22.32700 24.54500
H  50.79600 23.61600 23.46500
H  49.60500 22.30300 22.92000
H  47.39800 26.65900 24.03600
H  47.69600 26.02200 22.49000
H  48.37100 28.67000 23.58800
H  48.46700 28.24500 21.91500
H  49.83500 27.84800 22.80200
H  51.97700 28.97900 25.91300
H  52.07900 30.15000 27.34300
H  50.80700 30.30200 26.09000
H  49.02500 29.58700 31.66800
H  51.25200 27.98900 34.78300
H  50.97700 29.46900 35.64500
H  52.36900 29.50300 34.62600

