158

Mg 2.38500 -1.41200 43.81700
C  5.85900 -0.82800 43.27000
C  1.75500 1.06900 41.64000
C  -0.79200 -2.50500 43.74000
C  3.35300 -4.44300 45.52600
N  3.73700 -0.14000 42.52000
C  5.09800 0.02400 42.53500
C  5.53900 1.04300 41.52300
C  4.13500 1.63500 41.08000
C  3.07500 0.86900 41.87400
C  4.01200 3.12600 41.26600
C  6.34200 0.43400 40.36400
C  7.71700 1.17300 40.22900
H  8.16200 1.64000 38.80900
N  0.67700 -0.73800 42.89800
C  0.61000 0.40500 42.07500
C  -0.78600 0.67800 41.80300
C  -1.58400 -0.37500 42.39200
C  -0.57800 -1.29400 43.05000
C  -1.24100 1.82900 41.06400
C  -3.08300 -0.48200 42.35100
O  -3.81800 0.30300 41.78700
C  -3.86300 -1.64500 43.07700
N  1.48600 -3.28100 44.39900
C  0.12700 -3.35200 44.35500
C  -0.34800 -4.59600 45.15300
C  0.90300 -5.40100 45.48800
C  2.00500 -4.31100 45.17000
C  -1.26900 -4.09300 46.38000
C  1.06100 -6.69800 44.70800
C  0.95000 -8.01200 45.46300
N  4.21100 -2.42400 44.35500
C  4.39200 -3.56300 45.06900
C  5.81500 -3.77600 45.36000
C  6.41900 -2.63800 44.66200
C  5.40500 -1.90000 44.05200
C  6.46500 -4.93600 46.09300
C  7.63500 -1.97200 44.49500
O  8.72000 -2.20400 44.98000
C  7.41200 -0.77200 43.52200
C  7.97900 0.40200 44.15100
O  7.63400 0.86700 45.24800
O  8.90100 0.91900 43.33500
C  9.37600 2.27300 43.62700
H  1.47400 1.87700 40.96200
H  -1.84500 -2.78200 43.82000
H  3.62600 -5.37100 46.03100
H  6.14100 1.65000 42.20000
H  4.08300 1.50100 39.99900
H  4.98500 3.61000 41.34900
H  3.56400 3.35600 42.23200
H  3.47300 3.61100 40.45200
H  5.73900 0.42600 39.45600
H  6.69600 -0.57400 40.57800
H  8.54600 0.53000 40.52400
H  7.81400 2.06500 40.84800
H  -2.03800 2.34600 41.59900
H  -1.70300 1.48400 40.13900
H  -0.49500 2.60200 40.88100
H  -4.87000 -1.23300 43.13400
H  -3.51200 -1.63700 44.10900
H  -3.77900 -2.63900 42.63800
H  -1.01000 -5.17100 44.50600
H  1.00900 -5.50100 46.56800
H  -1.73400 -3.14500 46.10800
H  -0.65500 -3.92900 47.26600
H  -2.06300 -4.81700 46.55800
H  1.95600 -6.68200 44.08600
H  0.24000 -6.69500 43.99200
H  1.74900 -8.67700 45.13500
H  -0.02800 -8.43400 45.23200
H  0.92000 -7.79400 46.53000
H  6.36400 -4.68800 47.15000
H  7.46800 -5.04800 45.67900
H  5.93400 -5.88100 45.97900
H  7.93800 -1.05600 42.61100
H  10.19500 2.19400 44.34100
H  8.58400 2.88100 44.06400
H  9.65700 2.77400 42.70100
Mg -11.57300 16.97100 41.79400
C  -8.28200 15.49900 41.35300
C  -10.21500 19.96500 40.44600
C  -14.67500 18.16700 41.38100
C  -12.71000 13.86400 42.27600
N  -9.46000 17.57700 40.87000
C  -8.34100 16.77300 40.90400
C  -7.21300 17.63600 40.35400
C  -7.76000 19.14000 40.25500
C  -9.23200 18.91600 40.51900
C  -7.19000 20.26100 41.23400
C  -6.60500 17.02100 39.07400
C  -5.17800 17.55500 38.77000
H  -5.00100 18.56000 37.61300
N  -12.36000 18.79600 41.12600
C  -11.61900 19.88500 40.68200
C  -12.51900 21.08900 40.57800
C  -13.83900 20.62300 40.93400
C  -13.70400 19.12400 41.16700
C  -12.11200 22.48700 40.16900
C  -15.04700 21.41200 41.00900
O  -14.97900 22.64000 40.84600
C  -16.40400 20.89300 41.42000
N  -13.43800 16.12500 41.87900
C  -14.56200 16.84000 41.76500
C  -15.84600 16.00000 42.10300
C  -15.22200 14.55900 42.18100
C  -13.68500 14.80600 42.14000
C  -16.58900 16.34700 43.38400
C  -15.55300 13.65200 40.92600
C  -16.20900 12.26900 41.33200
N  -10.67000 15.05500 41.97500
C  -11.30600 13.87000 42.14800
C  -10.23900 12.90100 42.43000
C  -9.05100 13.47700 42.12800
C  -9.31800 14.78500 41.83000
C  -10.52000 11.43900 42.83300
C  -7.59300 13.27100 42.04100
O  -6.82000 12.34300 42.25900
C  -7.03700 14.59200 41.53000
C  -6.05500 15.17100 42.54800
O  -6.38100 15.94700 43.42800
O  -4.74300 14.70700 42.26900
C  -3.62700 15.35400 42.99300
H  -9.74400 20.89100 40.11100
H  -15.70900 18.51800 41.38100
H  -13.05300 12.86200 42.53800
H  -6.49500 17.64100 41.17500
H  -7.68200 19.57400 39.25800
H  -7.93400 20.31900 42.02900
H  -7.18800 21.17800 40.64400
H  -6.16300 20.07900 41.55000
H  -7.34000 17.37800 38.35300
H  -6.62200 15.93300 39.00100
H  -4.62200 16.73600 38.31400
H  -4.68400 17.87600 39.68700
H  -12.30200 23.16700 41.00000
H  -12.61400 22.76200 39.24100
H  -11.06200 22.42800 39.88100
H  -17.14800 21.67300 41.58200
H  -16.31400 20.39300 42.38500
H  -16.67300 20.26000 40.57500
H  -16.59000 16.07200 41.31000
H  -15.57900 14.08600 43.09500
H  -17.67700 16.38800 43.32000
H  -16.22000 17.32600 43.69000
H  -16.35700 15.54900 44.08900
H  -14.66500 13.45500 40.32600
H  -16.30600 14.17800 40.33900
H  -17.17900 12.08800 40.87000
H  -16.24800 12.07300 42.40400
H  -15.48100 11.54500 40.96500
H  -11.26800 10.94900 42.21000
H  -10.96500 11.36600 43.82500
H  -9.62200 10.84000 42.67800
H  -6.46300 14.41600 40.62000
H  -2.96700 15.93100 42.34600
H  -3.13600 14.49100 43.44400
H  -3.94300 15.99700 43.81400

