158

Mg 46.76400 24.64900 28.94200
C  47.47500 26.87600 31.37800
C  45.87100 22.36900 31.41900
C  46.72200 22.21100 26.63600
C  48.43900 26.73600 26.63900
N  46.87400 24.62400 31.19300
C  47.07300 25.72400 31.94800
C  46.56300 25.51200 33.44400
C  46.41900 23.88500 33.48900
C  46.37000 23.59400 31.94100
C  47.58100 23.10400 34.19600
C  45.22100 26.18600 33.69600
C  44.91100 26.85900 34.98400
H  45.66700 26.50600 36.22700
N  46.27200 22.67500 29.03300
C  45.78600 21.91300 30.10400
C  45.30700 20.60400 29.67800
C  45.52700 20.52400 28.23200
C  46.20300 21.84900 27.90000
C  44.61800 19.60900 30.63500
C  45.23000 19.42200 27.24100
O  45.35300 19.45900 26.02100
C  44.67600 18.18400 27.75400
N  47.64100 24.51300 26.93800
C  47.39800 23.31800 26.20100
C  47.77900 23.50400 24.70200
C  48.26600 24.98500 24.67200
C  48.07500 25.46900 26.15600
C  48.79700 22.40400 24.18600
C  47.75800 25.85300 23.52000
C  46.70100 27.00500 23.80500
N  47.64400 26.51700 28.94400
C  48.29600 27.21500 27.91800
C  48.63400 28.48600 28.41300
C  48.36400 28.40400 29.75300
C  47.74000 27.16400 30.03100
C  49.28600 29.51800 27.60300
C  48.45900 29.09900 30.99000
O  48.78900 30.27200 31.20600
C  47.87400 28.14600 32.13400
C  48.97700 27.87800 33.15500
O  50.00400 27.25400 32.90600
O  48.68200 28.56400 34.30700
C  49.66900 28.35000 35.39600
H  45.50300 21.63000 32.13300
H  46.50900 21.54300 25.79900
H  48.80500 27.32400 25.79500
H  47.38300 25.75900 34.11900
H  45.53900 23.45800 33.97000
H  47.79700 22.13100 33.75400
H  47.29100 22.90100 35.22600
H  48.44900 23.76300 34.23000
H  44.41800 25.48900 33.45500
H  45.06200 27.05000 33.05200
H  43.92200 26.52800 35.30000
H  44.91200 27.93900 34.83700
H  44.20700 20.12400 31.50400
H  45.32600 18.87100 31.01100
H  43.82000 18.98400 30.23400
H  45.23000 17.94500 28.66200
H  44.47900 17.37400 27.05200
H  43.69400 18.50500 28.10200
H  46.87900 23.50900 24.08800
H  49.33800 24.89700 24.49300
H  48.46400 21.77400 23.36100
H  48.98000 21.70000 24.99700
H  49.72300 22.85600 23.83200
H  47.26800 25.22600 22.77500
H  48.64400 26.33300 23.10500
H  47.07800 27.97600 23.48600
H  46.39100 27.01900 24.84900
H  45.79300 26.85400 23.22100
H  48.84600 29.54000 26.60500
H  50.33000 29.22700 27.48800
H  49.12700 30.50400 28.04100
H  46.99800 28.53900 32.65000
H  50.48200 29.07300 35.33500
H  49.99800 27.31800 35.51600
H  49.16000 28.62400 36.32000
Mg 0.28500 44.37000 27.33000
C  2.62300 43.68200 29.67400
C  -2.22000 43.34300 29.50500
C  -2.16800 44.85200 24.86700
C  2.73600 44.84000 24.84500
N  0.23100 43.58900 29.20200
C  1.28700 43.63100 30.10900
C  0.86600 43.65700 31.61000
C  -0.57200 43.08400 31.44900
C  -0.89600 43.37100 29.99500
C  -0.80100 41.56300 31.94900
C  0.96800 45.07100 32.25800
C  1.34800 45.17600 33.77100
H  1.20200 43.88400 34.63100
N  -1.89400 44.16700 27.17000
C  -2.69700 43.69600 28.20100
C  -4.07800 43.59700 27.74500
C  -4.07100 44.07900 26.39000
C  -2.67700 44.43400 26.09200
C  -5.23000 43.05900 28.61900
C  -5.22800 44.33700 25.48100
O  -5.16800 45.05400 24.50300
C  -6.61700 43.74100 25.75300
N  0.32200 44.92600 25.17800
C  -0.83400 45.06000 24.48200
C  -0.48800 45.27400 22.97500
C  1.03600 45.36800 22.89800
C  1.42500 45.03000 24.36100
C  -1.14100 44.17800 22.07200
C  1.42200 46.71700 22.27800
C  1.33600 48.03700 23.09300
N  2.29100 44.31900 27.22000
C  3.22300 44.50300 26.17700
C  4.48100 44.24200 26.78200
C  4.28800 43.99400 28.14900
C  2.93700 43.94000 28.36400
C  5.73600 44.21100 25.99500
C  5.00500 43.91700 29.39700
O  6.20400 43.83300 29.64600
C  3.85800 43.79600 30.48700
C  4.04700 42.62500 31.32800
O  3.55800 41.53600 31.22200
O  4.88100 42.99700 32.35300
C  5.19600 41.95400 33.36800
H  -2.94000 42.90000 30.19600
H  -2.93500 44.93400 24.09400
H  3.49500 45.17000 24.13400
H  1.46000 42.97700 32.22100
H  -1.26500 43.74500 31.97000
H  0.13700 41.10100 32.25400
H  -1.30200 40.91400 31.23000
H  -1.51000 41.58300 32.77600
H  -0.01500 45.50700 32.07700
H  1.87300 45.43300 31.77100
H  0.85700 46.04900 34.20100
H  2.41100 45.41600 33.75000
H  -5.90600 42.29700 28.23200
H  -5.84700 43.87800 28.98900
H  -4.85000 42.57500 29.51900
H  -6.60600 42.66700 25.56400
H  -7.34500 44.32000 25.18600
H  -6.87300 43.83700 26.80900
H  -0.94000 46.21100 22.65200
H  1.43900 44.65800 22.17600
H  -1.52500 43.40100 22.73200
H  -0.39100 43.72300 21.42400
H  -1.91200 44.71200 21.51700
H  0.90100 46.87200 21.33300
H  2.48800 46.61000 22.07700
H  0.78000 48.87300 22.66900
H  2.37800 48.31500 23.24800
H  0.99800 47.71300 24.07700
H  6.42700 43.77000 26.71300
H  5.84000 45.26000 25.71500
H  5.61600 43.46800 25.20700
H  3.89900 44.70400 31.08900
H  5.93500 41.30300 32.90100
H  4.34100 41.40700 33.76600
H  5.59800 42.33000 34.30900

