158

Mg 30.28100 60.15400 39.65500
C  27.33200 58.56600 38.42900
C  31.97400 57.31400 38.59100
C  33.22000 61.79700 40.01900
C  28.50300 63.06400 40.12600
N  29.69200 58.19700 38.48900
C  28.50300 57.78100 38.12900
C  28.61800 56.39100 37.41700
C  29.99700 55.85900 37.91000
C  30.63300 57.22400 38.30200
C  30.04700 54.79600 39.10000
C  28.45400 56.52400 35.89100
C  27.34400 55.71300 35.12900
H  26.53000 56.51300 34.08400
N  32.26800 59.61400 39.37400
C  32.75400 58.33300 38.98300
C  34.16200 58.31100 39.16400
C  34.62700 59.64500 39.44400
C  33.37600 60.44200 39.61900
C  34.99100 57.05900 38.86900
C  36.12800 60.03400 39.69100
O  36.97300 59.19900 39.56900
C  36.51200 61.38600 40.14900
N  30.83600 62.21700 39.77600
C  32.05900 62.59600 40.10600
C  32.01200 64.08200 40.34600
C  30.56700 64.42200 40.74700
C  29.88400 63.13600 40.19900
C  33.10700 64.54900 41.43800
C  30.10500 65.69900 40.04300
C  29.67700 66.83700 41.02500
N  28.31500 60.71100 39.60700
C  27.75700 61.94500 39.76500
C  26.34400 61.86100 39.55500
C  26.13100 60.49900 39.11800
C  27.37300 59.88200 39.06500
C  25.34800 62.85700 39.56200
C  25.16200 59.55700 38.57700
O  23.97600 59.67800 38.30900
C  25.84800 58.20600 38.29400
C  25.49000 57.19700 39.33600
O  25.84000 57.29600 40.51100
O  24.55000 56.38500 38.83100
C  23.76900 55.69400 39.79500
H  32.52100 56.43500 38.24400
H  34.12700 62.39900 40.09900
H  27.92800 63.97700 40.29800
H  27.86400 55.74200 37.86200
H  30.55600 55.33400 37.13500
H  29.04200 54.80600 39.52300
H  30.84500 55.09300 39.78000
H  30.27400 53.81300 38.68800
H  29.39300 56.17900 35.45800
H  28.32200 57.52000 35.46700
H  26.68400 55.31100 35.89800
H  27.85500 54.93700 34.55900
H  35.85300 56.84700 39.50100
H  35.39800 57.00000 37.85900
H  34.51800 56.10300 39.09700
H  37.59300 61.47900 40.25700
H  36.07200 61.40400 41.14600
H  36.17800 62.18200 39.48400
H  32.40100 64.55300 39.44300
H  30.38400 64.22800 41.80400
H  32.69700 65.25900 42.15700
H  33.90600 65.09400 40.93400
H  33.50800 63.77400 42.09000
H  29.34700 65.50900 39.28200
H  30.86500 66.24000 39.48000
H  30.06200 67.73700 40.54700
H  30.12700 66.65200 42.00100
H  28.61100 66.87200 41.24800
H  24.82200 62.81300 38.60800
H  25.78200 63.84800 39.69500
H  24.64000 62.80600 40.38900
H  25.49600 57.87000 37.31900
H  24.28500 54.85300 40.25600
H  22.96600 55.27500 39.18900
H  23.32700 56.43900 40.45700
Mg -4.71000 24.88500 25.89800
C  -2.89500 26.44500 28.51000
C  -5.74400 22.63400 28.13800
C  -6.36400 23.56000 23.47800
C  -3.11000 27.13100 23.59900
N  -4.38200 24.69000 28.05300
C  -3.73700 25.46100 28.90800
C  -4.07600 25.15900 30.39300
C  -4.71200 23.78900 30.22100
C  -5.03000 23.67700 28.69900
C  -3.79800 22.64000 30.70000
C  -5.09600 26.25700 30.88800
C  -5.02300 26.43000 32.44500
H  -4.62300 25.24700 33.33500
N  -5.95700 23.33100 25.82300
C  -6.18600 22.45900 26.80500
C  -6.88600 21.29000 26.27300
C  -7.15200 21.52100 24.88800
C  -6.50300 22.84300 24.68500
C  -7.47300 20.16700 27.20700
C  -7.97400 20.77300 23.87000
O  -8.26500 21.27700 22.79500
C  -8.54000 19.38100 24.18300
N  -4.89400 25.48400 23.85500
C  -5.60800 24.67200 23.08000
C  -5.41300 24.85400 21.57000
C  -4.45400 26.09600 21.58900
C  -4.14200 26.31500 23.10200
C  -4.76600 23.59500 20.95100
C  -5.03800 27.31400 20.89200
C  -4.20500 27.76200 19.70800
N  -3.25400 26.41700 25.96600
C  -2.73200 27.24400 24.96000
C  -1.81700 28.22400 25.60100
C  -1.89100 27.99400 26.96000
C  -2.70600 26.81700 27.16700
C  -1.15400 29.33600 24.90500
C  -1.31900 28.43300 28.27200
O  -0.48100 29.30400 28.51300
C  -2.11000 27.48400 29.37200
C  -1.12500 26.79200 30.22600
O  -0.24700 26.06900 29.92100
O  -1.44600 27.11700 31.52900
C  -0.58300 26.72300 32.66100
H  -6.19400 21.91500 28.82500
H  -6.88100 23.15500 22.60600
H  -2.74800 27.77800 22.79800
H  -3.20600 25.19000 31.04900
H  -5.58100 23.72400 30.87500
H  -4.41900 22.01600 31.34300
H  -3.02700 22.96900 31.39700
H  -3.37200 22.06800 29.87500
H  -6.11700 26.03300 30.57900
H  -4.87600 27.24400 30.48100
H  -5.99400 26.69100 32.86800
H  -4.25600 27.17400 32.65800
H  -6.79500 19.31400 27.22400
H  -8.48300 20.06100 26.81200
H  -7.56900 20.64600 28.18100
H  -7.72700 18.71800 24.47700
H  -8.98600 19.06900 23.23800
H  -9.25800 19.37500 25.00300
H  -6.42100 24.99700 21.18000
H  -3.50400 25.85900 21.10900
H  -4.70600 22.74900 21.63600
H  -3.78200 23.71000 20.49700
H  -5.38900 23.37600 20.08400
H  -5.10600 28.16900 21.56400
H  -6.06800 27.18200 20.56000
H  -4.82600 28.36900 19.04900
H  -3.96900 26.88800 19.10000
H  -3.36100 28.31900 20.11500
H  -0.08400 29.24000 25.08800
H  -1.34700 30.35600 25.23800
H  -1.28700 29.15600 23.83800
H  -2.73100 28.17300 29.94600
H  0.22300 27.45300 32.73700
H  -0.05100 25.81200 32.38400
H  -0.98800 26.68500 33.67200

