158

Mg 47.71500 44.00700 42.38500
C  44.35500 43.07200 42.58800
C  48.46200 40.62500 41.84000
C  50.86000 44.92500 41.52300
C  46.66400 47.43200 42.19500
N  46.45400 42.02900 42.19700
C  45.08800 41.89400 42.34900
C  44.70600 40.41000 42.18700
C  46.10600 39.66500 42.18100
C  47.10900 40.82700 42.12200
C  46.22200 38.77800 43.39200
C  43.72200 39.98300 41.12900
C  43.76100 40.61600 39.68100
H  44.13700 39.69500 38.49400
N  49.45100 42.88900 41.79400
C  49.55700 41.51200 41.67300
C  50.89300 41.16700 41.43100
C  51.54300 42.40500 41.20900
C  50.60200 43.51600 41.45600
C  51.30700 39.72600 41.30000
C  52.98500 42.46100 40.88500
O  53.71800 41.47600 40.63900
C  53.76800 43.76800 40.76200
N  48.64900 45.91500 42.06100
C  49.94800 46.01300 41.80100
C  50.35200 47.52800 41.79500
C  48.96600 48.21900 41.45600
C  48.02600 47.16400 42.05100
C  51.06700 48.18600 42.92500
C  48.65500 48.44200 39.86900
C  48.19900 49.84700 39.49200
N  45.95700 45.07300 42.52900
C  45.64700 46.48500 42.43000
C  44.27200 46.67100 42.64200
C  43.74100 45.39500 42.69100
C  44.76800 44.46600 42.62100
C  43.63400 48.03200 42.76600
C  42.50100 44.65900 42.86300
O  41.38700 45.12300 42.96600
C  42.87000 43.12600 42.87900
C  42.50700 42.59600 44.23100
O  42.07500 41.43400 44.44000
O  42.96300 43.42800 45.18900
C  42.95100 42.96300 46.61100
H  48.60300 39.55400 41.67900
H  51.85200 45.15000 41.12600
H  46.44100 48.49400 42.31400
H  44.22300 40.16500 43.13300
H  46.29000 39.04200 41.30500
H  47.14700 38.21500 43.26200
H  45.25300 38.30700 43.55600
H  46.37500 39.44800 44.23800
H  42.70700 40.22300 41.44700
H  43.80600 38.90000 41.04700
H  44.38000 41.51100 39.61700
H  42.75100 40.98100 39.49500
H  51.99400 39.56100 40.47100
H  50.52300 39.02100 41.02300
H  51.75800 39.26700 42.18000
H  53.53300 44.24900 39.81300
H  54.79700 43.41600 40.83300
H  53.66200 44.34700 41.68000
H  51.02000 47.68600 40.94800
H  48.73900 49.09100 42.06900
H  52.09600 48.39800 42.63500
H  50.93700 47.56900 43.81400
H  50.75900 49.22700 43.02900
H  47.78100 47.82900 39.64900
H  49.41600 48.03200 39.20500
H  47.57500 50.42100 40.17800
H  47.48700 49.78100 38.66900
H  49.01300 50.54600 39.30100
H  43.82400 48.49400 41.79800
H  44.07500 48.58400 43.59600
H  42.56500 47.83900 42.84900
H  42.26700 42.54700 42.17800
H  42.51100 42.01300 46.91600
H  42.30100 43.66900 47.12700
H  43.96000 42.94600 47.02400
Mg 0.09900 44.09900 25.56900
C  1.89200 43.48400 28.45900
C  -2.63600 42.55100 27.06600
C  -1.59200 44.30700 22.69100
C  3.06700 44.90400 24.04900
N  -0.34100 43.21600 27.43000
C  0.50100 43.27700 28.55400
C  -0.17700 42.91900 29.95700
C  -1.49700 42.24100 29.34500
C  -1.48900 42.57200 27.81900
C  -1.69600 40.72800 29.64100
C  -0.51000 44.21600 30.71400
C  -0.94000 44.05400 32.16300
H  -1.02300 42.59400 32.74100
N  -1.87200 43.69000 24.99900
C  -2.82500 43.02100 25.73900
C  -4.11400 42.95500 24.95000
C  -3.82300 43.56100 23.72000
C  -2.39000 43.86500 23.75200
C  -5.38700 42.38500 25.42600
C  -4.73800 43.89300 22.48700
O  -4.27600 44.25900 21.39000
C  -6.16500 43.45800 22.54600
N  0.64400 44.48400 23.66400
C  -0.18800 44.54900 22.63300
C  0.43500 45.08600 21.41100
C  1.86800 45.53200 21.89700
C  1.89400 44.95000 23.35000
C  0.49800 44.02700 20.28300
C  2.32200 46.99500 21.74000
C  1.38700 48.00000 22.36500
N  2.10700 44.10600 26.09800
C  3.14000 44.62900 25.41600
C  4.29900 44.61900 26.28000
C  3.91800 44.16600 27.50700
C  2.52100 43.85600 27.30400
C  5.75600 45.08000 25.88200
C  4.26500 43.75600 28.94600
O  5.28100 43.80400 29.57800
C  2.90800 43.35800 29.47400
C  2.97000 42.11900 30.23100
O  2.81200 40.99200 29.84700
O  3.26000 42.43700 31.49300
C  3.42300 41.39600 32.51300
H  -3.49800 42.07500 27.53800
H  -1.96900 44.50900 21.68600
H  3.98100 45.29900 23.59900
H  0.35500 42.16900 30.54200
H  -2.45100 42.67800 29.64200
H  -1.55100 40.17700 28.71200
H  -2.71800 40.69400 30.01900
H  -0.96500 40.36200 30.36200
H  -1.26000 44.72700 30.11000
H  0.41300 44.77500 30.55900
H  -1.94000 44.48300 32.22600
H  -0.34400 44.71700 32.79100
H  -6.15600 43.15500 25.36400
H  -5.32600 42.24300 26.50500
H  -5.82500 41.58200 24.83400
H  -6.61400 43.81300 21.61800
H  -6.69900 43.92800 23.37200
H  -6.21100 42.37000 22.58200
H  -0.24000 45.91400 21.19400
H  2.49200 44.95900 21.21100
H  1.39000 44.12500 19.66300
H  -0.35500 44.27600 19.65100
H  0.45500 42.99900 20.64000
H  2.34500 47.16700 20.66400
H  3.27500 47.15500 22.24400
H  1.86900 48.34700 23.27900
H  0.40700 47.58700 22.60500
H  1.20700 48.82300 21.67400
H  5.71300 45.35000 24.82700
H  6.41400 44.22400 26.03400
H  6.17800 45.89800 26.46500
H  2.72200 44.18300 30.16100
H  3.31200 40.41000 32.06200
H  2.63900 41.48100 33.26500
H  4.33100 41.59200 33.08300

