158

Mg 17.28500 -1.18000 28.61100
C  15.78400 0.87200 31.06300
C  19.06900 -2.78300 31.07500
C  18.78300 -2.88100 26.22700
C  15.83300 0.90800 26.17300
N  17.28700 -1.05400 30.88000
C  16.61800 -0.10300 31.67800
C  16.92100 -0.29800 33.15700
C  18.29300 -1.18100 33.01900
C  18.27100 -1.75900 31.54800
C  19.55800 -0.27600 33.36900
C  15.80000 -0.98300 33.97500
C  15.81500 -0.70500 35.49500
H  16.99700 -0.09600 36.24300
N  18.66400 -2.70500 28.63900
C  19.23600 -3.26000 29.73900
C  20.08700 -4.28500 29.32900
C  19.98100 -4.38300 27.92500
C  19.10700 -3.24300 27.50300
C  20.89200 -5.07300 30.40000
C  20.75100 -5.28600 26.96000
O  20.70500 -5.17300 25.76100
C  21.54500 -6.51600 27.45700
N  17.46800 -0.83400 26.52100
C  17.98100 -1.85100 25.78500
C  17.83900 -1.54200 24.29800
C  16.95000 -0.30400 24.22600
C  16.68400 -0.03400 25.71000
C  19.21500 -1.57100 23.49400
C  15.68000 -0.38200 23.25800
C  14.27000 -0.91900 23.64600
N  16.01300 0.48000 28.60800
C  15.52300 1.22200 27.49700
C  14.67400 2.27700 27.98200
C  14.81700 2.21000 29.37100
C  15.56300 1.09100 29.70300
C  13.97700 3.34500 27.14700
C  14.51000 2.89300 30.59000
O  13.96500 3.98400 30.81300
C  15.10800 2.05800 31.80200
C  16.01400 2.75600 32.67500
O  17.12500 3.07800 32.38100
O  15.33100 3.15400 33.88000
C  16.12900 3.87200 34.85600
H  19.63200 -3.31600 31.84400
H  19.18000 -3.57500 25.48400
H  15.30000 1.52400 25.44600
H  17.19500 0.62600 33.66400
H  18.38800 -2.02600 33.70100
H  20.36000 -0.82900 32.87900
H  19.69700 -0.24200 34.44900
H  19.47200 0.77500 33.09100
H  15.88600 -2.06000 33.82600
H  14.89000 -0.76500 33.41700
H  15.64300 -1.72500 35.83900
H  14.96000 -0.15400 35.88500
H  20.29000 -5.82600 30.90900
H  21.27400 -4.38900 31.15800
H  21.77300 -5.50100 29.92100
H  21.91200 -7.14000 26.64200
H  20.94700 -7.14200 28.11900
H  22.34000 -6.09000 28.07000
H  17.23400 -2.35000 23.88700
H  17.59300 0.51700 23.91100
H  20.08900 -1.50100 24.14200
H  19.37100 -0.66700 22.90500
H  19.19500 -2.47400 22.88300
H  15.97800 -0.91800 22.35700
H  15.48800 0.61400 22.85700
H  13.59000 -0.10100 23.88500
H  14.47700 -1.64500 24.43100
H  14.00300 -1.45600 22.73600
H  14.64400 3.42600 26.28900
H  13.79000 4.35800 27.50300
H  13.00800 2.92400 26.87900
H  14.24600 1.64800 32.32700
H  17.14100 4.08200 34.50900
H  16.12000 3.25500 35.75400
H  15.64500 4.80400 35.14800
Mg -1.77800 34.75100 27.21300
C  -3.67800 33.01300 29.63200
C  -0.84200 36.83300 29.80100
C  -0.19300 36.62600 24.96600
C  -3.31300 32.86600 24.67500
N  -2.27500 34.92500 29.53100
C  -3.02100 34.07000 30.27700
C  -2.85300 34.27000 31.78100
C  -2.02400 35.61000 31.72100
C  -1.62600 35.81800 30.26100
C  -2.72900 36.85500 32.31400
C  -2.17000 33.05800 32.39300
C  -1.15900 33.12800 33.54700
H  -1.48000 32.63500 34.92200
N  -0.61700 36.50500 27.39400
C  -0.32100 37.17400 28.47800
C  0.64400 38.25200 28.20100
C  0.85400 38.23800 26.77100
C  -0.01600 37.10700 26.34200
C  1.16300 39.22900 29.27300
C  1.61900 39.08000 25.87900
O  1.60900 38.97700 24.62600
C  2.48500 40.17000 26.50200
N  -1.73200 34.76400 25.12800
C  -0.99600 35.60500 24.44100
C  -1.00500 35.33600 22.88300
C  -1.85700 34.02600 22.85800
C  -2.35600 33.83400 24.30400
C  -1.49200 36.55500 21.99500
C  -1.21300 32.79000 22.24400
C  0.08900 32.33500 22.80400
N  -3.13300 33.21400 27.10300
C  -3.68100 32.60100 26.03100
C  -4.38800 31.42100 26.50900
C  -4.44300 31.58800 27.89800
C  -3.71400 32.73800 28.23300
C  -5.06200 30.37400 25.52800
C  -4.99900 31.07300 29.14200
O  -5.75900 30.12700 29.27300
C  -4.52000 31.96200 30.27600
C  -5.76600 32.45400 30.84600
O  -6.56100 33.30200 30.37900
O  -5.99200 31.91600 32.04400
C  -7.05500 32.22600 33.01400
H  -0.41000 37.49800 30.55100
H  0.30100 37.32100 24.28400
H  -3.85500 32.33400 23.89100
H  -3.89200 34.36300 32.09800
H  -1.05000 35.57600 32.21100
H  -2.88200 37.63700 31.57000
H  -2.13500 37.29500 33.11500
H  -3.69500 36.74500 32.80700
H  -1.62600 32.56400 31.58800
H  -2.97600 32.45000 32.80300
H  -1.08300 34.19000 33.78000
H  -0.19300 32.68700 33.30100
H  0.65600 39.05000 30.22100
H  0.98800 40.26300 28.97700
H  2.22900 39.07500 29.44000
H  3.19600 39.55900 27.05900
H  1.90900 40.94300 27.01000
H  3.03500 40.65500 25.69500
H  -0.01600 35.09200 22.49500
H  -2.62400 34.28900 22.12900
H  -1.63300 37.38100 22.69200
H  -2.43100 36.62100 21.44700
H  -0.70700 36.82800 21.28900
H  -1.15100 33.00900 21.17800
H  -1.95000 31.99600 22.36600
H  0.02500 31.37100 23.30900
H  0.55500 32.94600 23.57700
H  0.78100 32.28700 21.96200
H  -5.52200 29.56900 26.10100
H  -4.36200 29.99400 24.78400
H  -5.85000 30.78400 24.89700
H  -4.00300 31.28400 30.95500
H  -7.89100 32.86300 32.72500
H  -6.64100 32.70200 33.90300
H  -7.41100 31.29600 33.45500

