158

Mg 52.72500 24.27100 45.77500
C  50.29300 26.13700 44.41500
C  51.93700 21.60500 43.82700
C  55.88100 22.89500 46.34600
C  54.15300 27.37500 46.95100
N  51.26900 23.94500 44.36300
C  50.41900 24.80800 43.88200
C  49.58300 24.25700 42.71500
C  49.90700 22.77900 42.71600
C  51.12300 22.75300 43.65300
C  48.65000 21.82800 43.17600
C  49.98100 25.01500 41.42400
C  48.97800 25.04300 40.28800
H  49.39900 24.28000 38.89700
N  53.64000 22.39700 45.31400
C  53.09700 21.38200 44.55200
C  53.91000 20.24000 44.66300
C  55.09200 20.57800 45.38700
C  54.93700 22.03200 45.73800
C  53.39900 18.92400 44.12200
C  56.16300 19.58300 45.82000
O  56.05200 18.39300 45.48300
C  57.14100 19.92400 46.82000
N  54.74900 25.07800 46.56600
C  55.78500 24.28300 46.68300
C  56.91600 25.07900 47.49900
C  56.52100 26.55200 47.45500
C  55.04300 26.35700 47.00400
C  57.00900 24.47500 48.89100
C  57.32400 27.42700 46.45600
C  58.37000 28.29800 47.13100
N  52.19800 26.21400 46.03500
C  52.79800 27.33900 46.59300
C  51.90600 28.53800 46.46800
C  50.92100 28.00100 45.65700
C  51.14300 26.65600 45.39400
C  52.11900 29.97600 47.00600
C  49.79100 28.49200 44.94100
O  49.22300 29.57200 44.81600
C  49.28700 27.29600 44.10100
C  49.21900 27.88100 42.67600
O  50.17200 28.21600 42.02200
O  47.89300 27.99500 42.38800
C  47.34400 28.48100 41.08500
H  51.54800 20.75300 43.26600
H  56.87900 22.49700 46.54100
H  54.63500 28.31900 47.21700
H  48.51100 24.40600 42.84100
H  50.32900 22.45100 41.76600
H  48.76700 20.87100 42.66600
H  47.71400 22.26800 42.83200
H  48.63100 21.60500 44.24300
H  50.83100 24.48000 41.00000
H  50.41200 25.97200 41.72100
H  48.78400 26.11100 40.19000
H  48.06300 24.49400 40.51000
H  54.02600 18.60900 43.28800
H  52.32900 18.90100 43.91500
H  53.45000 18.05100 44.77300
H  58.08200 20.18100 46.33300
H  57.32800 19.08300 47.48900
H  56.90000 20.76700 47.46800
H  57.75900 24.77400 46.87900
H  56.58400 26.96900 48.46000
H  58.00400 24.76000 49.23300
H  56.94700 23.38800 48.84100
H  56.19800 24.83400 49.52500
H  56.61400 28.04800 45.90900
H  57.92700 26.77000 45.82900
H  58.45300 29.28400 46.67500
H  59.35700 27.83400 47.15300
H  58.02200 28.49700 48.14500
H  52.59700 30.65000 46.29500
H  52.94300 30.00600 47.71900
H  51.31100 30.38000 47.61600
H  48.30400 27.05600 44.50500
H  47.51700 28.00600 40.11900
H  47.91200 29.39100 40.89200
H  46.26000 28.54600 41.17800
Mg 41.81800 40.72500 27.43000
C  40.74500 43.27900 29.51300
C  42.08100 38.62100 30.07500
C  43.27800 38.41300 25.36300
C  41.63600 42.89000 24.70300
N  41.44700 40.94500 29.54300
C  40.98600 42.03200 30.18300
C  40.83600 41.72100 31.67500
C  41.33600 40.25300 31.85600
C  41.65600 39.91500 30.41500
C  42.55300 40.04200 32.85300
C  39.41100 41.99700 32.19200
C  39.28000 43.11600 33.29500
H  38.75900 42.72500 34.71900
N  42.49600 38.85200 27.66400
C  42.45500 38.13400 28.82400
C  42.91500 36.83900 28.67200
C  43.34400 36.70700 27.29700
C  43.02900 37.99800 26.68600
C  43.07900 35.83300 29.84500
C  43.90500 35.49100 26.61900
O  44.09800 35.53100 25.38500
C  43.82700 34.14000 27.30300
N  42.24400 40.62300 25.25100
C  43.02300 39.61400 24.73900
C  43.29400 39.95500 23.20700
C  42.62700 41.36900 23.02000
C  42.12300 41.62700 24.39800
C  44.78100 39.84100 22.74500
C  41.49200 41.51200 21.82700
C  40.06800 41.03200 22.13000
N  41.29600 42.63800 27.13200
C  41.27800 43.43400 25.94600
C  40.75700 44.73600 26.22400
C  40.47000 44.69000 27.61200
C  40.90400 43.48500 28.12600
C  40.58100 46.05300 25.36200
C  39.96500 45.50000 28.76300
O  39.52400 46.65900 28.79100
C  40.28000 44.68300 30.09000
C  41.35100 45.34200 30.85600
O  42.57300 45.29900 30.59100
O  40.82800 45.90700 31.97100
C  41.80200 46.27600 33.04200
H  42.13200 37.95300 30.93700
H  43.83200 37.84400 24.61400
H  41.48200 43.45700 23.78200
H  41.59700 42.23000 32.26700
H  40.62600 39.56600 32.31600
H  43.53800 39.95700 32.39300
H  42.34500 39.09300 33.34900
H  42.62100 40.90700 33.51300
H  39.01800 41.05100 32.56500
H  38.78400 42.28300 31.34800
H  38.50500 43.79900 32.94600
H  40.22100 43.62700 33.49900
H  42.27000 35.10400 29.80700
H  42.97200 36.31100 30.81900
H  44.03100 35.30600 29.79100
H  44.14400 33.36700 26.60400
H  42.81200 33.76100 27.41800
H  44.48800 34.02400 28.16200
H  42.85400 39.20700 22.54800
H  43.33500 42.09500 22.62200
H  45.47600 39.39800 23.45900
H  45.12000 40.76000 22.26800
H  44.78600 39.14200 21.90900
H  41.91200 41.01800 20.95100
H  41.45600 42.56000 21.53100
H  40.09700 40.48500 23.07200
H  39.69000 40.37900 21.34400
H  39.53100 41.96800 22.28800
H  40.00200 45.73900 24.49400
H  41.58000 46.32100 25.01800
H  40.01000 46.85600 25.82800
H  39.43200 44.48500 30.74600
H  42.42700 45.39300 33.17600
H  41.24500 46.42100 33.96800
H  42.49100 47.09500 32.83700

