158

Mg 17.27400 -1.18300 27.36500
C  16.13800 0.50600 30.25100
C  19.27000 -2.97400 29.45700
C  18.84100 -2.39500 24.62800
C  15.71200 1.26600 25.44800
N  17.61100 -1.18600 29.69200
C  17.06200 -0.46900 30.63400
C  17.61400 -0.67200 31.97800
C  18.62600 -1.84600 31.66400
C  18.52100 -2.03300 30.15100
C  20.08900 -1.59700 32.28500
C  16.56900 -1.03300 33.03400
C  16.53500 -0.13900 34.30000
H  17.83200 0.23100 34.87900
N  18.70300 -2.62300 27.05500
C  19.44500 -3.28800 28.05300
C  20.30300 -4.27400 27.40700
C  20.12900 -4.17800 26.01400
C  19.10900 -3.09300 25.79700
C  21.17300 -5.25800 28.21400
C  20.73600 -4.97100 24.85900
O  20.35000 -4.88300 23.70200
C  21.87500 -5.96100 25.23500
N  17.38700 -0.59500 25.39400
C  18.15200 -1.19900 24.45000
C  18.08200 -0.42000 23.04700
C  17.07800 0.70200 23.44700
C  16.69900 0.47500 24.89600
C  19.45700 -0.02000 22.32700
C  15.80500 0.72700 22.51700
C  16.12700 0.74600 20.99100
N  16.04800 0.50400 27.69400
C  15.41500 1.32000 26.84300
C  14.65400 2.28600 27.52600
C  14.89800 2.06700 28.88500
C  15.79600 0.92700 28.92500
C  14.02100 3.43300 26.91900
C  14.63600 2.56200 30.19500
O  13.98800 3.52700 30.54300
C  15.30800 1.51300 31.19300
C  16.13000 2.34400 32.13200
O  17.33600 2.50900 32.10900
O  15.26500 2.94600 32.99300
C  15.78100 4.11200 33.72100
H  19.91000 -3.54900 30.12900
H  19.51500 -2.59100 23.79200
H  15.30700 2.10400 24.87700
H  18.07700 0.26700 32.28200
H  18.28400 -2.79000 32.08800
H  20.48700 -2.39600 32.91000
H  19.88800 -0.73200 32.91700
H  20.78000 -1.30600 31.49400
H  16.58900 -2.07000 33.36800
H  15.62800 -0.81700 32.52800
H  16.01200 -0.79000 35.00100
H  16.11900 0.79000 33.91000
H  21.10300 -6.32100 27.98100
H  20.74900 -5.31700 29.21700
H  22.18400 -4.88100 28.36500
H  21.54100 -6.86800 25.73900
H  22.50000 -5.47500 25.98400
H  22.53300 -6.08400 24.37500
H  17.66900 -1.22600 22.44100
H  17.65000 1.61300 23.27100
H  20.26400 0.20000 23.02600
H  19.32500 0.85200 21.68700
H  19.86400 -0.92800 21.88300
H  15.21400 1.59200 22.82100
H  15.22900 -0.15700 22.79400
H  16.06100 -0.31500 20.74900
H  17.04300 1.30900 20.81400
H  15.27900 1.18300 20.46300
H  14.51500 3.76500 26.00500
H  14.03900 4.25000 27.64100
H  13.02200 3.14300 26.59600
H  14.53000 0.96000 31.71800
H  14.95000 4.80400 33.58500
H  16.61100 4.68600 33.31000
H  16.05000 3.92900 34.76200
Mg 10.09100 48.29200 26.29900
C  8.12200 48.79000 29.21400
C  12.77900 49.75800 27.95200
C  11.68100 48.05200 23.53700
C  7.03700 47.99100 24.59700
N  10.33300 49.15200 28.36100
C  9.47800 49.16400 29.38300
C  10.20100 49.64600 30.67600
C  11.51200 50.22300 30.09600
C  11.55100 49.68200 28.71300
C  11.59200 51.76900 30.00600
C  10.38100 48.49800 31.77400
C  9.77200 48.74900 33.13100
H  9.55600 47.53800 34.00700
N  11.95000 48.65700 25.85800
C  12.99300 49.19600 26.67700
C  14.27800 49.17800 25.89300
C  13.93900 48.63200 24.56000
C  12.49000 48.44100 24.58900
C  15.52800 49.62300 26.43900
C  14.85000 48.34900 23.39600
O  14.48000 47.87800 22.31700
C  16.25400 48.52900 23.50800
N  9.37100 48.02700 24.38200
C  10.31900 47.91200 23.43500
C  9.69900 47.55500 22.07100
C  8.18900 47.64000 22.33600
C  8.15600 47.81100 23.82500
C  10.11100 48.47700 20.86600
C  7.42300 46.43200 21.89500
C  6.74300 46.62700 20.55600
N  8.04800 48.20400 26.76900
C  6.91400 48.11200 25.98700
C  5.72800 48.21200 26.75300
C  6.12800 48.35300 28.05000
C  7.57600 48.43200 27.95800
C  4.33000 48.12500 26.18700
C  5.76200 48.52900 29.40100
O  4.59600 48.54100 29.89500
C  7.00300 48.68300 30.23500
C  7.10400 47.46500 31.15600
O  7.67900 46.40100 30.97200
O  6.20200 47.62000 32.17900
C  5.83300 46.43100 33.01900
H  13.58200 50.24800 28.50700
H  12.30600 47.82800 22.67000
H  6.07400 47.96500 24.08300
H  9.63300 50.40600 31.21200
H  12.41000 49.84400 30.58400
H  11.28500 52.13500 29.02700
H  12.59000 52.17200 30.18000
H  10.91500 52.21000 30.73700
H  11.44400 48.36600 31.97500
H  10.05600 47.52500 31.40600
H  8.78900 49.10300 32.82300
H  10.15200 49.60900 33.68200
H  15.36400 50.39100 27.19500
H  16.03300 50.20000 25.66500
H  16.16300 48.86200 26.89300
H  16.63000 48.04400 24.40900
H  16.47000 49.59700 23.47400
H  16.77100 48.04700 22.67900
H  10.00500 46.53000 21.86000
H  7.82800 48.53500 21.82800
H  9.26200 48.80100 20.26400
H  10.89300 48.02900 20.25300
H  10.66600 49.36600 21.16500
H  6.68400 46.26600 22.67900
H  8.09900 45.57800 21.86300
H  5.88200 47.27800 20.70800
H  6.37000 45.65800 20.22600
H  7.44600 47.04000 19.83200
H  3.68800 48.85900 26.67500
H  4.04800 47.07800 26.29700
H  4.28700 48.39000 25.13100
H  6.90600 49.57600 30.85200
H  4.76200 46.24500 32.94300
H  6.24000 46.67900 34.00000
H  6.39800 45.58800 32.62200

