158

Mg -0.67600 -3.08400 43.63200
C  2.94600 -3.19500 43.39300
C  -0.53400 -0.33200 41.87400
C  -4.00500 -3.26400 43.56300
C  -0.50800 -6.34600 45.06800
N  1.07100 -1.85500 42.78900
C  2.40200 -2.03800 42.76700
C  3.13700 -0.79500 42.13400
C  1.93900 0.19800 41.86000
C  0.76300 -0.70200 42.26400
C  1.96500 1.54800 42.79200
C  4.02900 -1.20200 40.89700
C  5.23000 -0.22400 40.80300
H  5.37500 0.68900 39.55700
N  -2.07200 -1.93900 42.80500
C  -1.82700 -0.80500 42.08000
C  -3.02500 -0.27600 41.64000
C  -4.03900 -1.22100 42.00500
C  -3.33800 -2.24700 42.82500
C  -3.32000 1.03300 41.03500
C  -5.52800 -1.14000 41.67500
O  -6.02000 -0.06300 41.22500
C  -6.44900 -2.22300 41.96700
N  -2.12200 -4.71700 44.04400
C  -3.45500 -4.43400 44.11300
C  -4.22500 -5.55000 44.80800
C  -3.07400 -6.41800 45.35300
C  -1.79700 -5.81100 44.80700
C  -5.12500 -5.00000 45.98200
C  -3.20000 -7.89200 45.03200
C  -3.66400 -8.73900 46.19400
N  0.82100 -4.53500 44.04900
C  0.67600 -5.80500 44.64500
C  1.95200 -6.27300 44.97200
C  2.87700 -5.35100 44.40000
C  2.15800 -4.29700 43.92000
C  2.19500 -7.56000 45.74600
C  4.30500 -4.95300 44.26900
O  5.32100 -5.37400 44.75500
C  4.35200 -3.67200 43.42700
C  5.35100 -2.71400 44.02300
O  5.37700 -2.31000 45.18800
O  6.33100 -2.41500 43.12800
C  7.39700 -1.57800 43.59700
H  -0.71700 0.59200 41.32200
H  -5.09400 -3.21400 43.63200
H  -0.51700 -7.29900 45.60100
H  3.81400 -0.41900 42.90200
H  1.71300 0.41200 40.81500
H  1.16300 1.54200 43.53000
H  2.05100 2.43100 42.15800
H  2.79400 1.38900 43.48100
H  3.54300 -1.13000 39.92400
H  4.32300 -2.24900 40.98100
H  6.10800 -0.86600 40.86400
H  5.34000 0.34500 41.72600
H  -4.27900 1.52200 41.20700
H  -3.16000 0.97000 39.95900
H  -2.52000 1.73600 41.26900
H  -5.95700 -3.18200 41.80600
H  -7.15000 -2.20900 41.13300
H  -6.92300 -2.14600 42.94600
H  -4.78800 -6.08400 44.04200
H  -2.94000 -6.19700 46.41200
H  -5.34600 -3.94200 45.83900
H  -4.63200 -5.08500 46.95100
H  -6.12100 -5.42800 46.09300
H  -2.18200 -8.21400 44.81200
H  -3.89000 -8.04800 44.20300
H  -3.98800 -8.16700 47.06300
H  -2.87100 -9.32400 46.66100
H  -4.52300 -9.34000 45.89600
H  3.22100 -7.65300 46.10200
H  1.98900 -8.33200 45.00500
H  1.49100 -7.54900 46.57800
H  4.60000 -3.96800 42.40700
H  6.96200 -0.59100 43.43900
H  8.30600 -1.60500 42.99700
H  7.70000 -1.76500 44.62700
Mg 41.06100 9.48700 29.75700
C  42.63300 10.32400 32.83000
C  38.57100 7.94200 31.59800
C  39.65600 8.70600 26.92400
C  43.88600 10.66600 27.95900
N  40.75900 9.14300 31.93700
C  41.42600 9.65200 32.96600
C  40.79600 9.20800 34.28100
C  39.58500 8.41300 33.91400
C  39.67200 8.47200 32.34300
C  39.45100 7.03800 34.56600
C  40.49000 10.39000 35.26800
C  40.80800 10.14600 36.77400
H  41.16800 11.39100 37.67400
N  39.39600 8.46600 29.30400
C  38.46400 7.89700 30.16100
C  37.30800 7.49700 29.44500
C  37.51400 7.80700 28.08000
C  38.93300 8.34800 28.07900
C  36.08200 6.78200 30.06900
C  36.69000 7.46900 26.89900
O  37.00300 7.70600 25.72600
C  35.26000 6.83300 27.01500
N  41.78000 9.49600 27.74500
C  40.90000 9.17700 26.80900
C  41.37700 9.47200 25.43500
C  42.79900 10.11800 25.73600
C  42.86400 10.13000 27.21400
C  41.26400 8.28800 24.45400
C  43.11800 11.45300 25.05700
C  41.98400 12.49600 25.40700
N  42.91800 10.30300 30.25800
C  43.95000 10.70700 29.41800
C  45.00300 11.30700 30.26500
C  44.48100 11.23600 31.60500
C  43.23100 10.60100 31.55800
C  46.27100 11.92400 29.76200
C  44.74300 11.51900 33.01000
O  45.61900 12.19900 33.46400
C  43.57400 10.90200 33.84400
C  44.18400 10.02300 34.87600
O  44.68400 8.93200 34.63900
O  44.14500 10.63300 36.11100
C  44.66800 9.74000 37.15200
H  37.69900 7.54400 32.12000
H  39.08300 8.53200 26.01000
H  44.72800 11.15000 27.45900
H  41.61000 8.63000 34.71900
H  38.65900 8.90800 34.20800
H  38.45700 7.04300 35.01300
H  40.30300 6.95600 35.24100
H  39.47300 6.30600 33.75900
H  39.45100 10.70700 35.17700
H  41.07200 11.25700 34.95500
H  41.63100 9.44700 36.92400
H  40.05000 9.72000 37.43100
H  35.20700 7.43100 30.06900
H  36.30800 6.60600 31.12100
H  35.80200 5.81000 29.66200
H  35.36900 5.86400 27.50400
H  35.01900 6.71600 25.95900
H  34.44200 7.37000 27.49300
H  40.69700 10.25100 25.09200
H  43.60200 9.45100 25.42300
H  40.82600 7.35500 24.80700
H  42.22100 8.02800 24.00000
H  40.64700 8.66300 23.63700
H  43.12000 11.21900 23.99200
H  44.10400 11.80500 25.36000
H  41.21000 12.49300 24.63900
H  42.45500 13.47100 25.52500
H  41.53500 12.33900 26.38700
H  46.79400 12.27300 30.65200
H  46.04600 12.69800 29.02800
H  46.79800 11.15300 29.20100
H  42.96500 11.66900 34.32400
H  45.74100 9.73000 36.95800
H  44.16300 8.77400 37.14300
H  44.36500 10.18300 38.10100

