158

Mg 30.68900 59.03800 40.14400
C  27.70300 57.44800 39.37500
C  32.33000 56.15300 39.30700
C  33.48000 60.85800 39.92300
C  28.82100 62.10700 40.38800
N  30.03900 57.02800 39.56600
C  28.79500 56.58100 39.39600
C  28.76800 55.12800 38.88500
C  30.18300 54.68900 39.23800
C  30.91700 56.03000 39.37100
C  30.29400 53.98400 40.67300
C  28.51200 55.18900 37.26400
C  27.51000 54.16300 36.59300
H  26.61600 54.68300 35.42800
N  32.64100 58.58400 39.77100
C  33.10000 57.32000 39.47800
C  34.55900 57.45200 39.24900
C  34.95500 58.79900 39.53500
C  33.66300 59.46500 39.73000
C  35.39100 56.19800 39.06100
C  36.34300 59.35600 39.71200
O  37.27900 58.60300 39.39200
C  36.79200 60.64800 40.34400
N  31.15300 61.14500 40.16600
C  32.32200 61.66100 40.12800
C  32.36700 63.15000 40.17300
C  30.88000 63.57000 40.37800
C  30.19100 62.17000 40.24800
C  33.39400 63.72200 41.16500
C  30.38800 64.61200 39.36900
C  29.75400 65.86500 39.93400
N  28.72300 59.66100 39.98000
C  28.12100 60.98800 40.08300
C  26.72700 60.81500 39.75200
C  26.62100 59.50300 39.45700
C  27.78200 58.81900 39.59300
C  25.58200 61.81400 39.57800
C  25.62300 58.55900 39.04200
O  24.44500 58.77500 38.89400
C  26.29100 57.20700 38.93800
C  25.54300 56.19000 39.78100
O  25.44100 56.11100 41.04000
O  25.10100 55.17700 38.94500
C  24.93100 53.85300 39.52200
H  32.90900 55.24300 39.13500
H  34.42800 61.39900 39.88500
H  28.26700 63.04800 40.33600
H  27.97300 54.51100 39.30500
H  30.66400 54.02400 38.52100
H  29.33500 53.70000 41.10700
H  30.73000 54.63100 41.43400
H  31.00600 53.17100 40.52500
H  29.49000 54.86600 36.90800
H  28.37900 56.18700 36.84600
H  26.79700 53.74500 37.30500
H  28.16600 53.36500 36.24600
H  34.88100 55.64400 38.27300
H  35.14600 55.63500 39.96200
H  36.36900 56.44200 38.64600
H  37.81700 60.46400 40.66500
H  36.11600 60.93500 41.14900
H  36.77300 61.46100 39.61800
H  32.66200 63.53800 39.19800
H  30.74300 63.96900 41.38300
H  33.86900 62.87200 41.65600
H  32.95000 64.39700 41.89700
H  34.15800 64.31600 40.66500
H  29.58100 64.17100 38.78500
H  31.03700 64.92800 38.55200
H  30.09900 66.61100 39.21800
H  30.14600 66.21000 40.89100
H  28.67000 65.77500 39.85900
H  24.80700 61.57200 40.30600
H  25.22000 61.81200 38.55000
H  25.96700 62.79000 39.87200
H  26.20000 56.81000 37.92700
H  25.91300 53.43700 39.74400
H  24.56300 53.21400 38.71900
H  24.26800 53.89600 40.38600
Mg 9.41100 47.96800 27.55300
C  7.11100 47.74800 30.27800
C  11.87300 48.27200 29.67800
C  11.40300 48.48700 24.77300
C  6.56200 48.02400 25.31200
N  9.38500 47.95100 29.77500
C  8.43500 47.84300 30.73000
C  8.96400 48.00500 32.18400
C  10.51300 48.27500 31.93200
C  10.65000 48.08100 30.36500
C  11.08800 49.60300 32.58900
C  8.53600 46.87800 33.15400
C  9.63500 46.28000 34.05000
H  9.07300 45.80500 35.39800
N  11.40300 48.22800 27.28600
C  12.27400 48.23100 28.29900
C  13.59000 48.42300 27.84100
C  13.50700 48.50600 26.43200
C  12.06000 48.34300 26.03800
C  14.88200 48.41900 28.74000
C  14.64300 48.54300 25.42300
O  14.41100 48.50700 24.18600
C  16.09600 48.47300 25.87000
N  9.06100 48.16200 25.38600
C  10.06600 48.34000 24.45900
C  9.55700 48.54300 23.02100
C  8.04500 48.32900 23.22800
C  7.85300 48.16700 24.72200
C  10.00000 49.92100 22.41200
C  7.24800 47.14200 22.52000
C  5.94400 47.45500 21.76800
N  7.29600 47.91200 27.66100
C  6.29600 47.97200 26.69200
C  5.02300 47.84600 27.34800
C  5.28900 47.69700 28.70600
C  6.68000 47.76300 28.85200
C  3.66600 47.71800 26.69200
C  4.68700 47.62600 29.97700
O  3.49300 47.42700 30.27000
C  5.84100 47.70100 31.07300
C  5.70100 46.40600 31.70900
O  5.93900 45.35500 31.19600
O  5.36900 46.50300 33.04600
C  5.24200 45.15600 33.74400
H  12.68800 48.62700 30.31100
H  12.03700 48.81000 23.94500
H  5.77500 47.96800 24.55600
H  8.46800 48.89100 32.58100
H  11.14000 47.48900 32.35400
H  12.10100 49.35200 32.90700
H  10.41900 50.00100 33.35200
H  11.19000 50.30400 31.76100
H  8.16500 46.01400 32.60200
H  7.63400 47.23100 33.65200
H  10.29600 47.11800 34.27100
H  10.17000 45.43400 33.61900
H  14.68700 48.46400 29.81100
H  15.44400 49.32700 28.52200
H  15.57400 47.60800 28.51400
H  16.20500 47.44200 26.20700
H  16.15900 49.28600 26.59300
H  16.84400 48.50200 25.07800
H  9.97400 47.79000 22.35200
H  7.55700 49.29000 23.06700
H  10.80400 50.45600 22.91700
H  9.13700 50.58300 22.32900
H  10.32500 49.66600 21.40400
H  7.01700 46.40100 23.28600
H  7.88600 46.62000 21.80700
H  5.76900 48.52900 21.83500
H  5.12900 46.88500 22.21200
H  5.93600 47.18600 20.71100
H  3.91000 47.54400 25.64400
H  3.14600 48.67200 26.77200
H  3.13900 46.93600 27.24000
H  5.71900 48.58100 31.70400
H  4.89200 45.21100 34.77500
H  6.18400 44.63500 33.57200
H  4.44600 44.56800 33.28700

