158

Mg 1.46900 -1.06900 44.18800
C  4.80300 -0.15700 43.46000
C  0.59900 1.50700 42.19000
C  -1.70200 -2.23000 44.22300
C  2.59900 -4.06900 45.54600
N  2.55300 0.57900 43.08100
C  3.91500 0.72700 42.86900
C  4.28800 1.95000 41.93000
C  2.88700 2.63000 41.84500
C  1.92500 1.47200 42.37000
C  2.74300 3.86800 42.74000
C  4.87200 1.41500 40.57700
C  6.25100 1.81300 40.20800
H  6.40100 2.87000 39.09800
N  -0.29900 -0.47100 43.35300
C  -0.50500 0.69200 42.61100
C  -1.87600 1.00100 42.47500
C  -2.61100 -0.14000 43.00300
C  -1.53200 -0.99700 43.60100
C  -2.39000 2.17800 41.74500
C  -4.10200 -0.31100 42.96700
O  -4.80800 0.62300 42.52000
C  -4.78300 -1.50600 43.42000
N  0.58600 -3.12000 44.48200
C  -0.76300 -3.18700 44.66900
C  -1.11800 -4.50400 45.29600
C  0.27000 -5.13700 45.84700
C  1.23200 -3.99900 45.34700
C  -2.18600 -4.37900 46.40300
C  0.67700 -6.49800 45.16500
C  0.70800 -7.74900 46.05000
N  3.32200 -1.92200 44.57500
C  3.62300 -3.12200 45.16100
C  5.07900 -3.23600 45.39200
C  5.56100 -2.11000 44.73000
C  4.48200 -1.31600 44.22200
C  5.78000 -4.42600 46.03200
C  6.77500 -1.56000 44.24800
O  7.95500 -1.86200 44.37900
C  6.36400 -0.20300 43.46500
C  7.04800 0.98600 44.19900
O  8.22900 1.20900 44.22600
O  6.14500 1.76400 44.97800
C  6.77700 3.01300 45.36600
H  0.30500 2.39600 41.62800
H  -2.71400 -2.51300 44.51800
H  3.00400 -4.89800 46.13000
H  5.04700 2.60400 42.35900
H  2.62200 2.76700 40.79600
H  2.26800 4.64500 42.14100
H  3.72300 4.20200 43.08100
H  2.09400 3.71400 43.60300
H  4.23600 1.78700 39.77300
H  4.85300 0.32800 40.49000
H  6.91500 1.00300 39.90700
H  6.80400 2.26600 41.03100
H  -3.22400 2.57000 42.32900
H  -2.78000 1.99200 40.74400
H  -1.71400 3.03300 41.75600
H  -5.85000 -1.52600 43.19800
H  -4.72500 -1.38500 44.50200
H  -4.30500 -2.42800 43.08800
H  -1.53500 -5.15800 44.52900
H  0.25500 -5.11900 46.93700
H  -2.27500 -3.35100 46.75400
H  -1.89800 -4.92100 47.30300
H  -3.23200 -4.58000 46.17300
H  1.60400 -6.44900 44.59300
H  -0.15100 -6.71800 44.49100
H  0.03700 -7.52800 46.88000
H  1.68500 -8.21700 46.17300
H  0.11300 -8.53600 45.58700
H  6.30000 -5.08300 45.33600
H  5.06000 -4.98900 46.62700
H  6.59200 -4.13600 46.69900
H  6.83700 -0.24200 42.48300
H  6.12700 3.70900 45.89600
H  7.08500 3.56300 44.47700
H  7.59300 2.86500 46.07500
Mg 50.54500 44.94200 42.59700
C  47.43300 46.44600 41.79300
C  49.54500 41.99400 41.04900
C  53.66900 43.89800 42.89900
C  51.58100 48.21900 43.78600
N  48.73400 44.35500 41.56400
C  47.54300 45.07400 41.36400
C  46.50700 44.17500 40.76000
C  47.19000 42.76600 40.80000
C  48.62300 43.05900 41.07100
C  46.52400 41.87400 41.96400
C  46.14200 44.66300 39.30900
C  44.57100 44.59000 39.01300
H  44.03000 43.53100 37.99800
N  51.47800 43.13600 42.12800
C  50.88100 42.01800 41.55600
C  51.87800 41.00900 41.53100
C  53.05000 41.52500 42.15000
C  52.80500 42.91800 42.40000
C  51.62400 39.61200 40.85300
C  54.32600 40.72300 42.50200
O  54.27300 39.53900 42.22000
C  55.65600 41.27200 42.89200
N  52.36500 45.97000 43.23300
C  53.53200 45.23100 43.30000
C  54.65600 46.18100 43.76700
C  53.96300 47.55200 44.02700
C  52.56000 47.24000 43.71800
C  55.54400 45.59200 44.91900
C  54.53100 48.71800 43.12500
C  56.01600 49.09700 43.33300
N  49.66400 46.90500 42.93500
C  50.24200 48.06400 43.35500
C  49.19700 49.06900 43.31000
C  48.11600 48.47700 42.71500
C  48.43500 47.15300 42.43500
C  49.28400 50.46900 43.77600
C  46.82500 48.73300 42.10600
O  46.15500 49.73900 42.19200
C  46.33900 47.39700 41.48200
C  45.08700 47.01300 42.14100
O  45.03400 46.70100 43.32500
O  44.03500 47.17100 41.25000
C  42.66800 47.14300 41.86300
H  49.13900 41.07000 40.63400
H  54.66800 43.56800 43.19200
H  51.86700 49.23800 44.05300
H  45.61500 44.14700 41.38700
H  47.14500 42.21100 39.86300
H  45.47300 41.79800 41.68400
H  46.67800 42.36800 42.92300
H  47.03400 40.91100 41.96800
H  46.67600 44.06500 38.57100
H  46.51000 45.68900 39.29000
H  44.30000 45.53600 38.54400
H  43.97900 44.68300 39.92400
H  52.48100 38.99800 40.57700
H  51.15300 39.71200 39.87600
H  51.05000 38.92600 41.47600
H  55.68900 41.73100 43.88000
H  55.86600 42.03300 42.14000
H  56.27600 40.39000 42.73200
H  55.22400 46.33300 42.84900
H  54.11600 47.69900 45.09600
H  55.86300 46.30600 45.67700
H  56.49400 45.31900 44.46100
H  55.22600 44.69200 45.44500
H  54.06100 49.67000 43.36900
H  54.39300 48.48000 42.07000
H  56.36600 49.73200 42.52000
H  56.67900 48.26000 43.55000
H  56.00100 49.70400 44.23900
H  50.27500 50.72200 44.15300
H  48.42200 50.62500 44.42500
H  49.11800 51.01800 42.84900
H  46.17600 47.50000 40.41000
H  42.38400 46.12900 42.14400
H  41.94900 47.52100 41.13600
H  42.51300 47.82400 42.70100

