158

Mg -2.53900 17.14100 27.41400
C  -2.71700 14.81100 29.88600
C  -2.74300 19.69400 29.68300
C  -2.57700 19.34000 24.78600
C  -3.37600 14.54000 25.09400
N  -2.74600 17.18400 29.58700
C  -2.66900 16.08800 30.42000
C  -2.59800 16.60100 31.95700
C  -2.78800 18.21700 31.79100
C  -2.77500 18.41400 30.21600
C  -4.01200 18.84400 32.69100
C  -1.24400 16.19500 32.52400
C  -0.81200 16.90900 33.77700
H  -0.59400 16.11500 35.07900
N  -2.38100 19.16600 27.27400
C  -2.48600 20.11500 28.30300
C  -2.27100 21.42200 27.81100
C  -2.08900 21.31600 26.39600
C  -2.35300 19.90000 26.08400
C  -2.46200 22.64000 28.69000
C  -1.76600 22.39300 25.30600
O  -1.82100 22.17300 24.12900
C  -1.42200 23.75000 25.77200
N  -3.08000 16.93600 25.28000
C  -2.87100 18.02300 24.36100
C  -3.11600 17.52200 22.91300
C  -3.09600 15.98000 23.07700
C  -3.15000 15.81600 24.54700
C  -4.46600 18.18900 22.42000
C  -1.87000 15.36500 22.29300
C  -1.08700 14.22700 23.01100
N  -2.92000 15.04700 27.39000
C  -3.13000 14.15200 26.38300
C  -3.20000 12.73400 26.93400
C  -3.07400 13.00100 28.36000
C  -2.81400 14.38300 28.55300
C  -3.46800 11.43000 26.18700
C  -3.14000 12.38900 29.70000
O  -3.36300 11.26200 30.05000
C  -2.88400 13.60500 30.63700
C  -1.78600 13.20700 31.49900
O  -0.61700 13.39000 31.20000
O  -2.24100 12.71100 32.67300
C  -1.29500 12.23500 33.61000
H  -2.83500 20.50100 30.41300
H  -2.39200 19.94700 23.89600
H  -3.66900 13.74600 24.40400
H  -3.44400 16.24000 32.54200
H  -1.86000 18.70800 32.08700
H  -3.64600 19.56700 33.41900
H  -4.55000 18.01500 33.15100
H  -4.71000 19.46300 32.12800
H  -0.48800 16.24300 31.74000
H  -1.18900 15.15300 32.83800
H  -1.52300 17.71600 33.95500
H  0.08100 17.50300 33.58600
H  -2.37100 22.34400 29.73500
H  -3.45400 23.05300 28.50900
H  -1.62300 23.33500 28.67200
H  -2.24300 24.07100 26.41300
H  -1.53200 24.33400 24.85800
H  -0.43200 23.79600 26.22600
H  -2.33100 17.90200 22.25800
H  -4.03800 15.59700 22.68300
H  -5.18200 17.38200 22.26600
H  -4.10300 18.56300 21.46300
H  -4.79300 18.97400 23.10200
H  -1.14200 16.16600 22.16800
H  -2.14100 14.95100 21.32200
H  -0.80300 14.73400 23.93300
H  -0.21800 13.93700 22.42100
H  -1.83500 13.43500 23.05800
H  -3.62500 11.75300 25.15800
H  -4.34400 10.92000 26.58800
H  -2.53500 10.90100 26.37800
H  -3.74200 13.68600 31.30400
H  -0.44000 11.88100 33.03500
H  -1.66700 11.42500 34.23700
H  -1.00600 13.00700 34.32400
Mg 9.95100 47.97500 26.29700
C  8.22800 47.71500 29.37100
C  12.50500 49.67000 27.96500
C  11.72300 48.12600 23.36800
C  7.18800 46.90800 24.55700
N  10.26600 48.69300 28.40400
C  9.53500 48.32300 29.47800
C  10.14000 48.86200 30.77200
C  11.23500 49.76400 30.21600
C  11.35900 49.34200 28.79100
C  11.23600 51.27700 30.46800
C  10.55700 47.68800 31.66600
C  10.06200 47.68700 33.17600
H  10.19000 46.33400 33.94700
N  11.86300 48.63000 25.79800
C  12.77500 49.22200 26.65800
C  14.04300 49.22200 25.92400
C  13.79900 48.84700 24.61100
C  12.34100 48.56200 24.49300
C  15.36700 49.52400 26.67400
C  14.84100 48.61400 23.44300
O  14.54100 48.26600 22.28200
C  16.36100 48.77700 23.75400
N  9.53700 47.61600 24.19100
C  10.38800 47.75000 23.18200
C  9.83100 47.11500 21.86700
C  8.43800 46.55300 22.39600
C  8.33800 47.10800 23.75500
C  9.73200 48.06500 20.61500
C  8.40800 44.99700 22.29900
C  9.31400 44.22700 23.19200
N  8.06200 47.44100 26.78900
C  7.06200 47.02600 25.98800
C  5.87700 46.82400 26.82300
C  6.29000 47.01900 28.14300
C  7.66600 47.37000 28.09000
C  4.54600 46.50400 26.37300
C  5.89600 47.09800 29.55700
O  4.76400 46.81900 30.07100
C  7.19300 47.36600 30.35700
C  7.42500 46.03600 30.97100
O  8.09500 45.17500 30.57100
O  6.59500 45.81700 32.03600
C  6.74700 44.54600 32.73400
H  13.30600 50.23900 28.44200
H  12.24800 48.19200 22.41300
H  6.31700 46.67300 23.94100
H  9.31700 49.45500 31.17200
H  12.17100 49.40800 30.64800
H  10.55200 51.58500 31.25800
H  10.96400 51.78700 29.54400
H  12.17800 51.66500 30.85600
H  11.63600 47.65900 31.51100
H  10.14300 46.84100 31.11900
H  8.99500 47.91300 33.17400
H  10.52500 48.56900 33.61700
H  15.24600 49.72700 27.73800
H  15.91800 50.30300 26.14700
H  16.09300 48.72300 26.53200
H  16.70000 49.80100 23.91100
H  16.87400 48.37700 22.88000
H  16.70000 48.11200 24.54800
H  10.47800 46.28300 21.59000
H  7.55600 46.93100 21.88000
H  8.71300 48.41500 20.45300
H  10.11800 47.47800 19.78200
H  10.40100 48.92200 20.69900
H  8.68800 44.78000 21.26900
H  7.38900 44.66200 22.49500
H  9.66500 44.90800 23.96800
H  10.25300 44.01700 22.68000
H  8.83100 43.32500 23.56700
H  3.93700 47.38600 26.17400
H  3.98000 45.89500 27.07800
H  4.56100 45.88200 25.47800
H  7.04100 48.09100 31.15700
H  6.10200 43.79200 32.28200
H  6.48100 44.85000 33.74600
H  7.74700 44.11500 32.78600

