158

Mg 8.01100 3.47700 28.17000
C  9.36200 1.99500 30.95800
C  6.23900 5.64300 30.33900
C  6.20100 4.69200 25.62400
C  9.26700 0.97700 26.16400
N  7.67600 3.65800 30.43900
C  8.57800 3.06500 31.35100
C  8.40100 3.66200 32.77400
C  7.28200 4.75600 32.50900
C  7.00300 4.67000 30.97100
C  5.98500 4.44500 33.26900
C  9.69400 4.15000 33.45600
C  9.94900 3.61100 34.90900
H  10.25500 4.59200 36.01900
N  6.56200 5.02900 27.95700
C  6.00800 5.73700 28.95600
C  5.09200 6.68400 28.43700
C  5.10200 6.49700 27.04600
C  6.02800 5.42700 26.78300
C  4.08500 7.47800 29.29100
C  4.25600 7.14700 26.01300
O  4.27200 6.82900 24.81500
C  3.31500 8.21000 26.40100
N  7.68200 2.92300 26.23400
C  7.04400 3.65800 25.35100
C  7.17700 3.07700 23.97900
C  8.42600 2.15500 24.11600
C  8.43600 1.94700 25.61300
C  5.87500 2.46800 23.39600
C  9.72500 2.75100 23.59000
C  10.65600 3.49100 24.57100
N  9.20300 1.90700 28.46700
C  9.62300 0.98600 27.58000
C  10.48100 -0.04000 28.23000
C  10.48500 0.35200 29.56400
C  9.61200 1.53500 29.69100
C  11.23700 -1.23000 27.59300
C  10.94000 0.06900 30.92400
O  11.64100 -0.91600 31.31900
C  10.15600 1.05000 31.84900
C  9.20200 0.34300 32.78200
O  8.12100 -0.11900 32.50900
O  9.89000 0.32600 34.04900
C  9.00500 -0.25400 35.09700
H  5.66800 6.33600 30.96000
H  5.66500 5.10600 24.76700
H  9.87100 0.24600 25.62200
H  8.01000 2.86600 33.40800
H  7.70600 5.73800 32.71800
H  5.22100 4.12900 32.55900
H  5.63600 5.45200 33.49600
H  6.05800 3.91700 34.21900
H  9.70300 5.24000 33.47800
H  10.50700 3.88100 32.78100
H  10.81900 2.95600 34.87900
H  9.12100 3.01300 35.28900
H  4.37800 8.50000 29.05200
H  4.04500 7.32300 30.36900
H  3.13300 7.12400 28.89500
H  2.43500 7.71900 26.81500
H  3.07100 8.71800 25.46800
H  3.77400 8.99100 27.00900
H  7.34000 3.96100 23.36300
H  8.27000 1.21800 23.58100
H  5.99800 1.44200 23.05100
H  5.58400 3.10200 22.55800
H  5.12000 2.53700 24.17900
H  9.37100 3.53800 22.92300
H  10.28700 2.06500 22.95700
H  11.54800 2.90800 24.80100
H  10.10000 3.71500 25.48200
H  11.00900 4.43800 24.16400
H  10.47900 -1.91100 27.20500
H  11.85000 -1.72900 28.34300
H  11.90600 -1.01700 26.75900
H  10.92300 1.61400 32.38000
H  9.71400 -0.40900 35.91000
H  8.51400 -1.19200 34.83700
H  8.30600 0.51000 35.43800
Mg -11.08200 38.48000 41.98600
C  -9.47500 35.59500 40.81400
C  -8.53900 40.29100 40.46900
C  -13.03000 41.20500 42.13400
C  -13.85300 36.46100 42.73700
N  -9.19300 37.95900 40.68200
C  -8.74100 36.72100 40.42900
C  -7.45500 36.80700 39.55600
C  -7.17700 38.34400 39.50400
C  -8.32700 38.92700 40.30300
C  -5.83000 38.84400 40.05900
C  -7.69900 36.28400 38.03800
C  -6.66000 35.27600 37.60100
H  -5.83200 35.72200 36.39400
N  -10.78300 40.41700 41.61900
C  -9.67900 41.00200 40.95500
C  -9.84500 42.42100 40.89400
C  -11.12500 42.67800 41.39500
C  -11.74400 41.39800 41.67300
C  -8.77100 43.38500 40.45500
C  -11.76000 44.17300 41.42800
O  -11.10900 45.14300 41.06200
C  -13.20000 44.35000 41.90900
N  -13.12700 38.77200 42.42800
C  -13.70300 39.99500 42.47500
C  -15.20900 39.89200 42.73800
C  -15.45000 38.35300 43.02400
C  -14.07500 37.78300 42.75000
C  -15.60900 40.83500 43.89200
C  -16.55600 37.77500 42.06200
C  -17.67100 36.99800 42.77200
N  -11.53600 36.46000 41.99100
C  -12.62700 35.78600 42.52500
C  -12.40100 34.38800 42.29600
C  -11.27900 34.24700 41.58800
C  -10.70700 35.54900 41.42800
C  -13.28900 33.23700 42.72800
C  -10.37700 33.26800 41.00600
O  -10.36300 32.05100 40.89800
C  -9.15600 34.13900 40.55500
C  -8.03700 33.60200 41.38400
O  -7.01600 33.13400 40.90900
O  -8.28700 33.65000 42.75600
C  -7.22900 33.09600 43.59400
H  -7.82000 40.93400 39.95700
H  -13.75200 42.02300 42.15100
H  -14.69000 35.78200 42.91600
H  -6.73800 36.17300 40.07700
H  -7.51800 38.76100 38.55600
H  -5.29600 39.24800 39.19800
H  -5.27500 38.05800 40.57100
H  -5.98500 39.62400 40.80400
H  -7.71400 37.13100 37.35200
H  -8.66300 35.77400 38.02400
H  -7.20800 34.35100 37.42200
H  -6.02000 35.10200 38.46600
H  -9.18600 44.03500 39.68400
H  -7.88900 42.84600 40.10800
H  -8.43500 43.97000 41.31100
H  -13.50800 43.85400 42.82900
H  -13.84900 43.99300 41.10900
H  -13.33300 45.43100 41.86200
H  -15.72600 40.22300 41.83700
H  -15.71500 38.21100 44.07100
H  -16.10300 40.34500 44.73200
H  -16.35400 41.49800 43.45200
H  -14.69700 41.29100 44.27700
H  -16.17900 37.08600 41.30600
H  -17.01300 38.57500 41.48000
H  -18.59100 37.37000 42.32300
H  -17.60600 37.08500 43.85700
H  -17.66200 35.92300 42.59200
H  -12.90800 32.22200 42.83900
H  -14.08300 33.29600 41.98400
H  -13.54200 33.55100 43.74000
H  -8.97600 33.97100 39.49300
H  -6.24800 33.22000 43.13600
H  -7.42500 32.10400 44.00000
H  -7.17800 33.70800 44.49400

