158

Mg 9.46100 47.63300 26.58700
C  7.35700 47.56300 29.39500
C  12.12300 48.28900 28.62500
C  11.34100 47.86900 23.85200
C  6.61700 47.44000 24.45400
N  9.64900 48.21800 28.78300
C  8.65200 47.97900 29.74500
C  9.36200 48.03000 31.23100
C  10.85200 48.38700 30.84300
C  10.90300 48.30200 29.34300
C  11.39200 49.77100 31.42300
C  9.23700 46.63600 32.01700
C  10.39000 46.29500 33.12700
H  10.15100 45.35100 34.29600
N  11.45600 47.97100 26.30000
C  12.44400 48.15000 27.23700
C  13.72500 48.18900 26.60800
C  13.51200 48.11500 25.14200
C  12.04800 48.01200 25.05500
C  14.95500 48.32200 27.47000
C  14.48100 48.29200 23.99900
O  14.12000 48.41100 22.78200
C  15.92000 48.34000 24.38800
N  9.03800 47.68200 24.44000
C  10.02100 47.70500 23.49200
C  9.48600 47.46400 22.03600
C  7.99100 47.16000 22.34100
C  7.83900 47.41000 23.84700
C  9.77600 48.55900 20.96100
C  7.53800 45.73500 21.94300
C  8.21600 44.59300 22.73500
N  7.43200 47.51700 26.83300
C  6.42400 47.34400 25.86800
C  5.16800 47.04600 26.57500
C  5.47700 47.09400 27.92600
C  6.89600 47.45200 28.03300
C  3.78300 46.82100 26.00300
C  4.94600 47.00600 29.30000
O  3.85400 46.71800 29.68800
C  6.13200 47.34700 30.33400
C  6.21700 46.10200 31.11300
O  6.78000 45.05000 30.74400
O  5.59400 46.20300 32.33300
C  5.58800 44.99400 33.10500
H  12.97200 48.33600 29.31100
H  11.88500 47.74700 22.91300
H  5.80700 47.11200 23.79900
H  8.95900 48.85200 31.82200
H  11.56700 47.62700 31.15700
H  11.98000 50.30500 30.67700
H  12.12400 49.55000 32.20000
H  10.62000 50.35200 31.92800
H  9.31200 45.83200 31.28500
H  8.23000 46.52400 32.42000
H  10.74800 47.25700 33.49300
H  11.16700 45.73900 32.60200
H  15.41200 49.30700 27.57100
H  15.77600 47.65200 27.21800
H  14.80600 47.95900 28.48700
H  16.01500 49.21300 25.03200
H  16.55900 48.25700 23.50900
H  16.00700 47.53600 25.11900
H  10.00800 46.57100 21.69100
H  7.46900 47.98700 21.85900
H  10.46100 49.29500 21.38200
H  8.92000 49.19900 20.74600
H  10.28400 48.18900 20.07100
H  7.82700 45.73800 20.89200
H  6.45000 45.67100 21.98100
H  8.73100 43.92500 22.04400
H  7.47000 43.90200 23.12500
H  9.00300 45.03000 23.35000
H  3.25600 47.67100 26.43700
H  3.32400 45.88700 26.32600
H  3.67600 46.97600 24.92900
H  5.78100 48.11900 31.01900
H  5.04800 45.28800 34.00400
H  6.58100 44.63700 33.37800
H  5.06300 44.13000 32.69800
Mg 0.51600 42.64300 26.22400
C  2.62200 42.56600 28.94200
C  -1.95000 41.27800 28.35800
C  -1.54200 42.46100 23.54500
C  3.20100 43.37300 24.12700
N  0.40000 41.99100 28.40700
C  1.30600 42.26300 29.37600
C  0.69400 42.00000 30.79500
C  -0.36200 40.92600 30.44600
C  -0.66600 41.41300 28.97800
C  0.14300 39.54100 30.51300
C  0.21400 43.30500 31.59600
C  0.89900 43.56000 33.01800
H  0.69300 42.46400 34.02100
N  -1.44400 42.15100 26.06600
C  -2.23900 41.51200 26.99500
C  -3.52600 41.25000 26.39300
C  -3.46600 41.64800 25.07000
C  -2.11400 42.11100 24.84200
C  -4.65300 40.63100 27.24800
C  -4.63900 41.58600 24.11600
O  -4.62300 42.06500 23.00400
C  -5.94200 40.86300 24.37200
N  0.76600 43.06200 24.13200
C  -0.23700 42.80100 23.20300
C  0.27700 43.07700 21.77800
C  1.74900 43.37400 22.00200
C  1.95000 43.35700 23.49800
C  -0.11500 41.96500 20.76500
C  2.14200 44.72600 21.28400
C  2.48500 46.01600 22.10700
N  2.45300 42.85500 26.43400
C  3.45200 43.17600 25.48600
C  4.72000 43.33000 26.16100
C  4.44600 43.06000 27.52300
C  3.04000 42.77500 27.64400
C  6.04100 43.65300 25.63800
C  5.06100 42.91100 28.76700
O  6.25300 42.86300 29.04500
C  3.89600 42.68500 29.79400
C  4.22100 41.41700 30.58400
O  4.30100 40.29800 30.08900
O  4.60600 41.75300 31.89600
C  5.14500 40.74300 32.68300
H  -2.69100 40.75100 28.96300
H  -2.21000 42.24900 22.70800
H  4.17500 43.52200 23.65800
H  1.46800 41.58900 31.44300
H  -1.25800 41.01300 31.06100
H  -0.11100 39.00500 31.42700
H  1.20200 39.53400 30.25500
H  -0.40200 39.05800 29.70200
H  -0.82300 43.11500 31.87200
H  0.28700 44.16900 30.93500
H  0.49300 44.49600 33.40000
H  1.97900 43.64800 32.89600
H  -4.52300 40.88600 28.30000
H  -4.72400 39.55100 27.11500
H  -5.58600 41.12700 26.97900
H  -5.70700 39.85200 24.70400
H  -6.36900 40.81500 23.37000
H  -6.63200 41.39500 25.02700
H  -0.29200 43.94500 21.44400
H  2.29600 42.47300 21.72400
H  0.70300 41.81600 20.06000
H  -1.04700 42.28600 20.29800
H  -0.32900 40.99700 21.21700
H  1.31900 44.99800 20.62400
H  2.99000 44.46200 20.65200
H  3.57200 46.09400 22.12200
H  2.11800 45.84000 23.11800
H  2.05300 46.80900 21.49500
H  5.91100 44.20300 24.70600
H  6.57900 42.76200 25.31500
H  6.63900 44.34200 26.23500
H  3.93900 43.49800 30.51900
H  4.84700 41.06500 33.68100
H  6.23000 40.80400 32.60700
H  4.72500 39.74500 32.56200

