158

Mg 16.93700 52.34300 26.90200
C  18.95700 50.64700 29.12500
C  14.65000 52.97000 29.28600
C  14.91500 54.03000 24.53000
C  18.90500 51.28100 24.22600
N  16.88300 51.82500 28.88400
C  17.75100 51.17600 29.63800
C  17.41800 51.42800 31.14100
C  15.92200 51.78700 31.13000
C  15.81300 52.22500 29.68300
C  15.04000 50.74600 31.68700
C  18.38200 52.52400 31.79000
C  18.81300 52.10500 33.19800
H  17.83400 51.46100 34.18700
N  15.03100 53.33000 27.00300
C  14.29600 53.44100 28.10200
C  13.18200 54.24300 27.78700
C  13.24900 54.65400 26.42500
C  14.47900 53.99700 25.93000
C  12.04700 54.52600 28.80700
C  12.39100 55.60500 25.64400
O  12.60500 55.88100 24.45800
C  11.07000 56.06800 26.31800
N  16.91200 52.55800 24.64700
C  15.98200 53.28500 23.98300
C  16.10000 53.13900 22.44100
C  17.58700 52.47400 22.34000
C  17.82500 52.07000 23.81700
C  15.08400 52.14000 21.78000
C  18.68600 53.41900 21.88200
C  19.62800 52.87900 20.81900
N  18.61100 51.15800 26.59600
C  19.28300 50.71500 25.48900
C  20.37500 49.81400 25.92700
C  20.29600 49.82700 27.31300
C  19.22300 50.67200 27.67600
C  21.36100 49.14500 24.92800
C  20.94600 49.22400 28.52800
O  21.88400 48.48800 28.80800
C  20.14000 49.91100 29.75100
C  19.68800 48.96600 30.80300
O  18.75400 48.13600 30.71100
O  20.36200 49.18600 31.97000
C  19.93500 48.39600 33.17300
H  14.08100 53.11900 30.20600
H  14.27900 54.55800 23.81600
H  19.43900 50.92500 23.34200
H  17.50500 50.49000 31.68900
H  15.66200 52.72800 31.61500
H  14.65800 51.01600 32.67200
H  15.51500 49.78400 31.87900
H  14.16800 50.65500 31.04000
H  17.95500 53.52000 31.67900
H  19.22100 52.55000 31.09600
H  19.17900 52.98700 33.72400
H  19.68800 51.46100 33.11100
H  11.08100 54.29000 28.36200
H  12.12500 55.55400 29.16200
H  12.24500 53.90300 29.67900
H  10.64900 56.60200 25.46600
H  11.35500 56.80000 27.07300
H  10.47300 55.18600 26.54900
H  15.94300 54.16400 22.10400
H  17.50900 51.58600 21.71200
H  15.58300 51.58100 20.98800
H  14.23600 52.58500 21.25800
H  14.75100 51.42800 22.53500
H  19.23800 53.71100 22.77500
H  18.19500 54.22000 21.33100
H  20.61600 52.65900 21.22400
H  19.82500 53.58100 20.00900
H  19.25800 51.97800 20.33100
H  21.01100 48.87200 23.93300
H  21.47300 48.19700 25.45400
H  22.37200 49.54500 24.99500
H  20.83600 50.61100 30.21300
H  20.14000 49.04400 34.02500
H  20.48700 47.49300 33.43300
H  18.86000 48.21700 33.14900
Mg -9.82400 39.26200 40.70900
C  -8.89300 35.92500 40.59600
C  -6.72800 40.02000 39.11100
C  -10.91300 42.46000 40.03300
C  -13.01800 38.30500 41.62900
N  -8.13600 38.08500 39.77300
C  -7.99000 36.71900 39.93400
C  -6.69200 36.25000 39.23200
C  -5.79700 37.57800 39.15100
C  -6.91200 38.61900 39.32300
C  -4.64300 37.62600 40.14900
C  -7.01600 35.40700 37.92500
C  -6.80300 36.08100 36.64400
H  -7.79700 35.72300 35.45800
N  -8.89800 40.97200 39.75500
C  -7.63200 41.09500 39.31300
C  -7.37600 42.46700 38.93600
C  -8.55500 43.20100 39.09900
C  -9.54100 42.15200 39.61800
C  -6.00200 43.01400 38.64000
C  -8.72000 44.71500 38.74600
O  -7.77700 45.41800 38.29100
C  -10.00300 45.38200 39.08700
N  -11.81100 40.20500 40.62200
C  -11.91000 41.54600 40.45400
C  -13.39000 42.01000 40.65800
C  -14.07600 40.63200 41.00600
C  -12.90900 39.63800 41.22800
C  -13.75100 43.19000 41.57000
C  -15.02900 40.12300 39.87700
C  -16.22800 39.31100 40.46000
N  -10.77600 37.59800 41.21400
C  -12.00400 37.38300 41.68900
C  -12.10700 35.98600 41.99800
C  -10.92700 35.37000 41.57100
C  -10.11500 36.42600 41.16100
C  -13.27500 35.23900 42.58100
C  -10.24600 34.14900 41.42300
O  -10.60800 33.01700 41.67000
C  -8.94200 34.37900 40.73500
C  -7.70200 33.67300 41.35200
O  -7.00300 32.85400 40.72000
O  -7.60400 33.83400 42.75000
C  -6.50200 33.05700 43.39800
H  -5.68800 40.22400 38.84800
H  -11.43800 43.38600 39.79100
H  -14.03100 37.94900 41.83100
H  -6.24800 35.63800 40.01800
H  -5.36300 37.78300 38.17200
H  -4.67800 38.60200 40.63200
H  -3.69700 37.50200 39.62200
H  -4.75800 36.86000 40.91600
H  -8.05600 35.08600 37.98300
H  -6.36900 34.53000 37.94600
H  -5.81000 35.82400 36.27300
H  -6.81200 37.15700 36.82000
H  -5.21400 42.29700 38.87000
H  -5.83400 43.80300 39.37400
H  -5.89400 43.38700 37.62200
H  -10.01900 46.46900 39.17000
H  -10.26800 45.03800 40.08700
H  -10.71300 45.15400 38.29200
H  -13.60200 42.39000 39.65800
H  -14.60900 40.53700 41.95200
H  -12.94100 43.31300 42.28800
H  -14.66000 43.11700 42.16700
H  -13.84200 44.14000 41.04200
H  -14.52000 39.41100 39.22800
H  -15.39200 40.97800 39.30600
H  -17.20100 39.65900 40.11200
H  -16.30700 39.45700 41.53700
H  -16.22600 38.26400 40.15500
H  -12.97700 34.21800 42.81900
H  -14.16000 35.39000 41.96400
H  -13.58100 35.69400 43.52300
H  -8.92600 34.00100 39.71300
H  -6.55300 32.01300 43.08600
H  -6.37000 33.17400 44.47400
H  -5.52000 33.37400 43.04800

