158

Mg -0.55300 6.93800 26.41300
C  0.29000 8.99700 29.07700
C  -0.93800 4.27400 28.53500
C  -0.97700 4.79400 23.75300
C  0.41600 9.45100 24.16200
N  -0.35300 6.62400 28.59400
C  -0.00100 7.66300 29.53000
C  -0.09900 7.16900 30.94000
C  -0.32000 5.58000 30.71600
C  -0.46400 5.43400 29.20800
C  0.75700 4.59100 31.34100
C  -1.14400 7.92400 31.75100
C  -0.96200 8.00700 33.31700
H  0.25500 7.29600 33.94300
N  -0.86600 4.79500 26.13700
C  -0.95300 3.90500 27.19500
C  -1.22000 2.56500 26.67600
C  -1.30600 2.66800 25.29200
C  -1.11500 4.13700 25.01100
C  -1.43800 1.33900 27.59200
C  -1.52200 1.58400 24.19100
O  -1.70200 1.83500 23.00300
C  -1.53600 0.14600 24.47400
N  -0.22400 7.08300 24.22700
C  -0.55900 6.06600 23.37700
C  -0.59500 6.68300 21.95200
C  -0.11000 8.16700 22.08100
C  0.10300 8.23000 23.57800
C  0.16000 5.91500 20.89900
C  -1.15300 9.29500 21.62800
C  -2.45500 9.40600 22.47300
N  0.18000 8.80800 26.56200
C  0.44300 9.74700 25.57100
C  0.58700 11.01700 26.17900
C  0.64000 10.81600 27.58500
C  0.32800 9.42100 27.74300
C  0.73200 12.33000 25.40600
C  0.88600 11.41400 28.84500
O  1.17100 12.55000 29.15700
C  0.51500 10.28800 29.90000
C  1.77900 10.07200 30.76000
O  2.69200 9.28100 30.60200
O  1.71100 10.91100 31.85500
C  2.89000 10.76100 32.73000
H  -1.29000 3.45400 29.16400
H  -1.28400 4.22600 22.87200
H  0.61300 10.21100 23.40300
H  0.87600 7.37800 31.38000
H  -1.33600 5.32300 31.01500
H  1.37600 5.13200 32.05700
H  1.22500 4.05800 30.51400
H  0.11500 3.83200 31.78700
H  -2.08700 7.38800 31.64100
H  -1.46400 8.80800 31.19900
H  -1.87500 7.69000 33.82100
H  -0.89700 9.03200 33.68300
H  -2.17600 0.71800 27.08400
H  -1.83900 1.58100 28.57600
H  -0.49000 0.80300 27.63000
H  -2.49600 -0.06700 24.94400
H  -0.71600 -0.18700 25.11000
H  -1.64700 -0.35700 23.51300
H  -1.65000 6.74700 21.68800
H  0.90600 8.26900 21.69900
H  0.47700 4.93000 21.24400
H  1.03500 6.44900 20.52800
H  -0.47000 5.69300 20.03800
H  -1.43500 8.96000 20.63000
H  -0.62700 10.23600 21.46800
H  -3.26800 8.78300 22.10000
H  -2.87000 10.41100 22.40000
H  -2.32200 9.26700 23.54600
H  -0.10500 12.71600 24.82300
H  1.51700 12.09400 24.68700
H  1.07500 13.01900 26.17600
H  -0.25700 10.59500 30.60500
H  2.59100 10.97900 33.75500
H  3.43200 11.70400 32.65300
H  3.62800 9.95900 32.76400
Mg -5.97000 24.96000 26.32100
C  -4.29600 26.43200 28.96200
C  -7.72200 22.86600 28.59800
C  -7.47400 23.30400 23.77100
C  -4.16400 26.82800 24.06300
N  -6.04000 24.71400 28.54900
C  -5.25900 25.48100 29.40700
C  -5.58600 25.13000 30.87900
C  -6.59200 23.83000 30.73400
C  -6.83400 23.78900 29.16300
C  -5.94300 22.50300 31.22000
C  -6.27200 26.35000 31.63500
C  -5.90800 26.66300 33.10500
H  -5.40000 25.53600 33.89800
N  -7.44100 23.40500 26.27000
C  -8.07700 22.70200 27.20000
C  -9.14300 21.87900 26.72300
C  -9.05300 22.08200 25.27400
C  -7.90500 22.97800 25.07400
C  -9.94800 20.94100 27.57400
C  -9.93400 21.43300 24.25700
O  -9.83600 21.71400 23.06600
C  -11.05900 20.47300 24.55800
N  -5.77800 25.04800 24.21400
C  -6.51500 24.20900 23.43200
C  -6.00400 24.41700 21.96400
C  -5.12300 25.70900 21.99200
C  -4.98000 25.86300 23.47500
C  -5.10200 23.16100 21.54300
C  -5.95400 26.84400 21.34700
C  -5.31700 27.53500 20.10500
N  -4.43200 26.25500 26.43800
C  -3.82900 27.02400 25.42500
C  -2.90600 27.98000 26.05100
C  -3.02500 27.70000 27.43600
C  -4.04500 26.75200 27.56800
C  -2.05200 28.98900 25.34000
C  -2.60500 28.16000 28.72800
O  -1.86300 29.08800 29.01500
C  -3.30600 27.27100 29.79100
C  -2.25100 26.40600 30.36400
O  -1.37400 25.81000 29.74000
O  -2.38200 26.37400 31.75800
C  -1.36800 25.54400 32.45800
H  -8.25700 22.29700 29.36100
H  -7.92300 22.79700 22.91500
H  -3.63600 27.49200 23.37700
H  -4.65300 24.87300 31.38000
H  -7.49400 24.08500 31.29000
H  -5.05900 22.71100 31.82300
H  -5.65200 21.90500 30.35700
H  -6.63700 21.93700 31.84200
H  -7.35100 26.21400 31.56100
H  -6.17200 27.24300 31.01700
H  -6.77300 27.02100 33.66300
H  -5.09900 27.39200 33.06200
H  -9.72800 19.89200 27.37900
H  -11.00100 21.07800 27.33000
H  -9.79200 21.23700 28.61200
H  -11.50900 20.16900 23.61300
H  -11.77900 20.99400 25.18900
H  -10.72200 19.55800 25.04500
H  -6.84300 24.54300 21.28000
H  -4.11500 25.59400 21.59500
H  -4.06600 23.45500 21.37700
H  -5.46600 22.88100 20.55400
H  -5.12600 22.35500 22.27500
H  -6.08600 27.65900 22.05900
H  -6.92500 26.52300 20.97000
H  -6.07100 27.52800 19.31800
H  -4.44100 26.97800 19.77300
H  -4.91600 28.53700 20.25900
H  -2.44500 30.00500 25.37300
H  -1.97300 28.73000 24.28400
H  -1.00900 28.93000 25.65100
H  -3.58700 27.94500 30.60000
H  -1.78300 25.28000 33.43100
H  -0.53100 26.22700 32.60500
H  -1.01700 24.72200 31.83400

