158

Mg 41.99300 41.47600 26.35700
C  40.90900 43.76900 28.73900
C  43.37500 39.55500 28.78400
C  43.08300 39.33200 23.93900
C  40.94800 43.62500 23.87200
N  42.19100 41.77800 28.54700
C  41.53000 42.67900 29.36900
C  41.85000 42.41000 30.82200
C  42.87300 41.17300 30.76500
C  42.81400 40.75000 29.27600
C  44.32000 41.44000 31.36600
C  40.46000 42.16400 31.75300
C  40.44400 43.02000 33.07700
H  39.83800 42.37800 34.33500
N  42.97600 39.64400 26.44500
C  43.44300 39.00700 27.53400
C  44.08800 37.77100 27.14200
C  43.97000 37.64600 25.74900
C  43.27400 38.89000 25.29000
C  44.52900 36.70500 28.19700
C  44.43200 36.49500 24.82700
O  44.15200 36.48300 23.69100
C  45.38200 35.40800 25.28100
N  42.04100 41.47600 24.22100
C  42.54600 40.51700 23.41400
C  42.35800 40.75400 21.96900
C  41.47600 42.07300 22.00000
C  41.47900 42.42700 23.47600
C  43.58900 40.80700 21.21000
C  39.95100 41.90600 21.45600
C  39.24200 40.57600 21.87300
N  41.21700 43.38100 26.26100
C  40.82900 44.13800 25.13000
C  40.37400 45.42900 25.57800
C  40.40700 45.33000 26.96400
C  40.93100 44.10100 27.35300
C  39.81000 46.48900 24.68600
C  40.12600 45.99900 28.19800
O  39.71300 47.09900 28.38000
C  40.44300 45.05600 29.39300
C  41.47700 45.71500 30.18500
O  42.60700 45.94100 29.74700
O  40.94500 46.11900 31.39000
C  41.95400 46.60900 32.26800
H  43.81100 38.96900 29.59600
H  43.42700 38.64700 23.16100
H  40.64500 44.22100 23.01000
H  42.36800 43.28800 31.20800
H  42.52000 40.45700 31.50600
H  45.02100 40.97400 30.67400
H  44.33400 40.95800 32.34300
H  44.50600 42.51400 31.37200
H  40.36700 41.11300 32.02600
H  39.54800 42.40400 31.20700
H  39.88100 43.93000 32.87400
H  41.48000 43.32300 33.22700
H  44.03400 35.76300 27.96000
H  44.28100 37.07700 29.19100
H  45.61200 36.59100 28.14500
H  46.36000 35.84200 25.49000
H  45.47100 34.61000 24.54400
H  44.86700 34.78600 26.01300
H  41.78500 39.87200 21.68100
H  42.03400 42.81000 21.42400
H  43.48300 41.69900 20.59300
H  43.69600 39.89700 20.61800
H  44.43300 40.88600 21.89500
H  40.02200 42.06100 20.37900
H  39.29500 42.64900 21.90900
H  39.44400 39.76700 21.17100
H  38.16200 40.71500 21.92900
H  39.49400 40.24200 22.88000
H  39.21500 46.08500 23.86700
H  40.64200 47.11000 24.35300
H  39.13100 47.12100 25.25800
H  39.48500 44.95900 29.90300
H  42.57700 47.34000 31.75300
H  42.38500 45.75800 32.79600
H  41.38500 47.26800 32.92400
Mg -5.52800 25.14500 26.30900
C  -3.88500 26.72800 29.14500
C  -7.35500 23.32800 28.49400
C  -6.96700 23.73100 23.73700
C  -3.54300 27.24400 24.28300
N  -5.62600 25.12000 28.59400
C  -4.96900 25.88900 29.51300
C  -5.50000 25.46100 30.85800
C  -6.27800 24.12800 30.63900
C  -6.42100 24.18000 29.18600
C  -5.50900 22.88100 31.15700
C  -6.34000 26.53500 31.52000
C  -6.22100 26.58500 33.05000
H  -5.71500 25.36300 33.84600
N  -6.96700 23.79400 26.13500
C  -7.67800 23.22300 27.13900
C  -8.69700 22.33700 26.65700
C  -8.51900 22.35000 25.25900
C  -7.42800 23.27900 24.98500
C  -9.80500 21.75600 27.51800
C  -9.26800 21.66600 24.15900
O  -9.03900 21.96200 23.00100
C  -10.37200 20.60800 24.50100
N  -5.32300 25.53700 24.31300
C  -6.00400 24.76300 23.38600
C  -5.50600 25.02400 21.92700
C  -4.66500 26.29600 22.17300
C  -4.52200 26.43400 23.70100
C  -4.57300 23.90400 21.40600
C  -5.24600 27.58500 21.54800
C  -4.54900 28.01200 20.18500
N  -3.86900 26.40800 26.59500
C  -3.19000 27.20800 25.67100
C  -2.27200 28.08200 26.34900
C  -2.48200 27.83800 27.66500
C  -3.51800 26.88200 27.78800
C  -1.19000 28.97900 25.74100
C  -2.06400 28.31200 28.98600
O  -1.18400 29.04600 29.35000
C  -2.99000 27.59300 29.98500
C  -2.15400 26.75500 30.93200
O  -1.44500 25.77500 30.63000
O  -2.29400 27.34400 32.19300
C  -1.41600 26.64700 33.15400
H  -7.79000 22.62000 29.20300
H  -7.36500 23.29800 22.81700
H  -2.85500 27.81800 23.65800
H  -4.67000 25.29600 31.54500
H  -7.26200 24.10200 31.10500
H  -5.23200 22.11100 30.43800
H  -6.16600 22.39600 31.88000
H  -4.54700 23.04100 31.64300
H  -7.37800 26.48600 31.19200
H  -6.09000 27.55500 31.23000
H  -7.24200 26.75000 33.39400
H  -5.57400 27.42500 33.30600
H  -10.75100 22.27500 27.36500
H  -9.58500 21.87200 28.57900
H  -9.94400 20.70400 27.26600
H  -10.63100 20.16500 23.53900
H  -11.24000 21.06700 24.97500
H  -10.03800 19.74600 25.07800
H  -6.34000 25.17800 21.24200
H  -3.61000 26.28200 21.90000
H  -4.61400 23.95900 20.31800
H  -4.79100 22.91000 21.79700
H  -3.55900 23.97600 21.80000
H  -5.24500 28.45300 22.20700
H  -6.29300 27.46200 21.27100
H  -3.91700 27.17600 19.88300
H  -3.91200 28.89600 20.16000
H  -5.20200 28.07700 19.31500
H  -1.72700 29.66900 25.09000
H  -0.58100 28.38900 25.05600
H  -0.57900 29.50400 26.47600
H  -3.56100 28.26400 30.62600
H  -0.39400 27.01500 33.06300
H  -1.47800 25.57700 32.95400
H  -1.88100 26.83000 34.12300

