158

Mg 42.68400 42.03100 26.46500
C  41.48300 44.21100 28.88700
C  43.74500 39.87200 28.88100
C  43.86500 39.99700 24.01900
C  41.92200 44.47100 24.04700
N  42.73800 42.15000 28.74800
C  42.09500 43.06700 29.50300
C  41.97900 42.59000 31.01900
C  42.98500 41.33400 30.93600
C  43.23800 41.10000 29.44000
C  44.31700 41.38300 31.80500
C  40.52500 42.27700 31.50700
C  39.85900 43.33600 32.41900
H  39.31700 42.95000 33.72500
N  43.58200 40.14600 26.49700
C  43.91900 39.43000 27.52400
C  44.47900 38.18100 27.14100
C  44.35300 38.05800 25.72300
C  43.97300 39.43800 25.36900
C  45.03500 37.12000 28.08900
C  44.56000 36.91500 24.78400
O  44.33000 37.02700 23.56600
C  44.91300 35.48300 25.25800
N  42.79300 42.14100 24.35700
C  43.34000 41.19700 23.59000
C  43.24800 41.50700 22.12000
C  42.48000 42.89300 22.06600
C  42.37100 43.21400 23.59200
C  44.64800 41.60300 21.48200
C  41.09300 42.76800 21.40200
C  40.24700 41.69900 22.07000
N  41.93000 43.96300 26.44200
C  41.69200 44.79200 25.36900
C  41.20400 46.12500 25.86600
C  41.08700 45.94400 27.26800
C  41.50100 44.60200 27.50900
C  41.03100 47.35100 25.05800
C  40.69800 46.60200 28.54000
O  40.18700 47.67600 28.73100
C  40.94600 45.50400 29.64100
C  42.00100 46.09100 30.55800
O  43.19000 46.26800 30.30800
O  41.40900 46.22900 31.79000
C  42.29200 46.82900 32.83600
H  44.03400 39.11500 29.61300
H  44.34200 39.32200 23.30600
H  41.69400 45.21300 23.27900
H  42.48300 43.33400 31.63700
H  42.39300 40.48500 31.27800
H  44.23000 42.34400 32.31200
H  45.10900 41.47100 31.06000
H  44.46200 40.69300 32.63600
H  40.38100 41.26600 31.88700
H  40.01000 42.19400 30.55000
H  39.02800 43.78200 31.87400
H  40.62100 44.08400 32.64000
H  46.02200 36.72900 27.83900
H  44.32400 36.31300 28.26900
H  45.18700 37.66500 29.02100
H  45.03100 34.93000 24.32700
H  44.09000 35.01900 25.80100
H  45.83300 35.64700 25.82100
H  42.67400 40.74500 21.59200
H  42.99300 43.70400 21.54900
H  44.86200 40.62500 21.05000
H  45.41800 41.80400 22.22700
H  44.60600 42.35000 20.69000
H  41.24300 42.50700 20.35400
H  40.50500 43.68500 21.37600
H  39.89600 41.02400 21.28900
H  39.29300 42.14800 22.34600
H  40.69500 41.23500 22.94900
H  40.88100 48.21700 25.70300
H  40.10200 47.24800 24.49900
H  41.85200 47.59800 24.38500
H  40.05500 45.28100 30.22800
H  42.15600 46.13600 33.66600
H  41.88400 47.77000 33.20700
H  43.36300 46.86800 32.63700
Mg -11.56500 38.45300 41.15700
C  -9.76500 35.57600 40.25800
C  -9.10400 40.41900 39.71800
C  -13.73700 40.97700 41.17100
C  -13.93500 36.31300 42.57900
N  -9.65400 37.96900 39.98000
C  -9.12600 36.77100 39.82800
C  -7.70800 36.82100 39.20600
C  -7.49600 38.42100 39.11600
C  -8.77900 39.01300 39.74300
C  -6.37000 38.88600 40.11100
C  -7.55300 36.10400 37.87100
C  -6.31300 35.18600 37.67500
H  -5.16000 35.60500 36.78700
N  -11.43300 40.44700 40.51200
C  -10.33100 41.06800 40.00300
C  -10.58600 42.49100 39.75400
C  -11.95600 42.68600 40.02700
C  -12.45300 41.37000 40.64300
C  -9.57200 43.30300 38.99400
C  -12.75400 43.93800 39.69600
O  -12.25500 44.84600 39.14400
C  -14.18600 43.95700 39.85800
N  -13.57800 38.56600 41.67100
C  -14.20400 39.74900 41.67300
C  -15.59700 39.64500 42.26300
C  -15.58900 38.23600 42.88200
C  -14.26900 37.62500 42.33400
C  -16.08600 40.70000 43.35000
C  -16.85800 37.39500 42.47000
C  -16.66400 36.47500 41.21100
N  -11.83400 36.33800 41.46000
C  -12.79500 35.62000 42.12500
C  -12.43900 34.21900 42.07100
C  -11.30200 34.16800 41.29100
C  -10.98300 35.46800 40.95600
C  -13.25100 33.15900 42.70000
C  -10.33600 33.31400 40.66000
O  -10.25000 32.12100 40.58900
C  -9.22900 34.18400 40.03200
C  -7.91800 33.81600 40.74900
O  -7.26600 32.86400 40.44000
O  -7.68800 34.69700 41.79300
C  -6.47800 34.40400 42.55400
H  -8.16700 40.86100 39.37100
H  -14.53900 41.71200 41.27100
H  -14.64100 35.65300 43.08700
H  -7.01500 36.27300 39.84500
H  -7.35700 38.74700 38.08500
H  -5.54900 38.19000 39.94100
H  -6.74900 38.96400 41.13000
H  -5.95600 39.86700 39.87600
H  -7.57800 36.86600 37.09200
H  -8.44100 35.53800 37.59200
H  -6.68900 34.21300 37.36000
H  -5.83600 35.00500 38.63800
H  -9.98800 43.59200 38.02900
H  -8.68500 42.69000 38.83500
H  -9.24500 44.19600 39.52800
H  -14.67500 43.26500 39.17300
H  -14.55100 44.88900 39.42600
H  -14.44400 43.83900 40.91000
H  -16.24100 39.63900 41.38400
H  -15.39900 38.15200 43.95200
H  -17.03000 41.15600 43.05300
H  -15.32400 41.47800 43.39500
H  -16.21200 40.28800 44.35100
H  -17.70800 38.06300 42.33000
H  -17.15100 36.75400 43.30100
H  -15.91100 36.77100 40.48100
H  -17.62800 36.22400 40.77000
H  -16.33900 35.52400 41.63300
H  -12.71800 32.21400 42.80100
H  -14.22600 32.97500 42.25000
H  -13.55200 33.51900 43.68300
H  -9.06500 34.01100 38.96800
H  -6.80100 33.69600 43.31800
H  -6.13700 35.35100 42.97200
H  -5.63500 33.98800 42.00200

