158

Mg 7.88200 2.73900 27.57100
C  9.44700 1.37500 30.33400
C  5.97800 4.53400 29.90400
C  5.86100 3.60100 25.13700
C  9.41400 0.36800 25.53200
N  7.81500 3.01500 29.82700
C  8.63100 2.41200 30.72500
C  8.38800 2.90000 32.14700
C  7.14300 3.79800 32.00100
C  6.91800 3.75700 30.48100
C  5.89800 3.36900 32.83000
C  9.62900 3.54600 32.88900
C  9.32600 4.62500 33.92200
H  10.17200 4.63800 35.14900
N  6.21500 3.98100 27.54200
C  5.58400 4.61400 28.52800
C  4.50800 5.37800 28.04200
C  4.46700 5.26300 26.58500
C  5.53400 4.23000 26.35200
C  3.54400 6.16800 28.99400
C  3.66300 5.90900 25.54200
O  3.76800 5.62100 24.34400
C  2.59300 6.94200 25.88200
N  7.75800 2.14000 25.58400
C  6.85300 2.73700 24.73200
C  7.12000 2.22000 23.28300
C  8.34800 1.26700 23.42400
C  8.48100 1.22400 24.95300
C  5.76400 1.63200 22.73300
C  9.65300 1.41900 22.55900
C  10.08200 0.14500 21.89900
N  9.17100 1.19800 27.78300
C  9.65000 0.29300 26.91100
C  10.50500 -0.68100 27.53300
C  10.39100 -0.26900 28.94900
C  9.57000 0.86700 29.03400
C  11.38400 -1.78400 26.91400
C  10.87800 -0.63200 30.29500
O  11.66600 -1.47000 30.70200
C  10.32300 0.50100 31.26200
C  9.60200 -0.11900 32.40100
O  8.57800 -0.82900 32.35500
O  10.24900 0.18300 33.56100
C  9.63400 -0.34000 34.78400
H  5.48600 5.15200 30.65800
H  5.20800 3.76100 24.27700
H  9.83800 -0.27000 24.75400
H  8.28300 2.05500 32.82900
H  7.35200 4.83700 32.25700
H  5.23300 2.86100 32.13100
H  5.43600 4.27300 33.22900
H  6.29500 2.65300 33.54900
H  10.30100 3.91900 32.11700
H  10.21600 2.89200 33.53500
H  8.31300 4.44600 34.28400
H  9.35800 5.64800 33.54700
H  3.48800 7.18400 28.60100
H  4.07200 6.31800 29.93500
H  2.55500 5.72400 29.11200
H  2.14000 6.85500 24.89500
H  2.87000 7.99500 25.94100
H  1.88500 6.58100 26.62800
H  7.52000 3.06700 22.72600
H  7.96000 0.25900 23.27500
H  5.01900 1.52100 23.52100
H  5.86200 0.62600 22.32500
H  5.32400 2.23100 21.93500
H  10.47300 1.71300 23.21400
H  9.47400 2.23300 21.85600
H  10.82000 -0.21100 22.61700
H  10.48100 0.34100 20.90400
H  9.27800 -0.55900 21.68300
H  11.27000 -1.71800 25.83200
H  11.02900 -2.74300 27.29200
H  12.43900 -1.56400 27.07500
H  11.17900 1.12100 31.52900
H  9.69500 -1.42800 34.80400
H  8.63700 -0.04300 35.11000
H  10.29300 -0.18400 35.63800
Mg 40.97500 10.02700 30.20600
C  43.07000 10.95100 32.69000
C  38.76500 8.69800 32.59200
C  38.92100 8.78800 27.76400
C  43.20200 11.07300 27.79800
N  40.95400 9.80000 32.43300
C  41.89100 10.35000 33.20000
C  41.35600 10.46100 34.65800
C  40.10200 9.53100 34.64300
C  39.87000 9.31400 33.15000
C  40.19500 8.08800 35.42100
C  41.11300 11.95900 35.10200
C  41.77100 12.32400 36.48200
H  40.89000 12.74000 37.68500
N  39.18900 8.81800 30.21700
C  38.50000 8.39200 31.31100
C  37.33700 7.68000 30.88500
C  37.28900 7.71400 29.43300
C  38.50000 8.44300 29.07500
C  36.36000 6.99900 31.87400
C  36.31000 7.06500 28.38400
O  36.49400 7.05600 27.12900
C  35.28600 6.05900 28.86100
N  41.18200 9.76200 27.98500
C  40.01400 9.43000 27.29200
C  40.31900 9.62800 25.79700
C  41.73700 10.29400 25.79800
C  42.00000 10.51100 27.25800
C  40.16700 8.44200 24.88000
C  42.03100 11.48200 24.80300
C  41.21400 12.72400 25.21100
N  42.86000 10.70800 30.24000
C  43.57400 11.15400 29.19200
C  44.79800 11.76600 29.69400
C  44.64500 11.74600 31.06300
C  43.45900 11.01400 31.35600
C  45.85700 12.28000 28.78400
C  45.20700 12.16100 32.25300
O  46.30100 12.73100 32.47600
C  44.18200 11.66800 33.46200
C  44.88700 10.81200 34.45100
O  44.91200 9.58600 34.61000
O  45.50600 11.67600 35.36400
C  46.04600 11.02600 36.60000
H  38.05100 8.40400 33.36400
H  38.31200 8.29200 27.00600
H  43.84300 11.53800 27.04700
H  42.17500 9.94900 35.16400
H  39.32600 10.14400 35.10300
H  40.71300 8.34600 36.34500
H  40.68200 7.27600 34.88100
H  39.19500 7.78200 35.72900
H  40.08000 12.28600 35.22700
H  41.50500 12.59100 34.30500
H  42.49900 13.11200 36.29100
H  42.40600 11.47600 36.73900
H  36.50100 7.15300 32.94300
H  36.19900 5.94600 31.63900
H  35.43100 7.48800 31.58100
H  34.48800 6.60000 29.37100
H  35.77400 5.37800 29.55700
H  34.92300 5.37900 28.09000
H  39.55200 10.33500 25.48100
H  42.42300 9.58200 25.34100
H  40.88700 8.37300 24.06400
H  39.14100 8.38700 24.51500
H  40.33400 7.59000 25.53800
H  41.71300 11.25700 23.78500
H  43.10400 11.66400 24.75800
H  40.62300 12.53900 26.10700
H  40.55100 13.13100 24.44800
H  41.85500 13.53600 25.55500
H  45.49000 13.15800 28.25100
H  46.15800 11.56000 28.02300
H  46.75300 12.40500 29.39200
H  43.80800 12.57300 33.94300
H  46.87900 10.38300 36.31600
H  45.28700 10.45900 37.13800
H  46.65700 11.64900 37.25300

