158

Mg 36.20900 3.01500 30.18800
C  33.78900 3.90600 32.61500
C  38.46000 2.48400 32.66500
C  38.49500 2.62000 27.82900
C  33.75300 3.41200 27.71200
N  36.04000 3.15300 32.39900
C  35.05500 3.61000 33.19400
C  35.51200 3.53400 34.65000
C  37.01700 3.41500 34.57600
C  37.19500 2.94900 33.11600
C  37.77500 4.82800 34.83700
C  34.77000 2.29400 35.24200
C  34.11800 2.47900 36.58200
H  34.95500 3.31100 37.51400
N  38.25100 2.50700 30.24500
C  38.98100 2.32100 31.37100
C  40.33400 2.05000 31.00300
C  40.34100 2.07700 29.58000
C  38.94600 2.39600 29.14700
C  41.39100 1.72100 32.07500
C  41.45800 1.80500 28.63700
O  41.31700 1.76000 27.41800
C  42.70600 1.26600 29.27600
N  36.17200 3.06400 28.07900
C  37.19700 2.80900 27.36300
C  36.92300 2.89600 25.87100
C  35.35200 2.86000 25.84100
C  35.01900 3.12600 27.32000
C  37.53000 4.14500 25.23300
C  34.69200 1.45800 25.40500
C  33.47300 1.65100 24.43900
N  34.18700 3.65600 30.12200
C  33.30600 3.71400 29.08100
C  31.97900 4.09400 29.58700
C  32.14500 4.20800 30.97400
C  33.46000 3.89000 31.23400
C  30.67200 4.13400 28.81300
C  31.42700 4.42400 32.20000
O  30.22600 4.64500 32.37900
C  32.44600 4.18000 33.34100
C  32.54000 5.35800 34.28800
O  33.24400 6.36500 34.18000
O  31.79700 5.16500 35.42800
C  31.79100 6.24700 36.43100
H  39.22500 2.60200 33.43600
H  39.22400 2.56100 27.01700
H  33.05600 3.39900 26.87100
H  35.33700 4.46600 35.18600
H  37.35000 2.67000 35.29900
H  37.06600 5.63300 34.64400
H  38.53900 4.96500 34.07200
H  38.22700 4.93200 35.82300
H  35.51400 1.50400 35.34500
H  33.95800 1.96600 34.59200
H  33.94600 1.53200 37.09400
H  33.16400 2.97100 36.39700
H  41.77800 2.64200 32.51000
H  42.31300 1.25400 31.72800
H  40.98800 0.98500 32.77000
H  43.36700 1.04700 28.43800
H  42.33000 0.35600 29.74500
H  43.07400 2.06900 29.91500
H  37.37400 1.97700 25.49600
H  34.91800 3.68800 25.28100
H  38.04600 4.90300 25.82300
H  36.76400 4.70100 24.69100
H  38.31700 3.88200 24.52600
H  34.31500 0.87300 26.24400
H  35.49500 0.91200 24.90900
H  33.39600 2.58800 23.88800
H  32.59700 1.56600 25.08100
H  33.34700 0.94600 23.61800
H  29.78100 4.44300 29.36000
H  30.51800 3.17900 28.31200
H  30.76800 4.72600 27.90200
H  32.31300 3.30900 33.98300
H  32.61600 6.07400 37.12200
H  30.81300 6.15400 36.90300
H  31.79500 7.26000 36.02800
Mg 35.43400 48.59200 26.15800
C  36.17200 46.42700 28.90600
C  34.06400 50.89000 28.28600
C  34.34100 50.34000 23.33200
C  36.16700 45.76000 24.04000
N  35.09900 48.57500 28.31900
C  35.58500 47.67800 29.26400
C  35.43600 48.23000 30.69900
C  34.55200 49.56300 30.45600
C  34.58100 49.71500 28.92300
C  33.12200 49.63300 31.05800
C  36.82300 48.55400 31.17800
C  37.22800 48.14200 32.56500
H  37.16900 49.18500 33.66300
N  34.49900 50.35800 25.86300
C  34.02300 51.19900 26.88300
C  33.47400 52.40500 26.35400
C  33.73200 52.36300 24.90100
C  34.26600 50.93200 24.64400
C  32.75700 53.43900 27.22700
C  33.63800 53.46900 23.87600
O  33.90100 53.39100 22.69300
C  33.17700 54.83200 24.30700
N  35.10100 48.03400 23.97200
C  34.80000 49.04000 23.10000
C  34.82300 48.44700 21.72800
C  35.74000 47.18000 21.87200
C  35.70600 46.93900 23.35200
C  33.46100 48.22600 21.10900
C  37.25600 47.22800 21.45700
C  37.57300 46.06000 20.56100
N  36.02100 46.50500 26.38600
C  36.34000 45.53800 25.42000
C  36.82500 44.33700 26.09700
C  36.77500 44.67800 27.43600
C  36.26600 45.95200 27.60700
C  37.25500 42.97400 25.47400
C  37.04700 44.12500 28.77800
O  37.44300 43.08800 29.20200
C  36.72500 45.26800 29.74000
C  35.86500 44.75200 30.81000
O  34.72100 44.38600 30.64000
O  36.54100 44.70300 32.00800
C  35.82800 44.23200 33.17900
H  33.71100 51.68200 28.95000
H  34.07800 50.91000 22.43800
H  36.58600 44.96500 23.42000
H  34.92100 47.53100 31.35800
H  35.12200 50.37600 30.90400
H  33.02300 48.78300 31.73300
H  32.37800 49.47100 30.27800
H  32.86000 50.60400 31.47900
H  36.99000 49.62800 31.26400
H  37.58100 48.11200 30.53100
H  38.22900 47.70900 32.57600
H  36.47300 47.41000 32.85100
H  32.07100 53.07500 27.99100
H  32.20200 54.01200 26.48400
H  33.48700 54.15200 27.61000
H  33.57900 55.20200 25.25000
H  32.09200 54.79400 24.40400
H  33.28500 55.63400 23.57600
H  35.35700 49.19600 21.14400
H  35.20000 46.32700 21.46200
H  33.16700 47.18000 21.01800
H  33.46900 48.58900 20.08100
H  32.66100 48.73900 21.64300
H  37.96800 47.20300 22.28200
H  37.50500 48.12500 20.89100
H  37.25000 46.36400 19.56500
H  37.00500 45.15700 20.78300
H  38.60700 45.72200 20.63700
H  37.53200 43.10700 24.42900
H  36.54900 42.16500 25.66000
H  38.17000 42.60800 25.94000
H  37.63700 45.61200 30.22900
H  36.01200 44.91800 34.00500
H  36.25200 43.29700 33.54700
H  34.77000 44.07000 32.97600

