158

Mg 1.91200 8.08600 26.36200
C  2.18000 10.16400 29.28800
C  2.37800 5.36300 28.63800
C  2.36900 5.98100 23.74500
C  2.10300 10.73000 24.29700
N  2.17600 7.85100 28.78900
C  2.12800 8.81100 29.69600
C  2.11000 8.21600 31.11300
C  2.46200 6.66100 30.84600
C  2.36400 6.58000 29.33800
C  3.80300 6.04800 31.53800
C  0.85900 8.41600 31.86000
C  0.67500 7.53400 33.12700
H  1.87500 7.30400 34.08700
N  2.17700 5.95500 26.24400
C  2.45300 5.06700 27.23700
C  2.77800 3.71000 26.72500
C  2.60900 3.80300 25.31400
C  2.34000 5.24700 25.02900
C  3.07800 2.56700 27.69400
C  2.71500 2.71000 24.27300
O  2.43600 2.94800 23.10100
C  3.19300 1.28600 24.64900
N  2.00300 8.27600 24.35600
C  2.09000 7.32200 23.38500
C  1.82600 7.87700 21.91000
C  1.59400 9.39800 22.20200
C  1.89200 9.44700 23.68200
C  3.00900 7.52000 21.00100
C  0.13900 9.92100 21.88000
C  0.17300 10.87800 20.67500
N  2.06500 10.01200 26.66200
C  2.14000 11.02100 25.71600
C  2.20700 12.36600 26.41100
C  2.28100 12.09500 27.75500
C  2.08400 10.62500 27.87700
C  2.08600 13.68400 25.83400
C  2.35500 12.67400 29.06800
O  2.51300 13.87600 29.41100
C  2.24400 11.43600 30.10400
C  3.40200 11.45900 31.09500
O  4.60700 11.23200 30.85400
O  2.99300 11.97000 32.24600
C  3.91700 11.92500 33.39800
H  2.62300 4.65600 29.43400
H  2.49900 5.32700 22.87900
H  2.15400 11.60300 23.64300
H  2.85800 8.63400 31.78700
H  1.57500 6.10000 31.14000
H  4.06900 6.71000 32.36200
H  4.59100 5.87400 30.80500
H  3.57100 5.07100 31.96100
H  0.01500 8.10800 31.24300
H  0.72200 9.45300 32.16800
H  0.24900 6.55300 32.91600
H  -0.01800 8.12600 33.72500
H  2.11400 2.07600 27.83100
H  3.54600 2.90100 28.62000
H  3.69500 1.83400 27.17400
H  2.77700 0.94000 25.59500
H  4.26900 1.45900 24.66600
H  3.00500 0.56500 23.85300
H  0.88300 7.40800 21.62900
H  2.40800 9.91400 21.69200
H  3.77200 7.07100 21.63600
H  3.41800 8.38300 20.47600
H  2.80100 6.69300 20.32100
H  -0.23100 10.45500 22.75500
H  -0.46100 9.02200 21.74200
H  1.19100 11.05700 20.32800
H  -0.23900 11.84400 20.96500
H  -0.33200 10.44200 19.81200
H  1.49400 13.41100 24.96000
H  3.03800 14.14700 25.57500
H  1.37500 14.31700 26.36400
H  1.32300 11.40600 30.68600
H  4.51000 11.01100 33.43000
H  3.30500 11.82200 34.29300
H  4.54300 12.81000 33.50600
Mg 47.10300 34.57000 27.74300
C  45.37000 32.91900 30.15400
C  47.59800 37.24000 29.93100
C  48.32800 36.45200 25.24400
C  46.41700 32.06400 25.50000
N  46.59100 35.02400 29.81000
C  45.86700 34.11500 30.61500
C  46.02700 34.57100 32.14300
C  46.23500 36.11300 31.90000
C  46.82500 36.17300 30.44400
C  44.91800 36.97200 32.04800
C  47.17200 33.81900 32.82200
C  47.02500 33.68200 34.35500
H  46.02800 34.54300 35.13900
N  47.91100 36.57600 27.59100
C  48.05600 37.45700 28.63400
C  48.66600 38.65900 28.06900
C  48.81100 38.42700 26.70600
C  48.30700 37.17200 26.45800
C  49.02400 39.78000 28.97900
C  49.40300 39.31500 25.67900
O  49.28200 39.17300 24.47700
C  49.94800 40.59300 26.17700
N  47.22600 34.35300 25.63800
C  47.86400 35.20300 24.86800
C  48.15200 34.68700 23.46100
C  47.72800 33.19600 23.64300
C  47.06800 33.15600 25.02900
C  47.43500 35.46600 22.38500
C  48.79100 32.13900 23.68800
C  48.67300 30.90500 22.72800
N  46.03100 32.82200 27.73100
C  45.84100 31.84300 26.75500
C  45.24800 30.69400 27.32400
C  44.91700 31.15600 28.64900
C  45.45400 32.38900 28.89100
C  45.04700 29.35600 26.72500
C  44.33800 30.70800 29.84700
O  43.73900 29.67600 30.17500
C  44.44200 31.89400 30.83000
C  44.77900 31.40100 32.21500
O  45.68400 30.57200 32.47700
O  43.94600 31.85000 33.09900
C  44.15600 31.46500 34.46700
H  47.65800 38.02100 30.69200
H  48.67500 36.93000 24.32600
H  46.33500 31.23200 24.79800
H  45.09100 34.53000 32.70000
H  47.00200 36.45300 32.59600
H  43.94300 36.49300 31.97100
H  44.88300 37.72800 31.26300
H  45.00100 37.58900 32.94300
H  48.11000 34.32500 32.59600
H  47.24900 32.82400 32.38500
H  48.00400 34.01500 34.69900
H  46.90600 32.63200 34.62500
H  50.05800 40.12200 28.91900
H  48.68900 39.68800 30.01200
H  48.42300 40.67600 28.82700
H  49.21200 41.11400 26.78800
H  50.02200 41.19700 25.27300
H  50.93300 40.57400 26.64500
H  49.23300 34.68900 23.32100
H  47.05200 32.91600 22.83400
H  46.83500 36.23700 22.86900
H  46.71400 34.89200 21.80200
H  48.11600 35.71000 21.57000
H  48.99600 31.64300 24.63700
H  49.69000 32.65900 23.35600
H  47.74000 30.87500 22.16500
H  48.70800 29.92400 23.20200
H  49.49000 31.02100 22.01700
H  45.67800 29.08200 25.87900
H  44.01800 29.26000 26.38000
H  45.23400 28.73400 27.60100
H  43.47000 32.38800 30.83400
H  44.14600 30.41700 34.76800
H  43.41000 31.96800 35.08200
H  45.15400 31.76800 34.78500

