158

Mg 25.83800 1.66900 29.26700
C  27.69500 1.18200 32.20500
C  22.96400 2.00400 31.27700
C  23.91700 1.36300 26.51100
C  28.71400 0.85300 27.26900
N  25.36500 1.54300 31.48500
C  26.30200 1.39500 32.49800
C  25.69100 1.57000 33.92800
C  24.19300 1.83400 33.52700
C  24.10100 1.73700 31.99700
C  23.10700 0.88600 34.18700
C  26.29000 2.75300 34.73600
C  25.46500 3.18200 35.94800
H  26.01200 3.00200 37.34600
N  23.75600 1.67100 28.97400
C  22.71100 1.84500 29.91200
C  21.48300 1.99700 29.13200
C  21.80500 1.86500 27.75900
C  23.22500 1.59800 27.74200
C  20.10200 2.12900 29.77000
C  20.87000 2.03600 26.55300
O  21.22800 2.10700 25.41500
C  19.34900 2.16200 26.76500
N  26.20300 1.09900 27.20800
C  25.25300 1.09500 26.32000
C  25.77800 0.88100 24.85600
C  27.35300 0.86500 25.00400
C  27.48700 0.99100 26.54800
C  25.10200 -0.42200 24.16400
C  28.10100 2.01000 24.18100
C  28.57500 1.60700 22.82600
N  27.85700 1.14500 29.56700
C  28.86700 0.89700 28.69900
C  30.09000 0.81000 29.46900
C  29.68100 0.81900 30.84600
C  28.29700 1.04800 30.85700
C  31.43300 0.63100 28.94600
C  30.10500 0.66000 32.21300
O  31.15300 0.31900 32.71500
C  28.90200 1.02500 33.14500
C  28.73600 -0.06200 34.11500
O  28.50200 -1.22400 33.79000
O  28.66800 0.39600 35.41800
C  28.85300 -0.55700 36.50400
H  22.13900 2.27900 31.93900
H  23.29900 1.17900 25.63000
H  29.62500 0.56400 26.74100
H  25.81400 0.69900 34.57200
H  23.96700 2.85600 33.83100
H  23.50800 0.27300 34.99400
H  22.90300 0.13400 33.42500
H  22.18700 1.42600 34.41200
H  26.43800 3.52300 33.97900
H  27.27400 2.47900 35.11500
H  24.53100 2.62900 35.85300
H  25.10600 4.19300 35.75400
H  19.31000 1.49400 29.37400
H  19.84000 3.14200 29.46400
H  20.10000 2.04700 30.85700
H  19.10000 1.15000 27.08600
H  18.88100 2.41200 25.81300
H  19.03400 2.94200 27.45800
H  25.55700 1.79400 24.30300
H  27.76200 -0.10000 24.70600
H  24.58900 -0.96100 24.96100
H  25.96600 -0.96900 23.78900
H  24.29300 -0.19900 23.46800
H  28.83100 2.51600 24.81300
H  27.28900 2.67400 23.88400
H  28.52600 0.52200 22.73000
H  29.65400 1.73200 22.73500
H  27.97500 2.05300 22.03300
H  31.49600 1.19400 28.01400
H  31.59600 -0.43000 28.75700
H  32.09800 1.05400 29.69800
H  29.12500 1.95600 33.66600
H  29.25100 0.03400 37.32900
H  29.40700 -1.46800 36.27600
H  27.80900 -0.82400 36.66800
Mg 35.58400 48.63900 24.95700
C  35.60900 47.05300 28.03400
C  34.73900 51.53400 26.66900
C  35.08100 50.08900 21.95700
C  36.31800 45.74500 23.35100
N  35.07000 49.16600 27.11400
C  35.22100 48.36700 28.21200
C  34.93800 49.20600 29.48900
C  34.59800 50.64200 29.02400
C  34.72400 50.42600 27.54300
C  33.13000 51.13000 29.33800
C  36.07800 49.12200 30.59500
C  35.65800 48.42400 31.92000
H  34.22000 48.40900 32.34400
N  34.89100 50.58100 24.34600
C  34.69700 51.62000 25.21600
C  34.45600 52.85500 24.36000
C  34.41000 52.42100 23.01300
C  34.79600 50.98900 23.07600
C  34.21800 54.21500 25.00600
C  34.18400 53.24000 21.69300
O  34.09400 52.72400 20.57800
C  33.91000 54.68400 21.79900
N  35.55600 48.04000 22.95200
C  35.42700 48.80400 21.89000
C  35.79300 48.14600 20.55800
C  36.32500 46.77000 21.07900
C  36.03900 46.81800 22.54000
C  34.63200 47.96400 19.53100
C  37.80200 46.45900 20.71200
C  38.96800 47.30300 21.36200
N  35.82300 46.72000 25.52900
C  36.20500 45.60300 24.73800
C  36.61400 44.53800 25.65800
C  36.43200 45.07300 26.92500
C  35.85600 46.37200 26.79500
C  37.08200 43.14700 25.22500
C  36.63100 44.76300 28.33600
O  36.98300 43.69300 28.85100
C  35.99900 45.93100 29.06700
C  34.90000 45.44400 29.82700
O  33.71900 45.73600 29.66800
O  35.26700 44.60000 30.78000
C  34.30300 44.06100 31.68600
H  34.58400 52.49800 27.15800
H  35.12400 50.65400 21.02300
H  36.70200 44.88800 22.79400
H  33.95600 48.83200 29.77700
H  35.25400 51.45500 29.33600
H  32.49500 51.15000 28.45200
H  33.18300 52.15800 29.69600
H  32.62700 50.52200 30.09000
H  36.33100 50.12200 30.94800
H  36.96200 48.61300 30.20900
H  36.26400 48.83500 32.72800
H  35.95500 47.37700 31.87100
H  34.94500 55.00200 24.80500
H  34.29700 54.16500 26.09200
H  33.22400 54.57900 24.74600
H  34.87100 55.15300 22.01000
H  33.10500 54.84100 22.51600
H  33.59400 55.00900 20.80800
H  36.58800 48.68100 20.03800
H  35.96900 45.89800 20.53100
H  33.71800 48.51100 19.76000
H  34.26200 46.94600 19.41700
H  34.92000 48.21800 18.51000
H  38.00600 46.59000 19.64900
H  37.88300 45.38200 20.86400
H  39.67800 47.68400 20.62800
H  39.69600 46.64500 21.83500
H  38.79400 48.20700 21.94500
H  36.42100 42.70900 24.47700
H  36.98200 42.52600 26.11500
H  38.08700 43.22400 24.81100
H  36.83300 46.17800 29.72400
H  33.27400 44.41500 31.63800
H  34.61400 44.14900 32.72700
H  34.24600 42.97500 31.60400

