158

Mg 3.07700 -0.31100 44.99500
C  6.57200 0.35400 44.68700
C  2.60300 2.44100 42.89400
C  -0.04500 -1.10300 44.95400
C  3.99700 -3.49900 46.43200
N  4.40400 1.16600 43.89400
C  5.78000 1.16600 43.90300
C  6.36900 2.26300 42.98200
C  5.08500 3.08300 42.71100
C  3.95900 2.16600 43.11600
C  4.90200 4.52700 43.26800
C  7.14300 1.59600 41.81200
C  8.59700 2.07200 41.48200
H  9.05200 2.00700 40.07700
N  1.49000 0.61700 44.16700
C  1.48500 1.69500 43.39300
C  0.06600 2.01900 43.08900
C  -0.74100 0.97300 43.55300
C  0.19200 0.11800 44.35000
C  -0.35600 3.29000 42.35800
C  -2.24500 0.79800 43.27800
O  -2.77700 1.63400 42.57300
C  -2.97900 -0.34200 43.76500
N  2.18100 -2.07600 45.52600
C  0.82800 -2.12900 45.42800
C  0.35700 -3.52000 45.78500
C  1.57000 -4.30500 46.41600
C  2.67000 -3.28300 46.03800
C  -0.81100 -3.55900 46.76100
C  1.94600 -5.72400 45.83800
C  0.74000 -6.65900 45.37700
N  4.87500 -1.40600 45.51900
C  5.03600 -2.61900 46.15300
C  6.45800 -2.73200 46.49100
C  7.06400 -1.60400 45.92600
C  6.09100 -0.80900 45.33800
C  7.14300 -3.76300 47.25900
C  8.32900 -0.91200 45.73600
O  9.45300 -1.17600 46.05800
C  8.06700 0.33300 44.91700
C  8.49300 1.47000 45.79400
O  7.88500 1.83300 46.83000
O  9.68300 1.99800 45.28800
C  9.93700 3.36800 45.80600
H  2.35100 3.25700 42.21300
H  -1.08400 -1.44100 44.95600
H  4.17000 -4.43500 46.96600
H  7.04900 2.84800 43.60100
H  5.06300 3.07100 41.62100
H  4.93400 5.20600 42.41500
H  5.78700 4.76100 43.86100
H  3.94800 4.64900 43.78100
H  6.58200 1.85600 40.91500
H  7.05400 0.51600 41.69200
H  9.34200 1.59000 42.11400
H  8.76800 3.10900 41.77200
H  -0.90400 3.07500 41.44100
H  0.48700 3.93800 42.11900
H  -1.12100 3.71000 43.01000
H  -4.04500 -0.16700 43.61900
H  -2.71900 -0.49000 44.81300
H  -2.71000 -1.26800 43.25800
H  0.13800 -3.90600 44.79000
H  1.57700 -4.26200 47.50500
H  -0.89400 -2.66700 47.38100
H  -0.81900 -4.48000 47.34400
H  -1.70800 -3.68500 46.15500
H  2.56300 -6.27100 46.55200
H  2.60800 -5.72400 44.97200
H  0.96800 -7.69400 45.63100
H  0.60300 -6.72200 44.29700
H  -0.25500 -6.38400 45.72700
H  7.20200 -4.71700 46.73500
H  6.56500 -3.78900 48.18400
H  8.12400 -3.40800 47.57500
H  8.57100 0.38200 43.95200
H  10.35500 4.02100 45.03900
H  10.62500 3.43400 46.64800
H  9.03600 3.91100 46.09000
Mg 16.87800 53.14400 26.62700
C  18.88500 51.55100 29.05000
C  14.84400 54.15100 29.13700
C  14.75000 54.28600 24.27500
C  18.96500 51.93500 24.17200
N  16.92100 52.73200 28.82400
C  17.84700 52.29500 29.62100
C  17.57600 52.47100 31.08400
C  16.15200 53.08600 31.03900
C  15.90100 53.34500 29.53400
C  15.02200 52.32100 31.73500
C  18.62900 53.36800 31.74300
C  18.59600 53.57000 33.25500
H  17.75000 52.66100 33.98700
N  15.06400 54.11500 26.66900
C  14.45300 54.56400 27.85200
C  13.35400 55.41300 27.47300
C  13.31800 55.49500 26.02000
C  14.48500 54.67400 25.63100
C  12.58600 56.10400 28.47900
C  12.43900 56.28700 25.04500
O  12.52800 56.29000 23.77100
C  11.55700 57.37900 25.68400
N  16.76200 53.00300 24.55200
C  15.80300 53.44700 23.76800
C  16.05500 53.29400 22.25700
C  17.54600 52.73200 22.21800
C  17.80500 52.64700 23.76500
C  15.02500 52.37400 21.52900
C  18.60900 53.52800 21.50800
C  18.69600 55.03700 21.81300
N  18.60000 51.92000 26.55800
C  19.33400 51.43900 25.50600
C  20.42700 50.62500 25.96000
C  20.30600 50.58700 27.37700
C  19.16200 51.36900 27.66600
C  21.39000 49.82800 25.13900
C  20.82600 50.02400 28.56600
O  21.71900 49.18600 28.75900
C  19.97600 50.63500 29.78900
C  19.44300 49.41800 30.59000
O  18.67400 48.58800 30.12900
O  19.90900 49.34900 31.89200
C  19.21800 48.40000 32.73900
H  14.29900 54.62100 29.95800
H  13.98000 54.53600 23.54300
H  19.52400 51.60800 23.29300
H  17.44600 51.52200 31.60300
H  16.20200 53.99300 31.64100
H  15.28800 51.43800 32.31600
H  14.25200 51.97000 31.04800
H  14.65400 52.92900 32.56100
H  18.55400 54.31400 31.20700
H  19.61800 53.09300 31.37700
H  18.34300 54.61000 33.46200
H  19.58600 53.47200 33.70100
H  12.82800 56.00500 29.53700
H  11.54600 55.83900 28.28600
H  12.72600 57.17200 28.31100
H  11.19000 57.99400 24.86300
H  12.10300 57.92200 26.45500
H  10.67700 56.93400 26.14800
H  16.01200 54.23400 21.70600
H  17.56400 51.68600 21.91200
H  14.85800 52.58400 20.47200
H  14.12200 52.24700 22.12600
H  15.39300 51.34800 21.55500
H  18.54300 53.44900 20.42300
H  19.63800 53.17400 21.56600
H  18.14700 55.59800 21.05700
H  19.73000 55.30800 22.02900
H  18.16400 55.16500 22.75500
H  21.62200 48.88600 25.63500
H  22.32600 50.34800 24.93500
H  20.93200 49.61800 24.17200
H  20.66200 51.21700 30.40400
H  19.71800 48.46800 33.70400
H  19.25200 47.37100 32.38200
H  18.20900 48.74900 32.95800

