158

Mg -2.04100 34.13600 26.83200
C  -3.81300 32.37500 29.46700
C  -0.52200 36.06200 29.39700
C  -1.27500 36.43400 24.53500
C  -3.85700 32.28800 24.61100
N  -2.29400 34.29900 29.18900
C  -2.97500 33.42400 30.04200
C  -2.71900 33.75100 31.46300
C  -1.78500 35.01300 31.38100
C  -1.48600 35.12800 29.93600
C  -2.49900 36.36500 31.85800
C  -2.08700 32.44400 32.11200
C  -2.79200 31.80200 33.24100
H  -2.01900 31.72700 34.58400
N  -0.85700 35.86800 26.90700
C  -0.26100 36.41800 28.01800
C  0.57600 37.54600 27.53600
C  0.35200 37.61900 26.17200
C  -0.62000 36.64200 25.81200
C  1.50500 38.37100 28.46400
C  1.04800 38.50700 25.21100
O  0.99800 38.39900 23.96800
C  1.95500 39.60100 25.75400
N  -2.39900 34.31600 24.86600
C  -2.07900 35.43300 24.06300
C  -2.66500 35.22200 22.64000
C  -2.97600 33.68700 22.66200
C  -3.06900 33.36700 24.14000
C  -3.79100 36.17600 22.11600
C  -1.98700 32.74000 21.93300
C  -2.48500 32.08300 20.60500
N  -3.40500 32.51100 26.96700
C  -4.09600 31.87700 25.93600
C  -4.86200 30.74600 26.44800
C  -4.79000 30.93000 27.83700
C  -3.91400 32.01000 28.14700
C  -5.67100 29.73300 25.66100
C  -5.31700 30.41600 29.03300
O  -6.07900 29.46900 29.23600
C  -4.65900 31.29000 30.15800
C  -5.80500 31.89000 30.95100
O  -6.39600 32.95800 30.74300
O  -6.15600 31.07600 31.97000
C  -7.22400 31.41800 32.95800
H  0.03000 36.58600 30.18000
H  -1.16500 37.31200 23.89600
H  -4.37400 31.71000 23.84200
H  -3.64800 33.94100 32.00000
H  -0.89800 34.78300 31.97200
H  -3.51200 36.05700 32.11600
H  -2.48300 37.01300 30.98200
H  -2.07600 36.86800 32.72700
H  -1.13400 32.69900 32.57500
H  -1.81900 31.85400 31.23500
H  -3.01700 30.76900 32.97800
H  -3.76800 32.27400 33.35600
H  2.52600 38.28700 28.09100
H  1.36000 37.94400 29.45600
H  1.26600 39.43100 28.54200
H  1.39400 40.15800 26.50400
H  2.31800 40.18500 24.90800
H  2.86900 39.22300 26.21200
H  -1.81000 35.36600 21.98000
H  -4.01300 33.55900 22.35200
H  -4.28900 36.47200 23.03900
H  -4.49100 35.69100 21.43600
H  -3.31000 37.00700 21.60100
H  -1.75900 31.98100 22.68100
H  -1.04100 33.22000 21.68400
H  -1.66300 32.20300 19.90000
H  -3.45700 32.50200 20.34200
H  -2.66000 31.00800 20.63500
H  -5.77700 28.80000 26.21500
H  -5.33700 29.57200 24.63600
H  -6.67700 30.15400 25.64800
H  -4.09500 30.63100 30.81700
H  -6.78500 31.64000 33.93100
H  -7.77300 30.48400 33.08100
H  -7.83700 32.19300 32.49800
Mg -5.81300 25.10500 25.31200
C  -4.14500 26.37900 28.24800
C  -7.61700 23.23100 27.16600
C  -6.77400 23.78700 22.48700
C  -3.29600 26.93400 23.52900
N  -5.79900 24.78100 27.49700
C  -5.19300 25.49100 28.51700
C  -5.71800 25.08500 29.86900
C  -6.72900 23.91100 29.55300
C  -6.74700 23.92700 28.00600
C  -6.37700 22.46400 30.10500
C  -6.52300 26.26600 30.45900
C  -7.14900 26.01700 31.86700
H  -6.60500 24.82100 32.67200
N  -7.07800 23.73600 24.87900
C  -7.86000 23.10500 25.82300
C  -8.79500 22.23600 25.13700
C  -8.61800 22.49200 23.79200
C  -7.41700 23.32600 23.67800
C  -9.77500 21.36000 25.80700
C  -9.36800 21.96500 22.63300
O  -9.08300 22.24700 21.46100
C  -10.43900 21.00700 22.83500
N  -4.86100 25.05400 23.30700
C  -5.58900 24.51000 22.33100
C  -4.88800 24.68800 20.93100
C  -3.91600 25.92900 21.24800
C  -4.00500 25.93800 22.77800
C  -4.18100 23.36800 20.45000
C  -4.31500 27.30800 20.53300
C  -3.12800 27.95600 19.77200
N  -4.15100 26.47400 25.77600
C  -3.28500 27.17600 24.89500
C  -2.44200 28.02200 25.62100
C  -2.68900 27.66400 26.95800
C  -3.67000 26.72700 26.98100
C  -1.63600 29.19700 25.15600
C  -2.33600 28.04300 28.34300
O  -1.50600 28.76100 28.90800
C  -3.27800 27.15700 29.23000
C  -2.64700 26.31700 30.27800
O  -1.91100 25.35600 30.17100
O  -3.06400 26.79600 31.50400
C  -2.69400 26.04400 32.73300
H  -8.28900 22.67100 27.81900
H  -7.03900 23.30900 21.54200
H  -2.68400 27.44700 22.78400
H  -4.95300 24.77700 30.58300
H  -7.72500 24.17800 29.90700
H  -7.29800 22.06000 30.52600
H  -5.60300 22.50200 30.87200
H  -6.14400 21.79000 29.28100
H  -7.43700 26.32800 29.86900
H  -5.90300 27.16000 30.39200
H  -8.23500 25.96600 31.78500
H  -6.85900 26.90400 32.42900
H  -10.76000 21.78700 25.62200
H  -9.52500 21.29200 26.86600
H  -9.72300 20.35200 25.39600
H  -10.74700 20.71900 21.83000
H  -11.32500 21.40300 23.33200
H  -10.19700 20.07500 23.34600
H  -5.69200 24.91400 20.23100
H  -2.94800 25.61500 20.85900
H  -4.23900 22.65500 21.27200
H  -3.15000 23.53900 20.13700
H  -4.82700 23.04200 19.63400
H  -4.80900 28.07600 21.12800
H  -5.18000 27.00900 19.94100
H  -2.91200 27.38400 18.87000
H  -2.27100 28.15900 20.41500
H  -3.52500 28.93100 19.49200
H  -2.22900 29.84200 24.50800
H  -0.89200 28.85200 24.43800
H  -1.24800 29.77000 25.99900
H  -3.82400 27.92900 29.77400
H  -2.80400 24.96200 32.66500
H  -3.29600 26.48400 33.52700
H  -1.62500 26.12600 32.92800

