158

Mg 1.87300 -1.96500 44.66900
C  5.33500 -1.23400 44.22300
C  1.31100 0.97300 42.87500
C  -1.26800 -2.81300 44.53400
C  2.83900 -5.22700 45.52200
N  3.17800 -0.35100 43.75600
C  4.50800 -0.29800 43.62100
C  4.97900 0.89600 42.76000
C  3.73100 1.79700 42.80600
C  2.64300 0.78600 43.20700
C  3.83800 3.05100 43.70500
C  5.51500 0.49200 41.35700
C  6.59600 1.26600 40.72800
H  6.36900 1.89200 39.33700
N  0.23400 -0.94100 43.92100
C  0.20000 0.20400 43.13100
C  -1.13900 0.45500 42.69500
C  -1.90000 -0.62400 43.17900
C  -0.99200 -1.54400 43.95800
C  -1.51900 1.64900 41.89800
C  -3.40400 -0.60100 43.23800
O  -3.97300 0.19000 42.54700
C  -4.25500 -1.47900 44.05900
N  0.96700 -3.84300 44.80500
C  -0.39800 -3.84400 44.88200
C  -0.85900 -5.21500 45.52500
C  0.46500 -6.01700 45.81500
C  1.50300 -5.02100 45.35200
C  -1.78400 -5.10000 46.76200
C  0.55900 -7.43100 45.02100
C  0.37000 -8.65900 45.90000
N  3.63100 -3.05400 44.93500
C  3.90000 -4.31300 45.31700
C  5.28500 -4.47500 45.61200
C  5.88400 -3.23800 45.24400
C  4.83700 -2.42700 44.81100
C  5.96400 -5.76100 46.12400
C  7.15100 -2.48900 45.22300
O  8.27000 -2.80600 45.65300
C  6.78900 -1.18000 44.47100
C  7.33800 0.07300 45.17000
O  7.19900 0.41000 46.35000
O  7.91400 0.76100 44.18500
C  8.47200 2.07700 44.43300
H  1.27500 1.85500 42.23300
H  -2.31700 -3.08400 44.67100
H  3.16500 -6.13100 46.04000
H  5.80500 1.44400 43.21200
H  3.64900 2.26000 41.82300
H  2.82100 3.24100 44.04900
H  4.11500 3.96700 43.18300
H  4.59200 2.95600 44.48700
H  4.68300 0.60200 40.66200
H  5.93900 -0.51000 41.43100
H  7.35200 0.50500 40.53500
H  6.90700 2.04400 41.42600
H  -0.71900 2.37300 41.74000
H  -2.28200 2.09300 42.53900
H  -1.76400 1.36300 40.87600
H  -4.27900 -2.50400 43.69000
H  -5.26300 -1.10000 44.22500
H  -3.95600 -1.50700 45.10600
H  -1.37500 -5.68800 44.69000
H  0.53700 -6.11400 46.89900
H  -2.76300 -5.39500 46.38500
H  -1.83400 -4.07900 47.14200
H  -1.46700 -5.75500 47.57400
H  1.54300 -7.58500 44.57800
H  -0.14600 -7.45600 44.19000
H  1.26700 -9.27300 45.98300
H  -0.59600 -9.13200 45.72600
H  0.16800 -8.31000 46.91200
H  6.49200 -5.48800 47.03800
H  6.54800 -6.19900 45.31500
H  5.15500 -6.44600 46.37800
H  7.32100 -1.29800 43.52700
H  7.59300 2.70700 44.56600
H  8.98600 2.39800 43.52700
H  9.19200 2.16100 45.24700
Mg 30.26100 57.35700 39.52100
C  27.77300 55.13700 38.74300
C  32.67400 54.94200 38.82000
C  32.70400 59.67100 39.55500
C  27.82900 59.85100 40.29900
N  30.19100 55.27500 38.78500
C  29.07800 54.56900 38.54700
C  29.48600 53.16900 37.99700
C  31.02800 53.05800 38.18300
C  31.32200 54.50500 38.66500
C  31.48300 52.11300 39.23700
C  29.04000 52.98800 36.49900
C  29.33400 54.00000 35.49200
H  28.24000 54.52600 34.68300
N  32.44800 57.28400 39.20400
C  33.20200 56.23500 38.99000
C  34.53200 56.61900 38.86300
C  34.59800 57.99800 39.16100
C  33.26300 58.36600 39.36400
C  35.60000 55.63200 38.62900
C  35.83900 58.80500 39.30300
O  36.97100 58.33800 39.09600
C  35.91800 60.15200 39.73100
N  30.20100 59.46400 39.66800
C  31.35700 60.15600 39.78400
C  31.07800 61.60200 40.24300
C  29.66000 61.57200 40.64000
C  29.11000 60.25800 39.97200
C  32.08500 62.17700 41.26800
C  28.89600 62.87600 40.20300
C  28.15800 63.63400 41.31300
N  28.16500 57.49700 39.67400
C  27.34100 58.53200 40.02000
C  25.98300 58.06600 39.87200
C  26.13600 56.74400 39.32500
C  27.52300 56.45600 39.21600
C  24.87600 58.92200 40.08900
C  25.33100 55.60200 38.91800
O  24.17600 55.40000 38.93700
C  26.39000 54.55800 38.42900
C  26.21100 53.23600 39.11300
O  26.65800 52.98900 40.23300
O  25.29700 52.52300 38.35100
C  24.97500 51.17300 38.86600
H  33.33800 54.09300 38.64900
H  33.42900 60.48600 39.62400
H  27.08300 60.58700 40.60900
H  28.86100 52.43700 38.50800
H  31.57000 52.92400 37.24700
H  30.57600 51.68500 39.66500
H  32.12800 52.52800 40.01200
H  31.95500 51.27100 38.73100
H  27.98000 52.74100 36.56400
H  29.45700 52.04700 36.14200
H  30.01400 53.48200 34.81500
H  29.89600 54.85500 35.86800
H  36.10500 55.99100 37.73200
H  35.26900 54.60600 38.46900
H  36.28900 55.67000 39.47300
H  36.94700 60.40700 39.98300
H  35.22800 60.41000 40.53500
H  35.54000 60.84100 38.97500
H  31.12400 62.15600 39.30500
H  29.56800 61.39600 41.71200
H  32.90900 62.77900 40.88600
H  32.50300 61.28800 41.74100
H  31.60600 62.73400 42.07400
H  28.21500 62.50000 39.43900
H  29.62300 63.53400 39.72800
H  28.75100 64.51000 41.57700
H  27.99700 63.09300 42.24600
H  27.28200 64.08900 40.85200
H  24.53600 59.33400 39.13900
H  25.18800 59.74400 40.73400
H  24.03500 58.40900 40.55500
H  26.34900 54.39500 37.35100
H  24.76400 50.40000 38.12600
H  24.05000 51.40100 39.39500
H  25.65400 50.79600 39.63200

