158

Mg 47.91500 16.53900 28.66000
C  45.89100 16.48800 31.38700
C  50.24400 18.46200 30.34200
C  49.82700 16.74800 25.84100
C  45.40600 14.75400 26.83700
N  47.94500 17.48200 30.57400
C  47.06700 17.21800 31.56900
C  47.54500 17.89300 32.91800
C  48.83800 18.71400 32.46200
C  49.05100 18.12500 31.06600
C  48.84600 20.30000 32.52900
C  47.77700 16.88000 34.07800
C  47.27500 17.21700 35.45800
H  47.26000 18.71500 35.75200
N  49.82800 17.44900 28.15700
C  50.57200 18.16300 29.01900
C  51.83000 18.50400 28.43100
C  51.80600 17.90200 27.06000
C  50.49700 17.34100 26.97100
C  52.95600 19.16700 29.18900
C  52.82200 17.99900 25.83400
O  52.47800 17.54600 24.72200
C  54.08700 18.83800 25.96000
N  47.67600 15.84400 26.66900
C  48.61200 16.04400 25.69900
C  48.17100 15.33400 24.38500
C  46.92600 14.56700 24.81100
C  46.59300 15.04700 26.18700
C  47.75200 16.35300 23.23700
C  47.11500 12.96000 24.80800
C  46.22600 12.15300 23.93100
N  45.93300 15.83700 28.94300
C  45.03900 15.15400 28.13200
C  43.84900 14.85700 28.97700
C  44.17000 15.35800 30.28500
C  45.40100 15.93500 30.18700
C  42.56100 14.25200 28.49000
C  43.64500 15.51300 31.63700
O  42.56400 15.17700 32.10000
C  44.82000 16.23600 32.51000
C  44.29200 17.40700 33.24400
O  44.20100 18.49400 32.71200
O  43.80700 17.03700 34.44800
C  43.15300 18.14200 35.23800
H  50.98800 19.12900 30.78200
H  50.37000 16.60600 24.90400
H  44.71500 14.16600 26.22900
H  46.85600 18.62300 33.34300
H  49.67200 18.36500 33.07000
H  48.13300 20.72000 33.23800
H  48.71000 20.75400 31.54700
H  49.81100 20.58300 32.95100
H  48.80100 16.50800 34.07000
H  47.18200 15.99100 33.86700
H  47.97000 16.71700 36.13200
H  46.30900 16.71300 35.51000
H  53.87200 18.62100 28.96500
H  53.00000 18.98100 30.26200
H  53.07200 20.21000 28.89500
H  54.85400 18.44900 26.63100
H  53.88800 19.79900 26.43400
H  54.48200 18.78000 24.94600
H  48.96900 14.69600 24.00400
H  46.03300 14.76100 24.21700
H  48.24000 17.31400 23.39700
H  46.69300 16.61000 23.26300
H  48.02000 15.98000 22.24800
H  47.02400 12.70800 25.86400
H  48.15900 12.73400 24.59100
H  46.81100 11.25500 23.73200
H  45.89600 12.58900 22.98900
H  45.35800 11.84000 24.51100
H  42.47100 13.21700 28.81800
H  42.59000 14.30500 27.40200
H  41.76100 14.95000 28.73600
H  45.19500 15.53300 33.25400
H  42.13000 17.81500 35.41900
H  43.05200 19.04900 34.64100
H  43.71300 18.22100 36.17100
Mg -11.78600 17.68800 41.68400
C  -8.66500 16.30100 41.21800
C  -10.54900 20.79700 40.73300
C  -14.85700 18.89100 41.88300
C  -12.94500 14.39800 42.43800
N  -9.86200 18.44000 41.03300
C  -8.71100 17.66900 40.91300
C  -7.49200 18.53400 40.51400
C  -8.11700 20.02300 40.65500
C  -9.63500 19.75700 40.90800
C  -7.55500 20.73700 41.98300
C  -6.96200 18.18700 39.12700
C  -5.45900 18.26300 38.76200
H  -5.00200 18.42600 37.28900
N  -12.56800 19.55700 41.28900
C  -11.92000 20.65000 40.81300
C  -12.82100 21.76300 40.61600
C  -14.08800 21.26800 41.07300
C  -13.86100 19.83700 41.38900
C  -12.47300 23.05800 39.97100
C  -15.48100 22.08700 41.21000
O  -15.50700 23.26800 40.86900
C  -16.79500 21.45800 41.74300
N  -13.66400 16.76300 41.89200
C  -14.72200 17.58000 42.15000
C  -15.97300 16.65100 42.48900
C  -15.33500 15.36600 42.87500
C  -13.89600 15.44300 42.36200
C  -16.92900 17.29200 43.54800
C  -16.20700 14.05300 42.47900
C  -16.75900 13.21500 43.66400
N  -11.06900 15.68900 41.62700
C  -11.59500 14.45400 42.04800
C  -10.57000 13.35100 41.92100
C  -9.39700 14.12600 41.66000
C  -9.72200 15.48300 41.53100
C  -10.92700 11.95400 41.94500
C  -7.95600 14.02700 41.46600
O  -7.25300 13.00400 41.41600
C  -7.47500 15.41600 41.25800
C  -6.35400 15.91300 42.12200
O  -6.59000 16.54200 43.12300
O  -5.15100 15.28700 41.81400
C  -4.20600 15.28200 42.89000
H  -10.15100 21.75600 40.39700
H  -15.85400 19.29400 42.07400
H  -13.25000 13.43500 42.85200
H  -6.73300 18.34800 41.27300
H  -8.07000 20.61000 39.73800
H  -8.40600 21.04000 42.59300
H  -7.04400 21.67100 41.74900
H  -7.06000 20.09000 42.70700
H  -7.52400 18.73600 38.37100
H  -7.19500 17.17500 38.79500
H  -4.89000 17.36600 39.00600
H  -5.03300 19.14200 39.24700
H  -12.20600 23.76500 40.75600
H  -13.33200 23.46500 39.43700
H  -11.67600 22.86700 39.25300
H  -17.23300 20.70700 41.08400
H  -17.53400 22.25700 41.79800
H  -16.63700 21.06100 42.74600
H  -16.35000 16.66100 41.46600
H  -15.14200 15.34900 43.94800
H  -16.91900 16.69500 44.46000
H  -17.91800 17.50300 43.14300
H  -16.48700 18.21800 43.91600
H  -15.50600 13.36900 42.00100
H  -17.01500 14.34200 41.80800
H  -16.34000 12.22900 43.86200
H  -17.81000 13.03600 43.44000
H  -16.56600 13.77500 44.58000
H  -11.09900 11.72800 40.89300
H  -11.85400 11.82700 42.50300
H  -10.16800 11.29700 42.37000
H  -7.16900 15.38600 40.21300
H  -3.22100 15.39000 42.43700
H  -4.29100 14.36200 43.46800
H  -4.18500 16.08400 43.62800

