158

Mg 8.84500 3.35900 27.13200
C  9.93600 1.97600 30.11800
C  6.69300 5.27800 28.97100
C  7.92600 4.63400 24.37100
C  10.32400 0.59500 25.37300
N  8.27000 3.37600 29.28800
C  8.96700 2.88900 30.33500
C  8.35500 3.36900 31.65600
C  7.01500 4.04800 31.23300
C  7.38600 4.30500 29.74800
C  5.70900 3.25400 31.51800
C  9.40500 4.33000 32.32900
C  9.25900 4.56600 33.82600
H  10.45700 4.27500 34.85200
N  7.60100 4.83100 26.76500
C  6.88200 5.59800 27.58600
C  6.16500 6.63800 26.93100
C  6.48400 6.46600 25.55600
C  7.44500 5.30800 25.48700
C  5.17600 7.73200 27.57500
C  6.13200 7.50200 24.40700
O  6.59500 7.29300 23.29100
C  5.25000 8.63400 24.68800
N  8.92400 2.60100 25.16500
C  8.51700 3.40900 24.12900
C  8.83300 2.92700 22.73700
C  9.65900 1.62600 23.11300
C  9.58800 1.53300 24.62500
C  7.62600 2.70400 21.88400
C  11.12000 1.66300 22.65600
C  12.03900 2.71200 23.29300
N  10.00700 1.63500 27.63600
C  10.59500 0.68200 26.83800
C  11.46100 -0.11000 27.69300
C  11.28600 0.35700 28.98000
C  10.37000 1.39800 28.87900
C  12.38400 -1.28800 27.32000
C  11.66100 0.25500 30.35800
O  12.48100 -0.46100 30.88900
C  10.86100 1.28700 31.16300
C  10.12600 0.56400 32.22000
O  9.01000 0.00700 32.00900
O  10.76100 0.64100 33.44400
C  9.84600 0.09000 34.45500
H  6.09000 5.93700 29.60000
H  7.57000 5.12600 23.46300
H  10.87800 -0.20000 24.86900
H  8.24200 2.50400 32.31100
H  6.97500 5.02500 31.71300
H  5.34200 2.95200 30.53700
H  5.06900 3.90800 32.11000
H  5.90000 2.28300 31.97500
H  9.23100 5.25900 31.78600
H  10.41000 3.93600 32.17700
H  8.47200 3.84000 34.03100
H  8.97900 5.60400 34.00300
H  5.71600 8.67900 27.56100
H  4.97100 7.50500 28.62100
H  4.22900 7.81100 27.04100
H  4.23000 8.38400 24.97900
H  5.11600 9.19300 23.76200
H  5.65800 9.43200 25.30800
H  9.41100 3.75800 22.33300
H  9.21000 0.70400 22.74300
H  6.75100 3.04400 22.43800
H  7.47100 1.64400 21.68600
H  7.67900 3.19500 20.91200
H  11.10100 1.74200 21.56900
H  11.49600 0.64900 22.78700
H  12.62000 3.13800 22.47600
H  12.70900 2.21400 23.99400
H  11.43500 3.40100 23.88400
H  12.83000 -1.09900 26.34400
H  11.70700 -2.12400 27.14600
H  12.99300 -1.55600 28.18300
H  11.54800 2.00600 31.61000
H  9.03200 0.79800 34.61700
H  10.33500 0.05400 35.42800
H  9.41100 -0.87100 34.17900
Mg -10.14600 17.24500 41.28400
C  -6.61600 16.65700 41.48600
C  -9.38300 20.56800 40.22400
C  -13.41500 17.73200 40.66500
C  -10.54400 13.79400 41.52100
N  -8.22400 18.50000 40.89400
C  -6.91400 18.00600 41.05600
C  -6.02400 19.06800 40.46700
C  -6.84700 20.33000 40.72700
C  -8.22100 19.76400 40.46500
C  -6.68700 20.96500 42.07900
C  -5.58700 18.91900 39.06200
C  -4.13400 18.52100 38.88200
H  -3.83200 17.24400 38.04500
N  -11.21400 18.91200 40.57600
C  -10.75500 20.16500 40.25600
C  -11.85800 21.01600 39.92200
C  -13.08400 20.21200 40.09100
C  -12.62100 18.91000 40.51500
C  -11.81300 22.47700 39.41900
C  -14.55700 20.79500 39.84500
O  -14.79100 21.95100 39.42800
C  -15.76100 19.97600 40.18200
N  -11.68300 15.95400 40.85900
C  -12.96300 16.42300 40.88000
C  -14.01000 15.30400 40.98300
C  -13.06700 14.06100 41.17400
C  -11.66000 14.65200 41.04900
C  -15.06000 15.41100 42.11900
C  -13.31000 12.95400 40.14600
C  -12.88300 13.20700 38.67500
N  -8.91000 15.57500 41.59300
C  -9.21700 14.27000 41.73800
C  -7.98000 13.47600 41.88800
C  -6.94200 14.42200 41.91300
C  -7.55800 15.67700 41.68800
C  -7.92800 11.97300 42.01100
C  -5.44200 14.53000 41.86100
O  -4.58300 13.64800 41.80900
C  -5.14900 16.02100 41.66500
C  -4.36900 16.60900 42.74900
O  -3.72600 17.65500 42.66300
O  -4.52100 15.93000 43.93700
C  -3.75600 16.45700 45.06900
H  -9.02700 21.58600 40.05200
H  -14.50000 17.76200 40.54500
H  -10.71500 12.71700 41.57700
H  -5.16700 19.22100 41.12300
H  -6.77400 21.19800 40.07100
H  -6.35200 22.00100 42.03600
H  -5.92500 20.52900 42.72400
H  -7.60800 21.07200 42.65200
H  -5.78300 19.84100 38.51300
H  -6.17100 18.17300 38.52400
H  -3.66800 18.31000 39.84400
H  -3.42200 19.21100 38.42800
H  -11.01300 23.06200 39.87200
H  -12.73700 23.04600 39.51500
H  -11.46200 22.34300 38.39600
H  -15.62400 19.49400 41.15100
H  -15.95900 19.20200 39.44000
H  -16.65000 20.59900 40.27700
H  -14.47800 15.22000 40.00200
H  -13.24200 13.59000 42.14100
H  -14.88300 16.38000 42.58700
H  -15.04800 14.58000 42.82400
H  -16.00500 15.55600 41.59400
H  -14.37100 12.70400 40.13700
H  -12.78400 12.08300 40.53900
H  -13.75900 13.38200 38.05000
H  -12.28500 12.39600 38.25900
H  -12.27900 14.11200 38.72900
H  -8.58200 11.73200 42.84800
H  -6.95900 11.51700 42.21400
H  -8.31700 11.69900 41.03000
H  -4.63500 15.95800 40.70500
H  -3.11100 17.31800 44.89400
H  -3.06900 15.64000 45.29500
H  -4.29700 16.56200 46.01000

