158

Mg -0.08800 44.01200 26.01400
C  1.79900 43.30700 28.88100
C  -2.96500 43.77100 27.98400
C  -1.86200 43.96800 23.15400
C  2.84300 44.22100 24.28500
N  -0.53900 43.42400 28.12800
C  0.38700 43.25100 29.11800
C  -0.24200 43.21400 30.49100
C  -1.75200 43.09000 30.05800
C  -1.74500 43.51800 28.65200
C  -2.24500 41.65500 30.15800
C  0.03100 44.60900 31.25400
C  0.44900 44.63400 32.75100
H  -0.01200 43.56900 33.68000
N  -2.17200 43.84600 25.64100
C  -3.15300 43.80700 26.59000
C  -4.39000 43.78200 25.82700
C  -4.11100 43.71000 24.43400
C  -2.64800 43.86300 24.39300
C  -5.66500 43.90400 26.51200
C  -5.06400 43.64900 23.26600
O  -4.76000 43.60700 22.07500
C  -6.51900 43.43300 23.53800
N  0.47600 44.05400 24.05600
C  -0.43600 44.04400 23.03200
C  0.28000 44.05500 21.62200
C  1.69700 44.55600 22.05000
C  1.71800 44.27300 23.56300
C  0.33900 42.62100 20.95100
C  1.97900 46.06100 21.80200
C  0.81100 47.00900 22.00000
N  1.94700 43.87200 26.50700
C  3.01300 43.99800 25.64800
C  4.25200 44.05300 26.35900
C  3.84500 43.63200 27.66000
C  2.44100 43.58900 27.71400
C  5.66600 44.34500 25.79300
C  4.32500 43.39200 28.99400
O  5.46500 43.42400 29.53900
C  2.98000 43.28700 29.87300
C  3.08900 41.98100 30.73900
O  2.89500 40.79500 30.42000
O  3.47700 42.31800 32.03900
C  3.84300 41.33100 33.03800
H  -3.78000 43.49400 28.65500
H  -2.39800 43.93900 22.20300
H  3.82700 44.19100 23.81200
H  0.13500 42.35200 31.04100
H  -2.46700 43.70900 30.59900
H  -2.92000 41.61700 31.01400
H  -1.41300 40.96900 30.31700
H  -2.77200 41.16600 29.33900
H  -0.90600 45.16200 31.19000
H  0.69000 45.15000 30.57500
H  0.11100 45.57100 33.19400
H  1.53200 44.52300 32.80700
H  -6.00900 44.93700 26.46600
H  -5.56600 43.56500 27.54300
H  -6.43700 43.29700 26.03800
H  -6.63500 42.51700 24.11700
H  -7.03700 43.32200 22.58600
H  -6.94000 44.29800 24.05000
H  -0.19600 44.71800 20.89900
H  2.52200 44.09900 21.50400
H  0.73400 41.91300 21.67900
H  1.06700 42.65900 20.14100
H  -0.58900 42.13300 20.65300
H  2.20000 46.16600 20.73900
H  2.84600 46.26300 22.43100
H  0.26400 47.19900 21.07600
H  1.23300 47.89900 22.46700
H  0.17400 46.53800 22.74800
H  6.29700 44.51400 26.66600
H  5.62800 45.24900 25.18600
H  5.92100 43.42500 25.26700
H  2.95800 44.14400 30.54600
H  4.24300 40.41000 32.61400
H  2.98800 41.11100 33.67700
H  4.70200 41.59500 33.65500
Mg -13.02500 15.90700 41.93400
C  -9.83500 14.63800 41.39900
C  -12.19500 18.89900 40.46700
C  -16.25300 17.00100 42.21500
C  -14.07400 12.73200 42.70500
N  -11.24900 16.58600 40.81000
C  -10.05900 15.97200 40.90000
C  -9.00200 16.90900 40.26600
C  -9.69800 18.34500 40.12400
C  -11.14600 17.96800 40.51000
C  -9.13400 19.39700 41.10300
C  -8.42200 16.39300 38.88100
C  -6.87000 16.11300 38.82300
H  -5.98900 16.82000 37.73100
N  -14.10800 17.76700 41.43200
C  -13.55900 18.86800 40.89900
C  -14.50200 19.86000 40.69900
C  -15.70200 19.44400 41.33700
C  -15.40900 18.00700 41.66400
C  -14.30500 21.17600 40.13900
C  -17.01200 20.18300 41.38900
O  -17.15200 21.30300 40.81500
C  -18.15700 19.66500 42.18900
N  -14.87200 14.92800 42.20200
C  -16.06000 15.60400 42.41000
C  -17.16500 14.71500 43.01300
C  -16.51000 13.33000 42.84500
C  -15.04500 13.68900 42.56100
C  -17.68600 15.05900 44.52300
C  -17.13400 12.35900 41.72900
C  -17.44400 10.93800 42.24100
N  -12.08200 14.06300 42.26000
C  -12.67900 12.85300 42.58400
C  -11.61400 11.85400 42.78800
C  -10.47100 12.53100 42.28500
C  -10.83600 13.80500 41.90400
C  -11.83800 10.50900 43.34400
C  -9.03600 12.37000 41.98600
O  -8.24500 11.41900 42.12300
C  -8.60700 13.76700 41.41100
C  -7.49200 14.27800 42.38000
O  -7.56100 14.51000 43.55600
O  -6.30800 14.49200 41.70100
C  -5.17300 15.18900 42.42300
H  -11.80000 19.76500 39.93200
H  -17.19200 17.40600 42.59900
H  -14.48500 11.74500 42.92900
H  -8.21900 17.08400 41.00400
H  -9.69700 18.78300 39.12500
H  -8.80400 20.25800 40.52200
H  -8.37100 18.98400 41.76400
H  -9.85100 19.74300 41.84700
H  -8.71800 16.98300 38.01400
H  -8.92800 15.43500 38.76600
H  -6.67900 15.05200 38.66500
H  -6.48600 16.48100 39.77400
H  -15.06600 21.31900 39.37200
H  -13.35200 21.24800 39.61400
H  -14.40500 22.01000 40.83300
H  -18.64100 18.79500 41.74500
H  -18.88400 20.45200 42.38800
H  -17.79600 19.35200 43.16900
H  -18.00900 14.81700 42.33100
H  -16.58300 12.76800 43.77600
H  -18.28900 14.25300 44.94100
H  -18.34200 15.91700 44.38100
H  -16.75200 15.23900 45.05500
H  -16.36600 12.24600 40.96300
H  -18.09500 12.82400 41.51300
H  -18.47700 10.71400 41.97400
H  -17.40200 10.87200 43.32800
H  -16.74700 10.19600 41.85200
H  -12.77900 10.44600 43.89100
H  -10.98500 10.26200 43.97600
H  -11.86800 9.78000 42.53400
H  -8.21000 13.62500 40.40600
H  -5.06100 14.75400 43.41600
H  -5.22500 16.27800 42.42300
H  -4.26100 14.91200 41.89400

