158

Mg 1.76700 -2.04700 44.86000
C  4.87100 -1.10200 43.88300
C  0.39100 0.44900 42.77600
C  -1.42000 -3.31900 45.48300
C  3.02000 -5.07800 46.14600
N  2.54100 -0.60100 43.43100
C  3.88600 -0.35800 43.22600
C  4.15200 0.84200 42.31100
C  2.66900 1.37200 42.13300
C  1.75300 0.30400 42.76100
C  2.40500 2.85200 42.68500
C  4.74300 0.44200 40.90100
C  6.12100 1.03700 40.60600
H  6.28300 1.81700 39.23100
N  -0.19800 -1.53000 44.21900
C  -0.52900 -0.47800 43.39600
C  -1.97500 -0.34400 43.39300
C  -2.54100 -1.34400 44.18600
C  -1.35800 -2.14600 44.65900
C  -2.75000 0.74200 42.61000
C  -3.95500 -1.46100 44.52200
O  -4.74600 -0.68900 44.02500
C  -4.48000 -2.40300 45.51700
N  0.87900 -4.11100 45.45100
C  -0.38800 -4.22400 45.85400
C  -0.70400 -5.55400 46.49900
C  0.74400 -6.12200 46.78500
C  1.64600 -5.07400 46.06000
C  -1.74400 -5.51200 47.71500
C  1.02500 -7.50900 46.21100
C  -0.19000 -8.48700 46.30400
N  3.52500 -2.93700 45.01100
C  3.95600 -4.16300 45.56300
C  5.42400 -4.20600 45.48400
C  5.81300 -3.05500 44.84300
C  4.61900 -2.27500 44.61200
C  6.23600 -5.27800 46.13400
C  6.94200 -2.24600 44.49400
O  8.12400 -2.58300 44.53900
C  6.34700 -0.94600 43.83900
C  6.84100 0.29100 44.46600
O  7.35800 1.18700 43.83500
O  6.60500 0.34400 45.80400
C  6.81300 1.66200 46.50700
H  -0.09800 1.32100 42.33600
H  -2.37200 -3.65900 45.89500
H  3.49300 -5.86200 46.74100
H  4.69800 1.65100 42.79600
H  2.39500 1.53600 41.09100
H  2.08400 3.58000 41.94000
H  3.24200 3.22700 43.27400
H  1.56400 2.72900 43.36800
H  4.12200 0.42100 40.00600
H  4.96000 -0.61800 41.03500
H  6.72900 0.13800 40.50700
H  6.38000 1.72900 41.40800
H  -2.18400 1.67000 42.54000
H  -3.70900 1.01300 43.05200
H  -2.96500 0.33700 41.62100
H  -3.90900 -2.44900 46.44400
H  -4.59800 -3.40300 45.10100
H  -5.43500 -1.97300 45.81800
H  -1.29900 -6.05900 45.73800
H  0.99100 -5.98100 47.83700
H  -2.79200 -5.65000 47.44900
H  -1.74400 -4.53200 48.19200
H  -1.40300 -6.25400 48.43700
H  1.84300 -7.95700 46.77500
H  1.30900 -7.56000 45.16000
H  -0.66200 -8.77900 45.36600
H  -0.88100 -8.04500 47.02200
H  0.14200 -9.43700 46.72200
H  7.24200 -4.88700 46.28600
H  6.22000 -6.12800 45.45200
H  5.86400 -5.63100 47.09600
H  6.65400 -0.94800 42.79300
H  6.06100 1.71200 47.29400
H  6.58500 2.49600 45.84300
H  7.80300 1.71600 46.95900
Mg 40.75000 9.00800 29.32000
C  42.64800 10.26800 32.14900
C  38.52500 7.89200 31.62300
C  38.96800 7.91700 26.88200
C  43.43900 9.89900 27.30800
N  40.70000 9.04400 31.63900
C  41.44400 9.69600 32.56500
C  40.82300 9.58900 33.95700
C  39.56500 8.73300 33.80500
C  39.60400 8.56000 32.22600
C  39.50000 7.44000 34.59400
C  40.53800 10.95000 34.71700
C  39.77000 11.00600 36.03500
H  40.65100 11.33300 37.29000
N  38.95600 8.01900 29.26300
C  38.21000 7.67500 30.33700
C  36.97900 7.00600 29.83300
C  37.07600 7.03800 28.41100
C  38.36500 7.66200 28.09000
C  35.84900 6.38600 30.74500
C  36.08400 6.55000 27.38600
O  36.43800 6.46700 26.21900
C  34.62800 6.12900 27.79800
N  41.19300 8.88900 27.39100
C  40.22300 8.44300 26.53600
C  40.60600 8.65000 25.02400
C  41.99900 9.30100 25.20800
C  42.29100 9.29100 26.75600
C  40.65000 7.36600 24.13700
C  42.01600 10.66300 24.45600
C  42.06900 11.96200 25.22100
N  42.67800 9.86500 29.59600
C  43.63900 10.21100 28.67800
C  44.70000 10.97400 29.22000
C  44.37500 11.00000 30.62800
C  43.08200 10.43200 30.78100
C  45.84000 11.52500 28.45100
C  44.82500 11.42800 32.04200
O  45.86300 11.98500 32.39600
C  43.62300 11.04200 33.03600
C  44.16900 10.29100 34.21900
O  44.24300 9.09700 34.37400
O  44.63100 11.21000 35.12500
C  45.24800 10.59800 36.34200
H  37.72400 7.70600 32.34100
H  38.44900 7.65100 25.95900
H  44.23200 10.19600 26.61900
H  41.56600 9.01200 34.50700
H  38.69600 9.35200 34.02500
H  40.45900 7.24200 35.07400
H  39.31900 6.66700 33.84700
H  38.69000 7.45900 35.32300
H  39.98600 11.60900 34.04600
H  41.56900 11.24300 34.91300
H  39.19400 10.10300 36.23900
H  39.10700 11.86000 35.90100
H  34.97200 6.98300 30.49600
H  36.14900 6.38900 31.79300
H  35.69600 5.37900 30.35700
H  34.03400 5.88900 26.91500
H  34.14200 6.94700 28.33000
H  34.65500 5.30200 28.50700
H  39.88800 9.39000 24.66900
H  42.75400 8.69500 24.70700
H  39.92300 7.41700 23.32700
H  40.38600 6.53900 24.79600
H  41.66200 7.24300 23.74900
H  41.16800 10.64900 23.77200
H  42.93800 10.62800 23.87500
H  41.38800 11.96700 26.07200
H  41.68300 12.66400 24.48200
H  43.08800 12.27300 25.44800
H  46.20500 12.35900 29.05000
H  45.44300 11.76000 27.46400
H  46.65300 10.82300 28.26700
H  43.15100 11.92300 33.47100
H  44.59600 10.09800 37.05900
H  45.71900 11.45800 36.81800
H  46.06800 9.92700 36.08700

