158

Mg 2.70100 -3.13000 45.13200
C  5.61000 -1.42200 44.55300
C  0.95700 -0.82700 43.12900
C  -0.12800 -5.12800 45.19700
C  4.45200 -5.71100 46.57800
N  3.24200 -1.34500 44.09300
C  4.49500 -0.88500 43.91700
C  4.58700 0.30400 42.85600
C  3.03200 0.65800 42.72100
C  2.34800 -0.61100 43.30400
C  2.57400 1.91900 43.53900
C  5.22500 -0.23100 41.55200
C  6.10100 0.85700 40.91500
H  5.49700 1.55600 39.63600
N  0.71600 -2.93500 44.27500
C  0.18200 -1.87600 43.58900
C  -1.22200 -2.10400 43.31600
C  -1.55200 -3.30000 43.96600
C  -0.26400 -3.85700 44.47900
C  -2.11100 -1.10700 42.52300
C  -3.01700 -3.75900 44.21000
O  -3.96900 -3.18100 43.70900
C  -3.39400 -5.00200 44.99600
N  2.25200 -5.30900 45.51800
C  0.99900 -5.77100 45.66700
C  0.90500 -7.10400 46.49000
C  2.44800 -7.40600 46.67100
C  3.10600 -6.09600 46.17600
C  -0.04300 -7.13300 47.74700
C  3.01600 -8.60900 45.90200
C  4.15600 -9.43100 46.54000
N  4.60500 -3.56900 45.52400
C  5.23200 -4.61500 46.15400
C  6.67000 -4.29600 46.41500
C  6.84100 -3.04900 45.76700
C  5.57300 -2.61500 45.27900
C  7.72300 -5.17300 47.02300
C  7.78500 -2.08600 45.41800
O  8.97500 -2.05700 45.63900
C  7.06200 -1.04400 44.48300
C  7.24300 0.18600 45.13500
O  6.62600 0.63000 46.10100
O  8.19900 0.77800 44.31700
C  8.58300 2.12900 44.59000
H  0.69600 -0.06600 42.39100
H  -1.01300 -5.74400 45.37100
H  4.97600 -6.53100 47.07300
H  5.03100 1.20600 43.27600
H  2.62900 0.93000 41.74500
H  2.14500 1.65900 44.50700
H  1.81300 2.35600 42.89200
H  3.40000 2.60800 43.71300
H  4.44800 -0.37000 40.80100
H  5.76400 -1.13000 41.85300
H  7.07500 0.40500 40.72500
H  6.25500 1.66200 41.63400
H  -1.59400 -0.30000 42.00300
H  -2.81200 -0.65800 43.22700
H  -2.65900 -1.66300 41.76300
H  -2.89900 -5.90100 44.62700
H  -4.44700 -5.27100 44.91200
H  -3.07000 -4.83400 46.02300
H  0.45200 -7.82200 45.80600
H  2.61700 -7.43300 47.74800
H  -0.92700 -7.73600 47.54100
H  -0.33900 -6.14800 48.11000
H  0.49200 -7.65300 48.54100
H  3.32800 -8.33600 44.89400
H  2.21100 -9.33600 45.80200
H  4.51200 -9.07300 47.50600
H  5.06200 -9.51700 45.93900
H  3.72600 -10.40700 46.76300
H  8.35900 -4.73200 47.79100
H  8.40100 -5.55200 46.25800
H  7.21600 -6.07100 47.37600
H  7.47600 -1.00200 43.47500
H  7.77900 2.86200 44.65300
H  9.37300 2.48800 43.93000
H  9.03700 2.21000 45.57700
Mg 7.56900 2.50500 27.73200
C  9.18000 0.90800 30.58000
C  5.55700 4.09000 29.88400
C  5.90500 3.55400 25.09400
C  9.43000 0.21700 25.72800
N  7.37700 2.43200 29.92100
C  8.15100 1.81400 30.89400
C  7.95200 2.53100 32.17500
C  6.63500 3.38100 32.01100
C  6.50300 3.29400 30.53000
C  5.39800 2.89400 32.82900
C  9.17200 3.38100 32.65500
C  9.02600 3.52000 34.19100
H  10.23200 3.04300 35.03800
N  6.05600 3.81600 27.51300
C  5.33400 4.30800 28.53600
C  4.28500 5.05000 27.98900
C  4.45300 5.13800 26.59800
C  5.49300 4.15000 26.32200
C  3.20700 5.73700 28.73900
C  3.71100 5.92100 25.53900
O  4.02100 5.92700 24.38600
C  2.49300 6.81600 25.84800
N  7.66300 1.87900 25.70700
C  6.91000 2.56700 24.82500
C  7.06900 1.90500 23.41500
C  8.28700 0.95700 23.58300
C  8.53400 0.99500 25.09000
C  5.82100 1.24800 22.89700
C  9.56300 1.29700 22.77100
C  9.87200 0.45000 21.54700
N  8.86600 0.80100 28.06200
C  9.53400 0.02600 27.08700
C  10.48200 -0.86600 27.72300
C  10.40500 -0.56300 29.10700
C  9.33600 0.40600 29.27500
C  11.39500 -1.81300 27.05300
C  10.95600 -0.87000 30.49000
O  11.84200 -1.57800 30.91800
C  10.15600 0.10500 31.48300
C  9.46900 -0.68200 32.61200
O  8.39000 -1.27000 32.49000
O  10.21300 -0.70200 33.75400
C  9.49500 -1.17000 34.95400
H  5.09500 4.74300 30.62800
H  5.27400 3.86300 24.25800
H  10.03600 -0.41500 25.07500
H  7.70100 1.78800 32.93200
H  6.79400 4.40400 32.35300
H  5.55200 1.93300 33.32000
H  4.54100 2.82600 32.15900
H  5.24300 3.74500 33.49200
H  9.21100 4.37500 32.20900
H  10.10700 2.90200 32.36500
H  8.14300 2.98400 34.54000
H  8.85100 4.56100 34.46000
H  3.23100 5.49800 29.80200
H  2.21800 5.43900 28.39100
H  3.26900 6.81900 28.62100
H  1.66800 6.20700 26.21600
H  2.21500 7.35700 24.94400
H  2.70600 7.56100 26.61500
H  7.34200 2.69000 22.70900
H  8.03700 -0.06100 23.28500
H  5.04600 1.27900 23.66300
H  6.13400 0.24200 22.61900
H  5.51000 1.79800 22.00800
H  10.42200 1.19600 23.43400
H  9.41400 2.29300 22.35600
H  10.23000 -0.49300 21.96100
H  10.60800 1.01900 20.98000
H  9.00600 0.22000 20.92600
H  10.98100 -2.78400 26.78200
H  12.16300 -2.04500 27.79100
H  11.84900 -1.26700 26.22600
H  10.84400 0.75200 32.02700
H  8.85200 -2.03100 34.77500
H  8.92600 -0.33500 35.36200
H  10.33300 -1.53900 35.54600

