158

Mg 40.40800 9.19800 29.26800
C  42.33700 10.60400 31.93100
C  38.28500 7.92100 31.62200
C  38.92900 7.54600 26.86300
C  42.94900 10.19400 27.06700
N  40.34700 9.33700 31.49900
C  41.12400 10.01800 32.37900
C  40.61800 9.90400 33.87800
C  39.36600 8.99000 33.63500
C  39.27800 8.73900 32.17300
C  39.32300 7.63500 34.53600
C  40.32000 11.26800 34.46500
C  39.36100 11.38200 35.69200
H  39.62700 12.30100 36.83600
N  38.82700 7.87300 29.22600
C  37.99500 7.54200 30.25500
C  36.87200 6.85700 29.73100
C  36.91700 6.80600 28.31300
C  38.27200 7.42700 28.10900
C  35.80600 6.29800 30.57600
C  35.93100 6.22400 27.20200
O  36.28300 6.24000 25.97100
C  34.55700 5.58700 27.57800
N  40.97100 8.76900 27.27800
C  40.20900 8.05100 26.49100
C  40.68200 8.01400 25.02900
C  42.02800 8.85800 25.05200
C  41.97300 9.31500 26.51800
C  40.81300 6.59400 24.55600
C  42.21600 9.94700 23.93400
C  41.62700 11.31700 24.24200
N  42.23200 10.24100 29.45900
C  43.17400 10.54100 28.43900
C  44.27400 11.25700 28.99500
C  43.89200 11.38000 30.41900
C  42.68700 10.68400 30.61200
C  45.51300 11.79600 28.20200
C  44.30400 11.90600 31.69700
O  45.26700 12.58100 31.99900
C  43.30400 11.37900 32.77800
C  43.98000 10.57200 33.81400
O  44.72500 9.66200 33.65200
O  43.58500 11.01900 35.03600
C  44.13500 10.43000 36.22500
H  37.54800 7.61500 32.36700
H  38.38300 7.11400 26.02100
H  43.61800 10.59900 26.30400
H  41.27600 9.36200 34.55800
H  38.41100 9.41500 33.94400
H  38.94600 6.75700 34.01200
H  38.88400 7.68300 35.53300
H  40.38400 7.39500 34.60000
H  39.99700 12.03400 33.76000
H  41.21300 11.66500 34.94700
H  39.30400 10.35300 36.04800
H  38.38700 11.66300 35.29400
H  35.67600 6.46000 31.64600
H  35.62400 5.23200 30.44400
H  34.98900 6.90200 30.18100
H  34.64700 4.51300 27.41300
H  33.73900 6.04900 27.02600
H  34.28800 5.69200 28.62900
H  39.97300 8.48900 24.35200
H  42.93500 8.25400 25.01800
H  40.11100 5.88500 24.99600
H  41.76900 6.13800 24.81600
H  40.76900 6.58100 23.46700
H  41.66400 9.71800 23.02300
H  43.26500 9.96300 23.63800
H  40.80800 11.60400 23.58300
H  42.43800 12.02900 24.09000
H  41.15200 11.38700 25.22000
H  45.21400 12.28900 27.27700
H  46.34500 11.15300 27.91500
H  46.00300 12.60300 28.74700
H  42.90300 12.28000 33.24000
H  45.15200 10.77900 36.40400
H  43.93700 9.35800 36.23400
H  43.55600 10.83500 37.05400
Mg 49.21500 44.80100 43.06800
C  45.86300 45.41000 42.02000
C  48.92800 41.62100 41.79400
C  52.50600 44.66900 43.04000
C  49.43000 48.37500 43.69000
N  47.52900 43.62100 42.10300
C  46.30100 44.08800 41.75300
C  45.55100 43.03500 40.95300
C  46.32100 41.76900 41.29500
C  47.68800 42.35300 41.74200
C  45.66100 40.83100 42.30200
C  45.56800 43.38800 39.46200
C  44.39400 42.76000 38.59700
H  44.77200 41.91900 37.32900
N  50.53200 43.32100 42.65100
C  50.21300 42.06400 42.14700
C  51.35800 41.23800 42.24100
C  52.45500 42.09400 42.51800
C  51.87000 43.44600 42.75900
C  51.34500 39.70700 41.91100
C  53.86900 41.67400 42.81100
O  54.15700 40.45800 42.76400
C  55.03000 42.63100 43.12800
N  50.79100 46.36600 43.20900
C  52.08800 45.95600 43.33700
C  52.95100 47.14100 43.84600
C  52.00200 48.38600 44.09000
C  50.63500 47.67200 43.67900
C  53.87700 46.83300 45.03600
C  52.39100 49.66500 43.21700
C  52.63100 50.95000 43.97700
N  47.89600 46.53600 42.95500
C  48.15500 47.84100 43.30500
C  46.93000 48.59500 43.23500
C  46.03300 47.68700 42.73100
C  46.60700 46.43100 42.62400
C  46.77400 50.08400 43.43500
C  44.68100 47.65700 42.20600
O  43.84600 48.55100 41.94500
C  44.51100 46.03600 41.80100
C  43.31200 45.38900 42.36400
O  42.69300 44.38900 41.88400
O  42.92600 46.08500 43.46900
C  41.60200 45.82500 43.98200
H  48.70500 40.60600 41.46000
H  53.59700 44.63000 43.07300
H  49.48000 49.42200 43.99500
H  44.54300 42.83400 41.31400
H  46.48400 41.19200 40.38500
H  45.49800 39.86300 41.82900
H  44.67000 41.18700 42.58500
H  46.23700 40.67400 43.21300
H  46.49000 43.00000 39.03100
H  45.55300 44.47700 39.42400
H  43.71800 43.57400 38.33500
H  43.85400 42.12400 39.29700
H  51.59200 39.08000 42.76800
H  51.88700 39.50300 40.98800
H  50.37100 39.30100 41.63700
H  56.00600 42.19600 43.34300
H  54.80300 43.26400 43.98600
H  55.19400 43.24400 42.24200
H  53.56800 47.40900 42.98900
H  51.96500 48.62800 45.15200
H  53.99300 47.74600 45.62100
H  54.89400 46.78500 44.64600
H  53.61900 45.86300 45.46200
H  51.50200 49.91200 42.63700
H  53.09500 49.45700 42.41100
H  53.07700 50.64400 44.92300
H  51.65800 51.39900 44.17800
H  53.27600 51.66600 43.46700
H  45.79700 50.16600 43.91200
H  46.76700 50.46000 42.41200
H  47.56800 50.58500 43.98800
H  44.32600 46.02400 40.72700
H  41.54600 44.79900 44.34600
H  40.97400 46.31300 43.23600
H  41.49700 46.36000 44.92500

