158

Mg 43.90200 3.28200 47.03300
C  42.07200 6.21600 46.50600
C  41.06600 1.45600 46.54800
C  45.85100 0.51000 47.09100
C  46.87500 5.07300 46.94700
N  41.79100 3.89200 46.52000
C  41.27500 5.09700 46.43500
C  39.73700 5.04100 46.36700
C  39.47800 3.50600 46.63400
C  40.86500 2.87700 46.52400
C  38.91500 3.05700 48.01400
C  39.09500 5.36900 44.98900
C  39.49100 4.63700 43.77000
H  39.76800 5.49300 42.63600
N  43.49600 1.28500 46.83200
C  42.31000 0.77200 46.69400
C  42.38200 -0.63900 46.69800
C  43.76100 -1.04100 46.86200
C  44.45100 0.28700 46.94200
C  41.28000 -1.68200 46.59400
C  44.30500 -2.37700 46.88400
O  43.57000 -3.32500 46.82100
C  45.80900 -2.64700 46.79300
N  46.10700 2.78100 46.74900
C  46.56500 1.62400 47.03600
C  48.14900 1.57800 47.26200
C  48.44000 3.04700 47.05000
C  47.09300 3.66800 46.89700
C  48.68300 0.94200 48.54900
C  49.33700 3.14900 45.72200
C  50.18300 4.49900 45.47500
N  44.42300 5.23100 46.83100
C  45.68000 5.81100 46.89700
C  45.44800 7.24300 47.01600
C  44.12300 7.51500 46.86400
C  43.48400 6.17500 46.75600
C  46.53300 8.27000 47.02100
C  43.02400 8.49600 46.74500
O  43.06600 9.71600 46.88400
C  41.70700 7.66700 46.32700
C  40.68600 8.03500 47.29200
O  40.48300 7.68000 48.41000
O  39.78100 8.79700 46.59100
C  38.48300 9.02500 47.26300
H  40.14800 0.88600 46.39400
H  46.46800 -0.36400 47.30600
H  47.77400 5.61800 47.24500
H  39.25600 5.67100 47.11500
H  38.80100 3.15800 45.85300
H  39.21800 2.03400 48.23900
H  37.83300 3.18300 48.00800
H  39.31000 3.67500 48.82000
H  39.43400 6.39500 44.84500
H  38.02600 5.49200 45.16600
H  38.69600 3.97600 43.42400
H  40.40400 4.04400 43.82300
H  41.39800 -2.17800 45.63100
H  40.23900 -1.36000 46.59200
H  41.42800 -2.52100 47.27400
H  46.47200 -2.60100 47.65800
H  46.20100 -1.97100 46.03400
H  45.97600 -3.60600 46.30300
H  48.57100 1.02700 46.42200
H  49.08600 3.46000 47.82500
H  49.50300 1.58500 48.86900
H  49.10400 -0.04600 48.36400
H  47.95100 0.94700 49.35600
H  48.73600 2.97100 44.83000
H  50.08000 2.35200 45.73100
H  49.60500 5.39100 45.23200
H  50.86700 4.29200 44.65100
H  50.81500 4.73800 46.33000
H  47.46700 7.87200 47.42000
H  46.26500 9.02300 47.76300
H  46.56300 8.72800 46.03200
H  41.51300 7.83500 45.26700
H  38.38400 10.10200 47.12100
H  38.33100 8.82600 48.32400
H  37.77100 8.43300 46.68900
Mg 26.92100 50.18500 26.89600
C  25.08800 51.52600 29.40100
C  29.31400 49.49600 29.12500
C  28.97300 49.37700 24.25500
C  24.41800 51.19400 24.44300
N  27.11900 50.49500 29.00100
C  26.17000 50.92500 29.83000
C  26.46700 50.47100 31.26500
C  27.94800 50.08000 31.23400
C  28.17400 49.98100 29.73100
C  28.88900 51.09400 31.95100
C  25.46300 49.37000 31.88100
C  24.84800 49.81100 33.23200
H  25.28200 49.13200 34.47200
N  28.85600 49.58400 26.75000
C  29.67900 49.33400 27.77000
C  30.89100 48.71800 27.31700
C  30.90000 48.76400 25.86300
C  29.56200 49.26000 25.55400
C  31.98900 48.19700 28.27500
C  31.92400 48.45500 24.85100
O  31.78300 48.60800 23.67700
C  33.29600 48.04800 25.37300
N  26.69300 50.28200 24.66800
C  27.75300 49.83600 23.87100
C  27.35600 49.82500 22.39400
C  25.89900 50.38900 22.41300
C  25.62200 50.62900 23.91300
C  28.24200 50.71300 21.51200
C  24.78400 49.46800 21.84900
C  24.79400 49.42800 20.36600
N  25.11500 51.24700 26.85600
C  24.18100 51.47100 25.82200
C  23.10000 52.19200 26.44100
C  23.37400 52.12100 27.82900
C  24.63100 51.58900 28.02700
C  21.91300 52.76800 25.73300
C  22.77800 52.47500 29.15100
O  21.64700 52.86500 29.53100
C  23.91000 52.11000 30.31300
C  24.43100 53.29900 30.86200
O  25.08100 54.10100 30.26700
O  23.99700 53.52300 32.14000
C  24.36500 54.76900 32.83400
H  29.96300 49.04500 29.87900
H  29.70000 49.02000 23.52300
H  23.66500 51.45900 23.69800
H  26.30800 51.39000 31.83000
H  28.01600 49.01000 31.42900
H  29.73400 51.38400 31.32700
H  29.07300 50.54500 32.87400
H  28.43100 52.05400 32.18900
H  25.99000 48.42400 32.00300
H  24.68600 49.15600 31.14600
H  23.76700 49.78800 33.09900
H  24.96900 50.87800 33.42300
H  32.95000 48.67100 28.07600
H  32.08700 47.15700 27.96500
H  31.94400 48.26600 29.36200
H  33.98400 47.88000 24.54400
H  33.30200 47.19800 26.05500
H  33.71500 48.90400 25.90100
H  27.42900 48.80500 22.01800
H  25.89900 51.33600 21.87300
H  29.13200 51.06200 22.03600
H  27.78500 51.51200 20.92900
H  28.62200 49.97000 20.81200
H  23.79200 49.63600 22.26800
H  25.12100 48.48800 22.18700
H  24.92600 48.38800 20.06800
H  25.64500 49.86400 19.84100
H  23.93400 49.93300 19.92600
H  21.50200 52.10000 24.97700
H  22.10400 53.71500 25.22700
H  21.15500 52.92200 26.50100
H  23.46300 51.54600 31.13100
H  24.82500 55.57600 32.26400
H  25.11300 54.52500 33.58800
H  23.58100 55.34400 33.32600

