158

Mg 49.93200 46.25400 43.27100
C  46.61900 46.24600 42.10600
C  49.88300 42.85500 42.69100
C  53.24000 46.29100 43.90300
C  49.66100 49.55100 43.76200
N  48.35400 44.75700 42.48600
C  47.08900 44.92800 42.00800
C  46.37100 43.57000 41.68100
C  47.48600 42.50800 41.98900
C  48.61800 43.45100 42.43400
C  47.18200 41.46300 43.08700
C  45.61400 43.56400 40.31600
C  45.95000 42.37000 39.40400
H  45.26000 42.25100 38.02300
N  51.38000 44.74800 43.28500
C  51.12800 43.43700 42.99300
C  52.36600 42.77900 43.14900
C  53.42100 43.73300 43.48200
C  52.70300 45.00700 43.57900
C  52.51000 41.23200 42.93000
C  54.89400 43.41200 43.53500
O  55.24800 42.23800 43.42700
C  55.81600 44.48000 43.95200
N  51.23100 47.74700 43.66200
C  52.54200 47.47400 43.96700
C  53.25300 48.82700 44.24400
C  52.08100 49.90200 44.22700
C  50.93100 49.05400 43.82300
C  54.15300 48.82900 45.52400
C  52.34400 51.11800 43.32500
C  53.69000 51.91200 43.50700
N  48.48200 47.71700 42.99200
C  48.48100 49.00300 43.40200
C  47.10100 49.62500 43.24700
C  46.36000 48.51000 42.68900
C  47.19100 47.39200 42.56200
C  46.73900 51.01000 43.52900
C  45.05700 48.16400 42.11900
O  44.08700 48.82500 41.83900
C  45.15500 46.59800 41.90000
C  44.25200 45.96000 42.89600
O  44.22200 46.05300 44.09200
O  43.19400 45.38500 42.21500
C  42.13200 44.74800 42.97200
H  49.88500 41.77400 42.53300
H  54.26600 46.37000 44.26900
H  49.67300 50.60500 44.04600
H  45.56600 43.35800 42.38500
H  47.84100 41.93100 41.13500
H  46.14900 41.50200 43.43400
H  47.75400 41.48300 44.01400
H  47.34200 40.48900 42.62500
H  45.98400 44.43800 39.78000
H  44.53700 43.65800 40.45900
H  45.87800 41.39800 39.89200
H  46.99800 42.59100 39.19700
H  53.08400 41.15300 42.00800
H  51.60100 40.63400 42.99700
H  53.08600 40.82900 43.76400
H  55.46100 44.98100 44.85300
H  55.92400 45.20200 43.14300
H  56.74600 43.96100 44.18500
H  53.83800 49.07100 43.35700
H  51.90900 50.22700 45.25300
H  54.33700 47.81500 45.88100
H  53.74800 49.45300 46.32100
H  55.13300 49.25200 45.30300
H  51.51600 51.81700 43.44000
H  52.33800 50.83000 42.27300
H  54.30900 51.80800 42.61600
H  54.38200 51.68500 44.31800
H  53.45000 52.95500 43.71400
H  46.14700 51.38300 42.69300
H  47.58800 51.69200 43.57700
H  46.20000 51.11300 44.47100
H  44.77800 46.30200 40.92100
H  42.43000 43.73700 43.25100
H  41.27200 44.70700 42.30300
H  41.83100 45.22300 43.90500
Mg -11.87000 38.43100 41.01500
C  -9.63900 35.76600 40.62500
C  -9.51200 40.45800 39.52500
C  -14.23700 40.78100 40.64800
C  -14.21100 36.03500 42.03500
N  -9.77000 38.13000 40.21700
C  -9.18900 36.96200 39.99500
C  -7.88800 37.15700 39.24900
C  -7.65700 38.76300 39.24300
C  -9.02800 39.18700 39.72700
C  -6.37900 39.28100 40.00300
C  -7.99500 36.58500 37.84700
C  -7.01900 35.37900 37.57000
H  -5.80500 35.80300 36.75000
N  -11.77600 40.40500 40.34300
C  -10.73400 41.05500 39.84000
C  -11.12200 42.46500 39.63500
C  -12.47300 42.57600 40.01100
C  -12.88800 41.23300 40.35500
C  -10.32400 43.54800 39.13700
C  -13.22600 43.89600 39.98200
O  -12.63500 44.94200 39.65400
C  -14.69100 44.03100 40.27900
N  -13.92200 38.41600 41.39000
C  -14.70000 39.54800 41.13600
C  -16.16300 39.26400 41.42900
C  -16.17100 37.70300 41.81900
C  -14.72700 37.29100 41.69300
C  -16.83200 40.20600 42.46300
C  -17.04600 36.82000 40.94200
C  -18.05200 35.92900 41.72500
N  -11.91000 36.38100 41.42700
C  -12.88000 35.54000 41.89400
C  -12.34600 34.19400 42.20500
C  -11.09800 34.26100 41.67500
C  -10.85400 35.59100 41.24600
C  -13.10600 33.08800 42.81100
C  -9.90600 33.49700 41.43600
O  -9.78600 32.34500 41.79200
C  -8.95600 34.39400 40.60500
C  -7.56200 34.18700 41.22800
O  -6.91300 33.16500 41.18300
O  -7.17300 35.29900 42.07500
C  -5.89600 35.29900 42.82400
H  -8.78300 41.12200 39.05500
H  -15.05400 41.46600 40.41100
H  -14.97200 35.28300 42.25200
H  -7.02500 36.71600 39.74700
H  -7.41900 39.11100 38.23800
H  -6.73000 40.12200 40.60200
H  -5.63700 39.71100 39.33000
H  -5.94400 38.46400 40.57900
H  -7.69500 37.37800 37.16200
H  -9.05400 36.33800 37.77200
H  -7.50900 34.65800 36.91600
H  -6.61200 34.95200 38.48700
H  -10.71600 44.03900 38.24600
H  -9.32900 43.18200 38.88600
H  -9.99500 44.27200 39.88300
H  -14.97600 45.07500 40.41100
H  -14.80200 43.49800 41.22300
H  -15.29200 43.67400 39.44300
H  -16.63000 39.33200 40.44600
H  -16.44800 37.63500 42.87100
H  -17.44100 40.99900 42.03000
H  -16.07700 40.56100 43.16500
H  -17.54500 39.60500 43.02800
H  -16.46700 36.17100 40.28600
H  -17.62700 37.51200 40.33200
H  -17.76800 35.95500 42.77700
H  -18.05600 34.85100 41.56900
H  -19.00100 36.46600 41.73600
H  -13.72500 32.61100 42.05100
H  -13.85900 33.55000 43.44900
H  -12.46000 32.33200 43.25600
H  -8.89300 33.96300 39.60500
H  -5.14700 36.01200 42.47800
H  -5.40000 34.32900 42.82700
H  -6.15500 35.52200 43.85900

