158

Mg 23.22600 -6.35200 45.84600
C  25.43300 -3.92600 44.85200
C  20.88800 -5.06700 43.66700
C  21.21700 -9.10800 46.34800
C  25.89400 -8.09500 47.29800
N  23.12800 -4.66600 44.54000
C  24.16300 -3.78600 44.33000
C  23.73700 -2.71100 43.33400
C  22.17600 -2.89700 43.24800
C  22.08000 -4.26800 43.81800
C  21.36600 -1.83800 44.02400
C  24.51800 -2.62400 41.97500
C  25.11700 -1.13400 41.59600
H  24.59200 -0.41000 40.40600
N  21.18800 -6.96600 45.21600
C  20.43800 -6.34900 44.23200
C  19.17400 -7.09900 44.03800
C  19.24600 -8.32100 44.78100
C  20.57900 -8.19400 45.49900
C  18.18100 -6.51400 43.07300
C  18.15200 -9.33200 44.86400
O  17.19700 -9.26400 44.07200
C  18.19800 -10.49600 45.83400
N  23.52700 -8.33500 46.75700
C  22.49300 -9.19800 46.92900
C  22.91700 -10.43300 47.64300
C  24.43600 -10.05600 47.95900
C  24.64700 -8.73800 47.35900
C  22.00600 -10.74800 48.85400
C  25.50400 -11.06700 47.60400
C  26.55300 -11.27800 48.63200
N  25.25500 -6.11300 46.15300
C  26.23800 -6.90900 46.69000
C  27.49200 -6.14300 46.74100
C  27.22700 -4.98000 46.03100
C  25.86300 -4.96800 45.70100
C  28.80600 -6.64900 47.42700
C  27.78000 -3.78600 45.48600
O  28.91100 -3.28200 45.59200
C  26.65700 -3.05200 44.75100
C  26.51000 -1.76200 45.46800
O  25.88400 -1.64800 46.52400
O  27.16900 -0.67200 44.88700
C  26.97700 0.53000 45.62500
H  20.11300 -4.55500 43.09100
H  20.64100 -9.95000 46.73800
H  26.72500 -8.61800 47.77700
H  23.92800 -1.82500 43.93900
H  21.72600 -3.00300 42.26100
H  20.38400 -2.22700 44.29200
H  21.24600 -1.07600 43.25300
H  21.92200 -1.42900 44.86800
H  23.81500 -2.79200 41.16000
H  25.24000 -3.42600 41.81700
H  26.18800 -1.29500 41.46900
H  24.99900 -0.44000 42.42800
H  18.24300 -7.07000 42.13700
H  18.38200 -5.50300 42.71700
H  17.16800 -6.66500 43.44400
H  17.28200 -11.07000 45.97200
H  18.50200 -10.21900 46.84400
H  19.02700 -11.14000 45.54300
H  22.87600 -11.20700 46.87700
H  24.44900 -9.82300 49.02300
H  21.14200 -10.08700 48.92700
H  22.60100 -10.85800 49.76100
H  21.60800 -11.75100 48.69900
H  26.02900 -10.72200 46.71300
H  25.16200 -12.05600 47.29700
H  27.53100 -10.87000 48.37800
H  26.66400 -12.34800 48.81100
H  26.21200 -10.80800 49.55400
H  28.98700 -7.70300 47.21300
H  28.67200 -6.55200 48.50500
H  29.55600 -6.00300 46.97000
H  27.00900 -2.81000 43.74800
H  27.59600 1.27300 45.12200
H  27.41500 0.50200 46.62200
H  25.92600 0.78500 45.48400
Mg 1.51500 41.30200 26.61300
C  3.44500 41.59800 29.59300
C  -0.99500 40.04500 28.56300
C  0.05000 40.56400 23.72100
C  4.51400 42.04500 24.77700
N  1.22400 40.90900 28.84300
C  2.12000 41.23700 29.91000
C  1.41900 41.25100 31.22400
C  0.00100 40.66700 30.89800
C  0.06900 40.44200 29.36900
C  -0.50300 39.42300 31.69500
C  1.36900 42.67700 31.85400
C  0.91900 42.79700 33.34100
H  0.57900 41.46100 34.17000
N  -0.35900 40.56100 26.25700
C  -1.22400 40.01800 27.11600
C  -2.42400 39.58400 26.39700
C  -2.08600 39.77200 25.01200
C  -0.71600 40.28700 24.95300
C  -3.63600 38.96900 27.18700
C  -2.94600 39.36700 23.80600
O  -2.51600 39.46300 22.65700
C  -4.26000 38.76100 23.96500
N  2.14600 41.45300 24.54000
C  1.32700 41.13100 23.49300
C  1.97500 41.52300 22.17100
C  3.38500 42.07600 22.51000
C  3.36700 41.83900 24.00500
C  1.93600 40.47000 20.95700
C  3.68900 43.50900 22.03300
C  4.88200 43.70000 21.17000
N  3.50200 41.81800 27.01600
C  4.57800 42.04800 26.18300
C  5.74600 42.30200 26.91900
C  5.30000 42.06600 28.23100
C  3.94400 41.78100 28.25600
C  7.13900 42.76900 26.41100
C  5.80800 42.02100 29.62600
O  6.97500 42.11400 30.01500
C  4.63000 41.78100 30.51500
C  4.83800 40.59000 31.33800
O  5.15400 39.53800 30.86000
O  4.96200 40.86500 32.67300
C  5.54300 39.76200 33.46600
H  -1.93800 39.83400 29.07100
H  -0.53300 40.56800 22.79800
H  5.41400 42.27500 24.20100
H  1.90900 40.50400 31.84800
H  -0.73700 41.46100 31.00800
H  0.22700 39.21900 32.47800
H  -0.58900 38.53900 31.06300
H  -1.49700 39.75100 31.99800
H  0.67200 43.29800 31.29200
H  2.34300 43.13900 31.68800
H  -0.00200 43.36100 33.48600
H  1.74300 43.29600 33.85000
H  -3.47400 37.96200 27.57200
H  -4.55000 38.88100 26.60000
H  -3.99300 39.52200 28.05600
H  -4.64900 38.65100 22.95300
H  -4.90400 39.44300 24.52200
H  -4.20000 37.76700 24.40800
H  1.25600 42.28800 21.87700
H  4.09200 41.37000 22.07400
H  1.65300 39.55300 21.47500
H  2.87300 40.22400 20.45800
H  1.15600 40.71100 20.23400
H  3.61800 44.16300 22.90300
H  2.83300 43.80100 21.42300
H  4.50500 43.64100 20.14900
H  5.68600 42.97500 21.29500
H  5.35500 44.67700 21.26800
H  7.30900 42.90100 25.34200
H  7.92600 42.10600 26.76800
H  7.41200 43.75100 26.79700
H  4.46300 42.69300 31.08900
H  4.80900 38.95900 33.39700
H  5.82700 40.13500 34.45000
H  6.41300 39.39000 32.92400

