158

Mg 43.73700 4.23100 47.22900
C  41.76200 7.10300 46.71600
C  40.88300 2.25800 46.53100
C  45.81900 1.57600 46.86000
C  46.56200 6.28000 46.64300
N  41.57300 4.63800 46.57900
C  41.01600 5.92200 46.64800
C  39.48300 5.75200 46.40900
C  39.21600 4.23600 46.59200
C  40.63900 3.64500 46.51400
C  38.59300 3.98600 48.02500
C  38.85800 6.36900 45.12900
C  39.71800 6.36300 43.81900
H  39.50800 7.48800 42.80400
N  43.36500 2.23100 46.99600
C  42.08300 1.63100 46.72200
C  42.34700 0.14700 46.63200
C  43.70300 -0.10600 46.65200
C  44.41200 1.25700 46.83000
C  41.19600 -0.77000 46.45800
C  44.33900 -1.46500 46.51300
O  43.56400 -2.45600 46.35600
C  45.75100 -1.66700 46.53900
N  45.94900 3.92500 46.84200
C  46.51900 2.78400 46.81800
C  48.09500 2.90300 46.66700
C  48.31900 4.42900 46.37300
C  46.88600 4.92800 46.62700
C  48.83200 2.39400 47.91900
C  48.93700 4.77000 44.99500
C  50.39600 5.14200 44.99100
N  44.16000 6.33300 47.04400
C  45.33300 6.98200 46.90100
C  45.08400 8.34300 47.04400
C  43.68700 8.48600 46.90600
C  43.16100 7.21700 46.91800
C  46.11300 9.40800 46.97400
C  42.58600 9.36500 46.77100
O  42.58700 10.55500 46.89000
C  41.30600 8.51600 46.45300
C  40.12500 8.86700 47.26400
O  39.84800 8.44100 48.36200
O  39.32800 9.72500 46.60800
C  38.11700 10.10500 47.25700
H  40.04100 1.59600 46.31500
H  46.47200 0.70800 46.75400
H  47.41700 6.90300 46.37300
H  39.09400 6.30900 47.26200
H  38.58800 3.82400 45.80100
H  39.15600 4.69100 48.63700
H  38.81500 2.97100 48.35300
H  37.54400 4.28300 48.06200
H  38.43100 7.35700 45.30200
H  37.98000 5.80500 44.81200
H  39.57300 5.39500 43.34100
H  40.76800 6.44700 44.10000
H  40.90400 -0.88100 45.41300
H  40.23300 -0.38200 46.79200
H  41.36200 -1.74700 46.91200
H  46.22300 -1.35200 47.47000
H  46.06300 -1.14700 45.63400
H  46.01400 -2.68300 46.24400
H  48.41900 2.21700 45.88400
H  48.99500 4.97800 47.02900
H  49.91700 2.44900 47.82500
H  48.66300 1.32200 48.02200
H  48.51700 2.85300 48.85600
H  48.29600 5.57900 44.64400
H  48.76200 3.87400 44.40000
H  50.85700 4.79500 44.06700
H  50.89500 4.74100 45.87300
H  50.51800 6.22500 45.01000
H  46.88400 9.09000 47.67600
H  45.57500 10.32200 47.22200
H  46.59000 9.43400 45.99400
H  40.92100 8.64100 45.44100
H  37.64500 9.29500 47.81300
H  37.41800 10.37400 46.46600
H  38.38100 10.98700 47.84000
Mg 7.40200 53.51800 40.98600
C  6.89600 50.14000 40.66100
C  10.63600 53.06600 39.63100
C  7.62800 56.86500 40.26800
C  4.20900 53.98200 41.98800
N  8.59000 51.81000 40.18600
C  8.13000 50.55900 40.17700
C  9.12400 49.58300 39.52800
C  10.42000 50.48500 39.40600
C  9.93900 51.85600 39.83400
C  11.54200 50.06700 40.37800
C  8.75400 49.02600 38.08900
C  7.97200 49.92100 37.09400
H  7.20200 49.25100 35.91600
N  8.96000 54.77300 40.12800
C  10.17400 54.40600 39.71900
C  11.01000 55.62500 39.60300
C  10.12800 56.76000 39.63700
C  8.82800 56.17100 40.02100
C  12.51000 55.53900 39.15900
C  10.48300 58.19600 39.29500
O  11.59400 58.44400 38.92900
C  9.55700 59.34200 39.33100
N  6.06600 55.24100 41.19600
C  6.37900 56.52300 40.84700
C  5.18000 57.45800 41.08100
C  4.02600 56.50200 41.59800
C  4.79200 55.16800 41.54800
C  5.52100 58.65000 42.00700
C  2.73800 56.32500 40.66500
C  1.48000 56.85700 41.35500
N  5.89600 52.39000 41.46200
C  4.65200 52.67200 41.93500
C  3.93700 51.43700 42.26200
C  4.85200 50.44500 41.82900
C  5.98900 51.02500 41.29400
C  2.52100 51.15900 42.79700
C  4.91400 49.02300 41.69000
O  4.16900 48.06300 42.06100
C  6.25300 48.78200 40.84600
C  5.86100 48.02500 39.55800
O  5.28000 48.48400 38.63900
O  6.25200 46.71500 39.60800
C  5.65100 45.80200 38.60200
H  11.66900 52.91300 39.31300
H  7.57500 57.91100 39.95800
H  3.23300 54.12300 42.45700
H  9.18400 48.71200 40.18100
H  10.92200 50.53600 38.44000
H  11.29200 49.12800 40.87200
H  11.66800 50.83700 41.13900
H  12.51700 49.82800 39.95300
H  8.25700 48.05800 38.15000
H  9.69200 48.94400 37.54000
H  8.70300 50.65900 36.76500
H  7.19000 50.44500 37.64300
H  12.54900 54.83900 38.32500
H  13.01800 55.17200 40.05200
H  12.93400 56.44300 38.72300
H  9.20700 59.40300 40.36100
H  8.78700 59.14500 38.58400
H  10.06300 60.25100 39.00700
H  4.95400 57.82300 40.08000
H  3.64400 56.73800 42.59100
H  5.24800 59.62800 41.61200
H  6.55600 58.66400 42.34900
H  4.89100 58.53900 42.89000
H  2.62600 55.26000 40.45900
H  2.89100 56.91500 39.76100
H  1.36900 57.88000 40.99400
H  1.55000 56.87700 42.44300
H  0.66900 56.22600 40.99300
H  2.09700 52.03600 43.28600
H  2.62600 50.36200 43.53400
H  1.88500 50.88800 41.95400
H  7.02200 48.25300 41.40900
H  4.59400 46.06500 38.65100
H  5.90300 44.77000 38.84400
H  6.11000 46.04600 37.64400

