158

Mg 17.49700 -1.33200 28.47300
C  16.59400 0.81800 31.24800
C  19.81700 -2.86200 30.52100
C  18.83800 -2.87400 25.81600
C  16.03800 1.11300 26.45300
N  18.16000 -1.01600 30.60100
C  17.44400 -0.27600 31.56600
C  18.00600 -0.60700 32.96900
C  19.13800 -1.62300 32.66500
C  19.04800 -1.93700 31.20600
C  20.54800 -1.15800 33.19600
C  16.94200 -1.19600 33.94000
C  16.82700 -0.55300 35.29200
H  17.94700 0.07100 36.00600
N  18.91900 -2.82400 28.23900
C  19.71400 -3.31800 29.21000
C  20.51000 -4.35200 28.61600
C  20.21200 -4.47200 27.25800
C  19.28700 -3.36600 27.06700
C  21.58600 -5.06900 29.42100
C  20.65000 -5.46000 26.26500
O  20.32900 -5.36300 25.12800
C  21.55900 -6.66300 26.59700
N  17.35900 -0.93900 26.39900
C  17.97200 -1.79400 25.48100
C  17.66600 -1.25200 24.02700
C  16.67300 -0.06100 24.32300
C  16.66300 0.06900 25.81300
C  18.99100 -0.70300 23.34000
C  15.26100 -0.16100 23.58000
C  14.16900 -1.05000 24.22200
N  16.43900 0.63600 28.73900
C  15.90200 1.42500 27.79500
C  15.16600 2.52800 28.46700
C  15.35800 2.22300 29.81500
C  16.22800 1.15800 29.88700
C  14.20400 3.43700 27.75900
C  14.92900 2.50200 31.22000
O  13.97800 3.18400 31.59600
C  15.85400 1.71900 32.16400
C  16.68000 2.70700 32.75500
O  17.48700 3.36600 32.17200
O  16.33700 2.82400 34.11000
C  16.99400 3.88900 34.88900
H  20.49500 -3.45300 31.14100
H  19.33000 -3.36000 24.97100
H  15.40400 1.65200 25.74600
H  18.52100 0.21600 33.46600
H  19.05500 -2.53400 33.25800
H  20.43000 -0.25800 33.80000
H  21.15400 -0.99700 32.30400
H  20.90900 -1.96800 33.82800
H  17.20200 -2.25100 34.03000
H  15.95300 -1.25000 33.48500
H  16.38000 -1.21900 36.03000
H  16.05900 0.21400 35.19800
H  22.32500 -5.60200 28.82200
H  21.22300 -5.82700 30.11600
H  22.10400 -4.31400 30.01200
H  21.16200 -7.46300 25.97200
H  21.33100 -7.00300 27.60700
H  22.63600 -6.50300 26.55100
H  17.23800 -1.95500 23.31200
H  17.17200 0.77700 23.83700
H  19.71400 -0.48600 24.12600
H  18.91900 0.35700 23.10000
H  19.27400 -1.36000 22.51700
H  15.48900 -0.51500 22.57400
H  14.86600 0.84700 23.45600
H  13.36500 -0.48800 24.69700
H  14.62100 -1.70700 24.96500
H  13.69600 -1.65300 23.44700
H  13.95000 3.19400 26.72800
H  14.68300 4.40700 27.62300
H  13.33300 3.58900 28.39700
H  15.32100 1.11200 32.89600
H  18.02400 3.65500 35.15900
H  16.35200 4.13200 35.73600
H  17.25100 4.75200 34.27400
Mg 16.75900 52.74500 26.56000
C  18.56400 51.48700 29.27200
C  14.11000 53.31600 28.69800
C  15.01000 53.96000 23.98000
C  19.25800 51.60300 24.44000
N  16.40700 52.52200 28.76800
C  17.30900 52.09100 29.64900
C  16.71200 52.38200 31.10100
C  15.22800 52.66700 30.83200
C  15.25700 52.82100 29.33800
C  14.23000 51.61600 31.41500
C  17.51300 53.57600 31.73100
C  18.27800 53.28900 33.01000
H  17.48500 52.60200 34.14800
N  14.84000 53.50300 26.38200
C  13.91600 53.74600 27.40000
C  12.80000 54.45100 26.86200
C  13.01400 54.69500 25.50800
C  14.33900 54.09400 25.23300
C  11.55400 54.66900 27.69600
C  12.15600 55.31000 24.47200
O  12.49600 55.44700 23.31900
C  10.90800 55.97600 24.92800
N  17.10600 52.74600 24.54900
C  16.20400 53.27500 23.73200
C  16.79600 53.49400 22.35200
C  18.21900 52.78100 22.35200
C  18.20900 52.33100 23.86200
C  15.96300 52.97300 21.14000
C  19.39500 53.62300 21.98200
C  20.50000 53.02700 21.03300
N  18.62100 51.71100 26.73800
C  19.50300 51.28900 25.77500
C  20.63600 50.61600 26.35500
C  20.31200 50.67000 27.77900
C  19.08900 51.29600 27.90700
C  21.79500 49.99400 25.59900
C  20.76300 50.30900 29.08400
O  21.76800 49.70400 29.41400
C  19.70500 50.85500 30.08200
C  19.25000 49.70100 30.94100
O  18.63400 48.69400 30.54500
O  19.59100 49.95900 32.23300
C  19.00400 48.96900 33.18200
H  13.28700 53.55100 29.37600
H  14.41600 54.26900 23.11700
H  20.05600 51.38900 23.72600
H  16.85800 51.43000 31.61100
H  14.96600 53.64800 31.22800
H  14.75300 50.89900 32.04700
H  13.67800 51.05400 30.66200
H  13.53700 52.02900 32.14900
H  16.85800 54.44700 31.74500
H  18.29400 53.84000 31.01800
H  18.47500 54.25200 33.48100
H  19.22700 52.82100 32.74900
H  10.91800 53.78700 27.62700
H  10.96900 55.56600 27.49700
H  11.80700 54.89000 28.73300
H  10.34900 56.35100 24.07100
H  11.24800 56.74800 25.61800
H  10.34300 55.10400 25.26100
H  16.88900 54.55900 22.13700
H  18.28100 51.84700 21.79300
H  16.61200 52.33200 20.54200
H  15.74300 53.84900 20.53000
H  14.98800 52.55100 21.38400
H  19.85400 54.04000 22.87800
H  19.08100 54.52000 21.44800
H  20.53700 53.47800 20.04200
H  20.46200 51.93800 21.03300
H  21.46300 53.17100 21.52300
H  21.72200 48.93300 25.83800
H  22.71000 50.43100 25.99900
H  21.77600 50.16100 24.52300
H  20.14500 51.60600 30.73700
H  17.91500 49.01500 33.15600
H  19.38400 49.03900 34.20200
H  19.34700 47.95300 32.98800

