158

Mg 16.72300 -0.68300 27.46500
C  15.81900 1.24900 30.19300
C  18.83200 -2.48900 29.41400
C  18.18600 -1.76300 24.66600
C  14.82300 1.61400 25.36900
N  17.24000 -0.65900 29.61600
C  16.79200 0.23100 30.50900
C  17.20800 -0.18100 31.96000
C  18.25700 -1.28400 31.68600
C  18.10200 -1.55000 30.16500
C  19.69100 -0.97400 32.27700
C  16.02600 -0.69500 32.79700
C  15.95100 -0.48700 34.33000
H  17.08800 0.24600 35.07500
N  18.16500 -2.09900 27.08400
C  18.80400 -2.83000 28.02300
C  19.65000 -3.85200 27.27300
C  19.46300 -3.57700 25.85500
C  18.62100 -2.40700 25.85000
C  20.57800 -4.83000 28.01300
C  19.99300 -4.37600 24.67200
O  19.83200 -4.04800 23.52600
C  20.81700 -5.57400 24.92700
N  16.56300 -0.09000 25.35700
C  17.29900 -0.74500 24.42700
C  17.05500 -0.14700 23.05600
C  15.76600 0.71900 23.22300
C  15.67200 0.70900 24.73100
C  18.22400 0.59700 22.38800
C  14.49000 0.02800 22.64100
C  13.66100 0.93700 21.69600
N  15.47700 1.03800 27.67700
C  14.72400 1.84100 26.78400
C  13.92600 2.80600 27.50200
C  14.36100 2.62100 28.87500
C  15.33800 1.58900 28.92400
C  12.80700 3.67300 27.01200
C  14.20400 3.15200 30.19800
O  13.50000 4.04800 30.70900
C  15.11500 2.25100 31.14000
C  16.03300 3.00400 31.98200
O  17.12700 3.32300 31.62600
O  15.44600 3.41800 33.19100
C  16.28400 4.35600 33.99700
H  19.48600 -3.04200 30.09100
H  18.71200 -2.26100 23.84900
H  14.28900 2.30000 24.70800
H  17.73800 0.59800 32.50800
H  17.97400 -2.24800 32.11000
H  20.45100 -1.21000 31.53100
H  19.79700 -1.69500 33.08800
H  19.84100 0.00400 32.73400
H  15.96700 -1.78200 32.74500
H  15.15300 -0.42000 32.20400
H  15.84100 -1.46500 34.80000
H  15.02900 0.09400 34.34500
H  20.79500 -4.42700 29.00200
H  21.54000 -4.83300 27.50200
H  20.13300 -5.81100 28.18400
H  20.39600 -6.13100 25.76400
H  21.74700 -5.05100 25.15100
H  20.80100 -6.29100 24.10600
H  16.85800 -1.08000 22.52700
H  15.92200 1.72000 22.82100
H  17.95900 1.50500 21.84600
H  18.57900 -0.11500 21.64400
H  18.98400 0.85300 23.12700
H  13.78100 -0.13300 23.45400
H  14.55100 -0.98900 22.25200
H  14.13900 1.90800 21.56300
H  12.59000 1.07600 21.84100
H  13.95500 0.57600 20.71100
H  12.08900 3.78700 27.82400
H  12.30300 3.21500 26.16100
H  13.22100 4.60500 26.62600
H  14.46400 1.75500 31.86000
H  16.75400 3.77400 34.78900
H  15.49600 4.98800 34.40700
H  17.02900 4.92400 33.43900
Mg 16.88900 52.22400 26.74400
C  18.63500 50.81200 29.45900
C  14.37800 53.06200 28.87300
C  15.22000 53.26200 24.11800
C  19.27900 50.73800 24.55100
N  16.43700 51.66800 28.95300
C  17.41600 51.37500 29.92600
C  16.91600 51.60500 31.34800
C  15.41400 52.07600 31.09500
C  15.43600 52.40300 29.58400
C  14.35800 51.01700 31.49600
C  17.99500 52.58100 32.12600
C  18.31000 52.30500 33.59300
H  17.32300 51.61900 34.59800
N  15.00400 53.06300 26.53300
C  14.11300 53.30600 27.54700
C  12.92600 53.84400 27.02600
C  13.14100 53.89300 25.59300
C  14.49500 53.48000 25.37100
C  11.70000 54.25100 27.76700
C  12.32400 54.52600 24.44400
O  12.75500 54.82900 23.32200
C  10.99100 54.97900 24.71100
N  17.02200 51.76200 24.62100
C  16.28400 52.52200 23.74900
C  16.77800 52.40000 22.29800
C  18.25500 51.97700 22.53900
C  18.24800 51.43200 23.96400
C  15.89800 51.33200 21.48400
C  19.19600 53.23700 22.33800
C  20.68000 52.93100 22.16000
N  18.55700 50.93400 26.91200
C  19.45200 50.41800 25.95300
C  20.44600 49.66700 26.61900
C  20.14800 49.88700 27.96500
C  19.02500 50.62800 28.09600
C  21.54300 48.87700 26.03500
C  20.55100 49.50700 29.29800
O  21.44900 48.79800 29.69800
C  19.59800 50.13200 30.30000
C  19.05800 49.03200 31.22500
O  18.18900 48.24800 30.89500
O  19.74800 48.96700 32.38700
C  19.43900 47.90500 33.36400
H  13.59700 53.36800 29.57300
H  14.81300 53.73300 23.22100
H  20.11700 50.45700 23.91000
H  16.98900 50.64100 31.85100
H  15.29600 52.99700 31.66500
H  13.56400 50.85000 30.76700
H  13.79900 51.41800 32.34200
H  14.84400 50.07600 31.75300
H  17.49100 53.54200 32.01700
H  18.97300 52.63900 31.64900
H  18.51500 53.30600 33.97300
H  19.27100 51.81900 33.75600
H  11.69100 54.14500 28.85200
H  10.98400 53.63700 27.22000
H  11.46100 55.29400 27.55700
H  11.06600 55.70600 25.52000
H  10.51000 54.03800 24.97900
H  10.39100 55.32300 23.86800
H  16.64600 53.36000 21.79800
H  18.63800 51.25800 21.81500
H  16.48200 50.41500 21.40300
H  15.70200 51.62200 20.45200
H  14.90200 51.11000 21.86900
H  19.08700 53.84300 23.23800
H  18.83300 53.86000 21.52100
H  20.66700 51.84500 22.24800
H  21.40300 53.30700 22.88400
H  20.94800 53.20700 21.14000
H  22.33600 49.56900 25.75000
H  21.14900 48.43000 25.12200
H  21.87300 48.09200 26.71500
H  20.18900 50.86200 30.85400
H  20.30600 47.59600 33.94800
H  18.97400 47.05000 32.87400
H  18.70100 48.39100 34.00300

