158

Mg 41.61900 40.64100 26.23000
C  40.77100 43.20400 28.71200
C  42.83800 38.82900 28.76600
C  42.57900 38.54500 23.97700
C  40.59100 43.03700 23.93200
N  41.83200 40.99800 28.42800
C  41.29900 41.97400 29.21800
C  41.45900 41.60800 30.72300
C  42.35300 40.32600 30.71500
C  42.27300 40.00800 29.21300
C  43.82700 40.66200 31.28100
C  40.04800 41.52500 31.41400
C  39.80400 42.28600 32.63000
H  39.85700 41.43000 33.89400
N  42.64900 38.91700 26.39300
C  43.05100 38.32500 27.51500
C  43.76100 37.06300 27.18500
C  43.68800 36.89200 25.73400
C  42.98700 38.16800 25.28000
C  44.38600 36.18300 28.27900
C  44.13300 35.79000 24.82400
O  44.03100 35.92200 23.60800
C  44.68300 34.50600 25.45700
N  41.83800 40.89100 24.24800
C  42.10700 39.77500 23.51200
C  41.68000 39.95500 22.02000
C  41.10000 41.47000 22.03900
C  41.14800 41.85300 23.53000
C  42.77700 39.66100 20.92000
C  39.60800 41.63600 21.45700
C  39.35300 42.36700 20.12100
N  40.96000 42.74500 26.26400
C  40.57200 43.53300 25.24200
C  39.96000 44.77300 25.69900
C  40.01800 44.68800 27.09900
C  40.68500 43.47500 27.33300
C  39.25200 45.89400 24.86800
C  39.72400 45.39600 28.35000
O  39.13100 46.49500 28.51200
C  40.18400 44.38200 29.50400
C  41.14100 45.07200 30.52800
O  42.28500 44.83400 30.52400
O  40.45300 46.00300 31.32600
C  41.42000 46.65600 32.28100
H  43.02700 38.11000 29.56500
H  42.69600 37.86100 23.13400
H  40.02900 43.64800 23.22300
H  42.11600 42.34800 31.18100
H  41.77700 39.61400 31.30700
H  44.56800 40.20200 30.62800
H  43.87200 40.13000 32.23100
H  44.02800 41.72900 31.37400
H  40.02500 40.45200 31.60600
H  39.19700 41.64600 30.74400
H  38.76900 42.60800 32.51700
H  40.53600 43.09200 32.68400
H  45.42700 35.87800 28.17300
H  43.87800 35.22500 28.39100
H  44.27200 36.63900 29.26200
H  45.06800 33.86200 24.66600
H  43.84200 34.07400 25.99900
H  45.53600 34.72800 26.09800
H  40.92700 39.22400 21.72400
H  41.78600 42.09800 21.47100
H  43.66000 39.32600 21.46400
H  42.95600 40.46100 20.20100
H  42.48000 38.83500 20.27400
H  39.02000 42.14600 22.22000
H  39.16900 40.65100 21.30000
H  38.99000 41.61700 19.41800
H  40.28200 42.77600 19.72300
H  38.61000 43.16200 20.05900
H  38.87000 46.70100 25.49300
H  38.50600 45.35300 24.28500
H  39.97100 46.33200 24.17600
H  39.29000 44.07000 30.04300
H  40.86500 47.36900 32.89000
H  42.14600 47.33700 31.83800
H  41.95100 46.01900 32.98800
Mg 34.90700 47.97600 24.88300
C  35.51300 46.17900 27.81000
C  33.46600 50.40500 26.83600
C  34.06700 49.52600 22.10100
C  35.95600 45.07700 23.11100
N  34.38000 48.12100 27.07200
C  34.88500 47.34100 28.14600
C  34.57700 48.05500 29.51700
C  33.86000 49.34900 29.09400
C  33.87400 49.27600 27.54200
C  32.41600 49.48100 29.72600
C  35.89400 48.24800 30.34500
C  35.77100 48.14400 31.89800
H  34.33900 48.08600 32.43500
N  34.09800 49.79000 24.49600
C  33.58600 50.65800 25.42000
C  33.18500 51.93800 24.75300
C  33.34200 51.65100 23.34000
C  33.90400 50.26900 23.23200
C  32.56800 53.19500 25.49200
C  33.02000 52.59800 22.14700
O  33.17000 52.26400 20.98700
C  32.41900 53.98500 22.36900
N  35.03300 47.37700 22.88900
C  34.53500 48.18300 21.95500
C  34.73900 47.57900 20.55700
C  35.65600 46.39400 20.82400
C  35.60600 46.24400 22.36900
C  33.36900 47.12200 19.89800
C  37.13400 46.69500 20.48700
C  37.92500 47.72600 21.29900
N  35.53700 46.04400 25.35800
C  35.95600 45.00400 24.50800
C  36.53500 43.92500 25.24000
C  36.34000 44.28900 26.62200
C  35.72200 45.59200 26.62700
C  36.99300 42.64400 24.75700
C  36.50400 43.95600 28.04000
O  37.09200 43.01800 28.52200
C  35.92900 45.10900 28.83600
C  34.72500 44.61100 29.67400
O  33.57400 44.60600 29.31700
O  35.14500 44.32800 30.91400
C  34.12800 44.14600 31.93900
H  33.04700 51.16300 27.50100
H  33.80300 49.96600 21.13700
H  36.40100 44.21200 22.61600
H  33.88200 47.43700 30.08400
H  34.46700 50.22100 29.33700
H  32.44800 50.37500 30.34900
H  32.13700 48.65500 30.38100
H  31.63700 49.48100 28.96400
H  36.27500 49.24900 30.14000
H  36.60800 47.50100 30.00100
H  36.33300 48.93800 32.39100
H  36.35300 47.25900 32.15400
H  33.28200 53.99900 25.66600
H  32.27400 52.88700 26.49600
H  31.66400 53.60400 25.04000
H  31.37300 53.83900 22.63800
H  32.59100 54.67200 21.54100
H  32.95500 54.49200 23.17100
H  35.26700 48.25100 19.88100
H  35.39100 45.52600 20.22100
H  33.28200 46.08000 20.20700
H  33.42700 47.19900 18.81300
H  32.48600 47.66100 20.24200
H  37.29400 46.72900 19.40900
H  37.58900 45.73500 20.73000
H  37.17900 48.35000 21.79100
H  38.63900 48.25400 20.66700
H  38.54800 47.28300 22.07600
H  37.76800 42.75200 23.99800
H  36.10200 42.24100 24.27600
H  37.30600 42.02700 25.59900
H  36.75500 45.40200 29.48500
H  33.70400 43.14200 31.97500
H  33.36700 44.90800 31.77400
H  34.68600 44.33200 32.85700

