158

Mg 2.72100 0.15300 44.70200
C  5.63100 2.19900 43.96700
C  0.84600 2.24300 42.80800
C  0.30400 -2.05300 45.00600
C  5.03800 -2.28500 45.92400
N  3.22100 1.91400 43.39100
C  4.40000 2.59800 43.28500
C  4.30300 3.77600 42.30300
C  2.76900 4.05200 42.30200
C  2.22900 2.65900 42.85700
C  2.44100 5.34400 43.14900
C  4.98500 3.43200 40.92300
C  6.16300 4.28000 40.37700
H  6.36500 4.39800 38.87700
N  0.82900 0.16600 44.07600
C  0.15800 1.13200 43.37800
C  -1.26600 0.73200 43.35600
C  -1.50200 -0.35200 44.12400
C  -0.05300 -0.80900 44.44200
C  -2.20700 1.62800 42.56300
C  -2.84700 -0.95800 44.57800
O  -3.90100 -0.44400 44.20300
C  -2.97300 -2.13200 45.50000
N  2.74100 -1.88800 45.27800
C  1.54000 -2.56100 45.37800
C  1.76700 -4.04000 45.83100
C  3.28000 -4.06900 46.14100
C  3.70400 -2.64200 45.76700
C  0.78800 -4.55700 46.97100
C  4.08800 -5.18200 45.41200
C  4.99300 -5.98000 46.40300
N  4.88100 -0.03700 44.99200
C  5.58500 -1.02900 45.64300
C  6.98700 -0.55200 45.86900
C  7.03400 0.74200 45.22100
C  5.73000 0.97700 44.75300
C  8.06200 -1.35300 46.52700
C  7.87500 1.92800 44.97600
O  9.03800 2.18700 45.35000
C  7.01200 2.87200 44.08600
C  7.01100 4.22300 44.71000
O  7.87900 5.03500 44.53900
O  5.78500 4.43800 45.41200
C  5.60500 5.87000 45.83000
H  0.26700 2.93200 42.18900
H  -0.51800 -2.77200 44.98900
H  5.72300 -3.01300 46.36200
H  4.86200 4.59500 42.75400
H  2.47600 4.12000 41.25400
H  1.58600 5.17600 43.80400
H  2.13900 6.07800 42.40200
H  3.30500 5.77100 43.65700
H  4.28800 3.39800 40.08500
H  5.34200 2.40200 40.95000
H  7.07600 3.83200 40.76800
H  6.10600 5.29200 40.77800
H  -3.24500 1.32700 42.70300
H  -1.90500 1.72900 41.52100
H  -2.10900 2.61800 43.00700
H  -2.17400 -2.09000 46.24100
H  -2.75500 -2.96700 44.83400
H  -4.01300 -2.23900 45.80700
H  1.65000 -4.65200 44.93600
H  3.47400 -4.10300 47.21300
H  0.16700 -3.79000 47.43300
H  1.43400 -5.07500 47.68000
H  0.07700 -5.23800 46.50200
H  4.76900 -4.65600 44.74200
H  3.37800 -5.75900 44.82000
H  4.30900 -6.33500 47.17400
H  5.73100 -5.34200 46.88700
H  5.41700 -6.82000 45.85300
H  7.92400 -1.71100 47.54800
H  8.85700 -0.60900 46.57800
H  8.37300 -2.25800 46.00700
H  7.42000 3.03700 43.08900
H  6.52900 6.44800 45.84700
H  5.14200 5.92700 46.81500
H  5.00000 6.32400 45.04500
Mg 16.59000 -2.53900 28.18500
C  16.04800 -0.39700 30.78600
C  18.52400 -4.54000 30.26800
C  17.55000 -4.45700 25.44000
C  15.13500 -0.23000 25.98900
N  17.31300 -2.36100 30.30400
C  16.74000 -1.54500 31.22800
C  17.21700 -1.98200 32.67400
C  17.91900 -3.36000 32.45300
C  17.92400 -3.44700 30.92900
C  19.41000 -3.41400 32.91700
C  15.99300 -2.14800 33.65600
C  15.91200 -1.29300 34.93200
H  17.31900 -0.84500 35.51000
N  17.81200 -4.38200 27.94400
C  18.45200 -4.95900 28.94300
C  19.30400 -5.99500 28.38600
C  18.88500 -6.21800 27.01500
C  18.04700 -5.00600 26.74500
C  20.21900 -6.87100 29.12800
C  19.19400 -7.35400 26.02500
O  18.78300 -7.38900 24.89400
C  20.06300 -8.43200 26.37100
N  16.53700 -2.33300 25.95200
C  16.91800 -3.28300 25.06500
C  16.93000 -2.72200 23.64900
C  15.72200 -1.63800 23.84000
C  15.80500 -1.32600 25.33600
C  18.26200 -2.26500 23.05800
C  14.31800 -2.19700 23.52900
C  13.89600 -2.41800 22.03900
N  15.68700 -0.75500 28.28900
C  15.11800 0.07100 27.36300
C  14.56300 1.26300 27.95700
C  14.90000 1.16800 29.34500
C  15.53100 -0.06800 29.48200
C  13.66300 2.18500 27.25800
C  14.78500 1.76100 30.64000
O  14.35000 2.85600 30.97900
C  15.44200 0.69500 31.66600
C  16.34200 1.66100 32.44200
O  17.48800 1.93500 32.13500
O  15.68700 2.11700 33.55300
C  16.42000 3.12400 34.34700
H  19.00800 -5.25600 30.93500
H  17.75600 -5.07000 24.55900
H  14.60000 0.42600 25.30000
H  17.96800 -1.25100 32.97300
H  17.36800 -4.21600 32.84400
H  19.64600 -2.72400 33.72700
H  20.15000 -3.26600 32.13100
H  19.64700 -4.37300 33.37800
H  16.03200 -3.17100 34.03000
H  15.07500 -1.97600 33.09500
H  15.42700 -1.81900 35.75500
H  15.26900 -0.45400 34.66700
H  19.87200 -7.89200 28.96900
H  20.13200 -6.69800 30.20100
H  21.20300 -6.75800 28.67400
H  20.99400 -7.99300 26.73100
H  20.25500 -9.03800 25.48600
H  19.40000 -8.95500 27.06000
H  16.56200 -3.55800 23.05300
H  15.92400 -0.74000 23.25700
H  18.19800 -1.30000 22.55500
H  18.51800 -2.94800 22.24800
H  19.06000 -2.29600 23.79900
H  13.48200 -1.72100 24.04100
H  14.36600 -3.17800 24.00300
H  13.51400 -1.54800 21.50300
H  13.07200 -3.13000 22.00000
H  14.72000 -2.83300 21.45900
H  13.30900 1.86100 26.27900
H  14.33000 3.04300 27.16900
H  12.86800 2.41700 27.96700
H  14.53700 0.48500 32.23500
H  17.47800 2.88800 34.46600
H  15.82400 3.07600 35.25800
H  16.38300 4.13300 33.93500

