158

Mg 17.49400 -1.04000 27.59600
C  16.41700 0.62900 30.54900
C  19.10700 -3.23600 29.55100
C  18.95400 -2.27500 24.76600
C  16.08000 1.45700 25.68200
N  17.65800 -1.17400 29.80400
C  17.16400 -0.51200 30.80800
C  17.56300 -0.98100 32.21100
C  18.34500 -2.26000 31.80600
C  18.34600 -2.26500 30.27200
C  19.70800 -2.46500 32.47800
C  16.36500 -1.37100 33.17700
C  16.43100 -0.70500 34.56800
H  17.82800 -0.32300 35.08000
N  18.77200 -2.60800 27.24800
C  19.34400 -3.35500 28.17700
C  20.11800 -4.42800 27.46000
C  20.01300 -4.19700 26.06800
C  19.16400 -2.97400 25.95600
C  20.84000 -5.57500 28.22900
C  20.60900 -4.97000 24.89000
O  20.18600 -4.92200 23.74800
C  21.73200 -5.87000 25.13200
N  17.41700 -0.50200 25.54000
C  18.14500 -1.10300 24.59600
C  17.99100 -0.51900 23.20300
C  16.90600 0.54700 23.52500
C  16.79200 0.51100 24.99700
C  19.28700 0.12900 22.69300
C  15.56500 0.41800 22.72900
C  14.41600 -0.19400 23.61200
N  16.33600 0.62100 27.95900
C  15.81800 1.56300 27.02900
C  14.96100 2.53300 27.86000
C  15.23800 2.15900 29.21400
C  16.11500 1.09700 29.25200
C  13.98800 3.62900 27.40000
C  14.84800 2.47800 30.57400
O  13.95300 3.26000 31.00400
C  15.64200 1.48300 31.42700
C  16.48900 2.34300 32.25100
O  17.69500 2.43200 32.15900
O  15.82600 2.85700 33.38700
C  16.65600 3.63800 34.32900
H  19.52500 -3.94600 30.26600
H  19.49700 -2.63700 23.89100
H  15.64200 2.22100 25.03700
H  18.16800 -0.10000 32.42600
H  17.85400 -3.19100 32.09000
H  19.83200 -3.13900 33.32500
H  19.82600 -1.47500 32.92000
H  20.53100 -2.58300 31.77300
H  16.33800 -2.44100 33.38200
H  15.41900 -1.21800 32.65700
H  16.03800 -1.49600 35.20700
H  15.86600 0.22400 34.50000
H  21.90900 -5.58000 28.01500
H  20.34000 -6.50300 27.95200
H  20.70300 -5.54200 29.30900
H  22.48400 -5.20000 25.54900
H  22.13800 -6.38600 24.26300
H  21.36700 -6.60600 25.84900
H  17.70800 -1.34100 22.54600
H  17.35100 1.52500 23.34600
H  19.04600 0.94600 22.01300
H  19.86900 -0.62900 22.16800
H  19.81900 0.60700 23.51500
H  15.74300 -0.28100 21.91200
H  15.29400 1.33100 22.19900
H  14.81300 -0.88500 24.35500
H  13.80800 -0.81100 22.95100
H  13.87400 0.66200 24.01400
H  13.57800 3.28800 26.44900
H  14.65100 4.43700 27.09100
H  13.33700 3.77800 28.26100
H  14.95200 1.01000 32.12500
H  17.43600 4.12100 33.74000
H  17.02600 3.05700 35.17400
H  16.14700 4.45200 34.84500
Mg 8.56400 48.87900 25.00200
C  6.53900 49.40300 27.90100
C  11.10800 50.37500 26.86600
C  10.51300 48.37900 22.43600
C  5.71200 48.40200 23.14900
N  8.77100 49.83800 27.15700
C  7.88600 49.72300 28.21600
C  8.50900 50.16300 29.59600
C  9.82200 50.84300 29.07000
C  9.90500 50.38100 27.57900
C  9.88200 52.36100 29.16800
C  8.80600 49.09800 30.67800
C  8.33300 49.54700 32.04600
H  8.14300 48.50200 33.07300
N  10.56500 49.27200 24.69700
C  11.44800 49.79500 25.59700
C  12.79100 49.55800 25.04700
C  12.64200 48.80100 23.80300
C  11.23200 48.80200 23.59000
C  13.98100 50.02700 25.75400
C  13.59400 48.08100 22.79300
O  13.26900 47.41500 21.85700
C  15.10200 48.22800 22.96900
N  8.22900 48.45600 23.08800
C  9.17900 48.28200 22.16700
C  8.61800 47.92000 20.76500
C  7.03300 47.97600 21.00900
C  7.00100 48.18000 22.52900
C  9.06700 48.97300 19.72200
C  6.31400 46.60200 20.63200
C  5.46200 46.59600 19.38000
N  6.54100 48.88400 25.38400
C  5.49900 48.64100 24.56800
C  4.25600 48.77200 25.28600
C  4.61100 49.02100 26.61500
C  6.00800 49.13400 26.66500
C  2.88700 48.72900 24.63600
C  4.11800 49.25800 27.94400
O  2.92600 49.22900 28.35700
C  5.37600 49.48900 28.85400
C  5.36500 48.50600 29.88300
O  5.82900 47.32600 29.71300
O  4.55200 48.90500 30.94100
C  4.27100 47.84500 32.01800
H  11.86300 50.76600 27.55100
H  11.14800 48.13600 21.58200
H  4.80900 48.38500 22.53500
H  8.00500 51.06200 29.95000
H  10.75700 50.52400 29.53100
H  9.13000 52.82900 29.80300
H  9.57900 52.61300 28.15100
H  10.90800 52.65600 29.38500
H  9.88000 48.94800 30.78900
H  8.46200 48.08700 30.45900
H  7.42800 50.07700 31.74800
H  9.08900 50.17800 32.51300
H  14.65100 50.66500 25.17800
H  14.59500 49.21500 26.14600
H  13.70700 50.61100 26.63300
H  15.30200 49.29800 23.02400
H  15.58800 47.72100 22.13600
H  15.31700 47.83500 23.96200
H  8.90800 46.92600 20.42500
H  6.54000 48.83700 20.55700
H  9.88900 49.53900 20.15900
H  8.22800 49.54600 19.32700
H  9.38400 48.34400 18.89000
H  5.62500 46.25600 21.40200
H  7.12900 45.89100 20.76300
H  5.47900 47.59200 18.93700
H  4.43500 46.37600 19.67100
H  5.79800 45.79200 18.72500
H  2.10300 49.21500 25.21700
H  2.60600 47.67700 24.58500
H  2.81200 49.06700 23.60200
H  5.20100 50.49200 29.24400
H  3.64600 48.27700 32.79900
H  5.19800 47.54000 32.50300
H  3.66400 47.07100 31.55000

