158

Mg -3.03400 34.16500 27.36700
C  -4.31600 32.22100 29.93400
C  -1.37700 36.12100 29.69200
C  -1.87000 35.92400 24.78300
C  -4.80700 32.12700 25.06900
N  -3.07500 34.27300 29.54500
C  -3.67700 33.35500 30.40500
C  -3.34900 33.77800 31.88300
C  -2.52900 35.14600 31.73100
C  -2.28900 35.17300 30.25600
C  -3.35800 36.39800 32.18200
C  -2.48100 32.70900 32.63500
C  -2.91500 32.26900 34.08000
H  -2.00000 32.52100 35.31000
N  -1.79700 35.72800 27.21800
C  -1.09900 36.33300 28.34300
C  -0.23900 37.37200 27.83600
C  -0.40200 37.36700 26.42700
C  -1.33000 36.28100 26.05500
C  0.55600 38.19700 28.77600
C  0.22000 38.28200 25.37400
O  -0.07700 38.26300 24.22600
C  1.20100 39.18300 25.79700
N  -3.37200 34.13700 25.22700
C  -2.83600 35.09100 24.41000
C  -3.22100 34.83500 22.95600
C  -4.09900 33.52600 23.00600
C  -4.07500 33.22500 24.53200
C  -3.86700 36.06600 22.28000
C  -3.60400 32.31600 22.11000
C  -2.23900 31.71000 22.56000
N  -4.33300 32.50900 27.39400
C  -4.88100 31.74800 26.39800
C  -5.41100 30.56500 26.99700
C  -5.37500 30.76000 28.36600
C  -4.63100 31.94500 28.60900
C  -6.09600 29.43900 26.36900
C  -5.69900 30.20900 29.64000
O  -6.27600 29.17300 29.89000
C  -5.09400 31.19000 30.73700
C  -6.18300 31.77400 31.55000
O  -7.05300 32.49700 31.11100
O  -6.10800 31.45900 32.85400
C  -6.93800 32.09400 33.89300
H  -0.95000 36.81200 30.42200
H  -1.50800 36.51100 23.93600
H  -5.31500 31.45300 24.37600
H  -4.32200 34.02700 32.30500
H  -1.53100 35.11000 32.16700
H  -4.42200 36.23500 32.35700
H  -3.24900 37.25000 31.51100
H  -3.04600 36.67100 33.19000
H  -1.41700 32.90400 32.76400
H  -2.46200 31.82200 32.00200
H  -3.11900 31.20200 33.98500
H  -3.91600 32.69400 34.14700
H  0.68300 37.75600 29.76400
H  0.13600 39.18000 28.99100
H  1.50400 38.23500 28.24000
H  0.77100 39.95200 26.43900
H  1.55400 39.70600 24.90800
H  2.15200 38.71900 26.06000
H  -2.30400 34.81500 22.36800
H  -5.14000 33.77500 22.79900
H  -3.18100 36.48200 21.54100
H  -4.08100 36.88100 22.97100
H  -4.80100 35.83000 21.77000
H  -3.51400 32.72400 21.10400
H  -4.36100 31.53500 22.03800
H  -1.57600 31.93400 21.72400
H  -2.34900 30.64700 22.77500
H  -1.87800 32.25100 23.43400
H  -5.58800 28.98700 25.51800
H  -7.10900 29.76800 26.13300
H  -6.11500 28.67600 27.14700
H  -4.35700 30.62300 31.30500
H  -6.40600 32.27600 34.82700
H  -7.75900 31.41900 34.13500
H  -7.32800 33.03800 33.51400
Mg -5.95400 24.68400 26.18300
C  -4.39300 26.10500 28.96000
C  -7.58200 22.52200 28.12500
C  -7.40100 23.50700 23.42900
C  -4.06600 26.83700 24.10200
N  -5.80600 24.24800 28.21500
C  -5.31800 25.05900 29.23100
C  -5.80700 24.67300 30.62800
C  -6.55800 23.32700 30.31900
C  -6.61700 23.29200 28.76500
C  -5.89400 22.01000 30.93300
C  -6.68000 25.81600 31.42200
C  -6.51700 25.89900 32.95400
H  -5.90900 24.63100 33.56300
N  -7.45100 23.30800 25.82600
C  -7.91600 22.47600 26.80000
C  -8.84400 21.57600 26.24200
C  -8.89300 21.93500 24.82000
C  -7.87700 22.91100 24.62500
C  -9.52400 20.43100 27.00600
C  -9.77500 21.35700 23.72900
O  -9.66100 21.72300 22.57900
C  -10.79200 20.32300 24.02000
N  -5.71300 24.99400 24.06200
C  -6.41300 24.36800 23.12900
C  -5.99900 24.64700 21.64500
C  -4.91600 25.73600 21.83200
C  -4.86800 25.89700 23.44300
C  -5.37000 23.44600 20.86700
C  -5.17200 27.07600 21.07600
C  -4.33500 27.22400 19.71100
N  -4.45700 26.13500 26.38900
C  -3.82500 26.96700 25.51400
C  -3.00400 27.97800 26.27400
C  -3.19300 27.63900 27.64700
C  -4.06000 26.53900 27.64900
C  -2.33300 29.31200 25.78800
C  -2.88700 28.00900 29.05900
O  -2.30500 28.96800 29.52600
C  -3.63700 27.02000 29.93200
C  -2.65700 26.27100 30.75000
O  -1.87500 25.39200 30.32900
O  -2.70600 26.65300 32.15100
C  -1.76300 25.93700 33.01700
H  -8.08400 21.87300 28.84500
H  -7.90400 23.17700 22.51700
H  -3.41500 27.43900 23.46500
H  -4.88900 24.46000 31.17700
H  -7.56200 23.36400 30.74000
H  -5.24900 21.51400 30.20700
H  -6.67300 21.34200 31.30000
H  -5.14800 22.27700 31.68200
H  -7.71900 25.52000 31.27900
H  -6.48000 26.77700 30.94800
H  -7.46000 26.12500 33.45300
H  -5.77700 26.68200 33.11700
H  -10.59300 20.62400 26.91400
H  -9.26800 20.30100 28.05800
H  -9.35200 19.56800 26.36300
H  -10.31600 19.47500 24.51200
H  -11.18200 19.95500 23.07100
H  -11.70400 20.66700 24.50900
H  -6.83500 24.99500 21.03700
H  -3.98600 25.36200 21.40400
H  -5.56100 22.51000 21.39000
H  -4.28800 23.43900 20.73600
H  -5.80800 23.47100 19.86900
H  -4.80900 27.77000 21.83400
H  -6.21000 27.30600 20.83300
H  -5.05600 27.55700 18.96500
H  -3.87600 26.26100 19.48600
H  -3.43600 27.83500 19.79300
H  -1.42700 29.19600 25.19400
H  -1.90000 29.89100 26.60400
H  -3.05400 29.92100 25.24200
H  -4.21600 27.65900 30.59800
H  -0.81700 25.75800 32.50600
H  -2.26500 25.02300 33.33600
H  -1.55200 26.57000 33.88000

