158

Mg 6.54600 54.89000 41.29000
C  5.87900 51.40900 41.31600
C  9.52300 54.29800 39.95900
C  6.72000 58.23800 40.39100
C  2.98900 55.30900 41.66800
N  7.50900 53.05900 40.70600
C  7.19800 51.71400 40.90500
C  8.37700 50.76100 40.48900
C  9.57100 51.75600 40.36400
C  8.84000 53.13500 40.33100
C  10.57100 51.76100 41.53800
C  8.11100 50.00300 39.15100
C  7.68100 50.85200 37.91600
H  6.44700 50.57700 37.01900
N  8.01600 56.06400 40.35700
C  9.26000 55.60700 39.95300
C  10.04900 56.75100 39.57700
C  9.18300 57.88600 39.64100
C  7.93300 57.46500 40.15700
C  11.50800 56.60400 39.09900
C  9.63400 59.32300 39.35100
O  10.78400 59.47500 38.93500
C  8.73600 60.50300 39.44600
N  5.08100 56.54300 40.98600
C  5.47200 57.81300 40.86200
C  4.28900 58.79900 40.90200
C  3.09000 57.78000 40.78400
C  3.74100 56.43600 41.21000
C  4.28300 59.81200 42.13900
C  2.46800 57.82000 39.34200
C  1.20400 58.71700 39.31700
N  4.84500 53.73900 41.73600
C  3.52800 54.01500 42.00800
C  2.90700 52.82600 42.54600
C  3.76500 51.72500 42.23600
C  4.87900 52.37900 41.67900
C  1.54300 52.76200 43.19700
C  3.96800 50.27200 42.34900
O  3.19000 49.35900 42.72400
C  5.33400 50.02700 41.54800
C  4.91000 49.41700 40.28600
O  4.32600 50.00300 39.37600
O  5.28900 48.09400 40.23800
C  5.02300 47.37500 38.97300
H  10.50400 54.12900 39.50900
H  6.72800 59.29200 40.10500
H  1.93300 55.51400 41.85500
H  8.46000 50.04200 41.30400
H  10.14700 51.52800 39.46700
H  10.72400 50.73800 41.88300
H  10.29200 52.43600 42.34700
H  11.55100 51.99000 41.12100
H  7.32100 49.25600 39.21800
H  9.00100 49.42200 38.91100
H  8.59800 50.76000 37.33500
H  7.69700 51.88300 38.27100
H  11.62000 56.57300 38.01500
H  11.89500 55.67000 39.50700
H  12.20100 57.33700 39.51200
H  9.35100 61.36600 39.19300
H  8.26600 60.67400 40.41400
H  7.97400 60.34400 38.68300
H  4.42200 59.45100 40.03900
H  2.24900 58.07000 41.41400
H  3.44600 59.53000 42.77800
H  4.11700 60.85000 41.84900
H  5.16700 59.77100 42.77500
H  2.23500 56.81300 38.99700
H  3.13700 58.14000 38.54200
H  0.31300 58.11100 39.15500
H  1.28000 59.43500 38.50200
H  1.18000 59.41500 40.15400
H  1.83000 52.56300 44.22900
H  0.96200 51.94700 42.76400
H  1.13200 53.77100 43.15800
H  6.05500 49.43300 42.11100
H  4.47100 47.86900 38.17300
H  4.38700 46.53900 39.26200
H  5.97100 46.96200 38.62800
Mg -11.31200 38.89500 42.04700
C  -9.78500 36.04600 40.56800
C  -8.92200 40.75700 40.42200
C  -13.18700 41.68100 42.62200
C  -13.94300 36.88200 42.91600
N  -9.69300 38.42900 40.40400
C  -9.12100 37.20400 40.16800
C  -7.80500 37.36300 39.44200
C  -7.50700 38.86900 39.46200
C  -8.79000 39.42000 40.06700
C  -6.21800 39.19800 40.29500
C  -7.91700 36.85000 37.95500
C  -6.73600 36.05800 37.35600
H  -6.07900 36.70500 36.17300
N  -11.10500 40.89700 41.56600
C  -10.01900 41.48500 40.95500
C  -10.28100 42.91400 40.80100
C  -11.42600 43.22300 41.53000
C  -12.02400 41.93600 41.83800
C  -9.27000 43.78700 40.09900
C  -11.90000 44.62400 41.74800
O  -11.18900 45.58100 41.44200
C  -13.17200 44.96300 42.53300
N  -13.24800 39.22400 42.62100
C  -13.71800 40.42100 42.97700
C  -15.11200 40.39200 43.68300
C  -15.38400 38.80600 43.69000
C  -14.11200 38.24800 43.09600
C  -15.22200 41.06700 45.08100
C  -16.57900 38.34000 42.74900
C  -17.83800 38.02300 43.55200
N  -11.73600 36.87100 42.03800
C  -12.90400 36.15200 42.33700
C  -12.76300 34.77100 42.10600
C  -11.55200 34.69000 41.42000
C  -10.96100 35.94500 41.36300
C  -13.79900 33.74500 42.35700
C  -10.67400 33.78500 40.70900
O  -10.78400 32.57100 40.55900
C  -9.41000 34.59100 40.25600
C  -8.27400 34.15700 41.09700
O  -8.17300 34.02500 42.29300
O  -7.15100 33.98800 40.33000
C  -5.81800 33.93500 40.88700
H  -8.12600 41.46700 40.18700
H  -13.76100 42.52800 43.00300
H  -14.64500 36.15800 43.33500
H  -7.06500 36.78200 39.99100
H  -7.53300 39.33200 38.47600
H  -5.65500 39.87500 39.65200
H  -5.68900 38.27400 40.53100
H  -6.44400 39.75300 41.20500
H  -8.04600 37.74600 37.34900
H  -8.83600 36.29800 37.76100
H  -7.11300 35.07900 37.05900
H  -6.03600 35.96700 38.18700
H  -8.56000 44.21200 40.80900
H  -9.78400 44.63200 39.64100
H  -8.73200 43.26400 39.30800
H  -12.98200 44.55200 43.52500
H  -13.99600 44.52400 41.97200
H  -13.33100 46.03900 42.60300
H  -15.77800 40.95600 43.03100
H  -15.33200 38.42800 44.71100
H  -16.12300 41.68000 45.10900
H  -14.32800 41.68700 45.15500
H  -15.34300 40.29100 45.83700
H  -16.30400 37.45500 42.17500
H  -16.75900 39.19400 42.09700
H  -18.64400 38.42300 42.93800
H  -17.77700 38.54300 44.50800
H  -18.04200 36.96900 43.74600
H  -14.79800 34.17200 42.27300
H  -13.64200 33.37800 43.37100
H  -13.65100 32.88300 41.70700
H  -9.17500 34.30600 39.23000
H  -5.22000 34.65300 40.32700
H  -5.38400 32.95100 40.70900
H  -5.67200 34.17600 41.94000

