158

Mg 35.81000 1.35500 30.04000
C  33.74800 2.07100 32.66200
C  38.44800 1.48100 32.33000
C  38.03200 0.84100 27.49900
C  33.22100 1.63800 27.76000
N  36.08700 1.73900 32.26300
C  35.01800 1.90500 33.16100
C  35.49200 1.92500 34.61800
C  37.05400 2.07600 34.46700
C  37.22700 1.73300 32.87700
C  37.66800 3.48700 34.82600
C  35.15800 0.53400 35.31500
C  34.87600 0.63100 36.90700
H  35.21700 1.97600 37.75500
N  37.95400 1.13400 29.91500
C  38.84300 1.15300 30.96900
C  40.16600 0.84000 30.51000
C  40.11700 0.66700 29.08000
C  38.68300 0.80400 28.75500
C  41.37200 0.66600 31.36800
C  41.16200 0.48900 28.03700
O  40.96200 0.26300 26.85600
C  42.60400 0.68200 28.44100
N  35.64300 1.06800 27.97000
C  36.64200 1.02400 27.10400
C  36.16500 0.93400 25.64200
C  34.61300 1.16800 25.76600
C  34.43500 1.23900 27.32500
C  36.80100 1.94000 24.59800
C  33.65800 0.07300 25.14800
C  33.52000 -1.28300 25.93300
N  33.87900 1.77200 30.13800
C  32.91800 1.86600 29.15700
C  31.63000 2.18600 29.75400
C  31.87900 2.21100 31.20300
C  33.23800 1.93800 31.33700
C  30.30500 2.36700 28.98800
C  31.30700 2.31500 32.53500
O  30.12900 2.44300 32.87100
C  32.51200 2.19700 33.57400
C  32.32700 3.31200 34.51200
O  32.76300 4.51000 34.29200
O  31.73000 2.88100 35.69200
C  31.31300 3.96700 36.60600
H  39.31900 1.52000 32.98700
H  38.69400 0.76100 26.63400
H  32.49500 1.77800 26.95700
H  35.05000 2.78000 35.12900
H  37.54200 1.35600 35.12400
H  36.87700 4.23700 34.80500
H  38.41600 3.78400 34.09100
H  38.05800 3.39400 35.83900
H  35.82800 -0.25600 34.97800
H  34.19700 0.41000 34.81500
H  35.28700 -0.26300 37.37700
H  33.80200 0.44900 36.95800
H  41.12200 0.81600 32.41800
H  42.20900 1.26800 31.01400
H  41.66200 -0.38000 31.26400
H  42.76600 -0.01700 29.26200
H  42.64900 1.73200 28.73000
H  43.37700 0.52200 27.69000
H  36.33700 -0.12800 25.46800
H  34.42500 2.15300 25.33800
H  37.44000 1.44300 23.86800
H  37.28000 2.80500 25.05700
H  36.03600 2.44800 24.01100
H  34.08800 -0.15200 24.17200
H  32.64300 0.43300 24.97900
H  34.05600 -2.01600 25.33000
H  32.49200 -1.53400 26.19200
H  34.00300 -1.23100 26.90900
H  30.52300 2.33700 27.92000
H  29.83900 3.29400 29.32200
H  29.66200 1.56200 29.34400
H  32.30200 1.28500 34.13300
H  32.15100 4.54900 36.98800
H  30.66400 3.56800 37.38600
H  30.80400 4.77100 36.07400
Mg -9.14500 18.42800 42.79100
C  -5.59300 18.18600 42.94200
C  -8.77300 21.73500 42.30000
C  -12.46800 18.49200 42.05500
C  -9.26100 14.88800 42.72000
N  -7.28800 19.77800 42.55100
C  -5.95200 19.46500 42.65600
C  -5.05600 20.72400 42.67200
C  -6.08800 21.82100 42.64900
C  -7.45500 21.08800 42.39600
C  -5.95500 22.75000 43.90900
C  -4.08200 20.82100 41.47400
C  -4.67600 20.13600 40.26400
H  -4.03300 20.13700 38.82800
N  -10.46200 20.01200 42.33800
C  -10.14700 21.27400 42.16200
C  -11.33500 21.98500 41.83300
C  -12.43900 21.08600 41.74300
C  -11.82400 19.81900 42.13100
C  -11.26900 23.45300 41.52900
C  -13.82600 21.34600 41.35200
O  -14.16600 22.46400 41.01300
C  -14.92500 20.33700 41.38500
N  -10.59200 16.91200 42.17200
C  -11.91100 17.21500 42.11600
C  -12.83000 16.02000 42.26900
C  -11.71900 14.84200 42.31500
C  -10.40900 15.58700 42.32400
C  -13.86700 16.06300 43.42300
C  -11.60400 13.70600 41.20000
C  -12.84800 12.71600 41.10600
N  -7.73600 16.83400 42.89500
C  -7.95900 15.47400 42.92100
C  -6.66900 14.78100 43.17800
C  -5.73000 15.80800 43.27500
C  -6.46600 17.02300 43.07900
C  -6.41100 13.28300 43.03900
C  -4.31000 16.10000 43.41700
O  -3.34400 15.40400 43.67700
C  -4.16100 17.69500 43.30600
C  -3.85200 18.21600 44.68800
O  -4.52100 18.15900 45.70000
O  -2.51100 18.65000 44.77700
C  -2.08500 18.85800 46.17300
H  -8.68300 22.80900 42.12400
H  -13.53600 18.33700 41.88900
H  -9.37500 13.80400 42.66300
H  -4.46100 20.67900 43.58400
H  -5.92900 22.59000 41.89300
H  -5.42200 23.64300 43.58400
H  -5.58100 22.11100 44.70900
H  -6.97300 22.97400 44.22700
H  -3.13700 20.29900 41.62400
H  -3.88900 21.86000 41.20400
H  -5.73400 20.38900 40.19700
H  -4.61800 19.06500 40.45600
H  -11.90900 24.03800 42.19000
H  -11.58800 23.44800 40.48700
H  -10.27400 23.89200 41.45600
H  -15.09700 19.93800 42.38500
H  -14.74700 19.53400 40.67000
H  -15.82900 20.89900 41.14700
H  -13.37300 16.02200 41.32400
H  -11.84200 14.34000 43.27500
H  -14.34700 15.08500 43.40300
H  -14.61200 16.84600 43.28600
H  -13.28300 16.33700 44.30200
H  -10.77400 13.01600 41.35300
H  -11.49900 14.14800 40.20900
H  -12.75400 11.88700 41.80800
H  -12.92800 12.35000 40.08200
H  -13.74900 13.29700 41.30000
H  -5.72800 12.92200 43.80800
H  -6.07500 13.05200 42.02900
H  -7.40200 12.82900 43.04800
H  -3.31500 17.97400 42.67700
H  -2.59500 19.68400 46.66800
H  -1.02100 19.08600 46.24000
H  -2.13500 17.92200 46.73000

