158

Mg -2.38400 16.85800 26.56800
C  -2.86000 14.44200 29.09400
C  -3.12800 19.33700 28.99000
C  -2.28200 19.25200 24.06500
C  -2.42600 14.40300 24.22500
N  -3.00700 16.89200 28.81300
C  -2.92800 15.76000 29.62900
C  -3.05100 16.17600 31.12000
C  -3.35900 17.75200 30.98100
C  -3.15400 18.00400 29.51500
C  -4.72500 18.25000 31.45300
C  -1.80800 15.67600 31.97800
C  -1.11700 16.66600 32.97900
H  -0.74400 15.97500 34.38300
N  -2.66100 18.99100 26.51800
C  -2.88300 19.80300 27.62100
C  -2.97800 21.12900 27.16800
C  -2.68600 21.18000 25.74200
C  -2.44700 19.77100 25.38200
C  -3.27600 22.23400 28.11600
C  -2.55900 22.30900 24.76800
O  -2.36900 22.10100 23.55700
C  -2.71400 23.65800 25.30200
N  -2.38900 16.89200 24.51800
C  -2.27100 17.93700 23.62900
C  -2.49100 17.53600 22.14200
C  -2.29700 15.97000 22.24600
C  -2.38200 15.69600 23.79000
C  -3.86700 17.85900 21.42700
C  -0.88800 15.48700 21.75500
C  -0.88400 14.70400 20.47000
N  -2.57500 14.74900 26.65000
C  -2.57000 13.89700 25.56400
C  -2.52800 12.53100 26.08600
C  -2.63700 12.68500 27.51000
C  -2.72000 14.07000 27.75400
C  -2.47900 11.27800 25.22700
C  -2.76300 12.02200 28.70900
O  -2.68200 10.82800 28.98400
C  -2.93900 13.10600 29.83000
C  -1.83200 12.89800 30.72800
O  -0.72000 13.27400 30.63100
O  -2.38600 12.16100 31.79600
C  -1.38700 11.88300 32.85000
H  -3.25700 20.12100 29.73900
H  -2.23400 19.96200 23.23700
H  -2.33200 13.63100 23.45800
H  -3.88200 15.70000 31.64000
H  -2.56300 18.29400 31.49100
H  -5.62800 17.91800 30.94100
H  -4.76200 19.33900 31.47400
H  -4.81000 17.95600 32.49900
H  -1.05400 15.50000 31.21000
H  -2.11400 14.71000 32.38000
H  -1.92400 17.36600 33.19700
H  -0.21600 17.20500 32.68700
H  -2.34500 22.78300 28.25400
H  -3.70200 22.02400 29.09800
H  -4.09800 22.80000 27.67800
H  -3.79000 23.74700 25.44700
H  -2.30900 24.28300 24.50600
H  -2.13700 23.66600 26.22600
H  -1.68500 18.08600 21.65600
H  -3.09100 15.40900 21.75300
H  -4.45800 16.94500 21.36600
H  -3.75000 18.09100 20.36800
H  -4.42400 18.65000 21.92900
H  -0.44100 14.90000 22.55700
H  -0.29400 16.37900 21.55200
H  -0.13100 15.11700 19.79800
H  -1.85600 14.64000 19.98200
H  -0.42800 13.75100 20.73800
H  -2.28900 11.60100 24.20300
H  -3.47600 10.84800 25.12400
H  -1.89600 10.46500 25.65900
H  -3.89400 13.11100 30.35400
H  -0.85300 10.98200 32.54800
H  -1.93500 11.70600 33.77600
H  -0.76700 12.71100 33.19200
Mg 36.57100 49.02800 24.27100
C  36.75300 47.27200 27.45900
C  35.41600 51.77500 26.01200
C  35.93200 50.43400 21.29900
C  37.55900 46.09700 22.69700
N  35.97100 49.35400 26.44900
C  36.36300 48.60500 27.58900
C  36.17700 49.39600 28.86200
C  35.44100 50.76400 28.35300
C  35.67300 50.65900 26.80300
C  33.93000 50.80500 28.64700
C  37.45000 49.58500 29.74900
C  37.32300 49.00700 31.12700
H  35.89300 48.92500 31.79500
N  35.87300 50.83200 23.76200
C  35.48200 51.87000 24.62200
C  35.08600 53.04000 23.84700
C  35.15800 52.62900 22.43100
C  35.71400 51.25300 22.43000
C  34.73200 54.41400 24.46400
C  34.90500 53.49800 21.20200
O  34.98300 53.05400 20.08600
C  34.34000 54.96800 21.29500
N  36.54400 48.29500 22.25500
C  36.34400 49.10400 21.14200
C  36.72900 48.42000 19.83100
C  37.35400 47.10300 20.33200
C  37.25000 47.18100 21.87100
C  35.54600 48.25200 18.90300
C  38.74000 46.82600 19.82300
C  40.03200 47.31700 20.62600
N  37.01600 47.09800 24.87300
C  37.36900 45.99800 24.09800
C  37.65000 44.84500 24.95800
C  37.48000 45.31200 26.26200
C  36.97100 46.68600 26.17900
C  38.16400 43.49900 24.60900
C  37.57900 44.95800 27.65700
O  37.94600 43.94200 28.23600
C  37.04900 46.28000 28.47000
C  35.84600 45.77600 29.16600
O  34.66300 45.88900 28.90200
O  36.29900 45.10900 30.34700
C  35.19100 44.77000 31.28500
H  35.09300 52.59500 26.65700
H  35.71700 50.91500 20.34200
H  38.08800 45.25300 22.25100
H  35.44800 48.85900 29.46900
H  35.93800 51.69600 28.62200
H  33.65300 50.16500 29.48400
H  33.36300 50.66800 27.72600
H  33.70000 51.83500 28.91600
H  37.76400 50.61500 29.91300
H  38.20800 49.12800 29.11100
H  37.88300 49.65600 31.80000
H  37.81400 48.03500 31.16700
H  35.24400 54.49000 25.42300
H  33.65200 54.56600 24.46300
H  35.27400 55.22400 23.97600
H  33.99800 55.19900 20.28600
H  35.11700 55.59500 21.73300
H  33.45800 54.87800 21.92900
H  37.43200 49.06700 19.30600
H  36.74900 46.28500 19.94000
H  35.62100 47.29100 18.39400
H  35.59400 49.11600 18.23900
H  34.58100 48.31100 19.40500
H  38.85200 47.31900 18.85700
H  38.85300 45.78100 19.53500
H  40.60600 47.94800 19.94700
H  40.56200 46.41600 20.93600
H  39.95800 48.00500 21.46900
H  37.40000 42.75200 24.39200
H  38.79800 43.11900 25.40900
H  38.76400 43.65500 23.71300
H  37.73500 46.54000 29.27600
H  34.79100 43.77600 31.08900
H  34.39000 45.50800 31.30400
H  35.61500 44.89200 32.28300

