158

Mg -11.29200 16.89100 41.62100
C  -8.23200 15.32900 40.71900
C  -10.22000 19.64000 39.92900
C  -14.44900 18.10600 41.67600
C  -12.50100 13.74100 42.61900
N  -9.51600 17.35500 40.21800
C  -8.38300 16.55000 40.10200
C  -7.26100 17.26600 39.36900
C  -7.79500 18.76300 39.28300
C  -9.24600 18.63200 39.81700
C  -6.86300 19.80400 39.92900
C  -7.00500 16.48100 38.00000
C  -5.51400 16.27600 37.67900
H  -4.86600 17.10700 36.39600
N  -12.28300 18.62900 40.95000
C  -11.61300 19.65600 40.28700
C  -12.54300 20.78200 40.03500
C  -13.74400 20.35300 40.60100
C  -13.54500 18.96000 41.03600
C  -12.18700 22.08300 39.29600
C  -15.02300 21.23500 40.82300
O  -15.20000 22.31600 40.32000
C  -16.10600 20.72600 41.76700
N  -13.32700 15.99200 41.96000
C  -14.36200 16.82200 42.17300
C  -15.54900 15.92500 42.58200
C  -14.92400 14.54400 43.11600
C  -13.49300 14.74100 42.49500
C  -16.61600 16.47100 43.58000
C  -15.67200 13.22400 42.81200
C  -16.18200 12.53800 44.02000
N  -10.55900 14.94900 41.78000
C  -11.12600 13.79400 42.24200
C  -10.06900 12.82200 42.38000
C  -8.94200 13.41300 41.81600
C  -9.24900 14.70000 41.45700
C  -10.32900 11.39500 43.00100
C  -7.59600 13.14500 41.46100
O  -7.05300 12.03400 41.46700
C  -7.05400 14.39800 40.69600
C  -5.98900 14.94700 41.48000
O  -5.99300 15.30300 42.63700
O  -4.92200 15.07400 40.59600
C  -3.73300 15.58000 41.29700
H  -9.86000 20.57400 39.49400
H  -15.49000 18.43100 41.62400
H  -12.89800 12.85300 43.11500
H  -6.35800 17.29100 39.97800
H  -7.96800 18.97300 38.22800
H  -6.22900 19.43600 40.73600
H  -7.55300 20.47300 40.44400
H  -6.29600 20.42100 39.23200
H  -7.45200 17.04000 37.17900
H  -7.48600 15.50300 37.97100
H  -5.34300 15.22300 37.45600
H  -4.99400 16.60900 38.57800
H  -12.56100 22.07800 38.27200
H  -11.10200 22.17800 39.26000
H  -12.54600 22.90800 39.91100
H  -16.60800 21.59200 42.19700
H  -15.64100 20.24800 42.63000
H  -16.76700 20.02900 41.25100
H  -16.02100 15.86400 41.60100
H  -14.69700 14.69000 44.17200
H  -16.29500 16.13400 44.56600
H  -17.57400 15.99700 43.36700
H  -16.62300 17.56100 43.56900
H  -15.02900 12.58600 42.20600
H  -16.62900 13.41900 42.32900
H  -17.24400 12.29500 44.00500
H  -16.06400 13.05100 44.97400
H  -15.73800 11.56400 44.22300
H  -11.03600 11.65100 43.79000
H  -9.36000 11.07700 43.38400
H  -10.83400 10.81900 42.22500
H  -6.62100 14.06100 39.75300
H  -2.87500 15.74000 40.64400
H  -3.36900 14.80000 41.96600
H  -3.81500 16.46200 41.93200
Mg -5.67100 25.31600 26.34300
C  -4.09900 27.11900 28.90300
C  -6.76400 23.18300 28.75300
C  -6.87500 23.43700 23.86500
C  -4.06000 27.25000 24.03000
N  -5.37800 25.13000 28.50100
C  -4.95300 26.12000 29.29500
C  -5.44500 25.91600 30.71600
C  -5.97600 24.48800 30.67500
C  -6.04400 24.29700 29.19700
C  -5.19100 23.35200 31.41100
C  -6.40400 27.04500 31.05700
C  -6.50400 27.47200 32.54300
H  -6.00900 26.50800 33.57900
N  -6.73100 23.59400 26.30900
C  -7.11600 22.83700 27.38700
C  -7.96500 21.76600 26.97300
C  -8.08900 21.80700 25.51800
C  -7.16900 22.97200 25.16900
C  -8.83300 20.89700 27.86700
C  -8.81000 20.89300 24.51200
O  -8.84900 21.18000 23.30800
C  -9.56800 19.76700 24.84000
N  -5.39200 25.30900 24.24300
C  -6.09800 24.48300 23.44200
C  -5.72800 24.71100 21.92200
C  -5.05000 26.12500 22.02300
C  -4.79200 26.22400 23.49400
C  -4.82100 23.65100 21.33200
C  -5.90300 27.30700 21.47700
C  -5.84500 27.56200 19.97600
N  -4.26600 26.77100 26.40400
C  -3.73800 27.55900 25.39500
C  -2.87100 28.52300 25.92500
C  -3.01200 28.37900 27.34400
C  -3.86400 27.32300 27.55600
C  -2.17200 29.65700 25.15600
C  -2.61200 28.96100 28.58100
O  -1.93300 29.96800 28.74500
C  -3.41600 28.18700 29.75200
C  -2.50200 27.51500 30.74600
O  -1.70900 26.69100 30.41400
O  -2.71200 27.97600 32.01200
C  -1.97300 27.48000 33.11500
H  -7.05100 22.45100 29.51100
H  -7.45100 22.95300 23.07400
H  -3.50000 27.85400 23.31400
H  -4.58800 25.98200 31.38700
H  -6.94900 24.39700 31.15700
H  -5.94500 22.94700 32.08700
H  -4.49900 23.76100 32.14800
H  -4.72200 22.60700 30.76900
H  -7.38300 26.69000 30.73500
H  -6.18900 27.94400 30.48000
H  -7.57500 27.58500 32.71100
H  -5.90600 28.35500 32.76700
H  -8.70400 21.21600 28.90100
H  -8.54100 19.84800 27.81700
H  -9.90000 21.04300 27.69800
H  -9.86600 19.17700 23.97300
H  -10.49000 20.02900 25.35900
H  -8.90800 19.12700 25.42400
H  -6.59700 24.86400 21.28200
H  -4.20600 26.13700 21.33400
H  -4.75500 22.73800 21.92400
H  -3.81100 23.92700 21.03100
H  -5.34800 23.29700 20.44500
H  -5.57100 28.23000 21.95200
H  -6.98100 27.21600 21.61600
H  -5.24300 26.82800 19.44100
H  -5.45300 28.55900 19.77500
H  -6.81000 27.33000 19.52600
H  -1.43000 30.22100 25.72100
H  -2.84200 30.32400 24.61400
H  -1.62100 29.26900 24.29900
H  -4.13700 28.82300 30.26700
H  -1.18000 26.80000 32.80400
H  -2.68600 27.04000 33.81200
H  -1.46000 28.33500 33.55700

