158

Mg 47.88500 15.87200 28.76400
C  45.95300 15.31300 31.73400
C  50.15400 17.52000 30.47000
C  49.62500 15.98700 25.95000
C  45.28800 14.10700 27.00300
N  48.00100 16.37400 30.83000
C  47.13900 16.12900 31.89300
C  47.67500 16.70300 33.22700
C  48.90300 17.57700 32.75500
C  49.02300 17.17400 31.22700
C  48.74100 19.06400 32.92500
C  47.90300 15.76500 34.41000
C  47.49300 16.18100 35.81300
H  47.55000 17.68100 36.15100
N  49.63200 16.53700 28.30100
C  50.50100 17.12300 29.14800
C  51.78000 17.40500 28.53400
C  51.67000 16.92600 27.20600
C  50.27800 16.43600 27.09500
C  53.02400 17.91700 29.32200
C  52.80100 16.83400 26.07600
O  52.47800 16.33100 25.02300
C  54.25600 17.34000 26.37700
N  47.47900 15.23900 26.73400
C  48.35800 15.51100 25.76000
C  47.89400 14.88200 24.41700
C  46.46100 14.38300 24.75000
C  46.38400 14.53900 26.26900
C  47.96200 15.87800 23.20300
C  46.19200 12.90000 24.25900
C  46.68400 11.71100 25.15500
N  46.01800 14.93200 29.18100
C  45.06400 14.39200 28.38500
C  43.90300 13.97500 29.21700
C  44.26800 14.32700 30.53300
C  45.54700 14.88600 30.47400
C  42.69600 13.32200 28.80100
C  43.77100 14.25000 31.91300
O  42.82900 13.84700 32.49100
C  44.88500 15.00200 32.74300
C  44.13600 16.06100 33.37300
O  43.65500 17.09600 32.82300
O  43.86000 15.67800 34.68100
C  42.93500 16.49800 35.50000
H  50.79600 18.27800 30.92300
H  50.26700 16.08700 25.07200
H  44.53000 13.59600 26.40500
H  46.83800 17.35100 33.48600
H  49.76200 17.33500 33.38000
H  49.33100 19.37700 33.78700
H  47.71000 19.28900 33.19700
H  49.04000 19.68500 32.08100
H  48.95600 15.48500 34.38000
H  47.41600 14.81800 34.17800
H  48.20400 15.73800 36.51000
H  46.47900 15.81800 35.97800
H  53.78700 17.15000 29.19200
H  52.79600 17.93200 30.38800
H  53.31000 18.92500 29.02200
H  54.24000 18.38000 26.70300
H  54.75700 17.25800 25.41200
H  54.67600 16.66400 27.12200
H  48.48500 13.98800 24.22000
H  45.68400 14.97100 24.26100
H  46.99800 16.07700 22.73300
H  48.57900 15.39500 22.44500
H  48.48300 16.78200 23.51700
H  46.73200 12.76200 23.32300
H  45.12100 12.70400 24.20900
H  47.06700 10.84400 24.61500
H  45.76400 11.39800 25.64900
H  47.36600 12.10400 25.90900
H  41.92200 13.54900 29.53300
H  42.77500 12.23700 28.73400
H  42.44800 13.64100 27.78900
H  45.24900 14.27400 33.46700
H  42.35800 15.89300 36.20100
H  42.10700 16.91400 34.92600
H  43.38100 17.35300 36.00900
Mg 16.66700 52.12100 26.39700
C  18.39400 50.64300 28.88300
C  14.26400 52.96700 28.69000
C  14.90500 53.39800 23.89200
C  19.07800 51.09900 24.09400
N  16.30700 51.62400 28.64600
C  17.29900 51.33500 29.43200
C  16.92500 51.34900 30.88600
C  15.37900 51.85400 30.82900
C  15.27800 52.18600 29.36300
C  14.27500 50.73800 31.33600
C  17.77100 52.22700 31.87900
C  17.86900 51.68200 33.27200
H  16.92100 52.33400 34.25400
N  14.96700 53.13000 26.38600
C  14.02600 53.29400 27.38600
C  12.83700 54.00300 26.85900
C  13.04900 54.28300 25.49300
C  14.33500 53.61600 25.19300
C  11.61000 54.28100 27.80700
C  12.21500 54.95600 24.41800
O  12.59700 55.18200 23.32200
C  10.90000 55.50400 24.81300
N  16.81700 51.94600 24.27900
C  15.96700 52.70100 23.53800
C  16.53100 52.78800 22.00500
C  17.97100 52.47900 22.25300
C  17.99300 51.88100 23.64700
C  15.68800 51.94000 21.03600
C  18.80400 53.79400 22.33600
C  19.83300 54.02100 21.22500
N  18.33900 50.97900 26.42100
C  19.25100 50.63000 25.42500
C  20.30200 49.92600 26.00700
C  19.99900 49.88300 27.34900
C  18.81000 50.59900 27.54700
C  21.56600 49.46800 25.31100
C  20.56800 49.46600 28.60300
O  21.62900 48.86100 28.85900
C  19.53400 50.01100 29.68000
C  19.25800 48.88300 30.61800
O  18.51100 47.93700 30.33700
O  19.78900 49.09100 31.80500
C  19.49900 48.26200 33.00000
H  13.54000 53.29800 29.43700
H  14.27600 53.84400 23.11900
H  19.87600 51.05800 23.35000
H  16.84500 50.31200 31.21300
H  15.30100 52.73700 31.46400
H  14.29300 50.32100 32.34300
H  14.51100 49.87800 30.70900
H  13.30700 51.09600 30.98700
H  17.24300 53.18000 31.90700
H  18.73500 52.44000 31.41800
H  18.91600 51.77000 33.56300
H  17.69200 50.60700 33.27000
H  11.34400 55.33500 27.73800
H  11.80200 54.05200 28.85600
H  10.67400 53.76000 27.60500
H  10.06100 54.80900 24.77500
H  10.58100 56.25400 24.08900
H  10.77000 55.93600 25.80600
H  16.45900 53.79900 21.60300
H  18.41600 51.89200 21.44900
H  14.95500 52.50100 20.45700
H  15.14500 51.17500 21.59300
H  16.34600 51.41000 20.34800
H  19.34900 53.80800 23.28000
H  18.19100 54.69500 22.33900
H  19.74200 55.00900 20.77300
H  19.74700 53.24500 20.46500
H  20.80500 54.00500 21.71700
H  21.63300 49.95600 24.33900
H  21.76200 48.40100 25.42300
H  22.42500 49.84000 25.86900
H  20.02100 50.79100 30.26500
H  19.90400 47.27500 32.77600
H  18.42900 48.11400 33.14600
H  20.12600 48.50600 33.85800

