158

Mg 25.92300 -0.15400 29.37800
C  27.69900 -0.15400 32.29700
C  23.05600 0.17300 31.19900
C  24.29300 -0.55000 26.44900
C  28.86400 -0.63700 27.56100
N  25.45600 0.15100 31.48500
C  26.37400 0.06700 32.53500
C  25.67500 0.25800 33.90500
C  24.15600 0.24000 33.57200
C  24.19300 0.20100 31.99200
C  23.37100 -0.92800 34.27600
C  26.24400 1.58600 34.54400
C  26.94700 1.50500 35.97700
H  26.69300 2.50900 37.12800
N  23.95200 -0.19200 28.92700
C  22.89900 -0.04500 29.77900
C  21.67300 -0.04000 29.00200
C  22.02000 -0.12300 27.60800
C  23.52100 -0.29800 27.63900
C  20.26500 0.07800 29.62900
C  21.04700 -0.16300 26.43600
O  21.41000 -0.37400 25.29000
C  19.59000 0.08100 26.69100
N  26.45900 -0.51800 27.20200
C  25.59200 -0.59000 26.21300
C  26.22200 -0.67700 24.78100
C  27.73300 -0.74300 25.18200
C  27.70300 -0.65700 26.74600
C  25.69200 -1.85900 23.89600
C  28.72900 0.26000 24.52200
C  28.40300 1.71400 24.71900
N  27.83400 -0.51500 29.84100
C  28.99600 -0.66000 28.99600
C  30.22200 -0.66500 29.79300
C  29.74300 -0.47400 31.09700
C  28.30400 -0.39100 31.06900
C  31.67100 -0.85000 29.22000
C  30.15200 -0.35600 32.48000
O  31.29000 -0.31400 32.94400
C  28.88100 -0.07200 33.26100
C  28.82500 -1.18600 34.25000
O  28.33200 -2.30100 34.03000
O  29.38400 -0.79400 35.44100
C  29.44800 -1.80300 36.48700
H  22.12100 0.36800 31.72900
H  23.64100 -0.84700 25.62500
H  29.79900 -0.74200 27.00700
H  26.00600 -0.62000 34.45900
H  23.69900 1.17800 33.88700
H  22.98100 -1.70800 33.62200
H  22.47700 -0.48100 34.71100
H  23.94000 -1.44400 35.04900
H  25.44000 2.31100 34.67500
H  26.97300 2.02900 33.86600
H  27.96500 1.72500 35.65800
H  26.92700 0.44400 36.22600
H  19.74800 -0.83600 29.33800
H  19.79100 1.04000 29.43100
H  20.29200 -0.08900 30.70600
H  19.06700 0.34800 25.77200
H  19.47600 1.02400 27.22600
H  19.09500 -0.68100 27.29300
H  26.10400 0.22000 24.17300
H  28.06300 -1.75500 24.94500
H  26.54200 -2.49500 23.64700
H  25.19500 -1.59300 22.96300
H  24.98100 -2.37800 24.53800
H  28.64000 0.06000 23.45400
H  29.75900 0.07400 24.82600
H  27.34100 1.93500 24.61600
H  29.05600 2.23400 24.01800
H  28.78700 2.15500 25.63900
H  32.38000 -0.34400 29.87500
H  31.77400 -0.39500 28.23500
H  31.91600 -1.90500 29.10700
H  29.02700 0.88100 33.77200
H  28.96900 -1.43400 37.39300
H  30.50200 -1.93900 36.73200
H  29.00300 -2.76900 36.24900
Mg -11.44700 16.87800 42.41300
C  -8.21800 15.54800 41.83100
C  -10.19100 19.87400 41.37600
C  -14.63500 18.00600 42.50600
C  -12.59100 13.53400 43.00900
N  -9.48600 17.50700 41.48000
C  -8.32900 16.87400 41.52900
C  -7.10100 17.76500 41.15300
C  -7.73800 19.19300 41.27800
C  -9.26300 18.86200 41.40600
C  -7.08800 20.04000 42.36400
C  -6.68900 17.50100 39.69500
C  -5.18300 17.58900 39.41000
H  -4.75000 18.21500 38.00100
N  -12.26600 18.60800 41.93600
C  -11.60200 19.72000 41.50600
C  -12.55200 20.77100 41.28300
C  -13.87600 20.23000 41.54100
C  -13.63900 18.90400 42.06800
C  -12.20100 22.12000 40.69300
C  -15.21600 21.01800 41.46100
O  -15.22800 22.09100 40.89500
C  -16.50800 20.66000 42.10000
N  -13.33800 15.86900 42.69400
C  -14.46700 16.62500 42.83800
C  -15.66000 15.65600 43.20600
C  -15.05200 14.20900 43.01000
C  -13.56000 14.54600 42.96300
C  -16.34000 15.90600 44.66700
C  -15.44600 13.47500 41.69000
C  -15.47000 11.96600 41.74800
N  -10.60300 14.88500 42.47300
C  -11.20800 13.66900 42.72000
C  -10.18500 12.62400 42.85600
C  -8.99500 13.36000 42.49500
C  -9.30500 14.69500 42.17700
C  -10.40600 11.15100 43.14700
C  -7.54400 13.17000 42.33500
O  -6.90600 12.17400 42.56700
C  -6.97500 14.67500 41.89200
C  -5.87400 14.93400 42.88700
O  -5.93600 14.63100 44.02400
O  -4.76300 15.63400 42.28100
C  -3.68100 15.93300 43.19500
H  -9.76100 20.85400 41.16100
H  -15.64100 18.39800 42.67200
H  -12.90400 12.51600 43.25000
H  -6.25800 17.61200 41.82800
H  -7.66000 19.74100 40.34000
H  -6.08400 19.72400 42.64700
H  -7.67800 20.11500 43.27800
H  -7.12600 21.03100 41.91000
H  -7.11000 18.17100 38.94600
H  -6.99200 16.48000 39.46200
H  -4.73500 16.59700 39.46600
H  -4.73700 18.12100 40.25100
H  -11.20600 22.11400 40.24600
H  -12.17400 22.91400 41.43900
H  -12.96400 22.34500 39.94800
H  -17.27000 21.43900 42.10500
H  -16.28600 20.34700 43.12000
H  -16.89600 19.87200 41.45400
H  -16.44000 15.70200 42.44600
H  -15.06800 13.52400 43.85800
H  -15.75200 16.53600 45.33400
H  -16.51200 14.98700 45.22800
H  -17.36100 16.28300 44.60400
H  -14.85600 13.77700 40.82400
H  -16.41000 13.90800 41.42500
H  -14.72300 11.68100 42.48900
H  -15.11000 11.43900 40.86400
H  -16.41400 11.48000 41.99000
H  -9.62700 10.55600 43.62400
H  -10.60600 10.65800 42.19600
H  -11.34400 10.97800 43.67400
H  -6.46600 14.53000 40.93900
H  -3.93200 16.90300 43.62400
H  -2.77800 16.18000 42.63500
H  -3.38300 15.12000 43.85600

