158

Mg 24.17800 -4.35800 46.06900
C  26.59900 -2.40200 44.72400
C  21.98700 -3.18100 43.68300
C  22.25300 -6.92600 46.76600
C  26.65500 -5.70400 48.39900
N  24.30500 -2.95400 44.46700
C  25.36500 -2.21900 44.11700
C  25.03100 -1.30800 42.87500
C  23.47000 -1.23400 43.03900
C  23.22100 -2.52800 43.85100
C  23.04600 0.03600 43.85600
C  25.65400 -1.91400 41.60100
C  26.15100 -0.85800 40.60200
H  25.55000 -0.87500 39.15500
N  22.29700 -4.89600 45.29200
C  21.57600 -4.32200 44.29500
C  20.42400 -5.11500 44.19700
C  20.50500 -6.28200 44.95200
C  21.72600 -6.09600 45.71300
C  19.34500 -4.77300 43.11300
C  19.49700 -7.39100 44.94000
O  18.56500 -7.43800 44.10900
C  19.59200 -8.55200 45.89900
N  24.54800 -6.09900 47.39000
C  23.48200 -6.90800 47.53500
C  23.65800 -7.86800 48.75200
C  24.96700 -7.33500 49.40300
C  25.44400 -6.38500 48.33800
C  22.39400 -7.92600 49.67900
C  26.01800 -8.47800 49.61100
C  27.02300 -8.38000 50.75800
N  26.21600 -4.04400 46.56900
C  27.05600 -4.67400 47.48000
C  28.41400 -4.09500 47.34300
C  28.26700 -3.16300 46.29600
C  26.90300 -3.27600 45.83100
C  29.59900 -4.56000 48.16900
C  28.99400 -2.24500 45.49600
O  30.16600 -1.85100 45.59100
C  27.96500 -1.69600 44.46100
C  27.89000 -0.24000 44.70500
O  27.07600 0.35700 45.44100
O  28.83400 0.36000 43.96000
C  29.14600 1.78300 44.08300
H  21.33800 -2.71900 42.93600
H  21.62200 -7.77600 47.03500
H  27.42400 -6.01300 49.10900
H  25.53100 -0.37300 43.12700
H  23.07400 -1.28900 42.02500
H  23.80700 0.81600 43.88700
H  22.77600 -0.27000 44.86700
H  22.17300 0.47700 43.37500
H  24.85600 -2.45000 41.08500
H  26.35400 -2.74500 41.68500
H  27.23700 -0.88700 40.69100
H  25.77000 0.05400 41.06200
H  18.38700 -5.04400 43.55800
H  19.49000 -5.32000 42.18200
H  19.26100 -3.71300 42.87100
H  18.89300 -9.33300 45.59900
H  19.27000 -8.39400 46.92900
H  20.55500 -9.06000 45.84800
H  23.85300 -8.84200 48.30400
H  24.72100 -6.74400 50.28400
H  21.61800 -7.25000 49.32300
H  22.46500 -7.59600 50.71500
H  21.97300 -8.92400 49.80200
H  26.54800 -8.48100 48.65900
H  25.57600 -9.46300 49.76100
H  26.82700 -9.05400 51.59100
H  27.03300 -7.34600 51.10300
H  27.99600 -8.68900 50.37600
H  29.91900 -5.51100 47.74200
H  29.37300 -4.71900 49.22300
H  30.44000 -3.87000 48.09300
H  28.27500 -1.84400 43.42600
H  30.08700 2.07800 43.61900
H  29.26700 1.99800 45.14400
H  28.29000 2.35700 43.72800
Mg 48.18100 23.96700 28.06200
C  49.09800 26.39600 30.60000
C  47.46300 21.88100 30.64200
C  47.57400 21.75200 25.78500
C  49.29300 26.28900 25.65300
N  48.29900 24.20600 30.41600
C  48.58900 25.24100 31.19400
C  48.47400 24.95300 32.69200
C  48.10000 23.39900 32.62500
C  47.93300 23.11600 31.16600
C  49.12700 22.42800 33.27000
C  47.43700 25.90900 33.39000
C  46.56800 25.47600 34.59100
H  46.54200 26.38100 35.82700
N  47.54500 22.01100 28.18000
C  47.30600 21.30000 29.32300
C  46.82900 20.01900 28.93400
C  46.74500 20.02700 27.52200
C  47.29100 21.27000 27.08600
C  46.47900 18.94900 29.94500
C  46.29700 19.01700 26.53100
O  46.39000 19.06700 25.32100
C  45.61200 17.80000 27.06300
N  48.68900 23.84500 26.08200
C  48.18600 22.85700 25.28900
C  48.35500 23.14300 23.78900
C  49.07300 24.52400 23.77100
C  48.98700 24.94100 25.27900
C  49.20500 22.03600 23.09200
C  48.37000 25.50300 22.83900
C  49.21600 25.59800 21.45800
N  48.90700 25.98600 28.05600
C  49.31100 26.80000 26.94600
C  49.67000 28.14100 27.44000
C  49.69400 27.96700 28.84600
C  49.14000 26.67000 29.19400
C  50.18200 29.23700 26.66600
C  50.00200 28.70100 30.04700
O  50.43600 29.78800 30.14700
C  49.49200 27.76200 31.19900
C  50.57200 27.77200 32.25000
O  51.67000 27.27900 32.18600
O  50.16200 28.68900 33.17900
C  50.86100 28.66500 34.46500
H  47.20500 21.18300 31.44200
H  47.30900 21.08900 24.95800
H  49.65800 26.86700 24.80200
H  49.48400 25.07600 33.08100
H  47.11600 23.19200 33.04500
H  49.57800 21.72800 32.56700
H  48.53100 21.82500 33.95500
H  49.80300 23.04500 33.86100
H  46.83600 26.49100 32.69300
H  47.93500 26.78600 33.80300
H  46.91700 24.55200 35.05200
H  45.53100 25.27900 34.31800
H  45.47200 18.55700 29.80800
H  46.59200 19.29800 30.97100
H  47.08600 18.05300 29.81800
H  46.23800 17.18600 27.71100
H  45.26000 17.07300 26.33100
H  44.79000 18.20400 27.65400
H  47.35800 23.04100 23.35900
H  50.10600 24.30500 23.50100
H  49.77300 21.40900 23.77900
H  49.87500 22.44200 22.33400
H  48.51000 21.36600 22.58500
H  48.35900 26.47900 23.32300
H  47.34900 25.17900 22.63500
H  48.66900 25.01300 20.71900
H  50.25700 25.28100 21.51100
H  49.22400 26.66300 21.22400
H  49.48900 30.06000 26.84400
H  50.27200 28.97500 25.61200
H  51.11600 29.50000 27.16300
H  48.66800 28.32600 31.63800
H  51.90900 28.36500 34.45800
H  50.23300 28.25400 35.25600
H  50.84600 29.73900 34.65000

