158

Mg 0.56000 41.73600 25.74400
C  1.55500 41.96800 29.10300
C  -2.54500 40.64300 26.88700
C  -0.42900 41.51300 22.64300
C  3.86400 42.50700 24.77400
N  -0.39200 41.40100 27.75000
C  0.19400 41.70400 28.97200
C  -0.82400 41.51000 30.18800
C  -1.98900 40.67600 29.41200
C  -1.63600 40.83300 27.88300
C  -2.17100 39.18700 29.89800
C  -1.18300 42.80400 31.00300
C  -0.72800 42.74900 32.43300
H  -1.27200 41.55900 33.31600
N  -1.23000 41.27000 24.92600
C  -2.40900 40.77700 25.49000
C  -3.39100 40.32100 24.47900
C  -2.77600 40.74200 23.22000
C  -1.40200 41.22700 23.54500
C  -4.64100 39.49500 24.82700
C  -3.49200 40.81400 21.83100
O  -2.94400 41.21300 20.75900
C  -4.87500 40.34700 21.74900
N  1.54200 41.89800 23.98700
C  0.92000 41.85200 22.76600
C  1.88200 41.87500 21.63900
C  3.20700 42.47300 22.33100
C  2.87600 42.20800 23.78500
C  2.11800 40.53500 20.88900
C  3.53000 43.91100 22.06600
C  3.93600 44.24700 20.63200
N  2.44800 41.99900 26.69200
C  3.68100 42.36400 26.15200
C  4.61900 42.50700 27.27800
C  3.78800 42.45400 28.40900
C  2.52600 42.10400 28.05200
C  6.03700 42.94100 27.10600
C  3.73600 42.58000 29.88100
O  4.61400 42.91600 30.65900
C  2.34200 42.20600 30.39000
C  2.44800 41.01400 31.17800
O  2.64200 39.86800 30.76500
O  2.28700 41.33000 32.51700
C  2.34800 40.20200 33.50800
H  -3.51000 40.38500 27.32900
H  -0.80400 41.29500 21.64100
H  4.85200 42.89700 24.52300
H  -0.26700 40.82500 30.82800
H  -2.91300 41.21100 29.63600
H  -1.89000 38.53500 29.07100
H  -3.13300 38.91600 30.33400
H  -1.38000 38.98400 30.62000
H  -2.24900 43.01800 31.08000
H  -0.73300 43.63000 30.45300
H  -1.00800 43.72000 32.84100
H  0.36100 42.76700 32.45500
H  -5.41600 40.05800 24.30600
H  -4.72300 39.53400 25.91300
H  -4.61600 38.53600 24.31000
H  -4.95900 39.31600 22.09300
H  -5.07700 40.36000 20.67800
H  -5.45400 41.15700 22.19200
H  1.60600 42.50800 20.79500
H  4.08600 41.87600 22.08600
H  1.86100 39.68100 21.51400
H  3.17000 40.40600 20.63500
H  1.56400 40.44100 19.95500
H  4.30300 44.40800 22.65200
H  2.67500 44.54400 22.30600
H  3.10300 44.69500 20.09000
H  4.16100 43.32500 20.09600
H  4.75500 44.96500 20.66600
H  6.12400 43.64000 26.27400
H  6.73100 42.11300 26.95900
H  6.45200 43.42600 27.98900
H  2.14400 43.12400 30.94400
H  2.13700 40.78200 34.40700
H  3.27900 39.67900 33.72400
H  1.63900 39.40800 33.27400
Mg -1.91000 33.27100 27.59000
C  -3.87000 31.57900 29.99200
C  -0.81300 35.33300 30.13000
C  -0.30300 35.05300 25.22600
C  -3.31400 31.23200 25.11200
N  -2.32400 33.46400 29.82500
C  -3.11900 32.64100 30.59000
C  -3.06000 33.00100 32.03500
C  -2.29600 34.36600 31.99700
C  -1.73600 34.41200 30.53200
C  -3.07200 35.65000 32.41300
C  -2.26500 31.93600 32.87800
C  -3.09200 31.31000 33.95000
H  -2.42600 31.24400 35.35700
N  -0.59600 34.89700 27.68500
C  -0.24400 35.57700 28.83900
C  0.57200 36.68400 28.46200
C  0.83900 36.56400 27.03700
C  -0.03600 35.45100 26.58300
C  1.13700 37.57300 29.54500
C  1.78300 37.38300 26.22700
O  1.96100 37.17200 25.03300
C  2.56000 38.47700 26.91600
N  -1.76500 33.14800 25.51500
C  -1.14200 34.03000 24.75800
C  -1.49900 33.83700 23.30900
C  -2.11900 32.40600 23.25500
C  -2.42200 32.20500 24.74700
C  -2.49000 34.76600 22.75500
C  -1.22300 31.31300 22.62400
C  -0.31500 30.29900 23.38600
N  -3.33800 31.75100 27.52000
C  -3.79600 31.03400 26.42900
C  -4.65700 30.02200 26.89700
C  -4.82900 30.21300 28.29800
C  -3.87200 31.22100 28.60100
C  -5.35100 29.00700 26.14400
C  -5.44500 29.70400 29.47100
O  -6.10800 28.73300 29.65000
C  -4.79800 30.54700 30.71700
C  -5.89800 31.23500 31.51300
O  -6.51000 32.23300 31.20200
O  -6.26000 30.48000 32.64800
C  -7.35600 31.05900 33.45000
H  -0.47800 35.92500 30.98400
H  0.08200 35.82500 24.55600
H  -3.77800 30.67100 24.29800
H  -3.99900 33.29400 32.50500
H  -1.39900 34.30000 32.61300
H  -2.61500 35.93500 33.36100
H  -4.16100 35.64800 32.43300
H  -2.89000 36.48800 31.73900
H  -1.41000 32.44900 33.31800
H  -1.91900 31.14600 32.21200
H  -3.30800 30.31700 33.55600
H  -4.03500 31.84700 34.04300
H  0.72900 38.56900 29.37300
H  2.21300 37.57000 29.37100
H  0.93400 37.26600 30.57200
H  1.90400 39.06400 27.55800
H  2.70400 39.16400 26.08200
H  3.44700 38.04600 27.38000
H  -0.62600 33.91900 22.66200
H  -3.03700 32.44800 22.66800
H  -1.89400 35.49100 22.20100
H  -3.01400 35.32600 23.52900
H  -3.14600 34.30900 22.01400
H  -0.64300 31.86900 21.88700
H  -1.97600 30.73700 22.08600
H  -0.58300 29.29300 23.06400
H  -0.30400 30.35400 24.47400
H  0.64900 30.32700 22.87700
H  -6.30800 29.34000 25.74200
H  -5.57500 28.14100 26.76700
H  -4.77200 28.68700 25.27700
H  -4.34400 29.82600 31.39600
H  -6.89000 31.70600 34.19300
H  -7.82000 30.23500 33.99100
H  -8.13800 31.53900 32.86100

