158

Mg 6.31500 54.15500 41.17800
C  5.42200 50.65900 40.58800
C  9.39600 53.53500 40.08500
C  6.76500 57.41800 41.39400
C  2.80400 54.60500 41.72100
N  7.20500 52.21300 40.32400
C  6.74400 50.88900 40.28100
C  7.88000 49.95300 40.00800
C  9.18400 50.92600 39.90300
C  8.61400 52.31100 40.10500
C  10.29300 50.60200 40.87300
C  7.67500 49.13300 38.67300
C  7.09200 49.87500 37.49100
H  6.25400 49.11100 36.40300
N  7.94300 55.39500 40.88200
C  9.15600 54.90600 40.38200
C  10.02300 56.05000 40.29500
C  9.30500 57.19700 40.78000
C  7.94500 56.73400 41.03100
C  11.43000 56.02000 39.78700
C  9.81600 58.59700 40.92700
O  11.02400 58.85400 40.77800
C  9.00400 59.74800 41.28000
N  4.97000 55.72700 41.52700
C  5.42400 57.02200 41.58400
C  4.32700 57.97700 42.01300
C  3.05300 57.05800 42.05500
C  3.59600 55.68300 41.78400
C  4.59400 58.64200 43.35100
C  1.82700 57.44500 41.25300
C  1.89000 57.33700 39.75000
N  4.50600 52.95200 41.23800
C  3.17100 53.25400 41.52700
C  2.37300 52.13700 41.62500
C  3.20700 51.03600 41.41300
C  4.49900 51.57800 41.07000
C  0.85000 52.10400 41.82000
C  3.29700 49.58400 41.29900
O  2.49300 48.72400 41.56000
C  4.83200 49.30000 40.87200
C  4.66500 48.38600 39.74100
O  4.12400 48.68400 38.68600
O  5.08400 47.06000 40.03300
C  4.68400 46.09500 39.05200
H  10.42800 53.34100 39.78300
H  6.85200 58.49600 41.54700
H  1.71800 54.69800 41.78200
H  7.99900 49.21400 40.80000
H  9.77100 50.88900 38.98600
H  10.15400 49.63600 41.35600
H  10.07800 51.31200 41.67200
H  11.30300 50.83600 40.53400
H  7.16200 48.18200 38.81300
H  8.64700 48.89900 38.23900
H  7.90500 50.36200 36.95200
H  6.47900 50.67500 37.90600
H  11.37900 56.22000 38.71700
H  11.89000 55.04000 39.91000
H  12.03200 56.77600 40.29200
H  9.64500 60.59500 41.52400
H  8.48800 59.45900 42.19500
H  8.34500 60.02500 40.45600
H  4.27300 58.69500 41.19500
H  2.73700 56.93400 43.09100
H  3.99800 58.47200 44.24800
H  4.31100 59.64100 43.01900
H  5.67100 58.59900 43.51500
H  1.68900 58.50200 41.48300
H  0.96300 56.98100 41.72800
H  1.62700 58.28000 39.27000
H  1.23500 56.54300 39.39200
H  2.91900 57.18900 39.42200
H  0.67800 51.94200 42.88500
H  0.49400 51.20900 41.31000
H  0.30400 52.94800 41.40000
H  5.30000 48.76900 41.70000
H  5.11200 45.12300 39.29900
H  5.08800 46.30000 38.06000
H  3.59400 46.09000 39.07700
Mg -5.95400 24.68400 26.18300
C  -4.39300 26.10500 28.96000
C  -7.58200 22.52200 28.12500
C  -7.40100 23.50700 23.42900
C  -4.06600 26.83700 24.10200
N  -5.80600 24.24800 28.21500
C  -5.31800 25.05900 29.23100
C  -5.80700 24.67300 30.62800
C  -6.55800 23.32700 30.31900
C  -6.61700 23.29200 28.76500
C  -5.89400 22.01000 30.93300
C  -6.68000 25.81600 31.42200
C  -6.51700 25.89900 32.95400
H  -5.90900 24.63100 33.56300
N  -7.45100 23.30800 25.82600
C  -7.91600 22.47600 26.80000
C  -8.84400 21.57600 26.24200
C  -8.89300 21.93500 24.82000
C  -7.87700 22.91100 24.62500
C  -9.52400 20.43100 27.00600
C  -9.77500 21.35700 23.72900
O  -9.66100 21.72300 22.57900
C  -10.79200 20.32300 24.02000
N  -5.71300 24.99400 24.06200
C  -6.41300 24.36800 23.12900
C  -5.99900 24.64700 21.64500
C  -4.91600 25.73600 21.83200
C  -4.86800 25.89700 23.44300
C  -5.37000 23.44600 20.86700
C  -5.17200 27.07600 21.07600
C  -4.33500 27.22400 19.71100
N  -4.45700 26.13500 26.38900
C  -3.82500 26.96700 25.51400
C  -3.00400 27.97800 26.27400
C  -3.19300 27.63900 27.64700
C  -4.06000 26.53900 27.64900
C  -2.33300 29.31200 25.78800
C  -2.88700 28.00900 29.05900
O  -2.30500 28.96800 29.52600
C  -3.63700 27.02000 29.93200
C  -2.65700 26.27100 30.75000
O  -1.87500 25.39200 30.32900
O  -2.70600 26.65300 32.15100
C  -1.76300 25.93700 33.01700
H  -8.08400 21.87300 28.84500
H  -7.90400 23.17700 22.51700
H  -3.41500 27.43900 23.46500
H  -4.88900 24.46000 31.17700
H  -7.56200 23.36400 30.74000
H  -5.24900 21.51400 30.20700
H  -6.67300 21.34200 31.30000
H  -5.14800 22.27700 31.68200
H  -7.71900 25.52000 31.27900
H  -6.48000 26.77700 30.94800
H  -7.46000 26.12500 33.45300
H  -5.77700 26.68200 33.11700
H  -10.59300 20.62400 26.91400
H  -9.26800 20.30100 28.05800
H  -9.35200 19.56800 26.36300
H  -10.31600 19.47500 24.51200
H  -11.18200 19.95500 23.07100
H  -11.70400 20.66700 24.50900
H  -6.83500 24.99500 21.03700
H  -3.98600 25.36200 21.40400
H  -5.56100 22.51000 21.39000
H  -4.28800 23.43900 20.73600
H  -5.80800 23.47100 19.86900
H  -4.80900 27.77000 21.83400
H  -6.21000 27.30600 20.83300
H  -5.05600 27.55700 18.96500
H  -3.87600 26.26100 19.48600
H  -3.43600 27.83500 19.79300
H  -1.42700 29.19600 25.19400
H  -1.90000 29.89100 26.60400
H  -3.05400 29.92100 25.24200
H  -4.21600 27.65900 30.59800
H  -0.81700 25.75800 32.50600
H  -2.26500 25.02300 33.33600
H  -1.55200 26.57000 33.88000

