158

Mg 1.28000 -1.54000 44.39600
C  4.61200 -0.24900 44.00000
C  0.21500 1.27500 42.74300
C  -1.73600 -3.00900 43.94600
C  2.51500 -4.23900 45.90200
N  2.33700 0.15000 43.20800
C  3.68000 0.52300 43.30500
C  3.98900 1.88300 42.75700
C  2.57200 2.54000 42.83700
C  1.62100 1.27500 42.90900
C  2.38900 3.50100 44.02800
C  4.55500 1.80500 41.33100
C  6.01400 2.12900 40.90500
H  6.15800 2.99200 39.60900
N  -0.66800 -0.83400 43.59300
C  -0.85800 0.35400 42.97500
C  -2.19900 0.53600 42.58000
C  -2.77800 -0.78300 42.86600
C  -1.70000 -1.61200 43.47000
C  -2.72000 1.81200 41.91300
C  -4.19300 -1.17600 42.56500
O  -4.91700 -0.42300 41.92300
C  -4.73800 -2.43200 43.06200
N  0.57500 -3.40000 44.78300
C  -0.72100 -3.69500 44.61500
C  -1.00100 -5.00800 45.34500
C  0.30700 -5.49600 45.90500
C  1.17100 -4.30800 45.48800
C  -2.06600 -4.81000 46.40900
C  0.80700 -6.89300 45.32000
C  1.13900 -7.88900 46.43100
N  3.14200 -2.21500 44.78400
C  3.52400 -3.34200 45.45000
C  4.86100 -3.29200 45.83500
C  5.36000 -2.11800 45.27200
C  4.27300 -1.48300 44.60500
C  5.64000 -4.27600 46.70600
C  6.50600 -1.25300 45.24600
O  7.62200 -1.29000 45.76600
C  6.12800 -0.07800 44.27700
C  6.38500 1.12600 45.04900
O  5.61000 1.60200 45.90700
O  7.59000 1.64000 44.65300
C  8.09600 2.71700 45.36900
H  -0.05100 2.29200 42.44800
H  -2.59300 -3.68600 43.97600
H  2.95200 -5.05100 46.48700
H  4.61200 2.44800 43.45000
H  2.35200 3.21200 42.00800
H  3.27000 3.83000 44.57900
H  1.69000 3.03600 44.72300
H  1.95600 4.44700 43.70300
H  3.98900 2.44400 40.65300
H  4.32500 0.90000 40.76800
H  6.35900 1.12300 40.66900
H  6.54400 2.56500 41.75300
H  -2.85500 1.56100 40.86100
H  -2.11900 2.72000 41.86500
H  -3.71500 2.03000 42.30200
H  -5.78900 -2.62300 42.84300
H  -4.53900 -2.31100 44.12700
H  -4.12700 -3.16600 42.53700
H  -1.31500 -5.71900 44.58000
H  0.19400 -5.47000 46.98900
H  -1.46100 -4.39700 47.21600
H  -2.48200 -5.78600 46.66100
H  -2.90300 -4.22400 46.03100
H  1.76000 -6.65100 44.85100
H  0.16100 -7.41500 44.61400
H  2.09000 -7.57900 46.86400
H  1.11700 -8.90800 46.04400
H  0.37000 -7.98100 47.19700
H  5.97500 -5.01300 45.97600
H  4.98600 -4.80100 47.40200
H  6.44600 -3.63900 47.07100
H  6.81900 0.00500 43.43800
H  9.12900 2.91700 45.08600
H  8.10800 2.44800 46.42500
H  7.50400 3.59300 45.10400
Mg 16.98900 51.59700 25.60500
C  18.57400 50.15200 28.45900
C  14.21800 52.08600 27.45100
C  15.58400 52.50400 22.86800
C  19.83400 50.54100 23.72500
N  16.57700 51.30500 27.73900
C  17.37100 50.75900 28.71700
C  16.73000 51.18500 30.11000
C  15.23200 51.40100 29.71000
C  15.26000 51.65000 28.20400
C  14.36400 50.10100 30.01200
C  17.28100 52.47000 30.81600
C  16.86900 52.89100 32.24100
H  15.81400 52.03500 33.01100
N  15.19300 52.28100 25.23000
C  14.14900 52.46500 26.12200
C  13.07400 53.13500 25.45700
C  13.48200 53.35700 24.14600
C  14.75200 52.73100 24.04200
C  11.61300 53.30000 25.97500
C  12.69500 54.05700 22.95400
O  13.10600 54.27900 21.82000
C  11.39500 54.62000 23.24300
N  17.72300 51.53500 23.56200
C  16.86000 51.95200 22.66900
C  17.41600 51.82400 21.24700
C  18.79900 51.22900 21.47300
C  18.85600 51.19600 23.01700
C  16.63500 50.89100 20.29000
C  20.04600 51.96500 20.86600
C  20.31600 53.34400 21.50500
N  18.91200 50.68400 25.95500
C  19.90500 50.26900 25.11100
C  20.93100 49.55700 25.87000
C  20.41100 49.46300 27.21400
C  19.22300 50.13700 27.21500
C  22.06300 48.87600 25.21800
C  20.70300 48.88400 28.46700
O  21.62400 48.20600 28.83200
C  19.61300 49.49000 29.42500
C  19.05500 48.51500 30.40400
O  18.38300 47.51300 30.10900
O  19.08900 49.06800 31.70800
C  18.55700 48.10900 32.66000
H  13.29900 52.17000 28.03500
H  15.10300 52.85700 21.95400
H  20.61100 50.13100 23.07800
H  16.84100 50.32900 30.77700
H  14.82700 52.34400 30.07900
H  13.76900 50.43800 30.86100
H  14.94700 49.23300 30.32100
H  13.79300 49.81800 29.12800
H  16.98400 53.32400 30.20800
H  18.37000 52.42300 30.79100
H  16.54100 53.92700 32.16400
H  17.75500 52.82700 32.87200
H  11.08800 54.25100 25.88700
H  11.76500 53.17800 27.04700
H  10.97800 52.53200 25.53300
H  11.46500 55.58500 23.74600
H  10.75600 53.85500 23.68300
H  10.96600 54.71200 22.24500
H  17.40400 52.85800 20.90400
H  18.87000 50.22600 21.05200
H  17.25800 50.33800 19.58800
H  15.86700 51.44000 19.74500
H  16.12300 50.11100 20.85300
H  19.85900 52.18300 19.81500
H  20.90800 51.30400 20.78700
H  20.30700 54.23700 20.88000
H  21.32100 53.27600 21.92200
H  19.59100 53.49800 22.30400
H  22.86800 49.61100 25.23600
H  21.93000 48.54800 24.18700
H  22.20200 47.99900 25.84900
H  20.11800 50.22300 30.05400
H  17.57100 47.82100 32.29700
H  18.42600 48.61600 33.61600
H  19.23400 47.25700 32.70800

