158

Mg 17.01900 51.07100 26.90000
C  19.24200 49.93500 29.26900
C  15.00100 52.14600 29.35000
C  15.14100 52.09500 24.43900
C  19.45300 49.85500 24.45700
N  17.05300 50.98700 29.04800
C  18.16300 50.54000 29.84100
C  17.88900 50.76900 31.34200
C  16.33900 51.15700 31.28000
C  16.12000 51.50800 29.80900
C  15.40600 50.05700 31.84300
C  18.77400 51.94000 31.92500
C  18.92900 51.89300 33.53600
H  17.84300 51.20500 34.30800
N  15.30000 51.95000 26.88000
C  14.61100 52.34600 27.96000
C  13.40100 53.04100 27.53600
C  13.41300 53.05500 26.05500
C  14.67100 52.30700 25.70800
C  12.30000 53.49600 28.54700
C  12.41000 53.50600 24.96500
O  12.52400 53.45100 23.76600
C  11.17700 54.16400 25.47800
N  17.32300 50.97600 24.73900
C  16.33100 51.50600 24.00600
C  16.78800 51.54300 22.56000
C  18.23200 51.00300 22.53300
C  18.35900 50.57600 23.96700
C  15.87200 50.92600 21.56100
C  19.26400 52.10900 22.10300
C  20.22700 51.64300 20.99200
N  18.84500 49.87900 26.86500
C  19.75000 49.56100 25.85000
C  20.85700 48.76300 26.34200
C  20.72900 48.96200 27.72100
C  19.51700 49.62000 27.95600
C  22.01000 48.23300 25.58100
C  21.44200 48.77700 28.94600
O  22.46900 48.27100 29.27400
C  20.42100 49.43600 29.98700
C  19.97800 48.38500 30.97200
O  19.14800 47.54100 30.68600
O  20.69700 48.43600 32.17600
C  20.07600 47.59400 33.22300
H  14.33100 52.57200 30.09900
H  14.49300 52.46300 23.64000
H  20.22400 49.61900 23.72200
H  18.20500 49.86200 31.85900
H  16.17200 52.10200 31.79600
H  14.54300 49.96900 31.18200
H  15.03700 50.26600 32.84700
H  15.84400 49.05900 31.81800
H  18.35900 52.92500 31.71100
H  19.73800 51.93400 31.41700
H  19.06800 52.89400 33.94300
H  19.89000 51.38200 33.59600
H  11.32500 53.03100 28.40200
H  12.14100 54.55900 28.36600
H  12.42500 53.36100 29.62200
H  10.76300 53.47900 26.21700
H  10.46800 54.41000 24.68800
H  11.57400 55.12300 25.81200
H  16.69600 52.60100 22.31400
H  18.32300 50.16500 21.84200
H  15.67900 49.93000 21.95800
H  16.41900 50.80700 20.62500
H  14.99400 51.56800 21.49000
H  19.91900 52.32500 22.94800
H  18.78500 53.03800 21.79700
H  19.69200 51.76400 20.05000
H  20.50000 50.60300 21.17200
H  21.12600 52.25900 20.98500
H  22.88200 48.39400 26.21400
H  22.20500 48.65400 24.59500
H  21.83900 47.17800 25.36600
H  21.06500 50.21600 30.39300
H  19.02100 47.34000 33.12200
H  20.27500 47.90000 34.25000
H  20.45800 46.61100 32.94500
Mg -2.53500 34.91200 27.01900
C  -3.95600 32.60300 29.27000
C  -1.17700 36.53700 29.81400
C  -1.65900 37.47000 25.12300
C  -4.84400 33.76200 24.65400
N  -2.48800 34.56600 29.24400
C  -3.12400 33.49900 29.93800
C  -2.82700 33.52200 31.42500
C  -2.12500 34.89700 31.53700
C  -1.92900 35.40000 30.12500
C  -2.82200 35.88800 32.44300
C  -1.89400 32.34600 31.86600
C  -2.30400 31.41800 32.98600
H  -1.73400 31.68100 34.46300
N  -1.41300 36.62800 27.35100
C  -0.83500 37.06900 28.56900
C  -0.04700 38.24400 28.23900
C  -0.09500 38.38100 26.84400
C  -1.05400 37.50800 26.38900
C  0.78700 39.02000 29.21500
C  0.67400 39.34000 25.89200
O  0.55800 39.33200 24.67800
C  1.69400 40.27900 26.41400
N  -3.15200 35.52700 25.16000
C  -2.62300 36.59500 24.58700
C  -3.26700 36.84700 23.18800
C  -4.23000 35.58300 23.01400
C  -4.06600 34.85500 24.34500
C  -4.08400 38.17500 23.12800
C  -4.03800 34.73700 21.70600
C  -2.57100 34.16500 21.65700
N  -3.96800 33.41800 26.91300
C  -4.83200 33.06600 25.88700
C  -5.52700 31.83400 26.27400
C  -5.29500 31.72400 27.62100
C  -4.34800 32.68000 27.94100
C  -6.44200 31.12000 25.45600
C  -5.62100 30.97300 28.76400
O  -6.27500 29.90700 28.89900
C  -4.91000 31.67900 29.98600
C  -5.82900 32.34500 30.84000
O  -6.67900 33.20900 30.47700
O  -5.68200 31.98200 32.17800
C  -6.42400 32.84400 33.10500
H  -0.82400 37.10300 30.67800
H  -1.55700 38.46300 24.68000
H  -5.47600 33.26100 23.91700
H  -3.75900 33.62700 31.98100
H  -1.12700 34.84000 31.97300
H  -3.86500 35.57100 32.44000
H  -2.89100 36.87300 31.97900
H  -2.45400 35.94600 33.46700
H  -0.90300 32.72600 32.11200
H  -1.70100 31.72600 30.98900
H  -1.98200 30.40300 32.75500
H  -3.37800 31.52800 33.13500
H  0.52400 40.06200 29.39600
H  1.82400 38.90100 28.89900
H  0.77800 38.56500 30.20500
H  2.19700 40.82600 25.61600
H  2.51000 39.68600 26.82800
H  1.33800 41.00200 27.14700
H  -2.47900 36.99300 22.44900
H  -5.31100 35.71900 23.04100
H  -5.14900 37.94700 23.12300
H  -3.91300 38.67200 22.17300
H  -3.91200 38.88400 23.93900
H  -4.19200 35.35100 20.81800
H  -4.78600 33.94700 21.77100
H  -2.55400 33.15500 22.06700
H  -1.87400 34.85200 22.13600
H  -2.22100 34.14900 20.62500
H  -6.08600 31.29700 24.44100
H  -7.42000 31.58000 25.59700
H  -6.48900 30.07900 25.77500
H  -4.41600 30.91000 30.57900
H  -7.26600 33.41100 32.70800
H  -5.76200 33.53400 33.62900
H  -6.82900 32.24500 33.92000

