158

Mg -2.13800 18.25900 27.22400
C  -2.54600 15.91800 29.69500
C  -2.54300 20.74100 29.47100
C  -1.71600 20.44500 24.64100
C  -2.01400 15.50600 24.86700
N  -2.40000 18.27700 29.33900
C  -2.58900 17.25800 30.16700
C  -2.65900 17.76100 31.62100
C  -3.12000 19.18200 31.38300
C  -2.68300 19.42200 29.94600
C  -4.62100 19.51800 31.70300
C  -1.41100 17.68700 32.48000
C  -1.62300 17.20000 33.92500
H  -0.40700 16.88300 34.82000
N  -2.13400 20.30300 27.08900
C  -2.23300 21.16600 28.15500
C  -1.98800 22.52500 27.73700
C  -1.72800 22.43000 26.31200
C  -1.80200 21.02500 25.92000
C  -2.09000 23.74100 28.62000
C  -1.51100 23.57700 25.29900
O  -1.49900 23.54000 24.10800
C  -1.19900 24.87200 25.83400
N  -1.86200 17.95800 25.15100
C  -1.72600 19.05500 24.30900
C  -1.61100 18.53700 22.84200
C  -1.70400 17.08000 22.95600
C  -1.86500 16.80900 24.40900
C  -2.70400 19.16000 21.93200
C  -0.50000 16.37200 22.32500
C  0.73700 16.29200 23.14800
N  -2.44100 16.10000 27.24100
C  -2.23400 15.16400 26.22300
C  -2.35700 13.84200 26.80100
C  -2.60000 14.10000 28.22200
C  -2.49100 15.47200 28.36300
C  -2.20100 12.63600 25.99000
C  -2.85500 13.44000 29.54000
O  -2.95000 12.24600 29.84800
C  -2.87100 14.62300 30.50200
C  -1.68100 14.48200 31.40100
O  -0.48200 14.62000 31.12800
O  -2.09500 13.91700 32.62000
C  -1.07100 13.51900 33.55100
H  -2.72100 21.44000 30.29100
H  -1.62700 21.09500 23.76800
H  -2.09000 14.66400 24.17600
H  -3.51200 17.29700 32.11500
H  -2.54100 19.85600 32.01400
H  -5.13200 18.63100 32.07600
H  -5.13000 19.89400 30.81600
H  -4.61500 20.31000 32.45200
H  -0.94400 18.66800 32.56600
H  -0.63900 17.03200 32.07600
H  -2.33600 16.40300 33.71500
H  -2.17000 17.97500 34.46100
H  -1.23600 24.35500 28.90400
H  -2.56000 23.38300 29.53600
H  -2.85200 24.32900 28.10800
H  -1.97600 25.47900 26.29800
H  -0.64600 25.42300 25.07300
H  -0.36500 24.65600 26.50200
H  -0.70400 18.96500 22.41500
H  -2.61000 16.68700 22.49400
H  -3.34900 18.36400 21.56000
H  -2.30900 19.73900 21.09700
H  -3.25600 19.93400 22.46700
H  -0.30700 16.90900 21.39600
H  -0.84500 15.36200 22.10700
H  0.71900 16.75700 24.13300
H  1.59200 16.66400 22.58400
H  1.04900 15.25400 23.25300
H  -1.57200 11.89300 26.48100
H  -1.57000 12.81400 25.11900
H  -3.17100 12.26300 25.66200
H  -3.79100 14.71700 31.07900
H  -1.50800 12.83200 34.27600
H  -0.65900 14.34800 34.12800
H  -0.26300 12.97500 33.06300
Mg 6.50200 54.96400 40.84100
C  5.29700 51.86100 40.31500
C  9.40700 54.14200 39.06500
C  7.44600 58.17400 40.98800
C  3.42400 55.77300 42.43100
N  7.08800 53.30500 39.49900
C  6.40200 52.11800 39.57900
C  7.21700 51.05100 38.70100
C  8.68300 51.66200 38.83100
C  8.41600 53.15900 39.04900
C  9.79300 50.97600 39.75400
C  6.59700 50.99100 37.19700
C  6.67600 49.54000 36.52900
H  5.53400 48.96000 35.73900
N  8.21500 56.05100 40.11900
C  9.27000 55.46900 39.43200
C  10.18600 56.53400 39.15800
C  9.67300 57.72400 39.80500
C  8.37200 57.40600 40.35200
C  11.48500 56.34500 38.45400
C  10.43700 59.00600 39.95300
O  11.45500 59.29800 39.31000
C  9.97500 60.02100 40.96300
N  5.43300 56.73100 41.45300
C  6.11900 57.92100 41.45100
C  5.13700 59.07700 41.96700
C  3.88800 58.26500 42.48400
C  4.21600 56.84500 42.18400
C  5.61100 60.14900 43.04900
C  2.56900 58.73400 41.83800
C  1.57100 59.42300 42.74800
N  4.63800 54.03200 41.29900
C  3.57300 54.40200 42.06400
C  2.60600 53.29300 42.17000
C  3.32200 52.22000 41.51900
C  4.50200 52.80100 41.01300
C  1.28900 53.24300 42.99000
C  3.19900 50.88200 41.23600
O  2.35000 50.09400 41.49900
C  4.53100 50.53900 40.46700
C  4.05600 49.88400 39.18000
O  3.16100 50.30400 38.40800
O  4.65400 48.66500 39.08200
C  4.01200 47.84500 38.17500
H  10.39300 53.75400 38.80000
H  7.62200 59.25100 40.96700
H  2.48200 56.03700 42.91700
H  7.31800 50.07700 39.18100
H  9.08100 51.64700 37.81600
H  9.87600 51.62700 40.62400
H  10.72700 50.88600 39.19900
H  9.37600 50.03900 40.12100
H  7.17600 51.64700 36.54800
H  5.53700 51.23900 37.24800
H  6.76400 48.83500 37.35500
H  7.50400 49.45600 35.82500
H  11.41200 55.42300 37.87600
H  12.12900 56.33000 39.33300
H  11.86900 57.24900 37.98100
H  10.79100 60.69600 41.22100
H  9.63000 59.43400 41.81300
H  9.14200 60.68900 40.74000
H  4.90000 59.75800 41.15000
H  3.77500 58.35800 43.56400
H  5.67600 61.16800 42.66700
H  6.65800 59.88100 43.19700
H  5.01700 60.14800 43.96300
H  2.02000 57.89400 41.41300
H  2.78400 59.41800 41.01600
H  0.65500 58.84100 42.84100
H  1.44100 60.41800 42.32200
H  1.95800 59.43800 43.76700
H  0.76500 54.19200 42.88300
H  1.46200 52.86000 43.99600
H  0.65000 52.51900 42.48400
H  5.17700 49.93000 41.09800
H  3.37800 47.20200 38.78500
H  4.71900 47.08100 37.85000
H  3.41000 48.24000 37.35700

