158

Mg 9.42400 47.25700 27.72800
C  7.35100 47.35700 30.45100
C  12.10400 47.97200 29.73800
C  11.42200 47.37700 24.88100
C  6.59800 47.52800 25.56400
N  9.63700 47.55900 29.78700
C  8.69600 47.56800 30.74600
C  9.35100 47.73800 32.14800
C  10.80700 48.23300 31.79100
C  10.86300 47.91400 30.33900
C  10.93900 49.82900 32.11400
C  9.35900 46.41700 32.90900
C  8.75700 46.41800 34.30700
H  8.66600 45.19800 35.30000
N  11.53400 47.49900 27.37400
C  12.49400 47.63700 28.38000
C  13.82600 47.68600 27.68500
C  13.58400 47.51500 26.29200
C  12.13800 47.49200 26.15400
C  15.13500 47.90600 28.41200
C  14.63900 47.40100 25.17800
O  14.43600 47.29700 23.93400
C  16.17700 47.27300 25.54000
N  9.03500 47.43500 25.52000
C  10.04900 47.42300 24.61600
C  9.47100 47.57300 23.16300
C  7.93000 47.54800 23.38200
C  7.81600 47.55600 24.90500
C  10.01000 48.85100 22.50800
C  7.07000 46.36600 22.80000
C  6.28300 46.81600 21.57600
N  7.34700 47.42500 27.88000
C  6.39900 47.47200 26.98200
C  5.09700 47.40700 27.65200
C  5.41500 47.32500 28.99500
C  6.80400 47.32300 29.09800
C  3.71200 47.60800 27.01300
C  4.80300 47.32500 30.39900
O  3.61700 47.55100 30.73700
C  6.09100 47.24500 31.35400
C  5.95400 45.98600 32.10200
O  6.24200 44.89200 31.68700
O  5.44200 46.24600 33.38500
C  5.40800 45.07700 34.23600
H  12.97600 48.23900 30.34000
H  11.99100 47.58300 23.97200
H  5.73000 47.52700 24.90300
H  8.71800 48.51300 32.58100
H  11.62200 47.71400 32.29600
H  11.94400 49.92000 32.52500
H  10.18100 50.22200 32.79200
H  11.05200 50.42300 31.20700
H  10.32900 45.94400 33.05900
H  8.68200 45.73700 32.39200
H  7.75900 46.83900 34.18700
H  9.37700 47.23100 34.68400
H  15.04800 47.80900 29.49400
H  15.51000 48.90100 28.17500
H  15.78900 47.06600 28.18000
H  16.79000 46.96400 24.69300
H  16.30600 46.37500 26.14300
H  16.56000 48.21800 25.92600
H  9.68500 46.65100 22.62300
H  7.64900 48.51100 22.95600
H  9.23500 49.23600 21.84600
H  10.84100 48.45000 21.92900
H  10.33600 49.61900 23.20900
H  6.34000 45.97100 23.50600
H  7.75800 45.58100 22.48600
H  5.24400 46.53600 21.74800
H  6.66200 46.35200 20.66500
H  6.30300 47.90100 21.48400
H  2.89500 47.51400 27.72800
H  3.44000 46.80600 26.32700
H  3.75600 48.60200 26.56700
H  6.13400 48.07200 32.06300
H  5.32700 45.35600 35.28600
H  6.25400 44.39900 34.12400
H  4.52100 44.57200 33.85300
Mg 0.21100 43.45500 26.81500
C  2.50200 43.17400 29.35000
C  -2.35400 42.80200 29.05900
C  -2.02200 43.25200 24.16900
C  2.81900 43.53300 24.53000
N  0.08800 43.09300 28.97400
C  1.14100 43.18500 29.84400
C  0.68100 43.22100 31.29800
C  -0.79500 42.73600 31.17900
C  -1.07600 42.83600 29.61600
C  -1.03800 41.39100 31.78900
C  0.89200 44.61800 31.96800
C  1.19700 44.73500 33.47900
H  0.79900 43.58200 34.42800
N  -1.89500 43.25700 26.67100
C  -2.69500 43.00800 27.73000
C  -4.06200 42.95400 27.25700
C  -4.02300 43.04100 25.81700
C  -2.62200 43.10900 25.50500
C  -5.23100 43.00500 28.21200
C  -5.13500 43.12900 24.79800
O  -4.99300 43.09700 23.56700
C  -6.61000 43.08500 25.29500
N  0.31000 43.41100 24.67400
C  -0.68400 43.40700 23.81100
C  -0.21400 43.19100 22.35600
C  1.26200 43.47500 22.48000
C  1.50000 43.53100 23.98500
C  -0.64300 41.76100 21.83500
C  1.87500 44.68400 21.63800
C  1.77900 46.01500 22.44100
N  2.27300 43.26200 26.90300
C  3.19200 43.37100 25.85700
C  4.48800 43.47800 26.43600
C  4.24100 43.22100 27.80500
C  2.90300 43.21100 28.01000
C  5.74200 43.63600 25.57300
C  4.88400 43.02100 29.10700
O  6.07600 43.03400 29.41500
C  3.77600 42.92700 30.15900
C  3.79800 41.64300 30.84100
O  3.81400 40.54400 30.42400
O  3.78000 41.81000 32.21700
C  3.93100 40.62100 33.12600
H  -3.17400 42.54000 29.73100
H  -2.69600 43.12200 23.32000
H  3.59200 43.65600 23.76900
H  1.25100 42.51600 31.90300
H  -1.53000 43.31500 31.73700
H  -1.80100 41.40000 32.56700
H  -0.13900 41.04900 32.30100
H  -1.37300 40.66600 31.04800
H  0.06200 45.18100 31.54300
H  1.73100 45.04800 31.42200
H  0.62300 45.61900 33.75800
H  2.26400 44.95500 33.51200
H  -6.09600 43.57700 27.87600
H  -4.88100 43.49700 29.11900
H  -5.60000 42.02800 28.52500
H  -6.75600 42.11500 25.77200
H  -7.25400 43.03300 24.41700
H  -6.74000 43.99200 25.88500
H  -0.74300 43.82100 21.64100
H  1.86100 42.62200 22.16200
H  -1.14200 41.16000 22.59500
H  0.23800 41.23800 21.46300
H  -1.32000 41.87200 20.98800
H  1.40500 44.90000 20.67900
H  2.91100 44.37300 21.50000
H  2.03800 46.86200 21.80600
H  2.31700 45.85400 23.37400
H  0.75200 46.17900 22.76700
H  5.79000 42.97500 24.70800
H  6.64400 43.43600 26.15100
H  5.80100 44.66300 25.21200
H  3.91700 43.70400 30.91000
H  4.68800 40.84700 33.87800
H  4.39600 39.74600 32.67200
H  2.96400 40.56100 33.62400

