158

Mg 53.54500 23.78000 44.40400
C  50.96100 26.00400 43.68300
C  51.51300 21.14100 43.27100
C  56.28800 21.75500 44.12200
C  55.47800 26.47400 45.29000
N  51.46800 23.61000 43.68800
C  50.63600 24.65600 43.35400
C  49.31500 24.11800 42.87900
C  49.46300 22.56200 43.11700
C  50.91200 22.39500 43.42200
C  48.52800 21.90700 44.11000
C  49.11500 24.48100 41.32100
C  47.69400 24.82000 40.94500
H  47.30300 24.17900 39.50800
N  53.86100 21.65600 43.76700
C  52.89300 20.82800 43.26300
C  53.47900 19.51400 42.95000
C  54.82900 19.70400 43.07700
C  55.10100 21.05200 43.69000
C  52.69000 18.33500 42.63200
C  55.83600 18.62000 42.85500
O  55.55500 17.43200 42.56700
C  57.32400 18.91300 42.91600
N  55.62400 24.04100 44.67000
C  56.49800 23.10200 44.53600
C  57.90800 23.63800 44.75800
C  57.67100 25.12400 45.24800
C  56.14300 25.24300 45.05400
C  58.74300 22.79300 45.75300
C  58.38000 26.15300 44.41700
C  59.03900 27.30700 45.13600
N  53.34400 25.85500 44.54300
C  54.15000 26.80800 45.03900
C  53.47700 28.09000 45.16700
C  52.22000 27.78900 44.55900
C  52.17100 26.43400 44.24600
C  53.91300 29.46300 45.71500
C  50.96800 28.35000 44.16800
O  50.49800 29.47600 44.32100
C  50.17400 27.21500 43.42500
C  49.89500 27.66700 42.06500
O  50.72900 27.86700 41.17700
O  48.51900 27.80300 41.92800
C  48.14600 28.38800 40.60400
H  50.91700 20.22900 43.19300
H  57.15700 21.09500 44.08200
H  56.17100 27.29300 45.49800
H  48.51200 24.52200 43.49500
H  49.20300 21.99100 42.22600
H  47.63500 22.49400 44.32900
H  48.98500 21.78900 45.09300
H  48.15000 20.95500 43.73800
H  49.29700 23.50400 40.87400
H  49.83500 25.21900 40.96900
H  47.52500 25.89500 41.00700
H  47.01600 24.39400 41.68400
H  51.86100 18.55600 41.96000
H  52.32600 17.77400 43.49300
H  53.30500 17.63900 42.06100
H  57.71700 19.79700 42.41400
H  57.74600 18.13000 42.28500
H  57.62500 18.92700 43.96300
H  58.32900 23.60000 43.75400
H  57.70800 25.23000 46.33200
H  58.23600 21.89100 46.09800
H  58.96700 23.43900 46.60100
H  59.63900 22.40600 45.26600
H  57.82800 26.59900 43.58900
H  59.22000 25.63200 43.95900
H  60.12800 27.26400 45.15000
H  58.55600 27.50800 46.09200
H  58.82600 28.19800 44.54600
H  54.61400 29.82900 44.96400
H  54.60200 29.40100 46.55700
H  53.09000 30.16800 45.83600
H  49.33200 27.09100 44.10500
H  47.05600 28.39300 40.59800
H  48.42200 27.87000 39.68500
H  48.52500 29.39900 40.75400
Mg 27.04300 51.68400 26.52000
C  24.91400 53.09900 28.95200
C  29.01500 50.48300 29.08600
C  29.16300 50.37200 24.19500
C  25.01600 52.86500 23.96200
N  27.02100 51.89100 28.69700
C  26.03300 52.38500 29.49700
C  26.24200 52.15100 30.96400
C  27.65500 51.50000 30.98000
C  27.86300 51.20200 29.51600
C  28.90800 52.28900 31.59000
C  25.09300 51.39500 31.75800
C  24.38500 52.17600 32.84100
H  25.21000 52.64100 33.98200
N  28.95800 50.73500 26.65200
C  29.58100 50.29700 27.80300
C  30.77600 49.57400 27.43000
C  30.86200 49.51500 25.99100
C  29.65000 50.26000 25.50700
C  31.63500 49.09900 28.53900
C  31.86700 48.77200 25.10500
O  31.75900 48.81200 23.89400
C  32.89500 47.95400 25.66900
N  27.13300 51.69600 24.42900
C  28.09300 51.03300 23.71100
C  27.63400 50.74700 22.30400
C  26.27900 51.57200 22.23100
C  26.12800 52.11000 23.60300
C  28.67300 51.07000 21.23900
C  25.14600 50.87800 21.49200
C  24.57800 49.61000 22.28600
N  25.33200 52.82300 26.42100
C  24.57200 53.22600 25.28900
C  23.49500 54.03100 25.79100
C  23.56400 53.92200 27.20000
C  24.69100 53.21000 27.54200
C  22.42000 54.73700 24.85000
C  22.81000 54.27400 28.42900
O  21.70400 54.79200 28.64000
C  23.74900 53.73900 29.57200
C  24.22100 54.80900 30.44100
O  25.30400 55.38500 30.30000
O  23.24400 55.07600 31.34300
C  23.65000 55.97500 32.42100
H  29.59100 49.97000 29.85900
H  29.64000 49.74800 23.43700
H  24.34700 53.12500 23.13900
H  26.26000 53.13600 31.43200
H  27.70500 50.59200 31.58200
H  28.58000 53.32000 31.72300
H  29.73600 52.32100 30.88200
H  29.27300 51.82400 32.50600
H  25.31100 50.44300 32.24200
H  24.38700 50.96900 31.04500
H  23.54200 51.59800 33.22100
H  23.94200 53.07000 32.40200
H  32.67500 49.15400 28.21500
H  31.41700 48.06500 28.80500
H  31.45600 49.63700 29.47100
H  33.63100 48.60900 26.13500
H  33.46000 47.45200 24.88400
H  32.53500 47.27800 26.44400
H  27.33400 49.71300 22.13500
H  26.44700 52.51700 21.71500
H  29.64400 51.36400 21.63600
H  28.49000 51.86500 20.51700
H  28.83900 50.10900 20.75200
H  25.54300 50.48900 20.55400
H  24.36200 51.63000 21.40000
H  24.52200 49.84600 23.34800
H  25.15900 48.75300 21.94600
H  23.51500 49.38900 22.18700
H  22.61400 54.65100 23.78100
H  22.60500 55.76300 25.16700
H  21.46200 54.40500 25.24900
H  23.22700 52.99000 30.16700
H  24.13500 56.85500 31.99800
H  24.30000 55.43100 33.10700
H  22.74300 56.22500 32.97200

