158

Mg 44.94000 5.50300 48.03000
C  43.05100 8.47900 47.57800
C  42.29900 3.68000 47.12800
C  47.02600 2.92000 47.96200
C  47.79200 7.59600 48.55500
N  42.98700 6.04000 47.31000
C  42.44200 7.28000 47.12300
C  41.14900 7.18200 46.52000
C  40.69300 5.71700 46.75700
C  41.96300 5.05200 47.20300
C  39.49300 5.46700 47.76300
C  41.13300 7.69300 45.03100
C  40.00100 8.63000 44.73200
H  39.19000 8.24300 43.49300
N  44.67700 3.51000 47.74500
C  43.45800 2.94100 47.32600
C  43.66300 1.51400 47.41000
C  45.06500 1.25100 47.62700
C  45.67300 2.57600 47.79600
C  42.45700 0.63900 47.16900
C  45.60500 -0.13300 47.67900
O  44.92300 -1.08500 47.39500
C  47.01100 -0.31200 48.21100
N  47.11100 5.35000 48.22800
C  47.71700 4.07400 48.19200
C  49.28800 4.21100 48.16700
C  49.48100 5.65600 48.64800
C  48.09100 6.28500 48.36700
C  50.07700 3.14000 49.01300
C  50.65100 6.46100 47.97400
C  51.46800 7.29600 48.93900
N  45.41300 7.62500 48.01900
C  46.58800 8.28500 48.32800
C  46.32600 9.70000 48.34700
C  44.93000 9.88000 48.03700
C  44.47400 8.55500 47.93900
C  47.30200 10.75400 48.64900
C  43.79400 10.77600 47.89100
O  43.66100 11.97400 48.13300
C  42.59900 9.93200 47.45100
C  41.44400 10.12200 48.43800
O  41.19000 9.49400 49.44000
O  40.57400 11.03800 47.87900
C  39.40700 11.33000 48.68700
H  41.33400 3.22500 46.89700
H  47.78400 2.15900 47.76600
H  48.57900 8.26200 48.91600
H  40.44000 7.85100 47.00900
H  40.50600 5.28800 45.77200
H  39.15900 6.44700 48.10400
H  39.83100 4.87000 48.61000
H  38.70700 4.92400 47.23900
H  41.15600 6.90600 44.27800
H  42.02700 8.30300 44.89900
H  40.42700 9.59900 44.47100
H  39.29100 8.75800 45.55000
H  42.40900 -0.21400 47.84600
H  42.51600 0.37900 46.11200
H  41.52800 1.18200 47.34300
H  46.95500 -1.16200 48.89100
H  47.24600 0.50300 48.89500
H  47.79100 -0.32100 47.45000
H  49.62900 4.17200 47.13200
H  49.66200 5.61400 49.72300
H  49.34400 2.53100 49.54100
H  50.76600 3.58500 49.73200
H  50.71300 2.55600 48.34700
H  50.16900 7.20200 47.33700
H  51.34800 5.81700 47.43800
H  51.09100 7.32800 49.96100
H  51.55900 8.32300 48.58500
H  52.46100 6.87200 49.08600
H  46.91300 11.77100 48.60000
H  48.15200 10.63800 47.97600
H  47.54000 10.70600 49.71100
H  42.18900 10.29500 46.50900
H  39.19900 12.35000 49.01000
H  39.34000 10.77700 49.62400
H  38.58300 11.00500 48.05200
Mg -12.26100 15.66900 41.64000
C  -9.17800 13.92600 41.46200
C  -10.70000 18.42700 40.35900
C  -15.35900 17.04700 40.96200
C  -13.81000 12.62000 42.34900
N  -10.16200 16.03600 40.83900
C  -9.09700 15.27600 41.04900
C  -7.87900 15.96400 40.54800
C  -8.40600 17.46500 40.43900
C  -9.80500 17.33400 40.63600
C  -7.75200 18.45900 41.37700
C  -7.24500 15.33200 39.29000
C  -5.71500 15.56800 39.15400
H  -5.17500 16.26800 37.90300
N  -12.96600 17.52500 40.91800
C  -12.07100 18.51900 40.54600
C  -12.86900 19.68300 40.27000
C  -14.24000 19.35800 40.52700
C  -14.27100 17.92200 40.85500
C  -12.29700 21.05600 39.90000
C  -15.40900 20.29300 40.31200
O  -15.16900 21.43300 39.97000
C  -16.83400 19.95300 40.68000
N  -14.30300 14.85900 41.41300
C  -15.39900 15.65000 41.29600
C  -16.70900 14.85700 41.41000
C  -16.17900 13.49400 41.90600
C  -14.66600 13.61200 41.84400
C  -17.84500 15.46100 42.26000
C  -16.73600 12.24300 41.11600
C  -17.19800 11.15100 42.05000
N  -11.69900 13.69500 41.92800
C  -12.40600 12.61600 42.36400
C  -11.53000 11.46300 42.62000
C  -10.24100 12.00800 42.34100
C  -10.42500 13.30900 41.89100
C  -12.00700 10.18200 43.21900
C  -8.83800 11.66700 42.31600
O  -8.21900 10.64900 42.59500
C  -8.11000 12.89700 41.73900
C  -7.06500 13.24100 42.71800
O  -7.24800 13.47800 43.90800
O  -5.89500 13.49300 42.09000
C  -4.91100 14.31000 42.88000
H  -10.26000 19.38100 40.06500
H  -16.30500 17.55900 40.77600
H  -14.27500 11.69300 42.69100
H  -7.07900 16.01500 41.28600
H  -8.20300 17.90600 39.46300
H  -6.75100 18.16500 41.69100
H  -8.31100 18.62100 42.29900
H  -7.55200 19.35200 40.78500
H  -7.75100 15.82600 38.46100
H  -7.41500 14.25500 39.31100
H  -5.23200 14.59400 39.22400
H  -5.48000 16.04500 40.10500
H  -11.35600 21.12600 39.35500
H  -12.19900 21.57100 40.85500
H  -12.94500 21.67100 39.27500
H  -17.23800 19.22100 39.98000
H  -17.54400 20.74900 40.45400
H  -16.84100 19.69100 41.73800
H  -17.15300 14.69100 40.42800
H  -16.36500 13.46200 42.97900
H  -18.51400 16.02700 41.61100
H  -17.40600 16.14100 42.98900
H  -18.32900 14.63400 42.77900
H  -16.07200 11.74200 40.41200
H  -17.64100 12.65100 40.66500
H  -16.48700 10.33000 41.96800
H  -18.21400 10.76200 41.98700
H  -17.21400 11.43800 43.10100
H  -12.89700 9.83400 42.69600
H  -12.17400 10.39500 44.27500
H  -11.23600 9.41200 43.19800
H  -7.48000 12.52500 40.93100
H  -5.36100 15.21400 43.29200
H  -4.17300 14.76400 42.21900
H  -4.42800 13.69000 43.63600

