158

Mg -0.85500 5.99900 26.53400
C  0.11100 8.30700 29.03700
C  -0.47600 3.42500 28.89800
C  -1.83700 3.74000 24.20400
C  -0.86100 8.55600 24.15700
N  -0.40600 5.92400 28.83000
C  0.02500 6.99600 29.56200
C  0.30800 6.54200 30.96100
C  0.46900 5.01100 30.80800
C  -0.18800 4.74800 29.43300
C  1.98100 4.42700 30.85900
C  -0.74800 7.08000 31.89300
C  -0.40900 6.88600 33.41100
H  0.79400 5.92300 33.73300
N  -1.19000 3.84800 26.58100
C  -0.98800 3.02400 27.67100
C  -1.30500 1.68700 27.27400
C  -1.87000 1.75900 25.94900
C  -1.67200 3.12700 25.48900
C  -1.08100 0.47900 28.14900
C  -2.50600 0.66500 25.04700
O  -2.92700 0.93600 23.94700
C  -2.62800 -0.80500 25.59300
N  -1.01800 6.15200 24.51800
C  -1.54000 5.06900 23.78900
C  -1.89900 5.50900 22.33000
C  -1.81100 7.06000 22.41300
C  -1.20400 7.31400 23.72900
C  -0.89000 4.79600 21.27100
C  -3.15100 7.85800 22.26000
C  -3.24300 9.20900 21.59400
N  -0.47400 7.99000 26.52100
C  -0.42600 8.87000 25.48600
C  0.05900 10.17100 25.90700
C  0.24800 10.03400 27.33700
C  -0.12600 8.71100 27.68100
C  0.45300 11.39900 25.01400
C  0.61300 10.68600 28.64200
O  0.87000 11.81500 28.89200
C  0.47700 9.58800 29.69900
C  1.74500 9.48100 30.57900
O  2.83400 8.99100 30.29300
O  1.48600 9.91600 31.81000
C  2.51500 9.87000 32.81000
H  -0.13800 2.72900 29.66800
H  -2.34800 3.16600 23.42700
H  -0.90200 9.37200 23.43200
H  1.30100 6.89100 31.24500
H  -0.12200 4.44900 31.53100
H  2.23100 3.67300 30.11300
H  2.07700 3.96100 31.84000
H  2.75000 5.19500 30.77500
H  -1.59500 6.41100 31.74000
H  -1.18000 8.05900 31.68300
H  -1.35300 6.58700 33.86700
H  -0.05000 7.80400 33.87600
H  -0.28800 -0.09500 27.67000
H  -1.94300 -0.15000 28.36900
H  -0.61400 0.71000 29.10700
H  -1.60600 -1.06800 25.86600
H  -2.83300 -1.53100 24.80600
H  -3.33600 -1.05500 26.38300
H  -2.88800 5.10100 22.12100
H  -1.16600 7.48500 21.64400
H  -0.20200 5.61200 21.05000
H  -1.56600 4.47400 20.47900
H  -0.34000 4.00000 21.77300
H  -3.53000 7.96100 23.27700
H  -3.94800 7.26200 21.81600
H  -2.52600 9.24500 20.77300
H  -3.10200 10.08800 22.22200
H  -4.23000 9.30400 21.14200
H  -0.42000 11.67500 24.42200
H  1.21000 11.17600 24.26200
H  0.87500 12.18400 25.64100
H  -0.36600 9.88100 30.32400
H  3.57300 10.04400 32.61300
H  2.46900 8.93100 33.36100
H  2.33400 10.73300 33.45100
Mg 43.05300 42.24400 26.24800
C  41.81700 44.60000 28.62200
C  43.52300 40.06600 28.66700
C  44.34200 40.31200 23.87400
C  42.50300 44.77200 23.75600
N  42.69700 42.39200 28.33200
C  42.19900 43.41900 29.18500
C  42.25700 43.02400 30.65700
C  42.91700 41.55400 30.68700
C  43.08900 41.31500 29.15700
C  44.19500 41.34000 31.49900
C  40.83700 43.05800 31.30500
C  40.63100 44.00200 32.47700
H  41.44600 43.87800 33.77700
N  43.75700 40.43700 26.29100
C  43.85700 39.62700 27.36600
C  44.40900 38.33600 27.01800
C  44.64300 38.42300 25.60400
C  44.26500 39.82200 25.18600
C  44.52300 37.19900 27.98200
C  45.14600 37.39000 24.62400
O  45.48900 37.62900 23.51200
C  45.52100 36.04000 25.25800
N  43.60700 42.56700 24.13400
C  44.00700 41.54200 23.42800
C  44.01000 41.92100 21.87300
C  43.42400 43.29400 21.80400
C  43.14800 43.64400 23.30800
C  45.35000 41.82900 21.13600
C  42.14100 43.32400 20.89100
C  40.93000 42.51000 21.38500
N  42.34000 44.24400 26.15000
C  42.19400 45.09700 25.03800
C  41.64100 46.39800 25.56100
C  41.47800 46.17700 26.92900
C  41.95000 44.90100 27.26900
C  41.43200 47.69000 24.76700
C  40.95800 46.82200 28.14200
O  40.33600 47.85900 28.33400
C  41.11300 45.73500 29.29600
C  41.90900 46.39600 30.35300
O  43.09900 46.28800 30.48200
O  41.01500 47.16200 31.04900
C  41.62400 47.72900 32.27900
H  43.70700 39.38800 29.50400
H  44.50800 39.66100 23.01400
H  42.31200 45.50600 22.97000
H  42.99400 43.71600 31.06300
H  42.22000 40.80000 31.05200
H  44.95800 40.81600 30.92300
H  43.93500 40.68800 32.33300
H  44.71200 42.25400 31.79000
H  40.54300 42.05400 31.60800
H  40.11100 43.34200 30.54300
H  39.56900 43.92100 32.70500
H  40.50900 45.01100 32.08300
H  44.22500 37.50700 28.98400
H  45.51000 36.73900 28.04000
H  43.79400 36.43600 27.71100
H  44.58200 35.64100 25.64200
H  46.26000 36.16400 26.05100
H  45.93000 35.36100 24.51100
H  43.26800 41.18900 21.55200
H  44.12700 44.05100 21.45500
H  45.58200 40.79900 20.86500
H  46.20200 42.24600 21.67300
H  45.27700 42.28800 20.15000
H  42.40700 43.09800 19.85800
H  41.85800 44.37500 20.83000
H  41.20800 42.11200 22.36100
H  40.69300 41.69700 20.69800
H  40.12800 43.22700 21.55600
H  41.99800 47.80600 23.84300
H  41.46700 48.51900 25.47300
H  40.37200 47.77400 24.52600
H  40.11500 45.52900 29.68300
H  42.60300 48.18800 32.13700
H  41.90600 46.93700 32.97300
H  40.92600 48.41800 32.75300

