158

Mg 48.77200 44.55100 43.00600
C  45.24200 44.58000 42.86400
C  48.77000 41.16200 42.75300
C  52.14500 44.66800 43.00300
C  48.68000 48.07600 42.60300
N  47.14500 43.07400 42.72300
C  45.80900 43.27600 42.75300
C  45.00500 41.97200 42.76000
C  46.20600 40.90300 42.82600
C  47.48500 41.73700 42.86800
C  46.07000 40.00900 44.08400
C  43.96500 41.62700 41.64400
C  43.99500 42.39000 40.36200
H  44.47100 41.70300 39.12100
N  50.22800 43.11400 42.85800
C  50.01800 41.75600 42.85100
C  51.27800 41.07200 42.69300
C  52.28200 42.04200 42.78400
C  51.60800 43.36100 42.88000
C  51.49200 39.60000 42.46000
C  53.77500 41.65100 42.70700
O  54.24700 40.53700 42.57300
C  54.68400 42.73800 42.77600
N  50.16500 46.13400 42.82100
C  51.50200 45.89600 43.01700
C  52.25500 47.27000 43.30100
C  51.25800 48.26500 42.85900
C  49.92700 47.52900 42.74000
C  52.71400 47.44800 44.82400
C  51.63200 48.90500 41.53100
C  52.12100 50.32400 41.50700
N  47.27400 46.10600 42.75200
C  47.41500 47.47400 42.66500
C  46.04000 48.09000 42.74300
C  45.15500 47.00500 42.88500
C  45.95400 45.82000 42.83500
C  45.69000 49.58600 42.84100
C  43.77900 46.63500 43.08400
O  42.73900 47.23300 43.34600
C  43.77200 45.01600 42.99600
C  43.12500 44.49900 44.21300
O  42.09700 43.82700 44.20900
O  43.83500 44.89000 45.32900
C  43.60800 44.06200 46.46300
H  48.71100 40.08900 42.56200
H  53.22600 44.80500 43.08500
H  48.65400 49.16700 42.57300
H  44.56300 41.99400 43.75600
H  46.22100 40.26200 41.94400
H  46.35600 38.98100 43.86000
H  45.03100 39.83100 44.36400
H  46.68000 40.35500 44.91800
H  42.99900 41.79300 42.12100
H  43.89200 40.56300 41.41700
H  44.43800 43.38300 40.44100
H  42.91700 42.50200 40.24400
H  52.05500 39.08700 43.24000
H  51.88500 39.36300 41.47200
H  50.48000 39.21900 42.32700
H  54.54500 43.35300 41.88700
H  55.70000 42.37800 42.61300
H  54.53700 43.19700 43.75400
H  53.19700 47.24800 42.75300
H  51.02900 49.09000 43.53400
H  52.55400 48.45100 45.22000
H  53.75800 47.13800 44.77600
H  52.28300 46.72100 45.51300
H  50.85500 48.78700 40.77500
H  52.46800 48.32300 41.14300
H  51.31700 51.03700 41.32600
H  52.86400 50.55600 40.74400
H  52.54100 50.62900 42.46600
H  44.65700 49.78900 43.12600
H  45.82700 49.90600 41.80800
H  46.44100 50.00000 43.51300
H  43.11000 44.86100 42.14400
H  44.61100 43.88600 46.85000
H  43.01700 43.16000 46.30000
H  42.94100 44.62900 47.11300
Mg -11.87600 16.80000 42.99300
C  -8.32900 17.15900 42.79400
C  -11.99300 20.27600 42.19400
C  -15.13500 16.67000 42.56200
C  -11.54200 13.38100 42.87000
N  -10.34000 18.44800 42.31800
C  -8.90000 18.37200 42.39500
C  -8.22000 19.72900 42.21000
C  -9.45400 20.66700 42.45700
C  -10.68200 19.76700 42.32000
C  -9.45900 21.18100 43.94700
C  -7.48300 19.65400 40.83400
C  -5.92600 19.89900 40.94100
H  -5.13100 18.98600 39.95400
N  -13.38800 18.26900 42.51800
C  -13.22200 19.60200 42.32200
C  -14.47900 20.27100 42.06400
C  -15.46400 19.22100 42.21600
C  -14.73600 17.94900 42.45600
C  -14.74700 21.70900 41.55200
C  -17.04600 19.37400 42.00500
O  -17.56400 20.45000 41.84800
C  -17.98100 18.19600 41.98800
N  -13.13600 15.27700 42.67500
C  -14.47300 15.43900 42.62700
C  -15.23400 14.04700 42.62800
C  -14.06900 13.01600 42.67100
C  -12.85700 13.93200 42.76200
C  -16.27100 13.88100 43.78000
C  -14.09400 12.05600 41.50500
C  -14.74100 10.72000 41.74800
N  -10.29900 15.50400 43.00800
C  -10.30900 14.12300 42.91000
C  -8.93200 13.64100 42.95500
C  -8.14700 14.79900 42.99400
C  -9.05200 15.91700 42.95400
C  -8.47700 12.19300 42.98200
C  -6.74300 15.31200 42.98300
O  -5.67600 14.76000 43.08600
C  -6.85400 16.86100 43.05900
C  -6.36500 17.16000 44.39400
O  -6.94300 16.95900 45.47600
O  -5.14300 17.91900 44.22100
C  -4.39400 18.40800 45.42400
H  -12.10500 21.36200 42.18500
H  -16.22700 16.66500 42.55100
H  -11.41900 12.30000 42.97100
H  -7.47500 19.92300 42.98200
H  -9.47900 21.46200 41.71200
H  -8.47000 21.20400 44.40400
H  -10.01600 20.50400 44.59400
H  -10.03900 22.10300 43.88600
H  -7.96900 20.41500 40.22300
H  -7.60600 18.67100 40.37900
H  -5.60500 19.80200 41.97800
H  -5.86900 20.91500 40.55100
H  -15.52800 22.14200 42.17600
H  -15.18600 21.49800 40.57700
H  -13.83900 22.31100 41.51200
H  -19.03300 18.48100 41.97100
H  -17.98300 17.74100 42.97900
H  -17.92100 17.32900 41.33000
H  -15.83700 14.05600 41.72000
H  -14.12100 12.42700 43.58600
H  -16.19000 14.66000 44.53800
H  -16.27500 12.87000 44.18900
H  -17.19300 14.10800 43.24500
H  -13.12100 11.88500 41.04400
H  -14.63500 12.55500 40.70200
H  -15.59500 10.89200 42.40400
H  -13.99900 10.07500 42.21900
H  -15.13200 10.27700 40.83200
H  -9.29100 11.66500 42.48500
H  -8.22400 11.77400 43.95600
H  -7.50700 12.03600 42.51100
H  -6.21500 17.39500 42.35500
H  -4.41500 19.49700 45.47000
H  -3.36000 18.06700 45.37600
H  -4.73200 18.02700 46.38800

