158

Mg 47.63100 34.37500 27.28100
C  45.79100 33.15300 29.90700
C  48.22300 37.22800 29.13900
C  48.96000 35.62900 24.54300
C  46.93800 31.37100 25.48500
N  46.92000 35.21100 29.26200
C  46.39800 34.42100 30.20000
C  46.53700 35.00300 31.65900
C  47.02400 36.46000 31.35100
C  47.36100 36.35000 29.80600
C  45.93500 37.59600 31.49700
C  47.58600 34.19400 32.50400
C  47.48000 34.44100 34.03700
H  48.38500 35.59000 34.61100
N  48.35300 36.20000 26.83200
C  48.56400 37.18800 27.72600
C  49.07900 38.30900 27.07300
C  49.41300 37.87800 25.73800
C  48.90500 36.53500 25.61400
C  49.32000 39.66100 27.75600
C  50.18800 38.58300 24.58900
O  50.24800 38.15600 23.45300
C  50.76100 39.96800 24.90500
N  47.72000 33.64900 25.16800
C  48.50200 34.33200 24.32300
C  48.97100 33.56000 23.09700
C  48.42500 32.12200 23.49900
C  47.61800 32.36600 24.80100
C  48.47500 33.97600 21.72300
C  49.37300 30.91700 23.57400
C  48.78400 29.66100 22.90500
N  46.60100 32.58500 27.58800
C  46.46400 31.46200 26.82300
C  45.69100 30.49600 27.56700
C  45.39800 31.13600 28.73500
C  45.94000 32.36900 28.74300
C  45.26600 29.13300 27.15900
C  44.67000 30.91500 29.95100
O  43.84000 30.07800 30.32600
C  44.71300 32.38800 30.73500
C  45.02900 32.07300 32.14800
O  45.87300 31.27100 32.50700
O  44.11300 32.62600 33.02400
C  43.95600 32.06600 34.31900
H  48.60500 38.10100 29.67200
H  49.58600 36.04200 23.74900
H  46.92400 30.33200 25.14800
H  45.58100 34.92600 32.17600
H  47.94900 36.72000 31.86500
H  45.98900 38.31500 30.67900
H  46.04300 38.17000 32.41700
H  44.91900 37.21200 31.58500
H  48.58300 34.58800 32.30600
H  47.62600 33.13200 32.26200
H  47.94900 33.53700 34.42600
H  46.45300 34.42300 34.40000
H  49.36700 40.44500 27.00100
H  50.24200 39.70200 28.33700
H  48.45800 39.89800 28.38000
H  51.51000 40.07200 24.12000
H  51.20500 40.04800 25.89800
H  49.91100 40.63100 24.74800
H  50.06100 33.55000 23.10300
H  47.71600 31.82700 22.72600
H  47.47200 34.30800 21.98900
H  48.54400 33.09700 21.08200
H  49.05600 34.84900 21.42400
H  49.78300 30.73900 24.56700
H  50.29300 31.15700 23.04100
H  49.29300 29.53800 21.94900
H  47.71500 29.74700 22.71100
H  48.89000 28.83200 23.60400
H  45.38000 28.91300 26.09700
H  44.24000 29.07100 27.52200
H  45.81700 28.32300 27.63700
H  43.74800 32.87400 30.59500
H  43.14800 31.33400 34.33200
H  43.75100 32.81400 35.08400
H  44.81800 31.47000 34.61900
Mg 35.52100 49.12900 24.91800
C  35.69300 47.46100 27.98100
C  34.21700 51.85500 26.51500
C  35.19700 50.61000 21.91000
C  36.84600 46.16100 23.38300
N  35.03000 49.56600 27.05500
C  35.30500 48.81300 28.19400
C  35.12400 49.66600 29.40600
C  34.35500 50.93700 28.93700
C  34.53800 50.78900 27.45200
C  32.82900 51.07500 29.37000
C  36.51700 49.92700 30.09900
C  36.56800 49.52900 31.55900
H  35.24400 49.61800 32.26200
N  34.95200 51.03100 24.31500
C  34.40900 52.00900 25.14000
C  34.06300 53.11500 24.27700
C  34.35800 52.73200 22.94800
C  34.89100 51.38500 23.01100
C  33.43600 54.37600 24.86600
C  34.07100 53.50000 21.69300
O  34.30600 53.25200 20.49300
C  33.37900 54.89700 21.76800
N  35.97200 48.39300 22.90300
C  35.75500 49.27200 21.85700
C  36.38400 48.71700 20.62300
C  37.09700 47.37400 21.07400
C  36.51400 47.24900 22.52000
C  35.29800 48.44500 19.57500
C  38.70100 47.32500 21.07500
C  39.29600 46.01000 20.51700
N  35.95500 47.14100 25.46600
C  36.54000 46.11800 24.79800
C  36.90500 45.01600 25.66800
C  36.36000 45.42900 26.89400
C  35.94400 46.76100 26.78800
C  37.55200 43.72900 25.28700
C  36.28200 45.07800 28.30200
O  36.50800 44.00000 28.85900
C  35.86100 46.34700 29.02500
C  34.59000 45.92700 29.84100
O  33.41400 45.88600 29.50600
O  35.01400 45.55200 31.11800
C  34.00600 45.23000 32.17100
H  33.80000 52.65200 27.13500
H  35.02500 51.13600 20.96800
H  37.36600 45.26600 23.03400
H  34.49000 48.99300 29.98400
H  34.93600 51.83600 29.14200
H  32.27400 51.08600 28.43200
H  32.68000 51.98900 29.94600
H  32.48400 50.19500 29.91400
H  36.79000 50.97800 29.99800
H  37.24900 49.46500 29.43600
H  37.24800 50.05400 32.23000
H  37.00900 48.53900 31.45000
H  34.11000 55.23200 24.86000
H  33.25700 54.18300 25.92400
H  32.50300 54.54600 24.32800
H  34.02000 55.68600 22.16100
H  32.38100 54.83400 22.20000
H  33.17500 55.20700 20.74300
H  37.12400 49.42800 20.25600
H  36.70500 46.47500 20.60000
H  35.32600 47.38700 19.31100
H  35.43600 49.02700 18.66400
H  34.30900 48.70800 19.95100
H  39.01300 47.61100 22.08000
H  39.10800 48.13000 20.46300
H  40.20700 45.84800 21.09200
H  39.75200 46.08200 19.52900
H  38.47600 45.29700 20.43500
H  38.25700 43.86100 24.46600
H  36.80700 43.01200 24.94000
H  38.01600 43.20600 26.12300
H  36.55600 46.74600 29.76400
H  33.01900 45.23300 31.70900
H  34.01300 45.99600 32.94700
H  34.18500 44.22300 32.54800

