158

Mg 17.45400 -1.26300 28.47300
C  16.12900 0.74000 31.04500
C  19.09600 -3.16700 30.83600
C  19.15800 -2.67100 25.95700
C  15.97000 0.88100 26.15200
N  17.74900 -1.12900 30.69900
C  16.98500 -0.30800 31.51000
C  17.25200 -0.73300 32.97900
C  18.11900 -2.03500 32.90500
C  18.41200 -2.05100 31.39600
C  19.43000 -1.77200 33.70200
C  15.93000 -0.96200 33.83800
C  15.85400 -0.33900 35.22300
H  17.08900 -0.00600 36.08100
N  18.87500 -2.72100 28.37200
C  19.42100 -3.46200 29.45300
C  20.08600 -4.65600 28.82600
C  20.23100 -4.40700 27.44500
C  19.46500 -3.17300 27.20100
C  20.52100 -5.79400 29.68900
C  20.84300 -5.27900 26.26700
O  20.82600 -4.82900 25.10700
C  21.44300 -6.67000 26.54400
N  17.63500 -0.96800 26.37800
C  18.39700 -1.63600 25.51100
C  18.04900 -1.33900 24.02700
C  16.72800 -0.55000 24.15200
C  16.73600 -0.20600 25.66000
C  19.18800 -0.63500 23.30600
C  15.50100 -1.36300 23.74600
C  14.56800 -0.63800 22.71800
N  16.27800 0.40800 28.58500
C  15.72100 1.16500 27.54400
C  14.87800 2.21400 28.08900
C  15.09200 2.15200 29.50800
C  15.90300 1.02500 29.72500
C  14.10300 3.27100 27.28900
C  14.75900 2.81300 30.74100
O  14.01500 3.71000 31.04200
C  15.42200 1.89900 31.87100
C  16.38600 2.72900 32.59600
O  17.36400 3.16200 32.08200
O  16.05300 2.79800 33.93800
C  17.06300 3.43800 34.75500
H  19.35900 -3.95700 31.54300
H  19.54000 -3.08900 25.02300
H  15.42900 1.54600 25.47500
H  17.78100 0.13300 33.37500
H  17.53800 -2.93400 33.11300
H  20.07500 -1.16600 33.06600
H  19.97700 -2.71300 33.77400
H  19.13100 -1.45300 34.70000
H  15.59900 -1.98200 34.03600
H  15.10000 -0.58200 33.24200
H  15.22700 -0.95400 35.86800
H  15.24400 0.55400 35.08900
H  21.60900 -5.76400 29.75700
H  20.23800 -6.74100 29.23100
H  20.00700 -5.69500 30.64500
H  22.03900 -6.77600 27.45100
H  22.08200 -7.00000 25.72500
H  20.66700 -7.41300 26.72600
H  17.88800 -2.31200 23.56200
H  16.86800 0.37000 23.58400
H  19.21400 0.45000 23.41000
H  19.14600 -0.85100 22.23800
H  20.12200 -1.02600 23.70900
H  14.95300 -1.75800 24.60200
H  15.77400 -2.30200 23.26300
H  14.40100 -1.23500 21.82100
H  14.96000 0.32900 22.40300
H  13.61900 -0.42900 23.21100
H  13.83500 4.10900 27.93200
H  13.18600 2.84600 26.88200
H  14.74500 3.64700 26.49300
H  14.66100 1.57700 32.58200
H  17.14800 4.46900 34.41100
H  18.05700 2.99500 34.68400
H  16.73900 3.39200 35.79400
Mg -2.17500 35.35400 26.69500
C  -3.53000 33.73200 29.64000
C  -1.08600 37.80500 28.84500
C  -1.24000 36.89000 24.08100
C  -3.90400 32.94600 24.88800
N  -2.42200 35.72300 28.99200
C  -2.81600 34.89600 30.00600
C  -2.44900 35.35600 31.35500
C  -1.63100 36.68400 31.07600
C  -1.70200 36.81500 29.54200
C  -2.18200 37.92800 31.76600
C  -1.60800 34.23700 32.05200
C  -2.09000 33.72900 33.36900
H  -1.14300 33.57400 34.59200
N  -1.10700 37.03400 26.45700
C  -0.71000 37.90100 27.49700
C  0.10300 38.96900 26.86500
C  0.19800 38.61000 25.46700
C  -0.76200 37.51500 25.26800
C  0.83300 40.02600 27.67100
C  0.99200 39.16800 24.34100
O  1.20000 38.57300 23.31000
C  1.77200 40.34200 24.56000
N  -2.71700 35.04700 24.77000
C  -2.10800 35.87400 23.80900
C  -2.56400 35.44300 22.37800
C  -3.33600 34.08400 22.63700
C  -3.30700 33.95600 24.14400
C  -3.48500 36.43000 21.62900
C  -2.63500 32.74300 21.96900
C  -1.16000 32.43000 22.31700
N  -3.39000 33.66100 27.10200
C  -3.99600 32.84100 26.29300
C  -4.69200 31.71500 26.94000
C  -4.47600 32.01500 28.22000
C  -3.71000 33.20000 28.26500
C  -5.47900 30.52900 26.39600
C  -4.77800 31.56500 29.56100
O  -5.41500 30.59700 29.94500
C  -4.15700 32.63000 30.52200
C  -5.37000 33.17900 31.22600
O  -6.20200 33.95100 30.72600
O  -5.52700 32.61600 32.44700
C  -6.69100 32.99100 33.23200
H  -0.54100 38.46900 29.51900
H  -1.06700 37.50000 23.19200
H  -4.43700 32.22900 24.26000
H  -3.44300 35.52600 31.76800
H  -0.57900 36.59700 31.35000
H  -2.77900 38.48600 31.04500
H  -1.30800 38.54500 31.97500
H  -2.74800 37.54900 32.61700
H  -0.58200 34.59200 32.15500
H  -1.47700 33.48800 31.27000
H  -2.49000 32.72600 33.21900
H  -2.84100 34.42300 33.74800
H  0.72700 39.91100 28.75000
H  0.43400 40.98400 27.33800
H  1.90200 39.95300 27.47100
H  2.04000 40.80600 23.61100
H  2.69700 39.98500 25.01300
H  1.20700 41.02800 25.19200
H  -1.76500 35.21600 21.67200
H  -4.41000 34.24100 22.53800
H  -3.80700 37.27500 22.23700
H  -4.39400 35.90900 21.32600
H  -3.02100 36.78300 20.70900
H  -2.68800 32.91100 20.89400
H  -3.15100 31.78600 22.05100
H  -1.15100 31.37200 22.57900
H  -0.88700 33.07700 23.15100
H  -0.45400 32.47200 21.48700
H  -6.48000 30.96100 26.43200
H  -5.37500 29.66800 27.05600
H  -5.28000 30.21900 25.37000
H  -3.51000 32.12800 31.24100
H  -7.61500 32.78800 32.69000
H  -6.54200 34.04200 33.48000
H  -6.71600 32.48600 34.19700

