158

Mg 36.68200 48.95100 24.63400
C  36.59400 47.43400 27.80300
C  36.08400 51.92800 26.22300
C  36.42200 50.23700 21.63300
C  37.07900 45.76000 23.26900
N  36.25100 49.54700 26.82900
C  36.36700 48.82800 27.92400
C  36.05200 49.62000 29.23700
C  35.81200 51.05300 28.69000
C  36.05500 50.85400 27.14900
C  34.46100 51.69400 29.07700
C  37.32800 49.52200 30.13000
C  37.03600 49.13700 31.61200
H  35.84500 49.77700 32.24800
N  36.24000 50.80300 23.96800
C  36.17500 51.92200 24.76000
C  36.10600 53.08100 23.92500
C  36.26000 52.66900 22.63400
C  36.26500 51.15400 22.67600
C  35.88100 54.47100 24.51800
C  36.28600 53.44700 21.38000
O  36.29000 52.88900 20.21300
C  36.33400 55.04600 21.30600
N  36.52900 48.08100 22.60800
C  36.55900 48.85700 21.60400
C  36.68100 48.02200 20.25000
C  37.05900 46.58500 20.79800
C  36.83200 46.77800 22.29000
C  35.40300 48.12000 19.34800
C  38.49600 46.18000 20.29800
C  39.64400 46.58400 21.25400
N  36.94500 47.07700 25.34000
C  37.10900 45.82100 24.70200
C  37.44600 44.76800 25.64400
C  37.12500 45.30100 26.86000
C  36.83700 46.69200 26.60800
C  37.82800 43.37600 25.27600
C  37.08400 44.97800 28.27400
O  37.29700 43.95200 28.90500
C  36.68200 46.42900 28.94700
C  35.42400 46.21900 29.72100
O  34.26400 46.29000 29.27500
O  35.71100 45.93500 31.05300
C  34.58700 45.81800 32.00000
H  35.99700 52.87000 26.76800
H  36.20400 50.53800 20.60700
H  37.24400 44.79500 22.78400
H  35.23600 49.10000 29.74000
H  36.54600 51.78900 29.01700
H  33.86400 51.95400 28.20300
H  34.57600 52.63700 29.61200
H  33.88200 51.14200 29.81800
H  37.80800 50.49600 30.22200
H  38.08900 48.84700 29.73700
H  37.89900 49.55900 32.12700
H  37.07900 48.04900 31.55900
H  36.89700 54.83400 24.66900
H  35.30700 54.46500 25.44500
H  35.44400 55.14500 23.78100
H  37.09400 55.50300 21.94000
H  35.33100 55.36100 21.59300
H  36.50600 55.23200 20.24600
H  37.57300 48.38800 19.74200
H  36.28100 45.84900 20.59400
H  34.58000 48.40600 20.00400
H  35.17200 47.12700 18.96300
H  35.41000 48.82300 18.51500
H  38.54400 46.52000 19.26400
H  38.50300 45.09400 20.20600
H  39.35000 47.16100 22.13100
H  40.35200 47.16800 20.66600
H  40.16400 45.66700 21.53100
H  38.40800 43.34400 24.35300
H  36.91900 42.78100 25.19500
H  38.52000 42.91600 25.98200
H  37.50300 46.66100 29.62500
H  34.74300 46.24200 32.99200
H  34.46300 44.81200 32.40100
H  33.61900 46.16800 31.64000
Mg -11.34100 18.01200 42.60600
C  -8.15200 16.51000 41.92000
C  -9.74500 21.02100 41.81100
C  -14.28300 19.38000 42.47100
C  -12.80600 14.84200 42.49800
N  -9.26800 18.57500 41.87700
C  -8.14000 17.86300 41.67700
C  -6.86100 18.66900 41.29000
C  -7.39900 20.08100 41.66500
C  -8.90400 19.90000 41.87900
C  -6.73200 20.98000 42.71800
C  -6.49100 18.43300 39.82800
C  -4.94400 18.42600 39.52900
H  -4.28400 18.80500 38.23800
N  -11.91200 20.02100 42.42200
C  -11.17900 21.10900 41.99700
C  -12.09500 22.18700 41.68300
C  -13.42900 21.80900 42.04000
C  -13.30700 20.34300 42.36600
C  -11.58000 23.49100 41.13300
C  -14.61000 22.70800 42.11900
O  -14.49100 23.92400 42.08700
C  -15.97500 22.18300 42.57600
N  -13.31600 17.17800 42.43000
C  -14.32600 17.99100 42.60800
C  -15.58800 17.26300 42.67700
C  -15.14400 15.75300 42.73800
C  -13.63600 15.88600 42.35000
C  -16.46300 17.60100 43.94900
C  -15.92500 14.71500 41.89900
C  -15.78900 14.81700 40.36800
N  -10.67200 16.03000 42.36300
C  -11.37200 14.87200 42.34100
C  -10.47500 13.71100 42.22600
C  -9.20200 14.33800 42.11700
C  -9.35300 15.74500 42.11900
C  -10.88300 12.26700 42.11300
C  -7.79800 14.05600 42.12600
O  -7.21900 13.00900 42.14000
C  -7.06400 15.49800 41.72100
C  -5.92600 15.66900 42.74700
O  -4.71700 15.75100 42.52900
O  -6.49300 15.91000 43.91400
C  -5.59800 16.45000 44.93800
H  -9.13300 21.87200 41.50500
H  -15.31300 19.71700 42.34100
H  -13.27900 13.86000 42.56500
H  -6.05700 18.38500 41.96900
H  -7.38900 20.73200 40.79100
H  -7.43600 21.37000 43.45300
H  -6.28700 21.87300 42.27800
H  -5.94000 20.36300 43.14200
H  -6.84600 19.13500 39.07400
H  -6.90800 17.53800 39.36700
H  -4.44600 17.51700 39.86800
H  -4.58200 19.17400 40.23500
H  -12.40200 23.77200 40.47400
H  -10.73700 23.48600 40.44200
H  -11.44300 24.29300 41.85800
H  -16.50500 21.61500 41.81300
H  -16.52400 23.09100 42.82900
H  -15.77500 21.69900 43.53200
H  -16.29100 17.32400 41.84600
H  -15.22100 15.55600 43.80700
H  -16.64000 16.77500 44.63900
H  -17.38500 18.13100 43.70800
H  -15.87800 18.26100 44.58900
H  -16.99400 14.74000 42.11200
H  -15.62400 13.72800 42.25000
H  -15.22800 13.98600 39.94100
H  -15.19800 15.70800 40.15700
H  -16.78500 14.88400 39.93000
H  -10.17800 11.55000 42.53200
H  -10.88300 12.14200 41.03000
H  -11.93800 12.21800 42.38400
H  -6.65400 15.50400 40.71100
H  -6.27900 16.60900 45.77400
H  -5.31100 17.44200 44.58900
H  -4.82400 15.81400 45.36600

