158

Mg 25.59400 2.19500 29.93000
C  27.65400 1.22300 32.61800
C  22.86100 2.11800 32.08500
C  23.44300 2.68900 27.35300
C  28.15200 1.62600 27.74600
N  25.29000 1.84100 32.09900
C  26.29300 1.55300 33.05000
C  25.80100 1.79900 34.49200
C  24.24900 1.77500 34.28400
C  24.14800 1.95300 32.71900
C  23.58800 0.46200 34.81200
C  26.35900 3.01400 35.20200
C  27.34200 2.63600 36.34700
H  27.47200 3.65300 37.49400
N  23.42800 2.45700 29.77100
C  22.53100 2.37600 30.78100
C  21.19700 2.57200 30.27000
C  21.32000 2.64500 28.83900
C  22.78500 2.58200 28.60500
C  20.00700 2.63200 31.19000
C  20.29600 2.81500 27.78800
O  20.57400 2.95500 26.56700
C  18.97500 2.90800 28.20200
N  25.77900 2.20400 27.87200
C  24.83600 2.57900 27.01200
C  25.38000 2.74600 25.54700
C  26.92800 2.42100 25.71000
C  26.95300 2.03400 27.18700
C  24.58600 1.99300 24.43900
C  27.76600 3.68000 25.40600
C  28.98800 3.27100 24.57700
N  27.50800 1.57000 30.10600
C  28.41900 1.26800 29.04600
C  29.55900 0.68500 29.61100
C  29.33300 0.76900 31.04000
C  28.08000 1.23000 31.27500
C  30.82000 0.37300 28.82200
C  30.00600 0.62300 32.34400
O  31.13500 0.28100 32.66100
C  28.93100 0.91800 33.41700
C  28.80100 -0.16900 34.44400
O  28.21900 -1.25900 34.26500
O  29.46800 0.20000 35.62500
C  29.27300 -0.65200 36.79700
H  22.09000 2.03100 32.85400
H  22.85600 2.99500 26.48500
H  28.96000 1.67600 27.01300
H  26.03200 0.90100 35.06600
H  23.66600 2.56100 34.76500
H  22.55500 0.60000 35.13000
H  24.16000 0.27000 35.71900
H  23.68100 -0.37500 34.11900
H  25.51900 3.54100 35.65400
H  26.84800 3.66200 34.47500
H  28.34800 2.63900 35.92700
H  27.20400 1.59800 36.65000
H  20.11100 2.14600 32.16000
H  19.21100 2.02400 30.76000
H  19.70500 3.65700 31.40400
H  18.64600 2.05100 28.78800
H  18.36500 3.22900 27.35700
H  19.01600 3.73800 28.90700
H  25.16600 3.79300 25.33300
H  27.30200 1.52400 25.21700
H  25.31100 1.37400 23.91100
H  24.06400 2.70600 23.80100
H  23.81500 1.40700 24.93900
H  28.09700 4.11700 26.34800
H  27.16800 4.38200 24.82400
H  29.05800 4.05700 23.82500
H  28.89200 2.30000 24.09100
H  29.88800 3.26800 25.19200
H  30.85100 -0.64600 28.43600
H  31.67600 0.37100 29.49700
H  30.88200 1.07400 27.98900
H  29.31800 1.82600 33.88000
H  28.30900 -0.38500 37.23100
H  30.09800 -0.41900 37.47000
H  29.39600 -1.73300 36.72400
Mg 30.13500 57.32600 38.89300
C  27.22200 55.62300 37.95300
C  31.93300 54.53100 38.20300
C  32.92600 59.21000 38.43300
C  28.24800 60.27000 39.12300
N  29.56600 55.36300 38.26100
C  28.34400 54.85700 37.91600
C  28.40200 53.28900 37.72800
C  29.88100 52.98800 38.17100
C  30.52100 54.33400 38.20600
C  30.00700 52.07000 39.44400
C  28.09300 52.79100 36.24000
C  28.82400 53.57400 35.16400
H  27.93400 54.53200 34.35200
N  32.23700 56.90300 38.57100
C  32.70800 55.69700 38.29300
C  34.12500 55.78400 38.00700
C  34.46800 57.13500 38.09600
C  33.22600 57.84500 38.40200
C  35.07500 54.56400 37.68300
C  35.80500 57.72600 37.77200
O  36.74800 56.93100 37.74200
C  36.14600 59.08700 37.62700
N  30.51300 59.41000 38.81100
C  31.77200 59.95100 38.70400
C  31.76400 61.49800 38.68000
C  30.30200 61.82500 39.17000
C  29.62800 60.41300 38.98800
C  32.92000 62.12000 39.62200
C  29.65100 63.06000 38.44400
C  29.42400 64.32200 39.30800
N  28.04600 57.89500 38.72600
C  27.48000 59.13700 38.87900
C  25.99300 59.02100 38.72700
C  25.88700 57.59400 38.38100
C  27.13000 56.99600 38.33500
C  24.96400 60.14300 38.74600
C  24.93700 56.52900 38.13600
O  23.72000 56.61700 38.12200
C  25.75500 55.27100 37.69500
C  25.40100 54.19000 38.66400
O  25.36900 54.25700 39.91100
O  25.10500 53.10400 37.94600
C  24.59500 51.95700 38.69500
H  32.41800 53.55800 38.10000
H  33.71700 59.96200 38.42100
H  27.85700 61.26300 39.35600
H  27.59200 52.92500 38.36000
H  30.34600 52.39900 37.38000
H  30.39400 52.66700 40.27000
H  30.74100 51.29600 39.21800
H  29.00400 51.69200 39.64400
H  27.02300 52.95800 36.12000
H  28.35100 51.73700 36.13600
H  29.22200 52.83900 34.46300
H  29.66200 54.12400 35.59200
H  35.55000 54.76100 36.72200
H  34.60100 53.58900 37.56900
H  35.81000 54.41100 38.47400
H  36.56300 59.42500 38.57600
H  35.26400 59.65400 37.32800
H  36.77000 59.27200 36.75200
H  31.84500 61.86100 37.65500
H  30.32700 61.97700 40.24900
H  33.25300 61.28000 40.23100
H  32.63800 62.80700 40.42000
H  33.77900 62.44700 39.03600
H  28.71700 62.58700 38.14000
H  30.28100 63.45000 37.64500
H  30.06600 64.26900 40.18700
H  28.38100 64.24500 39.61600
H  29.50900 65.16100 38.61700
H  24.45500 60.21700 37.78400
H  25.59200 61.02700 38.85000
H  24.19400 60.19700 39.51500
H  25.50200 55.04400 36.65900
H  24.05300 52.28900 39.58100
H  25.43200 51.34100 39.02500
H  24.01600 51.23000 38.12600

