158

Mg 24.84500 -6.41600 47.57000
C  27.24900 -4.10800 46.48200
C  22.65400 -5.19300 45.12300
C  22.70300 -8.92200 48.11600
C  27.42500 -7.99700 49.25200
N  25.01200 -4.99900 45.86900
C  25.99600 -4.06700 45.78300
C  25.69700 -3.14000 44.63700
C  24.20100 -3.19000 44.52200
C  23.92200 -4.53900 45.19700
C  23.38000 -1.90800 44.93700
C  26.41800 -3.64200 43.34400
C  27.14000 -2.45800 42.58500
H  27.16500 -2.42200 41.06700
N  22.89700 -6.94300 46.80200
C  22.14600 -6.36600 45.77900
C  20.86100 -6.97000 45.59100
C  20.81900 -8.06100 46.50200
C  22.15700 -8.06200 47.20700
C  19.82600 -6.63300 44.59000
C  19.67100 -9.04000 46.64500
O  18.58000 -8.78900 46.05600
C  19.85100 -10.41700 47.33000
N  25.10700 -8.21400 48.49100
C  24.03300 -9.04400 48.66700
C  24.38000 -10.32100 49.46700
C  25.88100 -10.00800 49.80000
C  26.19000 -8.66500 49.20200
C  23.44000 -10.50400 50.68700
C  26.85600 -11.15500 49.33900
C  27.25000 -12.31100 50.25800
N  26.90200 -6.02700 48.07300
C  27.81600 -6.78400 48.69800
C  29.17800 -6.23600 48.58500
C  28.95700 -5.05500 47.84700
C  27.59900 -4.99400 47.48500
C  30.44600 -6.91300 49.03700
C  29.61100 -3.88400 47.26400
O  30.77700 -3.56600 47.47700
C  28.51700 -3.17300 46.44000
C  28.20400 -1.75100 46.87400
O  27.91600 -1.35700 48.00100
O  28.19200 -1.03600 45.64900
C  27.46100 0.19400 45.84700
H  21.90900 -4.74600 44.46000
H  21.94800 -9.65900 48.39700
H  28.15500 -8.57300 49.82400
H  25.89800 -2.10900 44.92600
H  23.98700 -3.47400 43.49200
H  23.98800 -1.03500 45.17500
H  22.68300 -2.16000 45.73600
H  22.79000 -1.64400 44.06000
H  25.85800 -4.25600 42.63800
H  27.19600 -4.30000 43.73300
H  28.17700 -2.63500 42.86800
H  26.73200 -1.51300 42.94500
H  19.51300 -7.54600 44.08300
H  20.21300 -5.96100 43.82400
H  18.92600 -6.28500 45.09700
H  20.74400 -10.83300 46.86200
H  18.92900 -10.94800 47.09300
H  19.93200 -10.33300 48.41400
H  24.36600 -11.11900 48.72400
H  26.02400 -9.83700 50.86700
H  23.96000 -10.90900 51.55500
H  22.58000 -11.11700 50.41800
H  22.97800 -9.58300 51.04200
H  27.71900 -10.72000 48.83500
H  26.45400 -11.63700 48.44800
H  26.82300 -13.26800 49.95900
H  26.97800 -12.06500 51.28400
H  28.31200 -12.48200 50.08600
H  31.28900 -6.22700 49.11100
H  30.83500 -7.63700 48.32100
H  30.34600 -7.46400 49.97200
H  28.82900 -3.13000 45.39700
H  27.82000 0.80600 46.67500
H  26.40300 -0.04500 45.96300
H  27.53900 0.81100 44.95200
Mg 0.08200 43.52400 26.63400
C  2.16100 42.73900 29.29500
C  -2.66400 42.50100 28.55800
C  -1.92400 44.03600 24.01100
C  2.84000 44.19900 24.61300
N  -0.20400 42.75800 28.70200
C  0.77500 42.68500 29.60400
C  0.23900 42.50300 30.98700
C  -1.29200 42.07800 30.70500
C  -1.41900 42.43100 29.24500
C  -1.71000 40.62000 30.94300
C  0.48100 43.79700 31.85700
C  1.22800 43.52700 33.17300
H  0.97500 42.26800 33.98000
N  -1.99600 43.30300 26.30000
C  -2.94300 42.82900 27.17200
C  -4.21900 42.77400 26.56700
C  -3.96000 43.15900 25.20700
C  -2.56100 43.48700 25.11700
C  -5.54300 42.47900 27.31300
C  -4.89800 43.26600 24.06100
O  -4.74600 43.76500 22.96900
C  -6.32300 42.65200 24.23700
N  0.49600 44.01900 24.52700
C  -0.57200 44.39700 23.83600
C  -0.14000 45.09200 22.56500
C  1.38600 45.42000 22.87000
C  1.61200 44.49100 24.02700
C  -0.31500 44.43500 21.25600
C  1.52100 47.00000 23.17600
C  1.68000 47.96800 22.06500
N  2.03800 43.49300 26.83000
C  3.08300 43.70900 25.93000
C  4.35400 43.67900 26.59800
C  4.03600 43.12100 27.86400
C  2.63000 43.07500 28.00700
C  5.65500 43.82600 25.92600
C  4.59500 42.70500 29.15000
O  5.80300 42.50500 29.39700
C  3.38200 42.58900 30.17700
C  3.50400 41.22800 30.75100
O  3.35600 40.22200 30.10900
O  3.95800 41.26600 32.03400
C  4.39700 39.99000 32.50700
H  -3.39600 41.97500 29.17400
H  -2.54800 44.08700 23.11700
H  3.72400 44.42700 24.01300
H  0.71000 41.61400 31.40700
H  -1.92400 42.69800 31.34200
H  -2.47100 40.56200 31.72100
H  -0.91000 40.04200 31.40800
H  -2.10000 40.09600 30.07100
H  -0.50600 44.19000 32.10100
H  1.06300 44.55100 31.32700
H  0.93200 44.30100 33.88100
H  2.28500 43.61400 32.92200
H  -5.98800 41.50500 27.10900
H  -6.38400 43.12300 27.05500
H  -5.33700 42.54800 28.38100
H  -6.84200 43.33500 24.90900
H  -6.28200 41.66500 24.69800
H  -6.68900 42.57000 23.21300
H  -0.74400 45.99900 22.52800
H  1.97000 45.16700 21.98400
H  -1.01100 45.03700 20.67100
H  -0.75700 43.43900 21.25600
H  0.57600 44.17500 20.68600
H  2.41200 47.11900 23.79300
H  0.64800 47.24500 23.78200
H  0.97600 48.77900 22.25300
H  1.31900 47.54400 21.12900
H  2.66600 48.41700 21.94300
H  5.83500 44.86500 25.65000
H  5.61300 43.20600 25.03000
H  6.44000 43.46900 26.59400
H  3.39100 43.40900 30.89500
H  3.61700 39.24900 32.68000
H  4.93900 40.09800 33.44700
H  5.11200 39.64800 31.75900

