158

Mg 28.12600 56.72800 40.76500
C  25.56000 54.31200 40.09500
C  30.35900 54.32600 39.63500
C  30.25700 59.10700 40.41600
C  25.47500 58.96800 41.16500
N  27.92500 54.55200 39.95300
C  26.81200 53.84400 39.69300
C  27.12500 52.46100 39.01500
C  28.69500 52.41700 39.16900
C  29.05300 53.86500 39.64000
C  29.07500 51.30400 40.22100
C  26.58500 52.36500 37.59400
C  26.78500 53.66400 36.76200
H  27.03400 53.41500 35.26300
N  30.08200 56.72400 40.18400
C  30.83100 55.64400 39.74800
C  32.15200 56.19400 39.52000
C  32.14100 57.56700 39.78800
C  30.79800 57.83000 40.15700
C  33.26200 55.32800 39.12700
C  33.38700 58.38700 39.59600
O  34.41500 57.97500 39.07600
C  33.37700 59.88800 40.03200
N  27.89900 58.70000 40.86400
C  28.97600 59.52200 40.81000
C  28.55300 61.01600 41.09000
C  27.01300 60.89400 41.26600
C  26.74100 59.43600 41.12300
C  29.29000 61.58500 42.30800
C  26.32500 61.68300 40.09000
C  25.67500 62.99700 40.62000
N  26.02000 56.59600 41.06900
C  25.08900 57.59600 41.22100
C  23.78900 57.00100 41.48400
C  23.91900 55.68400 41.04200
C  25.28500 55.50700 40.72800
C  22.49300 57.65100 41.84900
C  23.15400 54.47200 40.66600
O  21.97000 54.15300 40.77400
C  24.23300 53.54600 40.06300
C  24.23800 52.27600 40.80100
O  24.05800 51.18000 40.21000
O  24.63000 52.43700 42.08000
C  25.25100 51.26300 42.66100
H  31.09400 53.68100 39.15000
H  30.90700 59.97600 40.28800
H  24.60100 59.58900 41.36900
H  26.67400 51.65000 39.58700
H  29.15700 52.21400 38.20300
H  29.77300 51.76600 40.91800
H  29.70200 50.53500 39.77000
H  28.24900 50.90500 40.81000
H  25.51800 52.14300 37.62100
H  27.07300 51.54200 37.07200
H  27.64400 54.20500 37.16000
H  25.93900 54.32600 36.94600
H  34.16500 55.36800 39.73600
H  33.46900 55.45600 38.06500
H  33.02400 54.26500 39.15000
H  32.87900 59.86800 41.00100
H  32.74000 60.37700 39.29500
H  34.41900 60.18400 40.15800
H  28.84400 61.56500 40.19400
H  26.73200 61.17000 42.28200
H  29.77600 62.52100 42.03200
H  30.03700 60.89300 42.69700
H  28.63500 61.75200 43.16300
H  25.55700 61.00100 39.72600
H  26.98400 61.99400 39.27800
H  25.73700 63.12900 41.70000
H  24.64700 63.05000 40.26200
H  26.20400 63.84000 40.17500
H  21.76400 56.84100 41.85700
H  22.15900 58.17300 40.95200
H  22.48400 58.29000 42.73200
H  24.01400 53.18000 39.06000
H  25.53000 51.47900 43.69200
H  26.16700 50.99600 42.13600
H  24.59900 50.39000 42.68200
Mg 16.83500 52.27900 25.49800
C  18.53700 50.72200 28.32100
C  14.18000 52.85500 27.71800
C  14.94200 52.99300 22.79800
C  19.39700 51.05100 23.50500
N  16.51700 51.95800 27.81000
C  17.34400 51.35900 28.71600
C  16.79500 51.57500 30.16400
C  15.33400 51.88100 29.77900
C  15.36100 52.29100 28.38000
C  14.25700 50.76600 30.08600
C  17.51000 52.76200 30.82700
C  17.37600 52.88500 32.35000
H  16.61900 51.85900 33.10100
N  14.91400 52.92800 25.36800
C  13.94000 53.09800 26.31700
C  12.68300 53.68500 25.66900
C  12.95700 53.66500 24.26700
C  14.30600 53.19000 24.05000
C  11.37700 54.00700 26.37600
C  12.00200 54.17400 23.09600
O  12.41500 54.23100 21.98700
C  10.62500 54.70400 23.41500
N  17.19600 52.24700 23.49200
C  16.28300 52.60000 22.50700
C  16.78700 52.29700 21.07200
C  18.29600 51.91900 21.29400
C  18.37500 51.80300 22.88100
C  15.99500 51.28800 20.23700
C  19.36000 52.80100 20.66400
C  20.31900 53.62400 21.50700
N  18.68200 51.27700 25.78400
C  19.57100 50.83000 24.83000
C  20.62900 49.94500 25.48000
C  20.29500 50.01300 26.79900
C  19.07700 50.75800 26.95300
C  21.87500 49.30600 24.80100
C  20.68200 49.54900 28.12800
O  21.65500 48.84800 28.42700
C  19.64200 50.07700 29.12000
C  19.40900 48.98100 30.07500
O  18.85600 47.89900 29.81300
O  20.10400 49.24100 31.31600
C  19.88700 48.35000 32.49900
H  13.35200 53.16200 28.36100
H  14.32400 53.05400 21.90100
H  20.12100 50.69100 22.77100
H  16.76500 50.64700 30.73500
H  14.97100 52.79400 30.25100
H  14.17000 50.10900 29.22100
H  13.28100 51.16700 30.35700
H  14.59800 50.10000 30.87800
H  17.13500 53.60700 30.25000
H  18.58700 52.74200 30.65800
H  16.96600 53.81700 32.73900
H  18.40500 52.90400 32.70800
H  10.72300 53.16800 26.13900
H  11.04400 54.95000 25.94400
H  11.42800 54.12100 27.45900
H  10.68200 55.56600 24.08000
H  10.06000 53.84700 23.78200
H  10.20900 54.96900 22.44300
H  16.76600 53.26800 20.57700
H  18.45700 50.89100 20.97000
H  16.60400 50.57100 19.68600
H  15.53300 51.88600 19.45100
H  15.25200 50.79000 20.86000
H  18.87100 53.41800 19.91000
H  20.04000 52.14700 20.11800
H  19.92600 53.77200 22.51300
H  20.50300 54.62400 21.11600
H  21.28800 53.12600 21.46600
H  22.75000 49.76000 25.26700
H  21.92000 49.52000 23.73300
H  21.88900 48.21900 24.88500
H  20.30300 50.82700 29.55400
H  19.20500 48.84100 33.19300
H  20.87800 48.29000 32.94700
H  19.57600 47.33200 32.26200

