158

Mg 35.96100 48.92100 26.21800
C  36.23800 46.79200 28.96500
C  34.61200 51.38100 28.44700
C  35.49500 50.91500 23.58400
C  37.01100 46.35300 24.21400
N  35.51400 49.03600 28.40900
C  35.82100 48.08100 29.30500
C  35.70400 48.63900 30.80600
C  34.95200 50.01300 30.57300
C  35.09000 50.16600 29.07200
C  33.34700 49.91300 30.96200
C  37.09700 48.81800 31.43600
C  37.27100 48.55500 32.95000
H  35.98900 48.46000 33.81800
N  35.24200 50.89600 26.04900
C  34.72400 51.72700 27.06900
C  34.31500 52.97000 26.40800
C  34.61200 52.88400 24.95800
C  35.14100 51.51700 24.80200
C  33.78200 54.19300 27.15600
C  34.32000 53.85400 23.94400
O  34.72300 53.73400 22.81000
C  33.37700 54.96300 24.13100
N  35.97400 48.53600 24.18700
C  35.84500 49.57900 23.32800
C  35.96300 49.01800 21.84600
C  36.75600 47.64900 22.09300
C  36.59800 47.48300 23.60100
C  34.58600 48.96600 21.15900
C  38.27500 47.49300 21.63000
C  39.18700 48.58700 22.11100
N  36.44700 47.03100 26.50600
C  36.98000 46.11000 25.56300
C  37.34900 44.86300 26.21500
C  37.05000 45.13200 27.55600
C  36.53800 46.42600 27.68400
C  38.03000 43.68600 25.57100
C  36.98800 44.61300 28.89700
O  37.34200 43.50900 29.23400
C  36.47300 45.63900 29.86600
C  35.25800 45.23500 30.55800
O  34.18500 44.90400 30.05400
O  35.46200 45.12500 31.91300
C  34.39200 44.70100 32.72800
H  34.10300 52.10600 29.08500
H  35.58000 51.47000 22.64800
H  37.35800 45.44100 23.72300
H  35.01900 48.04600 31.41200
H  35.31500 50.90600 31.08400
H  33.02800 48.95800 30.54400
H  32.80200 50.70700 30.45200
H  33.21800 49.99900 32.04100
H  37.35600 49.86100 31.25600
H  37.81700 48.14700 30.96600
H  37.83100 49.40100 33.34600
H  37.92000 47.68700 33.06800
H  32.69500 54.19200 27.07900
H  34.19400 55.06000 26.64100
H  34.23600 54.14100 28.14600
H  32.45900 54.65200 24.62900
H  33.05000 55.24200 23.12900
H  33.80500 55.88300 24.52800
H  36.61000 49.66500 21.25400
H  36.21600 46.83400 21.61100
H  34.54300 49.50600 20.21300
H  33.82400 49.37600 21.82200
H  34.26500 47.94700 20.94300
H  38.15200 47.60900 20.55300
H  38.48400 46.48300 21.98100
H  38.60700 49.48700 22.31700
H  39.99200 48.93000 21.46100
H  39.67500 48.25100 23.02600
H  38.75800 44.05100 24.84700
H  37.34900 42.97500 25.10400
H  38.47700 43.08400 26.36200
H  37.28300 45.79500 30.57900
H  34.79400 44.71200 33.74100
H  34.05500 43.68800 32.51000
H  33.67400 45.51900 32.78800
Mg -9.93100 39.09600 39.47700
C  -9.16900 35.84100 38.84600
C  -6.72300 40.04100 38.35400
C  -11.02400 42.25800 39.44800
C  -13.30700 38.11800 40.30300
N  -8.20000 38.08000 38.67100
C  -8.08400 36.68300 38.54700
C  -6.60800 36.29800 38.12000
C  -5.82700 37.65800 38.22900
C  -7.00000 38.66300 38.44300
C  -4.67700 37.69900 39.27900
C  -6.58500 35.63900 36.73000
C  -7.12300 36.47700 35.52100
H  -8.21100 35.84000 34.61900
N  -9.03800 40.83900 38.89000
C  -7.71500 41.05700 38.53100
C  -7.58000 42.50700 38.27100
C  -8.80100 43.17500 38.42800
C  -9.68500 42.07000 38.97600
C  -6.21700 43.10700 37.89300
C  -9.00600 44.70600 38.15300
O  -8.24300 45.31800 37.45300
C  -10.43000 45.35200 38.50100
N  -11.94200 40.07600 40.02200
C  -12.04600 41.39800 39.94900
C  -13.49900 41.88500 40.31300
C  -14.18200 40.54400 40.72700
C  -13.12200 39.49000 40.35000
C  -13.65300 42.96500 41.44200
C  -15.55000 40.21500 40.09100
C  -16.81900 40.86300 40.66400
N  -11.06800 37.41200 39.52100
C  -12.44100 37.12000 39.83800
C  -12.66600 35.69100 39.82500
C  -11.40300 35.18700 39.38300
C  -10.46800 36.23600 39.17400
C  -13.81400 34.89100 40.16400
C  -10.75000 33.93300 38.92900
O  -11.18300 32.82100 38.74500
C  -9.26800 34.29700 38.58100
C  -8.40900 33.48800 39.46900
O  -8.55200 33.30600 40.68100
O  -7.35800 32.93400 38.72800
C  -6.50900 32.06300 39.49800
H  -5.70100 40.39800 38.21800
H  -11.25700 43.31300 39.61000
H  -14.27000 37.73000 40.64200
H  -6.23300 35.67900 38.93400
H  -5.39300 37.78000 37.23700
H  -3.82900 38.22100 38.83500
H  -4.38200 36.70700 39.62000
H  -4.94000 38.35800 40.10700
H  -7.16100 34.71400 36.69500
H  -5.55500 35.31500 36.58500
H  -6.26400 36.71100 34.89200
H  -7.61300 37.38900 35.86000
H  -6.16200 44.06100 38.41600
H  -6.06300 43.22300 36.82000
H  -5.41100 42.47000 38.25600
H  -10.51000 45.48500 39.58000
H  -11.10100 44.65900 37.99300
H  -10.53600 46.31900 38.00900
H  -13.98200 42.21900 39.39500
H  -14.35300 40.57000 41.80300
H  -14.17900 43.88200 41.17700
H  -12.58900 43.07300 41.65100
H  -14.08500 42.60500 42.37600
H  -15.68100 39.13400 40.11100
H  -15.36200 40.38000 39.03000
H  -16.63000 41.44400 41.56700
H  -17.46100 40.05300 41.01200
H  -17.33100 41.34900 39.83500
H  -13.75700 33.94500 39.62400
H  -14.67700 35.49400 39.88100
H  -13.83400 34.61500 41.21800
H  -9.23600 34.01800 37.52800
H  -5.86400 32.73200 40.06700
H  -5.95700 31.40100 38.83000
H  -7.16900 31.47600 40.13800

