158

Mg 17.14000 51.15000 25.80700
C  18.83200 49.68300 28.59100
C  14.67900 52.06700 27.98800
C  15.41500 52.21400 23.09900
C  19.52100 49.58300 23.68800
N  16.77200 50.79500 28.00100
C  17.62900 50.28400 28.94800
C  17.07400 50.58100 30.34900
C  15.61800 51.00600 30.10800
C  15.70400 51.33500 28.56600
C  14.60000 49.81700 30.38900
C  17.91600 51.57600 31.16100
C  18.42000 51.13000 32.51600
H  17.83300 51.88600 33.72600
N  15.26900 52.02500 25.54200
C  14.41800 52.37500 26.56800
C  13.28500 53.13000 25.97200
C  13.55200 53.21000 24.58800
C  14.77000 52.45500 24.34000
C  12.05900 53.40900 26.65000
C  12.70000 53.94500 23.50300
O  12.92200 53.98100 22.29100
C  11.51200 54.77200 23.93300
N  17.41800 50.79900 23.67500
C  16.58000 51.50200 22.76200
C  17.16400 51.17000 21.37700
C  18.46900 50.31200 21.58600
C  18.49300 50.25600 23.03200
C  16.22400 50.55900 20.42600
C  19.83300 50.80500 20.98400
C  20.12700 50.18300 19.60800
N  18.90200 49.98300 26.06900
C  19.77800 49.42100 25.09600
C  20.87000 48.65400 25.73500
C  20.53000 48.81500 27.10800
C  19.29000 49.50200 27.24100
C  22.04600 47.99300 25.04800
C  20.90600 48.44200 28.51100
O  21.77600 47.63800 28.89100
C  19.81300 49.09500 29.50400
C  19.20500 48.05700 30.37700
O  18.24400 47.30100 30.10700
O  19.83300 48.02500 31.56700
C  19.39200 47.03100 32.53500
H  13.90500 52.49600 28.62800
H  14.86300 52.56200 22.22400
H  20.25300 49.05900 23.06900
H  16.98200 49.59900 30.81200
H  15.31800 51.89200 30.66600
H  14.82100 49.27200 31.30700
H  14.67500 49.18700 29.50400
H  13.54400 50.08300 30.44000
H  17.37100 52.47800 31.43700
H  18.70000 51.98500 30.52300
H  19.47500 51.40200 32.49900
H  18.38500 50.04500 32.60900
H  11.17700 52.92000 26.23600
H  11.91900 54.48800 26.58700
H  12.15700 53.05200 27.67500
H  11.13900 55.33200 23.07600
H  11.88000 55.54200 24.61300
H  10.72100 54.10700 24.27900
H  17.42400 52.14800 20.97200
H  18.34500 49.25500 21.35200
H  16.57600 50.89700 19.45100
H  15.23300 50.91100 20.71300
H  16.27900 49.47900 20.56000
H  20.73800 50.58500 21.55100
H  19.87500 51.88700 20.86200
H  19.35800 49.48000 19.28800
H  21.11700 49.75700 19.45000
H  20.10700 51.03200 18.92500
H  22.57600 48.71200 24.42300
H  21.76600 47.19400 24.36300
H  22.71500 47.67400 25.84700
H  20.06900 49.87500 30.22100
H  19.73800 46.05200 32.20400
H  18.33000 47.08500 32.77500
H  19.89800 47.24200 33.47700
Mg -6.23600 25.37500 25.68400
C  -4.80100 26.45000 28.62500
C  -8.30300 23.29800 27.48100
C  -7.27700 24.00700 22.81800
C  -3.68400 27.01700 23.93000
N  -6.37900 24.79000 27.74200
C  -5.78500 25.46000 28.81400
C  -6.44700 25.18900 30.18700
C  -7.19800 23.89400 29.81400
C  -7.37100 23.98100 28.25900
C  -6.63300 22.56700 30.19900
C  -7.40700 26.28800 30.77600
C  -7.62500 26.28000 32.31400
H  -6.84500 25.26800 33.19000
N  -7.61900 24.03600 25.22300
C  -8.47700 23.34800 26.10000
C  -9.55100 22.72400 25.35900
C  -9.15500 22.76600 23.98100
C  -8.00900 23.62200 23.97600
C  -10.75100 21.99800 25.98800
C  -9.87400 22.05300 22.79600
O  -9.44800 22.14300 21.63700
C  -11.02500 21.14300 23.04800
N  -5.58500 25.48800 23.64900
C  -6.12000 24.79000 22.63800
C  -5.40000 25.04100 21.27700
C  -4.35100 26.11800 21.65400
C  -4.54100 26.23900 23.18300
C  -4.90900 23.83500 20.43300
C  -4.59900 27.53300 21.02800
C  -3.67800 27.79000 19.86600
N  -4.51800 26.45500 26.14300
C  -3.61800 27.07100 25.31000
C  -2.70100 27.82800 26.08800
C  -3.17200 27.76400 27.45100
C  -4.23500 26.87600 27.40600
C  -1.54900 28.66900 25.60800
C  -2.93700 28.19700 28.75900
O  -2.15600 29.04800 29.20500
C  -3.96000 27.31900 29.65100
C  -3.23400 26.53900 30.67300
O  -2.65400 25.52600 30.37900
O  -3.14900 27.17500 31.87900
C  -2.14300 26.72500 32.86800
H  -9.15900 23.01600 28.09800
H  -7.69800 23.59500 21.89800
H  -2.88400 27.64100 23.52600
H  -5.56100 25.09800 30.81500
H  -8.18400 23.83000 30.27400
H  -6.28100 21.98400 29.34700
H  -7.34900 21.90400 30.68400
H  -5.83900 22.64200 30.94200
H  -8.40600 26.31000 30.34100
H  -6.98000 27.27400 30.59500
H  -8.66900 26.23400 32.62500
H  -7.29600 27.27000 32.62800
H  -10.80200 20.92600 25.79500
H  -11.65600 22.40600 25.53700
H  -10.90400 22.25800 27.03500
H  -11.49700 20.63300 22.20800
H  -11.83500 21.77300 23.41400
H  -10.76500 20.31900 23.71200
H  -6.05800 25.48500 20.53000
H  -3.36200 25.69000 21.49100
H  -5.44900 23.65100 19.50400
H  -4.95100 22.88100 20.95800
H  -3.85700 23.97300 20.18300
H  -4.36500 28.28500 21.78200
H  -5.64100 27.74800 20.79300
H  -4.34500 27.94100 19.01800
H  -2.94900 27.02900 19.59100
H  -2.97600 28.60800 20.03300
H  -1.88400 29.66400 25.31400
H  -0.99700 28.23900 24.77300
H  -0.88900 28.91200 26.44100
H  -4.69900 27.92500 30.17500
H  -2.52300 25.96500 33.55100
H  -1.92200 27.54500 33.55100
H  -1.26500 26.29500 32.38700

