158

Mg 40.62800 8.29000 29.76400
C  42.31700 9.61200 32.68900
C  38.23300 7.03500 31.83700
C  39.41700 7.06700 27.09200
C  43.69400 9.27700 27.96100
N  40.31700 8.40700 32.03200
C  41.11200 8.97400 33.02100
C  40.48700 8.93600 34.42200
C  39.18600 8.04700 34.11200
C  39.22600 7.78900 32.55600
C  39.10400 6.83100 35.06100
C  40.15500 10.32900 34.94600
C  40.05700 10.35700 36.45800
H  40.91900 11.26800 37.30100
N  39.00500 7.21000 29.50700
C  38.11000 6.78800 30.44800
C  37.05700 6.09900 29.77700
C  37.27100 6.24100 28.37700
C  38.63800 6.84300 28.26100
C  35.88700 5.54500 30.53300
C  36.41600 5.81300 27.20700
O  36.63600 6.13400 26.02300
C  35.26000 5.04200 27.50600
N  41.56800 8.03700 27.80100
C  40.74300 7.54700 26.88400
C  41.34700 7.70300 25.44300
C  42.75100 8.45000 25.66800
C  42.68000 8.63500 27.23700
C  41.44300 6.39000 24.74400
C  42.88900 9.74700 24.95200
C  41.77300 10.73700 25.11500
N  42.56400 9.21400 30.17400
C  43.65500 9.55300 29.31500
C  44.70400 10.09600 30.08200
C  44.27100 10.08800 31.41600
C  42.91600 9.65800 31.39600
C  45.98900 10.56200 29.45900
C  44.65000 10.33900 32.78600
O  45.72400 10.77600 33.27500
C  43.41400 10.01100 33.66800
C  43.77400 8.90400 34.67500
O  44.32200 7.84300 34.43900
O  43.32800 9.25300 35.96500
C  43.55300 8.32000 37.06700
H  37.49900 6.60400 32.52200
H  38.98300 6.72900 26.14800
H  44.57600 9.65300 27.43700
H  41.26300 8.40300 34.97100
H  38.27800 8.64700 34.15700
H  38.68100 5.99700 34.50000
H  38.47900 7.04300 35.92900
H  40.11100 6.50900 35.32700
H  39.23800 10.75500 34.53700
H  40.92700 10.97900 34.53400
H  40.15800 9.33700 36.82800
H  39.06200 10.66400 36.77800
H  35.61900 4.54400 30.19400
H  34.95800 6.09900 30.39800
H  36.15600 5.34700 31.57000
H  35.53300 4.18600 28.12400
H  34.89700 4.58300 26.58700
H  34.45200 5.59200 27.98900
H  40.60000 8.35800 24.99500
H  43.57300 7.81200 25.34300
H  42.33400 6.15600 24.16200
H  40.69500 6.52600 23.96300
H  41.34300 5.53600 25.41400
H  42.85700 9.41900 23.91300
H  43.85900 10.16600 25.21900
H  41.20000 10.69800 24.18900
H  42.18900 11.70800 25.38600
H  41.03000 10.54000 25.88800
H  45.98400 11.24500 28.61000
H  46.70300 9.74100 29.38400
H  46.35700 11.14300 30.30400
H  43.17700 10.95300 34.16100
H  43.08300 8.90400 37.85800
H  44.62900 8.22800 37.22100
H  43.08500 7.35400 36.87900
Mg 30.07300 59.48400 39.34400
C  27.09400 58.00000 38.15800
C  31.82000 56.82800 37.99400
C  32.97000 61.13200 39.65300
C  28.18500 62.45900 39.76900
N  29.53000 57.67200 38.16300
C  28.25400 57.26400 37.85100
C  28.21800 55.91900 37.07900
C  29.74400 55.47900 37.34900
C  30.42000 56.74000 37.88600
C  29.96900 54.23600 38.09700
C  27.88500 56.08700 35.48800
C  26.82900 55.14100 34.96800
H  25.89100 55.76900 33.95700
N  32.19500 58.91600 39.03000
C  32.69200 57.84400 38.47700
C  34.16300 57.82200 38.56400
C  34.55500 59.11600 39.18100
C  33.21100 59.79800 39.35000
C  35.00200 56.73900 38.02200
C  35.85900 59.58100 39.46400
O  36.79400 58.79000 39.49200
C  36.19600 61.05300 39.81800
N  30.43000 61.47000 39.71300
C  31.73500 61.92800 39.73700
C  31.84800 63.47400 39.71200
C  30.34800 63.88800 39.98200
C  29.56300 62.56900 39.73800
C  32.85800 63.96500 40.76500
C  29.80800 65.07800 39.17900
C  29.34900 66.32600 39.96100
N  28.01000 60.10900 39.29800
C  27.40000 61.34100 39.45000
C  25.99400 61.21300 39.26200
C  25.81400 59.88500 38.78500
C  27.12600 59.26100 38.71800
C  24.92200 62.31700 39.34000
C  24.78600 58.91900 38.31200
O  23.59300 59.01100 38.08600
C  25.64100 57.56600 37.95100
C  25.34500 56.33200 38.78700
O  25.69200 56.24800 39.97200
O  24.59600 55.38400 38.13600
C  24.21800 54.11400 38.88100
H  32.34900 55.93500 37.65600
H  33.84100 61.79000 39.63200
H  27.55900 63.34400 39.63900
H  27.50400 55.26400 37.57800
H  30.29800 55.46100 36.41000
H  29.04600 53.67000 37.97100
H  30.05500 54.40000 39.17200
H  30.86300 53.72800 37.73500
H  28.85700 55.85100 35.05700
H  27.59400 57.10800 35.23800
H  26.24900 54.70800 35.78200
H  27.25800 54.24400 34.52000
H  34.53800 56.44900 37.07900
H  34.88600 55.87900 38.68200
H  36.03800 57.00100 37.80700
H  37.22100 61.06500 40.18700
H  35.52300 61.16400 40.66800
H  36.00400 61.74100 38.99400
H  32.19200 63.81000 38.73400
H  30.35200 64.12800 41.04500
H  33.26300 63.11300 41.31100
H  32.42500 64.64500 41.50000
H  33.58000 64.62900 40.29100
H  29.00300 64.70200 38.54700
H  30.61000 65.33900 38.48900
H  29.97500 67.19700 39.77000
H  29.40900 66.15000 41.03500
H  28.36100 66.64700 39.62900
H  24.66900 62.49900 38.29600
H  25.32300 63.23400 39.77200
H  24.03500 62.11200 39.94000
H  25.50100 57.31800 36.89900
H  25.05900 53.74100 39.46600
H  23.74900 53.40600 38.19800
H  23.45000 54.36400 39.61200

