158

Mg 54.75600 24.42900 44.70200
C  52.41200 26.91600 43.78400
C  52.44100 22.07000 43.87800
C  57.19300 22.31700 44.10700
C  56.99400 27.02900 45.48200
N  52.66600 24.43400 43.71300
C  51.92200 25.58900 43.59500
C  50.51800 25.17000 43.27700
C  50.42400 23.72700 43.83000
C  51.96600 23.34800 43.80400
C  49.73400 23.49100 45.27500
C  50.28700 25.15700 41.75100
C  48.76500 25.14600 41.33600
H  48.41000 24.88400 39.81800
N  54.77100 22.48800 44.11200
C  53.72300 21.62400 43.88800
C  54.14800 20.22800 43.79800
C  55.57500 20.30700 43.84800
C  55.92200 21.75100 43.98300
C  53.15800 18.99000 43.61600
C  56.50500 19.14100 43.78500
O  56.08200 17.98500 43.59400
C  58.04800 19.26200 43.83000
N  56.89000 24.73100 44.53500
C  57.67400 23.59900 44.40100
C  59.03600 23.82600 45.02800
C  59.04700 25.44000 45.24500
C  57.55000 25.75900 45.13200
C  59.25800 23.10200 46.32800
C  59.95800 26.16800 44.22200
C  59.30300 26.59300 42.83600
N  54.69500 26.55700 44.85800
C  55.68700 27.40300 45.20400
C  55.12600 28.72700 45.18000
C  53.87900 28.61800 44.64300
C  53.67400 27.23900 44.40500
C  55.88900 29.92600 45.46500
C  52.69200 29.34300 44.28000
O  52.34300 30.52400 44.32200
C  51.72100 28.25900 43.62900
C  51.33900 28.56000 42.22400
O  52.08900 28.64600 41.27300
O  49.94700 28.78200 42.11600
C  49.43100 29.09600 40.77000
H  51.71200 21.25800 43.83900
H  58.04500 21.63400 44.13300
H  57.74700 27.76800 45.76500
H  49.89600 25.84200 43.86800
H  49.91600 23.10400 43.09400
H  50.49100 23.54400 46.05700
H  49.22600 22.53100 45.36800
H  49.06100 24.28200 45.60600
H  50.81100 24.34000 41.25400
H  50.66500 26.11100 41.38500
H  48.28300 26.08800 41.59800
H  48.33000 24.29000 41.85300
H  53.68400 18.21500 43.05800
H  52.22300 19.21100 43.10000
H  52.85400 18.58600 44.58100
H  58.44000 19.82000 42.97900
H  58.51400 18.27900 43.88900
H  58.40300 19.61900 44.79700
H  59.78900 23.51600 44.30400
H  59.35900 25.70200 46.25600
H  60.07300 22.39700 46.16200
H  58.31000 22.70300 46.68900
H  59.66500 23.71900 47.12900
H  60.81900 25.53700 44.00100
H  60.35900 27.05100 44.71900
H  58.30500 26.17400 42.70400
H  59.84900 25.99900 42.10200
H  59.32900 27.68000 42.76200
H  55.35100 30.87000 45.55600
H  56.81000 29.92700 44.88100
H  56.28600 29.74500 46.46300
H  50.81600 28.36500 44.22700
H  48.53600 29.67200 41.00500
H  49.16800 28.14100 40.31300
H  50.03300 29.73600 40.12400
Mg 17.22900 52.98400 26.57800
C  19.45000 51.50200 29.14300
C  14.97600 53.55300 29.07300
C  15.06500 53.91600 24.16800
C  19.45900 51.71600 24.22600
N  17.31000 52.64300 28.84900
C  18.25500 52.06600 29.65500
C  17.82700 52.28400 31.16400
C  16.32000 52.64700 31.11800
C  16.16800 52.99100 29.59300
C  15.37000 51.54100 31.53200
C  18.61900 53.45200 31.92300
C  18.99000 53.18100 33.35900
H  17.92300 52.36000 34.14500
N  15.38600 53.69100 26.61900
C  14.60800 53.83600 27.72600
C  13.32600 54.42700 27.36300
C  13.44000 54.67100 26.02100
C  14.61600 54.03600 25.53400
C  12.19100 54.79900 28.31800
C  12.52500 55.48300 25.12000
O  12.67000 55.64100 23.89900
C  11.29200 56.03600 25.68100
N  17.20400 52.75100 24.50400
C  16.22900 53.30900 23.68900
C  16.72500 53.53600 22.27100
C  18.09700 52.77900 22.20800
C  18.32600 52.38600 23.77100
C  15.61900 53.14800 21.20700
C  19.22800 53.77600 21.67800
C  20.10600 53.18700 20.55900
N  19.01400 51.82900 26.56200
C  19.79700 51.45800 25.51900
C  21.02100 50.76400 25.96100
C  20.93500 50.77700 27.38400
C  19.68100 51.39400 27.70600
C  22.11900 50.19700 25.05600
C  21.64000 50.44400 28.60900
O  22.71300 49.85200 28.74400
C  20.70800 50.95300 29.83700
C  20.43400 49.81100 30.76000
O  20.18400 48.69300 30.35800
O  20.52100 50.24800 31.99800
C  20.50600 49.21100 33.05700
H  14.30200 53.70000 29.92000
H  14.39700 54.29800 23.39300
H  20.15700 51.44300 23.43300
H  17.92400 51.31900 31.66100
H  16.07800 53.58800 31.61000
H  14.75300 52.01700 32.29500
H  15.75100 50.58400 31.88900
H  14.62900 51.19000 30.81400
H  18.30900 54.49500 31.85900
H  19.55400 53.60100 31.38300
H  18.98900 54.09700 33.94900
H  19.97000 52.73600 33.53400
H  11.21700 54.39900 28.03800
H  12.18300 55.87700 28.47800
H  12.36400 54.54200 29.36300
H  10.49500 55.39400 26.05600
H  10.83300 56.51800 24.81800
H  11.80200 56.65400 26.41900
H  16.93600 54.58700 22.07700
H  17.97900 51.85300 21.64500
H  14.93600 52.40100 21.61200
H  16.22300 52.80900 20.36500
H  15.16000 54.07800 20.87100
H  19.96600 54.16500 22.38000
H  18.89100 54.71100 21.23100
H  20.07500 52.09700 20.53800
H  21.11100 53.55400 20.76800
H  19.86100 53.52600 19.55200
H  21.89200 50.31600 23.99600
H  22.14200 49.13000 25.27500
H  23.08800 50.59000 25.36300
H  21.17800 51.78800 30.35600
H  19.47500 49.17200 33.40900
H  21.23200 49.50600 33.81400
H  20.70500 48.19000 32.73400

