158

Mg 24.23600 1.89700 29.72900
C  26.59500 1.51600 32.20700
C  21.77800 2.24600 32.09900
C  22.02700 2.10400 27.22700
C  26.75300 1.01800 27.26500
N  24.22200 1.86200 31.81500
C  25.26000 1.74400 32.69800
C  24.83200 1.95800 34.06800
C  23.30400 2.02900 34.00900
C  23.08400 1.92100 32.54800
C  22.56900 1.03200 34.96600
C  25.52300 3.19100 34.73500
C  25.74900 3.12000 36.22000
H  25.07200 4.19900 37.13800
N  22.18300 2.02500 29.71100
C  21.29600 2.30400 30.80300
C  20.00400 2.57000 30.28400
C  19.99200 2.39100 28.82600
C  21.45000 2.19100 28.47000
C  18.87400 3.10500 31.08300
C  18.87000 2.30300 27.81100
O  19.01600 2.28600 26.61700
C  17.52900 2.46300 28.21900
N  24.34000 1.49500 27.52900
C  23.31100 1.84800 26.74500
C  23.66400 1.90500 25.26200
C  25.19500 1.63100 25.31200
C  25.47900 1.30100 26.82500
C  22.77600 1.03400 24.28600
C  26.07100 2.75300 24.71100
C  26.31800 4.06000 25.52200
N  26.25700 1.31800 29.70700
C  27.09800 0.96000 28.68400
C  28.40800 0.83200 29.21700
C  28.20700 0.90400 30.63700
C  26.91000 1.25000 30.85100
C  29.65800 0.68800 28.38400
C  28.83200 0.89700 31.90800
O  29.99000 0.56500 32.10800
C  27.85800 1.35900 32.99600
C  27.77000 0.22900 33.94900
O  27.46000 -0.89300 33.62000
O  28.14200 0.60900 35.21700
C  28.22200 -0.41900 36.24900
H  21.17600 2.53700 32.96200
H  21.32200 2.48600 26.48600
H  27.58700 0.98300 26.56100
H  25.07500 0.98700 34.49900
H  22.98200 3.01800 34.33400
H  22.19100 0.16500 34.42500
H  21.82200 1.56500 35.55500
H  23.37100 0.74400 35.64600
H  24.98200 4.08600 34.42700
H  26.46600 3.39900 34.23100
H  26.81000 3.08100 36.46800
H  25.33500 2.15300 36.50400
H  19.09500 2.97100 32.14200
H  17.95000 2.57800 30.84600
H  18.82800 4.17600 30.88300
H  17.37600 3.38800 28.77500
H  17.38500 1.57300 28.83200
H  16.87600 2.35600 27.35300
H  23.53000 2.94000 24.94800
H  25.50300 0.72400 24.79300
H  21.91500 0.58800 24.78500
H  23.30800 0.27900 23.70800
H  22.39500 1.80200 23.61200
H  25.61800 2.99200 23.74900
H  27.06100 2.34500 24.50500
H  26.16900 3.85600 26.58200
H  25.74500 4.91200 25.15600
H  27.37400 4.32600 25.48300
H  29.61500 -0.27000 27.86600
H  30.50500 0.79100 29.06200
H  29.70300 1.51100 27.67100
H  28.17600 2.23800 33.55500
H  28.42800 -1.40600 35.83300
H  27.37300 -0.38100 36.93200
H  29.13100 -0.26200 36.83000
Mg -6.52900 24.48200 25.88700
C  -4.91800 26.02300 28.53700
C  -8.59900 22.77400 28.16500
C  -7.82800 22.52100 23.45400
C  -4.40000 26.00500 23.72900
N  -6.71300 24.33300 28.02300
C  -5.97100 25.13000 28.91000
C  -6.38400 24.85800 30.38400
C  -7.24300 23.57800 30.22200
C  -7.59500 23.57100 28.72900
C  -6.52200 22.28000 30.70600
C  -7.21500 26.12900 30.80900
C  -7.03600 26.47400 32.33100
H  -6.39600 25.41200 33.21000
N  -8.13900 23.03900 25.84400
C  -8.89100 22.54400 26.86300
C  -9.84500 21.60400 26.32100
C  -9.58300 21.45900 24.93300
C  -8.49200 22.39600 24.66100
C  -10.87900 20.97100 27.20800
C  -10.31000 20.63700 23.94100
O  -10.02600 20.57100 22.79600
C  -11.53400 19.81700 24.39800
N  -5.94300 24.07900 23.99200
C  -6.72800 23.29700 23.11200
C  -6.43800 23.55200 21.64500
C  -5.36500 24.70400 21.68500
C  -5.21100 24.95400 23.23900
C  -5.88900 22.20400 21.05700
C  -5.79300 25.95100 20.89800
C  -4.91400 26.64800 19.94200
N  -4.96800 25.73800 26.02300
C  -4.20400 26.34500 25.04600
C  -3.24700 27.21300 25.68300
C  -3.38100 26.99000 27.05900
C  -4.52200 26.18300 27.20200
C  -2.29400 28.19400 25.02300
C  -2.89700 27.33900 28.41200
O  -1.97800 28.04200 28.75400
C  -3.89700 26.70800 29.43600
C  -3.02400 25.70400 30.08100
O  -2.81100 24.56500 29.67600
O  -2.42000 26.31700 31.13300
C  -1.41500 25.48100 31.78700
H  -9.22000 22.40100 28.98200
H  -8.31900 22.10000 22.57500
H  -3.71500 26.50800 23.04300
H  -5.48000 24.74800 30.98200
H  -8.17400 23.66900 30.78200
H  -6.86100 22.01800 31.70900
H  -5.44500 22.41900 30.61100
H  -6.81700 21.49900 30.00500
H  -8.25600 25.92300 30.55900
H  -6.95200 27.00800 30.22000
H  -8.02000 26.65100 32.76600
H  -6.31700 27.28900 32.41800
H  -11.80500 21.54700 27.21400
H  -10.53500 20.93500 28.24200
H  -10.99900 19.91900 26.94700
H  -11.22400 18.92500 24.94200
H  -12.14800 19.37700 23.61200
H  -12.22100 20.40300 25.00800
H  -7.35300 23.86800 21.14400
H  -4.32800 24.43300 21.49100
H  -5.02000 22.53300 20.48700
H  -6.59100 21.96100 20.26000
H  -5.65300 21.38300 21.73400
H  -6.09500 26.73400 21.59400
H  -6.70800 25.67500 20.37300
H  -3.92800 26.19300 20.03600
H  -4.95900 27.73200 20.04800
H  -5.42700 26.48700 18.99400
H  -2.11100 27.97000 23.97200
H  -1.28100 28.08000 25.41000
H  -2.64100 29.22700 24.99900
H  -4.33900 27.46500 30.08400
H  -1.63400 25.25000 32.83000
H  -0.62100 26.22300 31.86500
H  -1.18900 24.48700 31.40200

