158

Mg 16.95100 -1.68900 27.83400
C  16.09200 0.54400 30.56100
C  19.12400 -3.13100 30.04100
C  18.18000 -3.49800 25.15100
C  15.47900 0.48900 25.71000
N  17.44600 -1.35200 30.09600
C  16.92100 -0.49100 30.96900
C  17.33400 -0.77600 32.39000
C  18.30100 -2.00900 32.23500
C  18.28500 -2.17500 30.69700
C  19.72800 -1.72000 32.93700
C  16.17300 -0.99100 33.38500
C  16.19200 0.04900 34.59700
H  17.60400 0.54500 35.14100
N  18.51200 -3.09500 27.66600
C  19.22000 -3.62600 28.65700
C  19.87200 -4.75400 28.20700
C  19.62400 -4.89800 26.80600
C  18.76000 -3.82600 26.45600
C  20.70500 -5.66200 29.12900
C  20.28600 -5.82600 25.80700
O  20.05300 -5.80100 24.59800
C  21.21300 -6.88300 26.37300
N  16.96700 -1.37900 25.74300
C  17.40500 -2.36100 24.87000
C  17.39000 -1.76800 23.41900
C  16.29500 -0.61900 23.58500
C  16.25700 -0.46100 25.10600
C  18.62600 -1.21900 22.71700
C  14.89100 -1.02800 22.98900
C  14.08400 0.00600 22.23200
N  15.92300 0.11300 28.01800
C  15.35200 0.90100 27.08600
C  14.60100 1.94400 27.62700
C  14.89800 1.85600 29.06400
C  15.75400 0.74000 29.17300
C  13.71600 2.81700 26.89200
C  14.67900 2.50600 30.31900
O  13.95500 3.43800 30.54900
C  15.41700 1.68100 31.41700
C  16.33400 2.65200 32.09100
O  17.43000 2.96600 31.75900
O  15.69700 3.13300 33.17000
C  16.30700 4.21300 33.93500
H  19.76800 -3.67400 30.73600
H  18.42700 -4.16200 24.32000
H  14.81700 1.09100 25.08300
H  17.93600 0.09200 32.65800
H  18.00700 -2.89000 32.80600
H  19.61100 -0.78100 33.47900
H  20.47400 -1.52400 32.16600
H  20.00600 -2.54100 33.59700
H  16.29500 -2.00200 33.77200
H  15.23200 -0.90000 32.84300
H  15.78600 -0.55100 35.41300
H  15.41100 0.77500 34.37100
H  20.22100 -6.63600 29.05500
H  20.55300 -5.56500 30.20500
H  21.77700 -5.72400 28.94700
H  21.67000 -7.40000 25.52900
H  20.70200 -7.63900 26.96900
H  22.08800 -6.44500 26.85300
H  16.92900 -2.49800 22.75300
H  16.57100 0.35800 23.18700
H  19.07400 -0.40600 23.28800
H  18.36800 -0.97100 21.68700
H  19.33300 -2.04000 22.60600
H  14.28800 -1.48200 23.77600
H  15.02800 -1.78700 22.21800
H  13.65400 -0.40900 21.32000
H  14.63500 0.92500 22.03200
H  13.34500 0.33400 22.96200
H  12.68500 2.46600 26.93700
H  14.03900 3.01900 25.87100
H  13.81300 3.70400 27.51800
H  14.63400 1.32800 32.08900
H  17.37200 4.10400 34.14200
H  15.81700 4.29300 34.90600
H  16.39800 5.16000 33.40200
Mg -13.10000 16.13400 41.41700
C  -10.24200 14.57300 40.56400
C  -12.19500 18.85300 39.65900
C  -16.27900 17.42600 41.70400
C  -14.49600 13.01700 42.39200
N  -11.34000 16.69600 40.45900
C  -10.32000 15.93700 40.13300
C  -9.20900 16.65800 39.42800
C  -9.83800 18.14400 39.20000
C  -11.22100 17.93000 39.82000
C  -9.02300 19.26700 39.91700
C  -8.56800 15.83300 38.20900
C  -7.15100 15.53100 38.20800
H  -6.15700 16.13500 37.21800
N  -14.05600 17.84700 40.74400
C  -13.48900 18.86200 40.12300
C  -14.38200 19.98900 39.98700
C  -15.51000 19.65400 40.72600
C  -15.29600 18.24200 41.07300
C  -14.05700 21.32800 39.28600
C  -16.67200 20.66000 41.00000
O  -16.65900 21.83200 40.71600
C  -17.88000 20.27300 41.78900
N  -15.11600 15.33300 42.08700
C  -16.23800 16.08500 42.00600
C  -17.52200 15.21600 42.36900
C  -16.88000 13.87200 42.31600
C  -15.41000 14.05400 42.28000
C  -18.01000 15.63100 43.82700
C  -17.38900 13.13400 41.02600
C  -18.19200 11.83800 41.24400
N  -12.50600 14.13400 41.60000
C  -13.16800 13.01400 42.01900
C  -12.31700 11.87600 41.93400
C  -11.08600 12.46500 41.39800
C  -11.33400 13.83200 41.20800
C  -12.60800 10.47500 42.36800
C  -9.64600 12.22200 40.99900
O  -8.97900 11.21500 40.95500
C  -9.02700 13.57000 40.50000
C  -7.86600 13.87800 41.38400
O  -7.84300 14.68700 42.34200
O  -6.67700 13.19500 41.00900
C  -5.45700 13.60200 41.82100
H  -11.96100 19.83800 39.25000
H  -17.26600 17.88200 41.60800
H  -15.07500 12.10000 42.52400
H  -8.38000 16.81000 40.12000
H  -9.96700 18.30800 38.13000
H  -9.52000 19.51800 40.85400
H  -9.08200 20.20300 39.36200
H  -7.96600 19.06000 40.08700
H  -8.75300 16.52600 37.38800
H  -9.17600 14.98100 37.90700
H  -7.11100 14.45600 38.03200
H  -6.90100 15.54400 39.26800
H  -13.29200 21.16600 38.52700
H  -13.71500 22.09600 39.98000
H  -14.89500 21.83500 38.80800
H  -18.53300 19.61300 41.21800
H  -18.53100 21.09200 42.09400
H  -17.61100 19.79400 42.73100
H  -18.30500 15.34100 41.62100
H  -17.05300 13.33900 43.25000
H  -17.68200 16.67000 43.85100
H  -17.64400 15.09300 44.70100
H  -19.09600 15.67300 43.92000
H  -16.50600 12.84800 40.45500
H  -17.94900 13.85800 40.43500
H  -17.90700 11.13700 40.45900
H  -19.24300 12.12200 41.19900
H  -17.92900 11.43800 42.22400
H  -13.65900 10.36600 42.63700
H  -11.89500 10.22900 43.15600
H  -12.52200 9.90200 41.44500
H  -8.76600 13.32600 39.47100
H  -4.59200 13.60300 41.15800
H  -5.18400 12.94400 42.64600
H  -5.54700 14.53800 42.37300

