158

Mg 2.02200 -1.75400 44.66800
C  5.38900 -0.98200 44.11900
C  1.15900 0.70300 42.37100
C  -1.00200 -3.17900 44.61300
C  3.25500 -4.85300 46.13600
N  3.20600 -0.29700 43.35500
C  4.57500 -0.22200 43.27900
C  4.88100 0.99100 42.27200
C  3.51500 1.64500 42.00400
C  2.57800 0.64000 42.65100
C  3.35300 3.11900 42.40500
C  5.66300 0.43200 41.05100
C  7.07500 1.02200 40.89000
H  7.58400 1.33300 39.41400
N  0.32000 -1.24300 43.71700
C  0.12700 -0.16600 42.87500
C  -1.30100 -0.06900 42.65000
C  -1.97800 -1.20800 43.33500
C  -0.87100 -1.88700 43.96100
C  -1.82600 1.08200 41.78500
C  -3.40700 -1.41400 43.39100
O  -4.21100 -0.70700 42.73900
C  -4.13200 -2.40400 44.34500
N  1.28400 -3.66800 45.38700
C  -0.03600 -3.99100 45.20500
C  -0.40300 -5.41300 45.69000
C  0.99400 -6.01600 46.06500
C  1.91700 -4.78900 45.91100
C  -1.41600 -5.50100 46.91900
C  1.37600 -7.19500 45.14100
C  2.19000 -8.43700 45.76500
N  3.90000 -2.61400 45.35200
C  4.21800 -3.84200 45.92500
C  5.58300 -3.84800 46.20400
C  6.13500 -2.71100 45.57200
C  5.02300 -2.04700 44.99000
C  6.42500 -4.88000 46.89000
C  7.35900 -2.04700 45.25500
O  8.46200 -2.34300 45.56600
C  6.86700 -0.86800 44.26100
C  7.26100 0.43400 44.98400
O  6.92000 0.76100 46.14200
O  8.05600 1.17600 44.14900
C  8.19500 2.53600 44.60900
H  0.84600 1.51600 41.71300
H  -1.95600 -3.67300 44.41600
H  3.63900 -5.78900 46.54600
H  5.52300 1.49900 42.99200
H  3.32400 1.61100 40.93200
H  3.12000 3.70800 41.51800
H  4.32900 3.38900 42.80800
H  2.57700 3.19800 43.16700
H  5.09000 0.74100 40.17700
H  5.65500 -0.65100 41.17200
H  7.71300 0.23300 41.28900
H  7.23800 1.94800 41.44100
H  -1.19800 1.46200 40.98000
H  -2.11000 1.96700 42.35600
H  -2.75500 0.87700 41.25300
H  -4.19000 -3.33000 43.77300
H  -5.07000 -1.88900 44.55300
H  -3.59600 -2.56800 45.28000
H  -0.93800 -5.87400 44.86000
H  1.07700 -6.27300 47.12100
H  -1.01000 -5.68100 47.91500
H  -2.17600 -6.26700 46.76600
H  -2.00600 -4.59200 47.03100
H  1.81900 -6.81300 44.22200
H  0.37700 -7.57700 44.92700
H  2.52200 -8.21400 46.77900
H  3.09100 -8.69300 45.20800
H  1.47100 -9.25700 45.76700
H  6.50400 -5.66500 46.13800
H  5.81700 -5.25900 47.71100
H  7.39500 -4.49200 47.20100
H  7.36600 -0.98300 43.29900
H  7.21900 3.02200 44.58600
H  8.74500 3.16400 43.90700
H  8.75500 2.69500 45.53000
Mg 16.75100 51.54200 26.40400
C  18.67500 49.99900 29.02000
C  14.36000 52.30400 28.60100
C  15.03000 52.45100 23.72700
C  19.38500 50.30900 24.13600
N  16.59600 51.16600 28.52600
C  17.48800 50.63300 29.41500
C  17.02500 50.84000 30.89600
C  15.51100 51.32300 30.68700
C  15.47200 51.64100 29.16000
C  14.41500 50.34800 31.17400
C  17.99500 51.88500 31.61600
C  18.45700 51.52700 32.97300
H  17.36000 50.76900 33.89800
N  14.98700 52.31600 26.17300
C  14.12600 52.64200 27.24000
C  12.99000 53.33000 26.69800
C  13.20000 53.43700 25.28700
C  14.49900 52.79100 24.98100
C  11.88500 53.78900 27.58300
C  12.45500 54.21400 24.26300
O  12.82800 54.39400 23.10000
C  11.10400 54.87800 24.67000
N  17.21900 51.32800 24.25300
C  16.25300 51.81200 23.39000
C  16.57200 51.26100 21.97600
C  18.10200 50.99600 22.04500
C  18.33300 50.93400 23.58200
C  15.62800 50.11300 21.58400
C  19.09900 51.99500 21.35500
C  18.76200 53.50100 21.54000
N  18.64700 50.48900 26.53100
C  19.60600 50.07900 25.57000
C  20.69200 49.34500 26.15800
C  20.35400 49.31900 27.51900
C  19.10600 49.94100 27.68200
C  22.01600 48.77100 25.46200
C  20.83200 48.83500 28.74300
O  21.86300 48.21800 28.90400
C  19.86700 49.36000 29.82400
C  19.38300 48.27100 30.51800
O  18.99100 47.27300 29.98900
O  19.45600 48.45500 31.88200
C  18.93400 47.31600 32.62000
H  13.61700 52.58500 29.35100
H  14.35100 52.69600 22.90700
H  20.11400 49.95400 23.40500
H  17.06400 49.92000 31.47800
H  15.28400 52.18000 31.32000
H  13.90900 50.59400 32.10800
H  14.86100 49.36500 31.32400
H  13.76000 50.28200 30.30500
H  17.48300 52.84200 31.71200
H  18.91900 52.06400 31.06600
H  18.78100 52.38800 33.55800
H  19.24200 50.79500 32.78400
H  11.18000 52.98900 27.81000
H  11.38500 54.69200 27.23200
H  12.28600 54.03500 28.56600
H  10.37200 54.17800 25.07300
H  10.77700 55.34100 23.73900
H  11.34200 55.66400 25.38800
H  16.50600 52.12700 21.31700
H  18.32600 50.08900 21.48300
H  15.17200 50.46100 20.65700
H  14.85000 49.92200 22.32300
H  16.23900 49.34800 21.10400
H  18.93900 51.76400 20.30200
H  20.10000 51.66100 21.62700
H  19.64400 54.14000 21.51300
H  18.50600 53.60600 22.59400
H  18.02400 53.90600 20.84700
H  22.21500 49.06200 24.43000
H  21.86000 47.70300 25.31200
H  22.91500 48.90900 26.06200
H  20.34000 50.01200 30.55800
H  17.94300 46.96600 32.33100
H  18.83100 47.64700 33.65400
H  19.70400 46.54500 32.58100

