158

Mg 36.00300 1.97200 31.12700
C  33.61600 3.14900 33.44500
C  38.25300 1.89200 33.61600
C  38.17700 1.24900 28.78500
C  33.57000 2.68000 28.66300
N  35.94400 2.62300 33.28300
C  34.86800 2.87500 34.05600
C  35.13800 2.89900 35.56400
C  36.70400 2.67900 35.50900
C  37.01900 2.34600 34.04000
C  37.50300 3.72500 36.35400
C  34.21700 1.88200 36.40800
C  33.84000 2.28600 37.88100
H  34.68500 3.38300 38.52900
N  37.97800 1.56800 31.13300
C  38.77700 1.54300 32.28300
C  40.14000 1.07200 31.83800
C  40.07100 0.83600 30.42700
C  38.67600 1.23500 30.06800
C  41.31300 1.00500 32.82900
C  41.15300 0.25300 29.55800
O  40.88100 0.01700 28.40200
C  42.63200 -0.03700 30.12200
N  35.88500 1.88000 29.00400
C  36.94500 1.51300 28.22100
C  36.55300 1.26200 26.73600
C  35.00300 1.68300 26.75600
C  34.73100 2.08300 28.24000
C  37.48300 2.04100 25.79000
C  33.93300 0.74100 26.08600
C  33.39000 -0.31200 27.03700
N  33.98100 2.79000 31.06300
C  33.17500 2.97400 29.96300
C  31.89500 3.57200 30.37900
C  31.96800 3.61100 31.80100
C  33.27800 3.16500 32.08700
C  30.70700 3.73600 29.58700
C  31.31900 3.86600 33.06000
O  30.20700 4.28400 33.19000
C  32.38900 3.65000 34.19600
C  32.51500 4.95200 34.94300
O  33.21700 5.90500 34.60600
O  31.78400 5.01200 36.07000
C  31.59300 6.31400 36.74600
H  38.92800 1.73300 34.45900
H  38.83000 0.88800 27.98800
H  32.81200 2.89200 27.90600
H  34.92600 3.91100 35.90800
H  36.84600 1.70400 35.97700
H  38.09600 3.07200 36.99500
H  36.80800 4.27500 36.98900
H  38.10400 4.37600 35.72000
H  34.74300 0.93000 36.33700
H  33.24200 1.70700 35.95500
H  34.05900 1.41200 38.49500
H  32.79000 2.57100 37.81900
H  42.25100 1.44700 32.49400
H  41.47300 -0.03200 33.12200
H  41.03700 1.51700 33.75100
H  43.21400 -0.43200 29.29000
H  42.62600 -0.73800 30.95700
H  43.04700 0.94100 30.36800
H  36.74600 0.21900 26.48500
H  34.92400 2.60200 26.17600
H  36.85000 2.37900 24.97000
H  38.22000 1.28100 25.53000
H  37.89300 2.90400 26.31400
H  34.45500 0.24900 25.26500
H  33.14000 1.40700 25.74800
H  33.89700 -0.30500 28.00300
H  33.43100 -1.28200 26.54000
H  32.35800 0.02900 27.12000
H  30.40200 2.78400 29.15300
H  30.76400 4.57800 28.89700
H  29.88000 4.01500 30.24000
H  31.96200 2.97200 34.93600
H  31.62000 7.22700 36.15100
H  32.33400 6.51900 37.51900
H  30.62600 6.34700 37.24700
Mg 49.28800 34.61900 26.10100
C  47.00000 33.87000 28.78400
C  49.72800 37.62400 27.67900
C  50.93200 35.46200 23.61000
C  47.99900 31.74500 24.46200
N  48.71500 35.49400 28.17900
C  47.72800 34.96700 29.08500
C  47.60000 35.98800 30.19400
C  48.29900 37.29900 29.69400
C  48.95900 36.75200 28.46200
C  47.33500 38.54600 29.42900
C  48.12100 35.33200 31.51000
C  47.19900 35.50600 32.74300
H  47.41500 36.66400 33.76200
N  50.37000 36.24700 25.66600
C  50.44400 37.46200 26.44100
C  51.30400 38.40500 25.82800
C  51.69200 37.76700 24.61200
C  51.03100 36.45700 24.56000
C  51.63000 39.81100 26.33700
C  52.60600 38.26500 23.50000
O  52.76700 37.65800 22.41700
C  53.40600 39.50200 23.59500
N  49.22200 33.75600 24.20700
C  50.19300 34.28200 23.35400
C  50.55400 33.30800 22.17000
C  49.70400 32.11000 22.56800
C  48.81200 32.57300 23.74100
C  50.40400 33.84900 20.68700
C  50.48500 30.73700 22.83000
C  50.28900 29.59700 21.81600
N  47.76000 33.05900 26.56600
C  47.33700 32.00100 25.76300
C  46.53600 31.18700 26.59900
C  46.21300 32.01500 27.68500
C  47.03200 33.12400 27.63000
C  46.00600 29.85800 26.22400
C  45.37900 32.10600 28.83800
O  44.53000 31.34500 29.31900
C  45.79900 33.41800 29.56800
C  45.92300 32.97700 30.93300
O  46.80600 32.27500 31.34700
O  44.78600 33.23700 31.61900
C  44.73000 32.59800 32.94200
H  49.94600 38.59300 28.13200
H  51.52500 35.68700 22.72100
H  47.91400 30.71000 24.12700
H  46.53000 36.09700 30.37400
H  49.02900 37.54500 30.46500
H  46.36000 38.41300 29.89900
H  47.11900 38.59800 28.36200
H  47.70200 39.43300 29.94500
H  49.00200 35.93800 31.72000
H  48.28000 34.26600 31.34400
H  47.30300 34.58000 33.30700
H  46.17100 35.56800 32.38400
H  51.68500 40.40200 25.42300
H  52.58500 39.72100 26.85500
H  50.86000 40.15900 27.02500
H  54.18000 39.54900 22.82800
H  53.84200 39.64900 24.58300
H  52.76800 40.36300 23.39800
H  51.60800 33.11300 22.36500
H  49.06300 31.88600 21.71500
H  51.31900 33.76100 20.10200
H  50.09100 34.89200 20.74100
H  49.59000 33.36200 20.15000
H  50.19000 30.48900 23.85000
H  51.55500 30.91200 22.72000
H  49.79400 29.83100 20.87400
H  49.63000 28.88000 22.30500
H  51.26900 29.17800 21.58800
H  45.31900 29.30500 26.86500
H  46.89600 29.22900 26.19500
H  45.69100 29.86500 25.18100
H  45.02800 34.18800 29.58800
H  45.39900 33.20100 33.55700
H  45.03600 31.55400 32.88900
H  43.70500 32.65000 33.30800

