158

Mg 16.95700 -1.71400 27.07400
C  16.16200 0.36800 29.97200
C  18.84800 -3.70800 29.12600
C  18.06300 -3.16100 24.28000
C  15.26100 0.75400 25.02400
N  17.35900 -1.66000 29.29500
C  16.89900 -0.77300 30.26300
C  17.41600 -1.16700 31.69300
C  18.33100 -2.36100 31.39100
C  18.23500 -2.62100 29.81400
C  19.80900 -2.07200 31.90400
C  16.32900 -1.46600 32.75600
C  16.45100 -0.74700 34.12400
H  17.64600 -1.34600 34.96700
N  18.08800 -3.35200 26.80000
C  18.80300 -4.04100 27.70900
C  19.49100 -5.12500 27.08100
C  19.22600 -4.97500 25.66000
C  18.38500 -3.82000 25.51500
C  20.26100 -6.20200 27.83200
C  19.74400 -5.94800 24.58200
O  19.40000 -5.79000 23.42600
C  20.75200 -7.00000 24.92900
N  16.84400 -1.13800 25.02500
C  17.44100 -1.95800 24.03800
C  17.18400 -1.44300 22.61900
C  16.00200 -0.41800 22.89100
C  16.06300 -0.23900 24.41000
C  18.47300 -0.98300 21.85600
C  14.62900 -0.75500 22.29600
C  13.75000 -1.82100 22.98500
N  15.94800 0.17300 27.42300
C  15.25400 1.02000 26.42700
C  14.55100 2.03900 27.21000
C  14.88000 1.78800 28.53900
C  15.73600 0.73200 28.64600
C  13.74700 3.12900 26.59900
C  14.70000 2.30900 29.83600
O  14.03400 3.27100 30.16300
C  15.44600 1.45500 30.88400
C  16.32100 2.31600 31.66300
O  17.30700 2.90800 31.25500
O  15.82100 2.54300 32.92700
C  16.56700 3.56900 33.63500
H  19.45600 -4.34700 29.77000
H  18.63600 -3.51600 23.42100
H  14.64200 1.29100 24.30200
H  17.97800 -0.31200 32.06900
H  18.03400 -3.27000 31.91300
H  20.09700 -1.02300 31.97200
H  20.49100 -2.25500 31.07400
H  20.06600 -2.59300 32.82600
H  16.20600 -2.53500 32.92600
H  15.41400 -1.05000 32.33500
H  15.51000 -0.71500 34.67300
H  16.63600 0.29600 33.86700
H  20.24600 -6.01200 28.90500
H  21.27500 -6.18900 27.43300
H  19.87400 -7.21900 27.77100
H  20.42200 -7.79300 25.60100
H  21.69300 -6.62000 25.32500
H  20.95800 -7.51800 23.99200
H  16.79800 -2.32600 22.10900
H  16.25200 0.55700 22.47200
H  18.40100 0.04300 21.49300
H  18.86100 -1.61500 21.05800
H  19.22400 -0.91100 22.64300
H  14.84800 -0.98400 21.25300
H  14.13100 0.21300 22.23900
H  13.00900 -1.15500 23.42700
H  14.20000 -2.33900 23.83300
H  13.34100 -2.56100 22.29700
H  14.19600 3.45100 25.65900
H  13.62700 4.00700 27.23400
H  12.76400 2.67800 26.46800
H  14.71500 0.91800 31.48900
H  16.35800 4.58800 33.30700
H  17.59200 3.20700 33.70500
H  16.00700 3.50500 34.56800
Mg 16.79400 51.97700 26.66800
C  18.56400 50.54000 29.23600
C  14.30000 52.94200 28.94900
C  15.19100 53.51900 24.15000
C  19.17500 50.69200 24.41000
N  16.49000 51.74600 28.74100
C  17.38200 51.19500 29.60600
C  16.88600 51.37900 31.02600
C  15.35200 51.82100 30.93500
C  15.35200 52.18700 29.47400
C  14.29400 50.75800 31.37600
C  17.74800 52.33400 31.84500
C  17.76200 52.16900 33.36900
H  16.61600 51.32100 33.97600
N  15.04800 53.11000 26.59400
C  14.20100 53.37700 27.62700
C  13.18100 54.34000 27.13500
C  13.42700 54.57900 25.77000
C  14.56400 53.69600 25.45800
C  12.02300 54.79200 27.98300
C  12.73800 55.48300 24.70600
O  13.11200 55.56900 23.55300
C  11.56200 56.34100 25.13700
N  17.08900 52.00300 24.63800
C  16.24500 52.72700 23.75500
C  16.70400 52.50900 22.27800
C  18.15700 51.99100 22.45700
C  18.13500 51.48000 23.90400
C  15.77900 51.54800 21.47200
C  19.33400 52.98400 22.25600
C  20.18400 52.71800 21.04400
N  18.49700 50.78600 26.76000
C  19.46700 50.40900 25.78000
C  20.61700 49.71900 26.41400
C  20.30700 49.78000 27.74800
C  19.02400 50.36100 27.94000
C  21.86200 49.18700 25.72000
C  20.81000 49.43700 29.07100
O  21.86900 48.94100 29.37600
C  19.71300 49.99400 30.09500
C  19.33800 48.84900 31.02600
O  18.70000 47.83700 30.80700
O  19.85900 49.13900 32.27500
C  19.40700 48.18700 33.25800
H  13.52900 53.27800 29.64600
H  14.55900 53.79800 23.30500
H  20.05900 50.38600 23.84800
H  16.90000 50.36600 31.42800
H  15.19400 52.70800 31.55000
H  13.47300 50.69800 30.66100
H  13.87100 51.17300 32.29100
H  14.80100 49.80600 31.53300
H  17.41400 53.33500 31.57500
H  18.78300 52.25300 31.51100
H  17.69000 53.17300 33.78600
H  18.71400 51.80900 33.76000
H  12.25800 55.83600 28.19300
H  11.82400 54.28500 28.92700
H  11.11400 54.85300 27.38500
H  10.72500 55.64800 25.21700
H  11.31500 57.10500 24.40000
H  11.69300 56.82800 26.10400
H  16.69900 53.46200 21.74900
H  18.25600 51.20700 21.70600
H  15.53600 52.10000 20.56400
H  14.84000 51.36300 21.99400
H  16.30000 50.62800 21.20700
H  19.97600 52.93600 23.13600
H  18.94500 53.98700 22.08500
H  21.18800 52.37300 21.29100
H  20.21700 53.58900 20.38900
H  19.77000 51.86400 20.50800
H  21.52800 48.64100 24.83800
H  22.24400 48.47500 26.45200
H  22.51700 50.03200 25.50500
H  20.06500 50.79800 30.74100
H  19.65700 47.13100 33.15200
H  18.32000 48.24100 33.21000
H  19.76400 48.48300 34.24400

