158

Mg 29.34900 58.90200 41.05200
C  26.32700 57.49100 40.29700
C  30.88700 56.17600 39.45500
C  32.27800 60.61500 41.15800
C  27.69400 61.82100 41.88700
N  28.62800 57.11300 40.04500
C  27.35000 56.70000 39.83000
C  27.22200 55.31100 39.07300
C  28.69100 54.84300 39.13000
C  29.46000 56.13500 39.48400
C  28.86200 53.65200 40.19300
C  26.79000 55.69300 37.60100
C  25.82300 54.77800 36.84400
H  25.93200 54.65500 35.35300
N  31.33800 58.36100 40.57000
C  31.75600 57.24600 39.95000
C  33.21200 57.33500 39.81400
C  33.56700 58.57400 40.26900
C  32.37700 59.27500 40.70300
C  33.97400 56.11500 39.36700
C  35.09100 59.00300 40.29600
O  36.00900 58.27600 39.78600
C  35.54300 60.31500 40.98200
N  29.84000 61.01900 41.27800
C  31.16600 61.36600 41.44900
C  31.22200 62.92900 41.66800
C  29.70700 63.34100 41.79600
C  29.07600 61.99200 41.64600
C  32.09400 63.35600 42.92300
C  28.96600 64.42700 40.84500
C  28.68400 65.83500 41.43100
N  27.45700 59.62100 41.12400
C  26.90900 60.77500 41.60100
C  25.46700 60.74200 41.53500
C  25.19300 59.42800 41.13100
C  26.43300 58.79600 40.83400
C  24.40100 61.76900 41.97100
C  24.17100 58.37700 41.00500
O  23.00100 58.37300 41.40000
C  24.91500 57.21100 40.37700
C  24.53400 56.03400 41.13600
O  24.85600 55.85000 42.27600
O  23.90000 55.03200 40.31700
C  23.66800 53.70800 40.91400
H  31.45200 55.30900 39.10600
H  33.22900 61.11100 41.36800
H  27.11600 62.71800 42.12100
H  26.59200 54.61400 39.62500
H  28.94600 54.40200 38.16700
H  29.52200 53.89100 41.02700
H  29.18900 52.71800 39.73700
H  27.98100 53.28100 40.71800
H  27.65400 55.84800 36.95500
H  26.17200 56.59000 37.61800
H  24.80300 55.13600 36.98500
H  25.78700 53.76200 37.23900
H  34.13700 56.24200 38.29600
H  33.41700 55.21600 39.63200
H  34.86000 56.21000 39.99500
H  35.43400 61.19600 40.34900
H  36.60000 60.17400 41.20900
H  35.05900 60.44500 41.94900
H  31.80300 63.34000 40.84200
H  29.47800 63.81900 42.74800
H  31.49700 63.33100 43.83400
H  32.32500 64.42100 42.94100
H  32.95600 62.71400 43.10300
H  27.99600 64.02100 40.56000
H  29.69200 64.43300 40.03200
H  27.60100 65.85200 41.54600
H  28.90200 66.70000 40.80400
H  29.19800 65.94700 42.38600
H  24.77700 61.90900 42.98400
H  23.41100 61.32200 41.87200
H  24.45700 62.77700 41.55900
H  24.43300 57.05500 39.41200
H  23.03600 53.79900 41.79800
H  24.55500 53.14500 41.20400
H  23.17600 53.02400 40.22400
Mg -2.85200 34.93600 26.40600
C  -3.86200 33.43400 29.25900
C  -1.19900 37.27400 28.42800
C  -1.83100 36.60400 23.58100
C  -4.73100 32.80400 24.59600
N  -2.42800 35.15100 28.58700
C  -2.95500 34.41300 29.56800
C  -2.39400 34.75500 30.90600
C  -1.64200 36.12800 30.58100
C  -1.80600 36.23000 29.10200
C  -2.25600 37.38700 31.33600
C  -1.55700 33.60800 31.60000
C  -1.95500 33.10200 32.97200
H  -0.91400 33.35000 34.04400
N  -1.69700 36.63500 26.05800
C  -1.10000 37.45400 27.00100
C  -0.45100 38.60100 26.32400
C  -0.56200 38.41600 24.91100
C  -1.44200 37.15700 24.81700
C  0.29500 39.58900 27.07700
C  -0.05200 39.19400 23.74900
O  -0.36200 38.98000 22.58100
C  1.00900 40.23500 24.09200
N  -3.29500 34.81000 24.37500
C  -2.71900 35.51500 23.36600
C  -3.10900 34.90400 21.95100
C  -3.71600 33.53400 22.33900
C  -3.95400 33.70300 23.85300
C  -3.97100 35.84300 21.05400
C  -2.75400 32.39600 22.08700
C  -3.32900 31.21100 21.30500
N  -4.10500 33.39100 26.81700
C  -4.78400 32.57000 25.99200
C  -5.32200 31.47600 26.75800
C  -5.05000 31.83100 28.06000
C  -4.20600 32.95200 28.00900
C  -6.24100 30.41000 26.25700
C  -5.23200 31.41100 29.39700
O  -5.93500 30.49600 29.84500
C  -4.43000 32.45800 30.22400
C  -5.44900 33.08900 31.09000
O  -6.43400 33.75700 30.71600
O  -5.25700 32.69100 32.36100
C  -6.03900 33.35900 33.35600
H  -0.66300 37.97900 29.06600
H  -1.50600 36.97200 22.60600
H  -5.28400 32.00300 24.09900
H  -3.24800 34.93800 31.55800
H  -0.56800 36.02000 30.73200
H  -1.34900 37.98600 31.41000
H  -2.65400 37.24200 32.34000
H  -2.94500 37.95200 30.70700
H  -0.55900 34.03000 31.72600
H  -1.48500 32.78200 30.89200
H  -2.22100 32.04800 32.89600
H  -2.85900 33.63500 33.26600
H  1.30000 39.41900 26.69000
H  0.13900 39.53300 28.15400
H  0.06200 40.62600 26.83600
H  1.36400 40.48900 23.09400
H  1.86900 39.79400 24.59600
H  0.69500 41.08500 24.69800
H  -2.16600 34.79800 21.41500
H  -4.55200 33.19100 21.73000
H  -4.88300 35.26600 20.90000
H  -3.44000 35.99500 20.11500
H  -4.07500 36.86000 21.43200
H  -2.29400 32.11300 23.03400
H  -1.93900 32.77700 21.47200
H  -3.31500 30.40800 22.04200
H  -2.69200 30.87000 20.48900
H  -4.38100 31.26600 21.02300
H  -5.84000 29.40400 26.37900
H  -6.39300 30.56800 25.18900
H  -7.21700 30.46200 26.74000
H  -3.75800 31.90200 30.87700
H  -6.41800 34.32800 33.03200
H  -5.31900 33.50800 34.16000
H  -6.83900 32.71400 33.72100

