158

Mg 6.84700 55.75000 41.00100
C  4.33600 53.19600 40.95500
C  9.02300 53.50200 39.59100
C  9.03700 58.33000 40.37100
C  4.35200 58.12600 41.74300
N  6.59000 53.59500 40.17200
C  5.48400 52.79100 40.28400
C  5.79500 51.49300 39.52300
C  7.39300 51.49300 39.24200
C  7.72600 52.95300 39.80100
C  8.14000 50.40200 39.89300
C  5.02200 51.51400 38.18200
C  4.51200 50.12900 37.72600
H  5.18200 49.62900 36.52200
N  8.81200 55.86900 40.22300
C  9.51200 54.85000 39.70800
C  10.83800 55.25200 39.55300
C  10.90200 56.67200 39.67300
C  9.54000 57.05400 40.07600
C  11.90900 54.37900 39.02500
C  12.07500 57.51100 39.35700
O  13.15000 57.08300 39.03900
C  11.99000 58.95300 39.35300
N  6.65300 57.97000 40.80400
C  7.73400 58.81100 40.72000
C  7.38300 60.24700 41.17600
C  5.92800 60.05400 41.67200
C  5.61800 58.59400 41.37200
C  8.23600 60.74900 42.29400
C  4.95500 61.15900 41.03700
C  3.81400 61.68900 41.95400
N  4.85800 55.71400 41.39300
C  3.97900 56.75000 41.72800
C  2.66900 56.21500 41.96200
C  2.82500 54.85800 41.71800
C  4.14200 54.60200 41.31300
C  1.45900 56.90000 42.39100
C  2.00800 53.63000 41.72100
O  0.80000 53.45000 41.95100
C  3.05600 52.47900 41.41900
C  2.45100 51.47400 40.49100
O  1.98800 51.71000 39.36900
O  2.61000 50.21300 41.01800
C  1.87100 49.09400 40.31200
H  9.75700 52.77100 39.24500
H  9.77100 59.12900 40.25300
H  3.64400 58.81300 42.21000
H  5.58700 50.68700 40.22700
H  7.54900 51.37600 38.16900
H  7.44600 49.66300 40.29300
H  8.68300 50.70500 40.78800
H  8.84800 50.00300 39.16600
H  5.67100 51.77500 37.34600
H  4.20300 52.21900 38.32000
H  3.42600 50.14500 37.64000
H  4.66300 49.38600 38.50900
H  11.67200 53.31700 38.96100
H  12.79000 54.44000 39.66400
H  12.24900 54.71600 38.04500
H  11.27100 59.28500 38.60400
H  12.93000 59.43600 39.08500
H  11.64900 59.28800 40.33200
H  7.38100 60.96300 40.35400
H  5.77200 60.05300 42.75100
H  7.65000 61.49700 42.82900
H  8.90200 61.33800 41.66500
H  8.88700 60.06200 42.83500
H  4.58400 60.68400 40.12900
H  5.64600 61.97100 40.81200
H  3.98300 62.75500 42.10600
H  3.64400 61.12900 42.87400
H  2.96300 61.59400 41.27900
H  1.09400 57.55300 41.59800
H  1.72400 57.46400 43.28500
H  0.63400 56.21600 42.59000
H  3.34200 51.96600 42.33700
H  2.11700 49.12100 39.25100
H  0.80900 49.07900 40.56100
H  2.20700 48.19200 40.82400
Mg -11.62000 16.49900 42.61600
C  -8.45100 15.08300 41.79800
C  -10.38600 19.51400 41.20400
C  -14.71600 17.54700 42.35500
C  -12.79800 13.23000 43.10100
N  -9.60200 17.20300 41.62300
C  -8.48000 16.45500 41.48400
C  -7.26300 17.36300 41.07000
C  -7.93700 18.75000 40.88700
C  -9.43600 18.47700 41.24200
C  -7.33900 19.96900 41.69000
C  -6.61800 16.78800 39.78600
C  -5.16800 16.51100 39.82800
H  -4.59100 15.39100 38.86300
N  -12.40000 18.34200 42.08600
C  -11.75800 19.48400 41.56300
C  -12.72800 20.53700 41.47400
C  -13.97400 20.00400 41.84900
C  -13.71500 18.59200 42.15600
C  -12.28800 21.90800 41.02900
C  -15.25500 20.71600 41.80600
O  -15.27200 21.96600 41.66000
C  -16.62200 20.09100 42.07300
N  -13.42900 15.44400 42.50100
C  -14.61300 16.14200 42.52400
C  -15.88500 15.23800 42.51500
C  -15.22600 13.88100 42.99400
C  -13.71100 14.20100 42.83200
C  -17.09500 15.78000 43.39300
C  -15.61300 12.60000 42.14900
C  -16.08300 11.42700 43.08500
N  -10.82100 14.58700 42.57800
C  -11.43100 13.36900 42.84800
C  -10.44100 12.39600 42.92400
C  -9.21600 13.04700 42.54900
C  -9.55400 14.37900 42.21700
C  -10.67600 11.04700 43.36600
C  -7.81600 12.81400 42.35800
O  -7.22300 11.78200 42.46600
C  -7.23800 14.15600 41.88600
C  -6.36100 14.59100 42.96700
O  -6.71800 14.92900 44.04600
O  -5.05000 14.53200 42.57100
C  -4.08800 15.01300 43.63100
H  -10.05400 20.51500 40.92200
H  -15.75400 17.88400 42.32000
H  -13.11400 12.24000 43.43600
H  -6.57900 17.47900 41.91000
H  -7.87900 19.06700 39.84600
H  -7.28700 20.86600 41.07300
H  -6.34900 19.71200 42.06500
H  -7.96100 20.30100 42.52200
H  -6.81300 17.57200 39.05500
H  -7.18700 15.99800 39.29700
H  -4.88100 16.13500 40.81100
H  -4.63200 17.43900 39.63100
H  -12.33800 22.02500 39.94600
H  -11.26300 22.21700 41.23200
H  -12.93700 22.67200 41.45800
H  -16.64500 19.76900 43.11400
H  -16.70600 19.36300 41.26600
H  -17.36800 20.88500 42.06400
H  -16.13000 15.06000 41.46800
H  -15.46000 13.66400 44.03600
H  -16.87500 16.78000 43.76800
H  -17.28000 15.24700 44.32600
H  -18.03000 15.85600 42.83700
H  -14.81500 12.32500 41.45900
H  -16.48000 12.83700 41.53300
H  -16.49200 11.71700 44.05300
H  -15.31200 10.69700 43.33400
H  -16.93100 10.93300 42.61200
H  -9.83800 10.42000 43.67100
H  -11.24800 10.54200 42.58700
H  -11.32100 11.02900 44.24400
H  -6.69800 13.94700 40.96200
H  -4.46000 14.86000 44.64400
H  -4.01600 16.09200 43.49600
H  -3.12500 14.51900 43.50700

