158

Mg -1.93500 34.78200 26.87900
C  -3.39500 32.77400 29.43500
C  -0.56400 36.61300 29.24300
C  -0.86000 36.88700 24.50400
C  -3.74000 33.02300 24.58500
N  -1.99700 34.67800 29.16200
C  -2.58500 33.81400 30.02100
C  -2.26300 34.04500 31.47600
C  -1.35900 35.33400 31.37900
C  -1.23800 35.54500 29.83900
C  -1.95300 36.67200 32.07700
C  -1.54000 32.87900 32.23200
C  -2.05700 32.55700 33.61700
H  -0.98900 32.43500 34.72000
N  -0.79400 36.58300 26.83900
C  -0.38100 37.19900 27.96000
C  0.48000 38.31400 27.57500
C  0.45200 38.35400 26.14100
C  -0.45900 37.22200 25.76900
C  1.15100 39.26900 28.61800
C  1.11500 39.20500 25.15100
O  1.05100 39.06400 23.92100
C  2.11100 40.21300 25.74400
N  -2.38100 34.96900 24.90900
C  -1.81200 35.92800 24.10600
C  -2.10800 35.78300 22.62700
C  -2.64200 34.30900 22.66700
C  -2.93200 34.06400 24.12700
C  -3.11700 36.85300 22.06000
C  -1.63400 33.26400 22.18900
C  -1.33400 33.18300 20.69900
N  -3.32700 33.22300 26.97300
C  -3.95400 32.63800 25.89700
C  -4.81200 31.52800 26.39800
C  -4.61700 31.54600 27.75300
C  -3.71700 32.60800 28.06200
C  -5.74600 30.61400 25.55000
C  -4.86000 30.82600 28.96700
O  -5.60500 29.87300 29.23100
C  -4.20300 31.65000 30.10000
C  -5.28800 32.10600 30.98400
O  -6.37500 32.55300 30.58500
O  -5.00300 31.88500 32.33500
C  -6.20300 31.73500 33.10700
H  -0.09400 37.22400 30.01700
H  -0.66400 37.58800 23.69000
H  -4.13000 32.53500 23.68900
H  -3.19100 34.30900 31.98300
H  -0.36000 35.03200 31.69400
H  -1.08800 37.14300 32.54500
H  -2.59400 36.24100 32.84600
H  -2.44300 37.43100 31.46700
H  -0.46000 32.99200 32.13600
H  -1.79700 31.98100 31.67000
H  -2.67600 31.66000 33.58800
H  -2.78800 33.29000 33.95900
H  2.19600 38.96600 28.68600
H  0.69000 38.99300 29.56700
H  0.99400 40.31800 28.36700
H  2.62400 40.60000 24.86400
H  2.86200 39.72700 26.36700
H  1.63800 41.11200 26.14000
H  -1.28500 36.00300 21.94600
H  -3.65200 34.10400 22.31100
H  -2.97300 37.83800 22.50400
H  -4.15600 36.52300 22.04800
H  -2.87200 36.95300 21.00300
H  -2.08600 32.31400 22.47500
H  -0.71200 33.40500 22.75300
H  -1.45500 32.15600 20.35300
H  -0.26200 33.30900 20.55500
H  -1.91400 33.82300 20.03500
H  -6.66100 31.19500 25.43700
H  -5.91800 29.61600 25.95300
H  -5.37500 30.46200 24.53700
H  -3.54000 30.97000 30.63500
H  -5.95200 32.20200 34.05900
H  -6.34100 30.67300 33.31100
H  -7.07500 32.30700 32.78900
Mg -11.18200 16.42300 41.27800
C  -7.86300 15.26800 41.03200
C  -10.35100 19.35600 39.92400
C  -14.42100 17.04400 40.98200
C  -12.13900 13.04800 42.13100
N  -9.26200 17.16500 40.58900
C  -8.00900 16.56400 40.53200
C  -6.96800 17.58200 40.09600
C  -7.82600 18.91400 39.95100
C  -9.23800 18.44900 40.07800
C  -7.47600 19.90700 41.15600
C  -6.28500 17.15900 38.71500
C  -4.74100 16.92600 38.64300
H  -4.23200 16.70200 37.17200
N  -12.27300 18.01100 40.69000
C  -11.73900 19.16500 40.16200
C  -12.77400 20.13100 39.94600
C  -13.95000 19.57500 40.34300
C  -13.61200 18.15200 40.77700
C  -12.51100 21.53400 39.52900
C  -15.34000 20.26900 40.51600
O  -15.57200 21.28400 39.87500
C  -16.40400 19.70400 41.25300
N  -13.02000 15.20400 41.28700
C  -14.22300 15.74900 41.13900
C  -15.38100 14.71300 41.09900
C  -14.71800 13.43300 41.70300
C  -13.15800 13.87200 41.57800
C  -16.71600 15.22600 41.80800
C  -15.09600 12.06600 41.28000
C  -15.41100 11.00500 42.44000
N  -10.27500 14.54300 41.61100
C  -10.77100 13.31800 42.00200
C  -9.61900 12.41400 42.20500
C  -8.47400 13.12500 41.88000
C  -8.90900 14.39900 41.45000
C  -9.65400 11.02300 42.68000
C  -7.02900 13.10100 41.75900
O  -6.20900 12.18500 41.93800
C  -6.54500 14.48700 41.18000
C  -5.54700 15.17300 42.07200
O  -5.77400 16.00000 42.97000
O  -4.26200 14.80700 41.78700
C  -3.25700 15.48700 42.66900
H  -9.93800 20.35400 39.76300
H  -15.49500 17.20100 40.86400
H  -12.44500 12.03400 42.39700
H  -6.15600 17.58700 40.82200
H  -7.66400 19.44600 39.01400
H  -6.79700 20.68800 40.81400
H  -6.82300 19.40000 41.86600
H  -8.38700 20.19300 41.68200
H  -6.58300 17.87700 37.95000
H  -6.69200 16.18100 38.46000
H  -4.52700 16.06600 39.27700
H  -4.32500 17.78900 39.16500
H  -12.99100 21.70000 38.56500
H  -11.47300 21.86600 39.51500
H  -13.09100 22.20800 40.16000
H  -17.34200 20.25500 41.31800
H  -16.12100 19.34700 42.24300
H  -16.57400 18.78300 40.69500
H  -15.58800 14.59400 40.03500
H  -14.88600 13.43400 42.78000
H  -16.58000 16.14700 42.37500
H  -16.69400 14.48400 42.60600
H  -17.65600 15.11100 41.26800
H  -14.46200 11.64600 40.49900
H  -16.04100 12.13300 40.74300
H  -14.78700 11.10300 43.32800
H  -15.36200 9.96300 42.12400
H  -16.47000 11.11900 42.66700
H  -8.77300 10.88300 43.30600
H  -9.63400 10.24300 41.91900
H  -10.60100 10.89000 43.20300
H  -6.06900 14.39500 40.20300
H  -2.38100 15.71300 42.06000
H  -3.07000 14.83200 43.52000
H  -3.58400 16.47000 43.00700

