158

Mg 25.83900 1.01200 29.13800
C  27.67600 0.56300 32.14200
C  23.04700 1.22500 30.99700
C  24.06300 1.11600 26.33200
C  28.75400 0.11100 27.42900
N  25.38400 0.65000 31.42900
C  26.29200 0.70400 32.40200
C  25.58000 0.81100 33.78300
C  24.04000 0.95800 33.39000
C  24.13300 0.88900 31.84600
C  23.09500 -0.10800 33.88700
C  26.30800 1.97800 34.56000
C  25.56600 2.69400 35.67300
H  26.10000 2.34300 37.14100
N  23.75900 1.11400 28.72500
C  22.81000 1.36300 29.63200
C  21.55900 1.61000 28.90900
C  21.78900 1.51900 27.50200
C  23.21500 1.19000 27.42800
C  20.19800 1.90900 29.63000
C  20.92800 1.81100 26.33600
O  21.26300 1.67300 25.15500
C  19.51500 2.20800 26.53100
N  26.36800 0.68300 27.12600
C  25.42400 0.86800 26.14600
C  26.04600 0.75900 24.75800
C  27.59900 0.59100 25.11600
C  27.62900 0.45000 26.63500
C  25.45000 -0.41900 23.87000
C  28.52400 1.85100 24.65600
C  29.95800 1.38000 24.14000
N  27.84700 0.51200 29.62100
C  28.87600 0.13300 28.81400
C  30.08300 -0.22800 29.56500
C  29.66200 0.05800 30.87800
C  28.30700 0.40200 30.88300
C  31.43100 -0.68700 29.01300
C  30.03700 -0.01100 32.27400
O  31.14700 -0.22400 32.73800
C  28.81500 0.29900 33.16900
C  28.54300 -0.85200 34.10700
O  27.86300 -1.79100 33.89000
O  29.14200 -0.53100 35.30600
C  28.65500 -1.44900 36.38600
H  22.10600 1.40700 31.51900
H  23.54600 1.07400 25.37100
H  29.64700 -0.23000 26.90100
H  25.72100 -0.18800 34.19400
H  23.60300 1.91700 33.66900
H  23.60700 -0.82600 34.52700
H  22.66800 -0.73500 33.10500
H  22.30700 0.31800 34.50900
H  26.50400 2.80700 33.88000
H  27.26100 1.64100 34.96900
H  24.53000 2.36000 35.73100
H  25.66300 3.75200 35.42900
H  19.60300 1.00000 29.54100
H  19.68400 2.75100 29.16600
H  20.30500 2.15200 30.68700
H  19.11000 2.47300 25.55400
H  19.48000 3.03000 27.24600
H  18.99200 1.31200 26.86400
H  25.85700 1.70000 24.24200
H  28.06000 -0.35900 24.84500
H  24.99400 -1.15400 24.53300
H  26.25000 -0.81100 23.24200
H  24.71000 0.06300 23.23000
H  28.60800 2.46800 25.55000
H  28.06300 2.54800 23.95600
H  30.72300 1.77600 24.80700
H  30.18500 1.81500 23.16600
H  30.00600 0.29100 24.15300
H  31.94700 0.13900 28.52300
H  31.31300 -1.31300 28.12800
H  32.19900 -1.09300 29.67000
H  28.89900 1.21000 33.76200
H  28.81400 -2.49500 36.12300
H  27.57500 -1.39800 36.52400
H  29.06300 -1.22500 37.37100
Mg 26.41400 50.11400 27.27600
C  24.42300 51.49500 29.55300
C  28.62900 49.06500 29.71200
C  28.52900 49.02600 24.83200
C  24.31800 51.31600 24.79300
N  26.56800 50.39400 29.44400
C  25.48500 50.89500 30.17200
C  25.65900 50.57600 31.65100
C  27.16000 49.99100 31.68600
C  27.55300 49.80200 30.21400
C  28.15500 50.80900 32.48900
C  24.55200 49.56700 32.25700
C  24.03800 49.96600 33.64700
H  24.96300 50.65100 34.66500
N  28.40300 49.25300 27.27200
C  29.05100 48.84700 28.33200
C  30.35700 48.30700 27.96300
C  30.30900 48.22100 26.54700
C  29.07400 48.88000 26.13700
C  31.36900 47.88800 29.03600
C  31.33800 47.61700 25.61500
O  31.19400 47.63000 24.37200
C  32.47700 46.89600 26.27400
N  26.49300 50.32600 25.13300
C  27.38900 49.60200 24.35000
C  27.04400 49.81100 22.88200
C  25.54500 50.15900 22.90600
C  25.45600 50.72000 24.31200
C  27.89600 50.83800 22.13300
C  24.51000 49.01500 22.55400
C  23.70800 49.13500 21.20600
N  24.72900 51.19700 27.14000
C  23.96300 51.65500 26.09100
C  22.84200 52.52400 26.57500
C  22.95700 52.42800 27.94300
C  24.09900 51.60700 28.24600
C  21.79900 53.21500 25.66200
C  22.30300 52.73200 29.16300
O  21.24100 53.31800 29.37300
C  23.19900 52.13900 30.25900
C  23.51700 53.21900 31.23800
O  24.39600 54.07200 31.15400
O  22.65900 53.16100 32.33200
C  22.64600 54.19700 33.40300
H  29.27400 48.69500 30.51200
H  29.02200 48.66000 23.93000
H  23.69900 51.62100 23.94600
H  25.57500 51.48800 32.24200
H  27.12400 48.99500 32.12800
H  28.84400 50.07300 32.90300
H  27.61000 51.33900 33.27100
H  28.67400 51.57000 31.90800
H  25.05200 48.60200 32.17900
H  23.68100 49.52000 31.60400
H  23.53600 49.11900 34.11300
H  23.26200 50.71600 33.49700
H  32.34600 48.34000 28.86400
H  31.43900 46.80100 29.00000
H  31.21300 48.03000 30.10500
H  33.04300 46.44300 25.46000
H  32.08100 46.06000 26.84900
H  33.10400 47.57300 26.85400
H  27.27500 48.89100 22.34400
H  25.29600 50.98400 22.23900
H  28.40500 50.31500 21.32400
H  28.60300 51.24600 22.85600
H  27.31500 51.67600 21.74900
H  23.85500 48.81500 23.40200
H  25.14400 48.14700 22.36900
H  24.27100 49.79500 20.54600
H  22.74200 49.63200 21.29800
H  23.47800 48.16400 20.76600
H  21.37400 52.52500 24.93400
H  22.19200 54.03600 25.06200
H  20.95100 53.38500 26.32500
H  22.61100 51.44900 30.86400
H  23.03500 55.17500 33.12000
H  23.26800 53.82600 34.21700
H  21.64000 54.32500 33.80500

