158

Mg -2.39100 17.26600 26.26700
C  -2.97400 14.74300 28.72300
C  -3.09300 19.57800 28.43200
C  -2.44000 19.44400 23.73800
C  -2.80800 14.63100 23.88900
N  -3.15200 17.14900 28.32200
C  -3.06200 16.05100 29.22300
C  -3.13700 16.55300 30.64900
C  -3.41900 18.06400 30.46700
C  -3.27500 18.31100 28.99800
C  -4.69600 18.53700 31.14200
C  -1.88800 16.18000 31.52700
C  -1.82200 16.98100 32.82900
H  -1.76300 16.22300 34.12200
N  -2.45300 19.30700 26.18500
C  -2.72200 20.12800 27.25900
C  -2.45500 21.53000 26.79800
C  -2.23100 21.45300 25.35100
C  -2.37800 20.04900 25.00300
C  -2.67900 22.68100 27.70200
C  -1.81300 22.51700 24.33400
O  -1.67200 22.32800 23.15000
C  -1.60400 23.89400 24.78200
N  -2.60100 17.04500 24.14900
C  -2.52900 18.12000 23.32400
C  -2.74500 17.76500 21.87400
C  -2.76300 16.21900 21.93800
C  -2.68200 15.92100 23.43300
C  -4.05300 18.43800 21.40100
C  -1.65200 15.56000 21.06400
C  -2.14200 14.81400 19.85900
N  -2.68000 15.13800 26.28200
C  -2.69000 14.24000 25.23600
C  -2.77300 12.86000 25.74700
C  -2.81700 12.99300 27.11700
C  -2.89200 14.41800 27.37400
C  -2.98800 11.55300 24.93600
C  -2.94500 12.30100 28.35600
O  -2.96700 11.06500 28.57200
C  -3.09700 13.36300 29.43100
C  -1.90400 13.09800 30.34800
O  -0.86200 13.68900 30.31500
O  -2.33100 12.17600 31.28400
C  -1.50600 12.10700 32.55700
H  -3.14700 20.21300 29.31900
H  -2.36100 20.08400 22.85700
H  -2.84900 13.85100 23.12600
H  -3.93600 16.06300 31.20600
H  -2.51500 18.56000 30.82000
H  -5.37600 18.86400 30.35600
H  -4.48200 19.41200 31.75600
H  -5.16100 17.73100 31.71000
H  -0.93700 16.26300 31.00100
H  -1.88100 15.13000 31.82100
H  -2.62700 17.70700 32.93900
H  -0.90300 17.55600 32.71400
H  -3.02500 22.46800 28.71400
H  -3.41000 23.38900 27.31000
H  -1.70200 23.14800 27.82200
H  -0.97700 23.96300 25.67100
H  -2.54400 24.33200 25.11900
H  -1.24900 24.48600 23.93900
H  -1.90900 18.19700 21.32400
H  -3.73800 15.85900 21.60800
H  -4.38900 19.15400 22.15000
H  -4.81700 17.70200 21.14700
H  -3.86800 19.09100 20.54800
H  -1.12200 14.81700 21.66100
H  -0.86200 16.23900 20.74500
H  -2.72500 13.93000 20.11600
H  -1.21800 14.50900 19.36900
H  -2.66400 15.47300 19.16500
H  -4.04000 11.27600 24.87300
H  -2.43600 10.71000 25.35000
H  -2.58700 11.67800 23.93000
H  -4.04200 13.12200 29.91900
H  -1.31500 13.11800 32.91900
H  -0.59100 11.57700 32.29500
H  -1.93100 11.46300 33.32700
Mg 40.67800 8.40100 29.07200
C  42.55600 9.55300 31.76100
C  38.61500 6.84500 31.28300
C  38.96200 7.19900 26.46400
C  42.97800 9.66400 26.89500
N  40.57900 8.29800 31.26800
C  41.31700 9.02900 32.10400
C  40.66800 9.08000 33.52300
C  39.43100 8.06700 33.36800
C  39.53500 7.64500 31.92100
C  39.40900 6.90600 34.40500
C  40.33300 10.56600 34.03200
C  39.32800 10.72300 35.20300
H  40.07500 10.93800 36.49900
N  39.01900 7.18600 28.89500
C  38.33900 6.63500 29.91200
C  37.14900 6.02300 29.41100
C  37.27100 6.12700 27.95700
C  38.42700 6.91100 27.72600
C  35.94600 5.29100 30.17600
C  36.33000 5.55000 26.85000
O  36.56400 5.62600 25.65300
C  35.01100 4.93000 27.26500
N  41.03300 8.38300 26.94900
C  40.08500 7.91300 26.10500
C  40.33900 8.32000 24.68900
C  41.67200 9.16900 24.80700
C  41.85100 9.21700 26.33600
C  40.21500 7.24900 23.60300
C  41.66900 10.51100 23.99700
C  40.48800 11.47600 24.11700
N  42.57300 9.28700 29.24100
C  43.37400 9.73500 28.28400
C  44.60700 10.24700 28.92500
C  44.29000 10.24200 30.31600
C  43.04800 9.64300 30.43100
C  45.80800 10.82600 28.14700
C  44.69500 10.72300 31.61200
O  45.67000 11.39200 32.00700
C  43.56300 10.34700 32.66000
C  44.11100 9.56300 33.87900
O  44.93300 8.64400 33.74700
O  43.61200 10.07900 35.06700
C  44.12200 9.40500 36.26600
H  37.91400 6.32700 31.94000
H  38.37100 7.11400 25.55000
H  43.68500 10.16800 26.23400
H  41.40200 8.60200 34.17200
H  38.47300 8.58800 33.37600
H  38.41000 6.85400 34.83700
H  40.09200 7.08600 35.23600
H  39.64300 5.95700 33.92200
H  39.94800 11.13800 33.18800
H  41.30800 10.99600 34.26200
H  38.63900 9.88300 35.29000
H  38.76900 11.64100 35.02100
H  35.03500 5.77900 29.82900
H  36.08200 5.56500 31.22200
H  35.87400 4.21400 30.02700
H  34.62100 4.50000 26.34200
H  34.30700 5.63100 27.71200
H  35.09600 4.02800 27.87100
H  39.56700 9.09000 24.67900
H  42.50600 8.50900 24.56900
H  39.96100 6.28900 24.05300
H  41.22100 7.11200 23.20700
H  39.56800 7.51400 22.76600
H  41.83600 10.13400 22.98800
H  42.54700 11.04400 24.36200
H  40.00700 11.73300 23.17300
H  40.92700 12.40400 24.48400
H  39.70300 11.12000 24.78400
H  45.77100 10.48300 27.11300
H  46.58400 10.33900 28.73700
H  45.89900 11.91200 28.16500
H  43.14700 11.27400 33.05500
H  45.21000 9.33400 36.29600
H  43.66800 8.46600 36.58300
H  43.85900 10.20700 36.95700

