158

Mg 16.41800 -2.27300 27.54200
C  15.45500 -0.26600 30.21900
C  18.39400 -4.06900 29.66400
C  17.44900 -4.20700 24.89500
C  14.47800 -0.29300 25.40800
N  16.96500 -2.05400 29.73400
C  16.27300 -1.28700 30.67800
C  16.93000 -1.47900 32.04400
C  17.90600 -2.72400 31.84900
C  17.83400 -2.93400 30.28900
C  19.29200 -2.66100 32.51100
C  15.76600 -1.84600 33.06200
C  15.81700 -1.02500 34.43400
H  17.08800 -0.29000 34.86200
N  17.73100 -3.87800 27.36300
C  18.45700 -4.46000 28.33800
C  19.14200 -5.62300 27.87500
C  18.85000 -5.73900 26.49500
C  17.93900 -4.61900 26.18400
C  19.70400 -6.54000 28.78800
C  19.38900 -6.69500 25.47500
O  19.03300 -6.74500 24.31200
C  20.33000 -7.83200 25.96800
N  16.17700 -2.19800 25.43800
C  16.64200 -3.16400 24.58000
C  16.03900 -2.95100 23.09400
C  14.88800 -1.95400 23.41600
C  15.18800 -1.41100 24.81900
C  17.13700 -2.26500 22.21500
C  13.44500 -2.55200 23.35100
C  13.00300 -3.14100 21.98700
N  15.23800 -0.69600 27.67800
C  14.56900 0.02200 26.72600
C  13.84200 1.08400 27.27700
C  14.13600 1.02400 28.65300
C  15.02300 -0.05300 28.86400
C  12.85000 1.93500 26.67400
C  13.78800 1.52600 29.94700
O  12.91100 2.40100 30.21000
C  14.56700 0.66500 31.00800
C  15.35200 1.68700 31.79900
O  16.50300 1.97800 31.60800
O  14.64200 2.02500 32.91100
C  15.28000 3.12800 33.67900
H  19.03300 -4.60100 30.37200
H  17.73600 -4.80100 24.02500
H  13.75800 0.18800 24.74300
H  17.39300 -0.51400 32.25100
H  17.54300 -3.70300 32.16000
H  19.34400 -1.83200 33.21700
H  20.15200 -2.63500 31.84100
H  19.50700 -3.58000 33.05500
H  15.72500 -2.91300 33.28100
H  14.80000 -1.68300 32.58400
H  15.61700 -1.72900 35.24200
H  14.99200 -0.31300 34.45500
H  20.03900 -7.52100 28.45000
H  19.05400 -6.71100 29.64700
H  20.59700 -6.09900 29.23000
H  21.22500 -7.42400 26.43700
H  20.69900 -8.40800 25.11900
H  19.93000 -8.53500 26.69900
H  15.70200 -3.93600 22.77000
H  15.04700 -1.03700 22.84800
H  17.96000 -2.20900 22.92700
H  16.85500 -1.32900 21.73300
H  17.30100 -2.89500 21.34100
H  12.75100 -1.82700 23.77700
H  13.48900 -3.36000 24.08100
H  12.91500 -4.22200 22.09500
H  13.76800 -3.00300 21.22300
H  12.02600 -2.75100 21.69900
H  12.92300 2.20300 25.62000
H  13.00800 2.89400 27.16800
H  11.83500 1.63200 26.93000
H  13.73500 0.19000 31.52800
H  14.65300 4.01600 33.60200
H  16.30800 3.38900 33.42500
H  15.33000 2.82900 34.72600
Mg 49.50100 35.77400 27.00800
C  47.02800 34.78100 29.29100
C  50.20400 38.50800 28.66000
C  51.63200 36.54100 24.51300
C  48.14800 33.21800 24.83600
N  48.68900 36.46500 28.76300
C  47.74900 35.92400 29.62400
C  47.52400 36.87300 30.81600
C  48.35800 38.15600 30.44000
C  49.25900 37.67100 29.25500
C  47.50600 39.46900 30.27200
C  47.86500 36.30600 32.22000
C  46.66500 36.20500 33.14600
H  46.48500 37.51200 33.92800
N  50.89900 37.29900 26.75000
C  51.10200 38.26800 27.58200
C  52.22600 39.08300 27.13300
C  52.65600 38.55800 25.86900
C  51.71200 37.48700 25.62700
C  52.66100 40.30300 27.84100
C  53.80700 38.96600 25.01400
O  54.15600 38.36400 23.97200
C  54.73700 40.11600 25.49000
N  49.65800 35.06300 24.93200
C  50.72800 35.56400 24.20400
C  50.99100 34.71300 22.88900
C  50.11700 33.40400 23.26500
C  49.22600 33.92200 24.33300
C  50.71900 35.27000 21.48600
C  50.97000 32.21200 23.74900
C  51.25400 31.12800 22.75600
N  47.96600 34.16000 26.99100
C  47.51000 33.25700 26.07200
C  46.37900 32.50200 26.64900
C  46.09500 33.14900 27.85000
C  47.14200 34.11500 28.07700
C  45.73800 31.22100 26.03900
C  45.25200 33.13500 28.97500
O  44.30900 32.44800 29.25200
C  45.85200 34.15100 29.95500
C  46.05900 33.42600 31.26200
O  47.10100 32.86800 31.66600
O  44.84100 33.50700 31.95800
C  44.90200 33.00700 33.36100
H  50.40600 39.46400 29.14600
H  52.41500 36.72700 23.77400
H  47.85000 32.39400 24.18400
H  46.44000 36.98700 30.79700
H  49.04700 38.30100 31.27300
H  47.89200 39.92800 29.36200
H  47.68900 40.14800 31.10500
H  46.46100 39.21400 30.09700
H  48.63800 36.91600 32.68700
H  48.30000 35.32000 32.05100
H  46.79400 35.36200 33.82400
H  45.75300 35.97800 32.59500
H  53.72200 40.27700 28.08900
H  52.22500 40.38900 28.83600
H  52.48600 41.18400 27.22200
H  54.15200 41.03500 25.54200
H  55.59000 40.16200 24.81300
H  55.04700 39.89400 26.51100
H  52.02000 34.35200 22.86900
H  49.48300 33.03900 22.45600
H  51.57600 35.14800 20.82400
H  50.63900 36.33900 21.68200
H  49.84300 34.84400 20.99600
H  50.46100 31.64900 24.53200
H  51.97800 32.47000 24.07200
H  50.76100 31.24300 21.79100
H  50.87700 30.16300 23.09400
H  52.31000 31.07300 22.49000
H  46.45900 30.41300 26.16600
H  45.62200 31.41700 24.97300
H  44.77600 30.96400 26.48200
H  45.17200 34.98700 30.12300
H  45.86600 32.75000 33.80000
H  44.33400 32.07900 33.29100
H  44.40800 33.72100 34.02000

