158

Mg 46.89700 16.24900 27.89000
C  44.77100 16.24200 30.69400
C  49.01200 18.37700 29.71200
C  48.39400 17.40100 24.98800
C  44.35100 15.04000 25.99600
N  46.81000 17.33900 29.87000
C  45.98300 17.02700 30.89100
C  46.44500 17.56800 32.21700
C  47.71900 18.39700 31.87800
C  47.88900 18.01800 30.40300
C  47.68100 19.87100 32.19400
C  46.87300 16.40600 33.16200
C  46.64700 16.57500 34.67400
H  46.29500 17.97200 35.19300
N  48.56300 17.61300 27.38900
C  49.33000 18.26600 28.34700
C  50.52600 18.71700 27.69800
C  50.42100 18.43200 26.28200
C  49.03500 17.84900 26.15900
C  51.66300 19.27300 28.43600
C  51.39000 18.77700 25.10400
O  51.20000 18.49700 23.92000
C  52.77400 19.33200 25.38900
N  46.50500 16.26200 25.78600
C  47.23600 16.68200 24.81600
C  46.84700 16.14500 23.43600
C  45.57800 15.34300 23.77700
C  45.42300 15.62100 25.32100
C  46.62700 17.29700 22.43500
C  45.70600 13.73600 23.43800
C  44.71600 13.21600 22.34700
N  44.99900 15.56500 28.24800
C  44.15000 14.98400 27.37000
C  42.92800 14.66100 28.09900
C  43.11800 15.09200 29.39900
C  44.36700 15.69100 29.45500
C  41.59800 14.08200 27.60100
C  42.55400 15.19200 30.82300
O  41.45800 14.84600 31.17400
C  43.63300 15.98100 31.68300
C  42.97900 17.17400 32.32700
O  42.73200 18.18800 31.69600
O  42.57500 17.00000 33.63200
C  41.97600 18.04900 34.42000
H  49.71900 18.91300 30.34800
H  48.90400 17.65200 24.05500
H  43.55300 14.61900 25.38000
H  45.70100 18.26700 32.59900
H  48.64400 18.03300 32.32600
H  47.83000 20.49400 31.31200
H  48.48900 20.15600 32.86700
H  46.69600 20.10700 32.59500
H  47.91900 16.14600 33.00200
H  46.31300 15.54300 32.80200
H  47.61300 16.27700 35.08300
H  45.93500 15.85200 35.07200
H  51.62100 19.57900 29.48100
H  51.82200 20.19400 27.87400
H  52.52000 18.64800 28.18400
H  53.32600 19.23800 24.45400
H  53.30400 18.78200 26.16600
H  52.71900 20.40200 25.59400
H  47.64400 15.47300 23.11700
H  44.69800 15.72400 23.25900
H  46.72300 18.20400 23.03200
H  45.65100 17.27600 21.95100
H  47.35000 17.32900 21.62000
H  45.38700 13.26700 24.36900
H  46.77200 13.52400 23.35200
H  45.08600 12.24500 22.01900
H  44.66800 13.90300 21.50200
H  43.71900 13.01400 22.73700
H  41.29200 14.83300 26.87200
H  40.98900 13.89300 28.48500
H  41.81700 13.11100 27.15700
H  43.96800 15.33300 32.49400
H  42.03600 17.88400 35.49500
H  40.91000 18.16600 34.22500
H  42.52900 18.97100 34.23900
Mg -12.19000 38.60300 41.55000
C  -10.02500 36.13800 40.43900
C  -10.09700 40.97100 40.33400
C  -14.65300 40.72500 42.05900
C  -14.41000 35.89800 42.48500
N  -10.33000 38.50900 40.38100
C  -9.65000 37.40400 40.06200
C  -8.37400 37.76800 39.18900
C  -8.33300 39.40700 39.31600
C  -9.65900 39.64500 40.01000
C  -7.27400 39.97400 40.27300
C  -8.49200 37.15300 37.67700
C  -7.45500 36.02900 37.34700
H  -6.28800 36.27100 36.36300
N  -12.27500 40.59200 41.41600
C  -11.32700 41.40000 40.94500
C  -11.85200 42.75500 40.91000
C  -13.15100 42.75600 41.49000
C  -13.40000 41.28500 41.64900
C  -10.97500 43.98000 40.50700
C  -14.01200 43.94700 41.81700
O  -13.67900 45.14500 41.57500
C  -15.37600 43.78100 42.45200
N  -14.28800 38.33900 42.43300
C  -15.06300 39.40500 42.37600
C  -16.56800 39.06700 42.56000
C  -16.47100 37.51900 42.65200
C  -15.00000 37.21300 42.44900
C  -17.25500 39.63200 43.75600
C  -17.48100 36.72300 41.67200
C  -18.41900 35.57200 42.21300
N  -12.26100 36.46800 41.50800
C  -13.14500 35.55200 42.03900
C  -12.55200 34.24600 42.01000
C  -11.30100 34.41700 41.42200
C  -11.23800 35.80500 41.03400
C  -13.13800 33.04300 42.70400
C  -10.08600 33.73300 40.88400
O  -9.82200 32.55100 40.91500
C  -9.18800 34.83700 40.34700
C  -8.01300 34.84900 41.26400
O  -7.96300 35.33500 42.33400
O  -6.99400 34.14700 40.65000
C  -5.83600 33.85700 41.43900
H  -9.41500 41.68500 39.86700
H  -15.57100 41.31400 42.00500
H  -15.13800 35.10900 42.68100
H  -7.52800 37.34800 39.73300
H  -8.28100 39.75300 38.28300
H  -7.78900 40.41100 41.12900
H  -6.71800 40.72400 39.71100
H  -6.52400 39.22200 40.52000
H  -8.23900 37.92700 36.95200
H  -9.51600 36.80000 37.55600
H  -8.01600 35.14400 37.04500
H  -7.09600 35.76700 38.34200
H  -10.95900 44.65500 41.36200
H  -11.47100 44.51400 39.69600
H  -9.92100 43.79500 40.30200
H  -16.04400 43.30100 41.73700
H  -15.73900 44.79400 42.62900
H  -15.36900 43.33400 43.44600
H  -17.12100 39.24300 41.63800
H  -16.69200 37.10300 43.63500
H  -16.54900 40.33500 44.19700
H  -17.57900 38.88400 44.47900
H  -18.06900 40.26700 43.40300
H  -16.82400 36.41200 40.85900
H  -18.12300 37.44600 41.16800
H  -18.02300 35.08100 43.10200
H  -18.54500 34.85300 41.40300
H  -19.48300 35.79600 42.29500
H  -12.72900 33.05900 43.71400
H  -12.80100 32.16500 42.15300
H  -14.22300 33.14800 42.71900
H  -8.83600 34.55000 39.35700
H  -5.75500 34.44200 42.35500
H  -4.99900 33.93900 40.74500
H  -5.80300 32.79200 41.66900

