158

Mg 1.06500 -1.79700 44.80000
C  4.47300 -1.39100 44.01900
C  0.41000 0.78100 42.53900
C  -2.23700 -2.61900 44.97000
C  1.87000 -4.78300 46.36000
N  2.32900 -0.62500 43.17900
C  3.68900 -0.57700 43.22800
C  4.21500 0.44000 42.13100
C  2.82800 1.22200 41.78600
C  1.78400 0.47400 42.50800
C  2.96100 2.76000 41.99600
C  4.88700 -0.32100 40.94100
C  6.27300 0.30900 40.55000
H  6.35000 1.50800 39.53100
N  -0.70200 -0.97900 43.88400
C  -0.71200 0.10300 43.08200
C  -2.09300 0.54900 42.89600
C  -3.00400 -0.42500 43.60000
C  -1.99100 -1.38900 44.23200
C  -2.50100 1.79100 42.06600
C  -4.53900 -0.44600 43.69300
O  -5.12300 0.48500 43.12300
C  -5.32000 -1.42500 44.40000
N  0.00700 -3.46600 45.66000
C  -1.36500 -3.52700 45.61600
C  -1.87600 -4.82300 46.35200
C  -0.55900 -5.54900 46.88500
C  0.47300 -4.62900 46.16700
C  -3.00100 -4.48700 47.45100
C  -0.36500 -7.10700 46.75500
C  -1.47200 -8.01500 47.31800
N  2.73800 -2.82900 45.24100
C  2.97800 -4.05600 45.86200
C  4.40200 -4.27600 46.16000
C  4.96900 -3.21400 45.46600
C  3.96900 -2.44300 44.90100
C  5.09700 -5.38700 46.90200
C  6.34000 -2.63600 45.09100
O  7.46800 -3.01200 45.36400
C  5.96200 -1.46900 44.13600
C  6.45100 -0.15200 44.67500
O  6.21300 0.19600 45.80700
O  7.29800 0.45700 43.79000
C  7.90500 1.72000 44.20500
H  0.14200 1.66700 41.95900
H  -3.28600 -2.80300 45.21100
H  2.25000 -5.56500 47.02100
H  4.93100 1.14400 42.55300
H  2.67800 1.18800 40.70700
H  3.89700 2.97200 42.51300
H  2.13500 3.09400 42.62300
H  2.95200 3.38800 41.10500
H  4.19200 -0.28700 40.10200
H  5.11700 -1.37700 41.07600
H  6.76700 -0.58300 40.16400
H  6.77400 0.58500 41.47800
H  -2.81500 1.46500 41.07500
H  -1.77500 2.60100 41.99400
H  -3.38200 2.18000 42.57700
H  -6.39700 -1.36800 44.24000
H  -5.11900 -1.28300 45.46100
H  -5.00200 -2.44600 44.18700
H  -2.26300 -5.49100 45.58200
H  -0.54600 -5.43700 47.96900
H  -3.86700 -5.13100 47.29400
H  -3.26500 -3.43300 47.36500
H  -2.71100 -4.61600 48.49400
H  0.55000 -7.39800 47.27200
H  -0.23200 -7.38700 45.71000
H  -1.83100 -8.60500 46.47500
H  -2.22400 -7.40600 47.81900
H  -1.09000 -8.77300 48.00200
H  5.31800 -6.22200 46.23900
H  4.56200 -5.68400 47.80500
H  6.00300 -4.87400 47.22600
H  6.46700 -1.62800 43.18300
H  8.93100 1.43300 44.43700
H  7.46700 2.03000 45.15300
H  7.73800 2.49500 43.45700
Mg 6.16200 54.76500 42.18600
C  5.70900 51.36500 41.52200
C  9.20900 54.40000 40.62100
C  6.46400 58.08200 42.16600
C  2.86100 54.88500 43.00400
N  7.29400 53.03200 41.07000
C  6.93500 51.78900 40.97800
C  7.94200 50.95400 40.27800
C  9.27900 51.89800 40.43200
C  8.57000 53.21400 40.71400
C  10.43300 51.53700 41.41300
C  7.62000 50.64500 38.69900
C  7.54500 51.78900 37.71100
H  6.30800 51.77500 36.75800
N  7.59900 56.03600 41.38600
C  8.80500 55.71700 40.93200
C  9.71500 56.93800 40.89200
C  8.93600 58.01700 41.36800
C  7.56400 57.42300 41.59800
C  11.16400 56.88100 40.45000
C  9.44200 59.45700 41.51800
O  10.61300 59.79800 41.06800
C  8.53500 60.54200 42.07600
N  4.77100 56.31700 42.34000
C  5.14500 57.65000 42.41200
C  4.07300 58.41600 43.11400
C  2.78200 57.51400 42.98000
C  3.46000 56.13300 42.74900
C  4.46000 58.66100 44.65900
C  1.88400 57.84600 41.79600
C  0.38900 58.24700 42.06700
N  4.59200 53.44800 42.48600
C  3.32400 53.62100 42.90100
C  2.57100 52.38400 43.01600
C  3.55300 51.37000 42.59900
C  4.70500 52.19600 42.16400
C  1.16000 52.26000 43.55100
C  3.87200 49.98100 42.44600
O  3.16300 48.99600 42.60100
C  5.26300 49.94700 41.75000
C  5.16600 49.18600 40.46400
O  4.40200 49.40200 39.52700
O  5.81300 48.01800 40.65700
C  5.65100 46.98600 39.60600
H  10.25000 54.24600 40.32900
H  6.56100 59.14500 42.39500
H  1.80800 54.93900 43.28900
H  8.02200 50.01400 40.82500
H  9.72000 51.90300 39.43500
H  10.39100 52.28200 42.20700
H  11.27300 51.87500 40.80600
H  10.47100 50.50400 41.75900
H  6.72000 50.03300 38.64700
H  8.29400 49.96200 38.18300
H  8.42100 51.57700 37.09800
H  7.60200 52.77400 38.17500
H  11.52200 55.92600 40.06500
H  11.77900 57.08900 41.32500
H  11.34500 57.75000 39.81800
H  7.57000 60.65200 41.58200
H  8.98100 61.53600 42.06200
H  8.31700 60.27300 43.10900
H  4.08500 59.41800 42.68500
H  2.17600 57.54300 43.88500
H  3.69200 58.18800 45.27100
H  4.57600 59.70100 44.96300
H  5.40900 58.14600 44.81000
H  1.88800 57.13200 40.97200
H  2.45600 58.66900 41.36800
H  0.30200 59.04500 42.80500
H  0.03300 57.35900 42.58900
H  -0.07600 58.44300 41.10100
H  0.61500 53.18000 43.33600
H  1.17300 52.04600 44.62000
H  0.65300 51.44700 43.03300
H  5.90700 49.41300 42.44800
H  6.08300 46.01000 39.82700
H  6.17400 47.33600 38.71700
H  4.61400 46.81600 39.31700

