158

Mg 47.07100 44.47500 43.52000
C  43.52000 44.13800 43.14400
C  47.19500 41.06900 42.58900
C  50.41400 44.76700 43.25200
C  46.70100 47.92100 43.58600
N  45.53200 42.84600 42.92000
C  44.22000 42.95200 42.88200
C  43.60800 41.60300 42.68200
C  44.72600 40.54000 42.77800
C  45.92500 41.54900 42.75700
C  44.68200 39.44400 43.88400
C  42.61400 41.34500 41.45500
C  42.86600 42.14800 40.15700
H  42.89700 41.44700 38.85100
N  48.66400 43.14400 43.00200
C  48.43300 41.84700 42.54900
C  49.73700 41.25500 42.27600
C  50.71000 42.25200 42.52600
C  49.97000 43.45000 42.96400
C  49.89600 39.75800 42.01300
C  52.16500 42.04000 42.49700
O  52.62200 41.04900 41.92500
C  53.15600 43.05300 43.05500
N  48.44900 46.12800 43.58800
C  49.76000 46.02200 43.51000
C  50.46300 47.34600 43.45600
C  49.26700 48.30200 43.15400
C  48.06200 47.41900 43.44800
C  51.18000 47.62900 44.74000
C  49.26600 48.97600 41.78600
C  49.66700 50.45000 41.77600
N  45.49300 45.83200 43.47900
C  45.44300 47.19100 43.61800
C  44.07300 47.59900 43.94600
C  43.31700 46.43800 43.70100
C  44.16600 45.36000 43.44800
C  43.64300 49.09600 44.25300
C  41.98600 45.93100 43.65100
O  40.94100 46.52000 43.78500
C  42.01300 44.43300 43.26700
C  41.35300 43.58900 44.22600
O  40.71300 42.63200 43.95600
O  41.43100 44.00900 45.49500
C  41.16000 42.99600 46.47100
H  47.12500 40.01400 42.31500
H  51.49800 44.89300 43.21600
H  46.77600 49.00900 43.64300
H  43.06400 41.56400 43.62600
H  44.76500 40.04200 41.80800
H  43.66400 39.40700 44.27300
H  45.33400 39.60100 44.74300
H  44.91000 38.60500 43.22600
H  41.59100 41.47900 41.80700
H  42.74200 40.26700 41.36000
H  43.76800 42.75900 40.16400
H  42.09700 42.91900 40.10900
H  50.00600 39.52800 40.95300
H  49.11400 39.17300 42.49800
H  50.81700 39.48900 42.53000
H  53.33000 43.87000 42.35400
H  54.09000 42.52400 43.24200
H  52.78200 43.38700 44.02300
H  51.16800 47.31600 42.62600
H  49.33500 49.15000 43.83500
H  51.44200 46.73500 45.30500
H  50.72100 48.37100 45.39400
H  52.17500 48.02900 44.55000
H  48.28900 48.88700 41.31000
H  49.91000 48.42400 41.10100
H  50.11400 50.75800 42.72200
H  48.75900 51.04500 41.67000
H  50.35900 50.70200 40.97300
H  43.29100 49.59300 43.34900
H  44.42400 49.73300 44.66800
H  42.78100 49.01900 44.91500
H  41.56300 44.36600 42.27600
H  41.41300 41.97700 46.17900
H  40.08300 42.98800 46.63400
H  41.66700 43.24900 47.40200
Mg 35.98700 49.98300 25.25800
C  35.91000 48.08800 28.21700
C  34.89600 52.61700 27.03800
C  35.72100 51.55100 22.31300
C  37.00100 47.01200 23.68400
N  35.29700 50.23800 27.37000
C  35.36400 49.35700 28.38600
C  34.91600 50.04500 29.72100
C  34.38000 51.43700 29.19500
C  35.04200 51.43100 27.75700
C  32.85700 51.61900 29.27300
C  36.17000 50.23300 30.69300
C  36.11200 49.56700 32.07500
H  34.82400 49.31400 32.80700
N  35.31800 51.81800 24.75300
C  34.95300 52.79400 25.60000
C  34.58800 54.03300 24.92400
C  34.95600 53.74500 23.57200
C  35.33600 52.29600 23.43900
C  34.12600 55.28700 25.57800
C  34.93100 54.69700 22.40100
O  35.40200 54.39900 21.30000
C  34.39100 56.07000 22.65900
N  36.28100 49.35600 23.28200
C  36.07700 50.26300 22.22500
C  36.45400 49.59000 20.95700
C  36.74700 48.14600 21.32700
C  36.73400 48.14900 22.87200
C  35.56700 49.74400 19.75300
C  38.12400 47.50400 20.81300
C  39.36700 47.95200 21.70700
N  36.38600 47.94600 25.80100
C  36.81300 46.88100 25.03200
C  36.97500 45.73900 25.85500
C  36.64400 46.19500 27.08100
C  36.37100 47.56800 27.01400
C  37.27500 44.36700 25.44800
C  36.44600 45.73900 28.44300
O  36.65500 44.66100 28.93100
C  36.02400 46.96100 29.25000
C  34.65000 46.50100 29.89300
O  33.51100 46.74300 29.51000
O  34.92000 45.77200 31.01200
C  33.67900 45.36600 31.79700
H  34.51100 53.39200 27.70400
H  35.67000 51.97300 21.30700
H  37.35200 46.10900 23.18100
H  34.13800 49.42800 30.17200
H  34.87500 52.24900 29.72700
H  32.32800 50.74100 29.64500
H  32.53300 51.89200 28.26900
H  32.53200 52.39200 29.96900
H  36.52300 51.26100 30.77000
H  36.97000 49.60800 30.29600
H  36.74000 50.10500 32.78500
H  36.57300 48.59600 31.89300
H  33.36000 55.82800 25.02200
H  35.00300 55.92500 25.68600
H  33.69800 55.11100 26.56500
H  34.90600 56.73100 23.35700
H  33.35100 55.85900 22.91200
H  34.38900 56.53700 21.67500
H  37.41500 50.08500 20.81900
H  35.91000 47.49700 21.06900
H  34.62400 50.16900 20.09700
H  35.36400 48.77700 19.29300
H  36.02600 50.48100 19.09400
H  38.32500 47.75200 19.77100
H  37.89100 46.44200 20.89100
H  39.76800 47.01600 22.09600
H  39.22400 48.57300 22.59200
H  40.08800 48.45300 21.06100
H  37.62300 44.21800 24.42500
H  36.47500 43.65500 25.65100
H  38.07300 43.93300 26.05000
H  36.82400 47.10500 29.97700
H  34.07400 44.84100 32.66700
H  33.05300 44.69600 31.20800
H  33.04100 46.20000 32.09000

