158

Mg 17.39000 -0.96200 27.81000
C  16.77400 1.13300 30.64100
C  19.40900 -2.96200 29.83700
C  18.39000 -2.62300 25.09500
C  15.73800 1.46800 25.76900
N  17.89600 -0.96500 29.93600
C  17.54500 -0.06500 30.94100
C  18.06800 -0.35400 32.33000
C  19.12000 -1.53300 31.96600
C  18.81600 -1.84500 30.44900
C  20.66400 -1.16900 32.11900
C  16.94500 -0.63400 33.31500
C  17.10700 -0.12400 34.76700
H  18.49500 0.20200 35.24200
N  18.63700 -2.67200 27.55100
C  19.34300 -3.38600 28.44000
C  19.94400 -4.61500 27.89400
C  19.61600 -4.48600 26.50000
C  18.85800 -3.22700 26.29800
C  20.60100 -5.65400 28.69400
C  19.96100 -5.49300 25.43400
O  19.74400 -5.28400 24.26100
C  20.67500 -6.75900 25.64900
N  17.23800 -0.50900 25.66300
C  17.64700 -1.49900 24.77000
C  17.34000 -1.03700 23.31300
C  16.37300 0.20200 23.63700
C  16.43200 0.39600 25.10400
C  18.53700 -0.62600 22.43500
C  14.97800 0.07400 23.02800
C  13.88900 -0.93600 23.44100
N  16.33900 0.87200 28.12100
C  15.73000 1.72800 27.17900
C  15.05800 2.75500 28.01700
C  15.53000 2.60000 29.31200
C  16.26400 1.40400 29.31400
C  14.21700 3.95400 27.45700
C  15.42600 3.19300 30.66100
O  14.84200 4.17100 31.09200
C  16.11200 2.18100 31.60200
C  17.02300 2.88400 32.55400
O  18.10400 3.39600 32.40400
O  16.24600 3.09500 33.70400
C  16.79300 4.32500 34.39800
H  19.93600 -3.59600 30.55400
H  18.73300 -3.09100 24.17000
H  15.01300 1.94600 25.10700
H  18.69700 0.46700 32.67400
H  18.86500 -2.40900 32.56200
H  21.20300 -2.03600 32.50000
H  20.70000 -0.38300 32.87400
H  21.06100 -0.93100 31.13200
H  16.85100 -1.72000 33.33400
H  15.95400 -0.32400 32.98200
H  16.74600 -0.92400 35.41300
H  16.46800 0.75800 34.80900
H  21.61000 -5.34700 28.96800
H  20.55300 -6.70000 28.39100
H  20.03400 -5.66700 29.62400
H  21.65700 -6.66300 26.11100
H  20.76600 -7.27000 24.69000
H  20.14600 -7.41600 26.33900
H  16.77200 -1.74200 22.70600
H  16.92100 1.04800 23.22100
H  18.51400 -1.16000 21.48500
H  19.42700 -0.94800 22.97400
H  18.63100 0.45800 22.37000
H  15.22300 -0.14200 21.98800
H  14.44300 1.02100 23.09600
H  12.92200 -0.43600 23.39500
H  14.10300 -1.35600 24.42400
H  13.91500 -1.69300 22.65700
H  14.39200 4.17400 26.40400
H  14.52500 4.81600 28.04900
H  13.15700 3.75300 27.61300
H  15.31400 1.71700 32.18200
H  17.67900 3.90200 34.87200
H  16.09400 4.58600 35.19300
H  17.07600 5.16200 33.76100
Mg 41.24100 41.36900 26.67300
C  40.74700 44.11800 29.01900
C  41.87100 39.31700 29.35900
C  42.06500 39.10400 24.52000
C  41.14300 43.77200 24.19000
N  41.27500 41.73900 28.92600
C  40.91900 42.80900 29.64100
C  40.96600 42.55500 31.10700
C  41.43700 41.02600 31.32500
C  41.63600 40.70700 29.80200
C  42.74500 40.60500 32.12800
C  39.64700 42.86300 31.92500
C  39.81400 43.78900 33.19400
H  39.32100 43.25900 34.54800
N  41.80500 39.48300 26.93000
C  42.00500 38.80600 28.08700
C  42.41300 37.45800 27.82800
C  42.38400 37.33000 26.42300
C  42.07600 38.70300 25.88200
C  42.90200 36.42200 28.90400
C  42.58400 36.14000 25.53000
O  42.46600 36.17500 24.31700
C  43.12900 34.89700 26.08000
N  41.69200 41.39000 24.65000
C  41.85600 40.31200 23.94900
C  41.67800 40.56600 22.43500
C  41.35700 42.10600 22.35000
C  41.41600 42.48000 23.82900
C  42.90400 40.10300 21.57500
C  40.01100 42.48300 21.69700
C  38.69300 42.26200 22.46500
N  40.94900 43.53400 26.56500
C  41.00500 44.31700 25.45000
C  40.83100 45.66500 25.90600
C  40.78000 45.62500 27.31500
C  40.84100 44.32300 27.66700
C  40.79200 46.85300 25.09700
C  40.70600 46.40800 28.46600
O  40.69100 47.61900 28.62500
C  40.68600 45.42300 29.65800
C  41.81700 45.79500 30.52900
O  42.96600 45.34000 30.40400
O  41.42100 46.79900 31.37600
C  42.56200 47.30500 32.17500
H  42.06300 38.79000 30.29600
H  42.11900 38.45200 23.64600
H  41.05200 44.57000 23.45000
H  41.77400 43.09500 31.60000
H  40.67700 40.33200 31.68300
H  42.69300 39.60800 32.56500
H  42.70700 41.36100 32.91200
H  43.59500 40.70600 31.45200
H  39.26800 41.92100 32.32100
H  38.89300 43.39400 31.34300
H  39.15900 44.64900 33.05800
H  40.86100 43.98700 33.42400
H  43.92300 36.07400 28.74100
H  42.32200 35.50500 29.01100
H  42.89500 36.87400 29.89600
H  42.41600 34.49600 26.80000
H  44.01000 35.08700 26.69400
H  43.38000 34.22100 25.26200
H  40.76300 40.02000 22.20500
H  42.15900 42.62000 21.82000
H  43.64400 39.53700 22.14000
H  43.57300 40.77500 21.03700
H  42.52200 39.33300 20.90500
H  39.85400 42.01000 20.72800
H  40.06500 43.52700 21.38700
H  38.80100 42.03500 23.52600
H  38.17300 41.48800 21.90000
H  38.15800 43.20300 22.34300
H  40.04300 47.57100 25.42900
H  40.57100 46.69100 24.04200
H  41.75800 47.34700 24.98800
H  39.69700 45.61000 30.07500
H  43.34900 47.72400 31.54800
H  43.06900 46.48900 32.69000
H  42.28500 48.11200 32.85300

