158

Mg 24.89000 -6.07900 46.62400
C  27.24100 -3.86900 45.45400
C  22.54200 -4.58200 44.65500
C  22.81200 -8.60400 47.41100
C  27.52500 -7.78600 48.26900
N  24.99900 -4.49800 45.16700
C  26.02600 -3.70400 44.86200
C  25.62200 -2.62800 43.89000
C  24.04000 -2.60000 44.05900
C  23.79000 -3.98800 44.66400
C  23.57900 -1.52500 45.10500
C  25.98700 -2.99100 42.41000
C  26.38500 -1.80000 41.50000
H  25.53000 -1.75800 40.24400
N  22.89900 -6.46300 46.19900
C  22.11200 -5.75700 45.29400
C  20.74000 -6.34200 45.20500
C  20.78000 -7.51800 46.04600
C  22.22100 -7.58700 46.60200
C  19.57300 -5.77600 44.44500
C  19.60600 -8.48700 46.22700
O  18.52700 -8.26500 45.70400
C  19.68500 -9.68200 47.02900
N  25.24000 -8.08400 47.52900
C  24.13700 -8.82200 47.84600
C  24.65800 -10.18000 48.40800
C  26.02700 -9.75500 48.96800
C  26.32300 -8.45300 48.24700
C  23.86500 -10.98800 49.48000
C  27.04700 -10.90700 48.78700
C  28.02900 -11.06100 49.92900
N  27.02300 -5.86400 46.85900
C  27.88800 -6.60900 47.57700
C  29.16800 -5.96700 47.54000
C  28.92100 -4.78000 46.78800
C  27.64600 -4.86900 46.35500
C  30.46300 -6.40600 48.11800
C  29.54100 -3.65500 46.17100
O  30.70200 -3.24900 46.12600
C  28.42900 -2.92600 45.35800
C  28.23200 -1.47400 45.85000
O  29.11100 -0.58800 45.84200
O  27.03000 -1.38300 46.55800
C  26.65300 -0.06700 47.12300
H  21.89600 -3.99700 43.99700
H  22.09000 -9.38600 47.65600
H  28.25500 -8.28500 48.91000
H  25.99500 -1.65200 44.20200
H  23.44900 -2.43400 43.15800
H  24.40200 -0.87900 45.41200
H  23.12000 -2.02300 45.95800
H  22.76700 -1.01100 44.58900
H  25.15200 -3.45200 41.88200
H  26.81600 -3.69500 42.32900
H  27.42600 -1.90800 41.19500
H  26.11500 -0.80700 41.86100
H  18.82000 -6.49900 44.13200
H  19.92600 -5.23500 43.56700
H  19.04100 -4.99800 44.99400
H  19.84100 -9.34800 48.05500
H  20.49700 -10.23700 46.55900
H  18.71700 -10.17700 46.96000
H  24.68600 -10.87500 47.56900
H  25.98600 -9.55400 50.03800
H  24.01800 -12.04000 49.24100
H  22.83200 -10.64400 49.42000
H  24.22100 -10.71800 50.47400
H  27.58900 -10.60900 47.88900
H  26.66000 -11.90400 48.58000
H  27.83400 -10.37700 50.75500
H  29.05600 -10.82500 49.65100
H  28.01800 -12.10100 50.25600
H  30.22800 -6.42100 49.18200
H  31.33300 -5.77800 47.92600
H  30.69400 -7.44000 47.86100
H  28.81300 -2.80300 44.34500
H  26.87000 -0.07800 48.19200
H  25.57800 0.08500 47.03400
H  27.06100 0.80700 46.61600
Mg 44.91600 3.80900 46.69500
C  42.63800 6.31200 46.01400
C  42.27900 1.55400 46.85300
C  47.21900 1.49200 47.11500
C  47.49500 6.24000 46.10300
N  42.72300 3.94700 46.36300
C  42.01000 5.03800 46.00900
C  40.51700 4.68400 45.72800
C  40.41800 3.19100 46.30400
C  41.88700 2.87500 46.49100
C  39.67500 3.01800 47.65100
C  40.20900 4.65000 44.17700
C  39.26000 5.70300 43.63000
H  39.50100 6.55900 42.27600
N  44.82200 1.78600 46.90500
C  43.63700 1.06900 46.96800
C  44.03500 -0.31800 47.00200
C  45.46200 -0.42600 47.17000
C  45.93300 0.95200 47.03300
C  43.04000 -1.48300 46.98600
C  46.35300 -1.72400 47.24100
O  45.83100 -2.80000 47.09100
C  47.83000 -1.71400 47.58300
N  47.05900 3.82000 46.52300
C  47.81700 2.76100 46.91600
C  49.29400 3.13500 47.12000
C  49.37400 4.49000 46.35400
C  47.88300 4.92100 46.27600
C  49.77900 3.09500 48.63800
C  50.06100 4.44400 45.01000
C  51.59800 4.67900 44.96900
N  45.10300 5.87600 46.26400
C  46.18300 6.71300 46.06200
C  45.70700 8.08900 45.96400
C  44.30000 8.01600 45.91600
C  44.00200 6.58200 46.09600
C  46.54900 9.29700 45.84200
C  43.07900 8.70000 45.82600
O  42.89900 9.87400 45.64200
C  41.95400 7.71600 45.93700
C  41.12000 8.12400 47.09300
O  41.63200 8.39100 48.20200
O  39.80100 8.31600 46.69300
C  38.90500 8.61300 47.78700
H  41.47400 0.81700 46.80600
H  47.88400 0.72200 47.51100
H  48.35000 6.91800 46.15500
H  39.97700 5.42100 46.32300
H  39.87500 2.46400 45.70100
H  38.80400 2.36400 47.64000
H  39.43600 4.00900 48.03900
H  40.37200 2.54800 48.34600
H  39.61100 3.74900 44.03600
H  41.12000 4.52300 43.59200
H  39.06800 6.43300 44.41600
H  38.36100 5.14200 43.37800
H  42.88900 -1.85800 47.99800
H  43.35600 -2.32000 46.36200
H  42.10300 -1.11400 46.56900
H  48.11900 -1.00900 48.36300
H  48.33100 -1.50500 46.63800
H  48.12000 -2.73800 47.81800
H  49.87300 2.35700 46.62200
H  49.93900 5.25200 46.89100
H  50.33700 2.18600 48.86200
H  48.95300 3.19100 49.34200
H  50.46300 3.90100 48.90600
H  49.57300 5.09200 44.28100
H  49.79100 3.43400 44.70100
H  51.87500 5.01600 43.97000
H  52.05900 3.74400 45.28600
H  51.86400 5.45700 45.68500
H  47.50400 9.04600 46.30300
H  45.95400 10.15400 46.15700
H  46.72100 9.56900 44.80000
H  41.29000 7.81000 45.07800
H  38.98900 7.69000 48.36000
H  37.87400 8.77800 47.47500
H  39.11300 9.54300 48.31600

