158

Mg 9.41100 47.96800 27.55300
C  7.11100 47.74800 30.27800
C  11.87300 48.27200 29.67800
C  11.40300 48.48700 24.77300
C  6.56200 48.02400 25.31200
N  9.38500 47.95100 29.77500
C  8.43500 47.84300 30.73000
C  8.96400 48.00500 32.18400
C  10.51300 48.27500 31.93200
C  10.65000 48.08100 30.36500
C  11.08800 49.60300 32.58900
C  8.53600 46.87800 33.15400
C  9.63500 46.28000 34.05000
H  9.07300 45.80500 35.39800
N  11.40300 48.22800 27.28600
C  12.27400 48.23100 28.29900
C  13.59000 48.42300 27.84100
C  13.50700 48.50600 26.43200
C  12.06000 48.34300 26.03800
C  14.88200 48.41900 28.74000
C  14.64300 48.54300 25.42300
O  14.41100 48.50700 24.18600
C  16.09600 48.47300 25.87000
N  9.06100 48.16200 25.38600
C  10.06600 48.34000 24.45900
C  9.55700 48.54300 23.02100
C  8.04500 48.32900 23.22800
C  7.85300 48.16700 24.72200
C  10.00000 49.92100 22.41200
C  7.24800 47.14200 22.52000
C  5.94400 47.45500 21.76800
N  7.29600 47.91200 27.66100
C  6.29600 47.97200 26.69200
C  5.02300 47.84600 27.34800
C  5.28900 47.69700 28.70600
C  6.68000 47.76300 28.85200
C  3.66600 47.71800 26.69200
C  4.68700 47.62600 29.97700
O  3.49300 47.42700 30.27000
C  5.84100 47.70100 31.07300
C  5.70100 46.40600 31.70900
O  5.93900 45.35500 31.19600
O  5.36900 46.50300 33.04600
C  5.24200 45.15600 33.74400
H  12.68800 48.62700 30.31100
H  12.03700 48.81000 23.94500
H  5.77500 47.96800 24.55600
H  8.46800 48.89100 32.58100
H  11.14000 47.48900 32.35400
H  12.10100 49.35200 32.90700
H  10.41900 50.00100 33.35200
H  11.19000 50.30400 31.76100
H  8.16500 46.01400 32.60200
H  7.63400 47.23100 33.65200
H  10.29600 47.11800 34.27100
H  10.17000 45.43400 33.61900
H  14.68700 48.46400 29.81100
H  15.44400 49.32700 28.52200
H  15.57400 47.60800 28.51400
H  16.20500 47.44200 26.20700
H  16.15900 49.28600 26.59300
H  16.84400 48.50200 25.07800
H  9.97400 47.79000 22.35200
H  7.55700 49.29000 23.06700
H  10.80400 50.45600 22.91700
H  9.13700 50.58300 22.32900
H  10.32500 49.66600 21.40400
H  7.01700 46.40100 23.28600
H  7.88600 46.62000 21.80700
H  5.76900 48.52900 21.83500
H  5.12900 46.88500 22.21200
H  5.93600 47.18600 20.71100
H  3.91000 47.54400 25.64400
H  3.14600 48.67200 26.77200
H  3.13900 46.93600 27.24000
H  5.71900 48.58100 31.70400
H  4.89200 45.21100 34.77500
H  6.18400 44.63500 33.57200
H  4.44600 44.56800 33.28700
Mg -2.09700 34.73900 27.40400
C  -3.61400 33.01800 30.18400
C  -0.35600 36.63300 29.44600
C  -1.24500 36.67100 24.75200
C  -3.98600 32.67700 25.23900
N  -2.10400 34.85300 29.60900
C  -2.72000 34.05600 30.58300
C  -2.15700 34.38200 31.94700
C  -1.38600 35.74500 31.63800
C  -1.21700 35.76300 30.12500
C  -1.98600 36.95200 32.29800
C  -1.33800 33.18100 32.48800
C  -1.95100 32.43800 33.64300
H  -1.25000 32.41000 34.96100
N  -0.90400 36.36500 27.10200
C  -0.19500 37.00200 28.12900
C  0.64200 38.07100 27.64100
C  0.32200 38.05500 26.22500
C  -0.59900 36.99700 25.93500
C  1.48400 39.01700 28.56700
C  0.89500 38.92700 25.17600
O  0.47100 38.86200 24.03600
C  1.98300 39.79300 25.49300
N  -2.66200 34.73100 25.37100
C  -2.25500 35.68900 24.52500
C  -2.69200 35.45100 23.00200
C  -3.46900 34.10300 23.17000
C  -3.34500 33.73800 24.63500
C  -3.49200 36.63600 22.30800
C  -2.84700 33.06200 22.19500
C  -1.60300 32.25600 22.70000
N  -3.48500 33.14400 27.64600
C  -4.01900 32.35100 26.66400
C  -4.83100 31.31100 27.30500
C  -4.73100 31.56800 28.69500
C  -3.86200 32.62400 28.83900
C  -5.63300 30.26500 26.65500
C  -5.16500 31.10000 30.01400
O  -5.87500 30.22100 30.41400
C  -4.42300 31.98600 31.02200
C  -5.54400 32.58700 31.84700
O  -6.35800 33.44300 31.43400
O  -5.63200 32.03800 33.09700
C  -6.85000 32.15700 33.84700
H  0.27800 37.17000 30.15400
H  -1.02100 37.22000 23.83500
H  -4.49800 32.05800 24.50000
H  -3.05600 34.59400 32.52700
H  -0.32900 35.70100 31.90000
H  -2.95500 37.13600 31.83600
H  -1.38800 37.82100 32.02000
H  -1.97300 36.87200 33.38500
H  -0.39300 33.65600 32.75300
H  -1.18000 32.52100 31.63500
H  -1.98900 31.43400 33.22000
H  -2.92400 32.90500 33.79900
H  1.23800 38.91100 29.62300
H  1.31100 40.05100 28.26900
H  2.51900 38.74700 28.35300
H  2.15200 40.46000 24.64700
H  2.88300 39.30300 25.86500
H  1.68600 40.53400 26.23600
H  -1.81900 35.30100 22.36600
H  -4.52600 34.30900 22.99700
H  -4.56000 36.45100 22.18900
H  -3.03500 36.87100 21.34700
H  -3.39700 37.44100 23.03700
H  -2.43300 33.43800 21.26000
H  -3.68900 32.39500 22.00500
H  -0.69800 32.37200 22.10200
H  -2.02700 31.25400 22.76700
H  -1.31900 32.53700 23.71400
H  -5.72000 30.43500 25.58200
H  -6.66900 30.36000 26.98000
H  -5.51500 29.19200 26.80900
H  -3.87700 31.27800 31.64700
H  -7.76200 32.34700 33.28100
H  -6.80300 32.89400 34.64800
H  -7.06000 31.15000 34.20900

