158

Mg 1.22800 7.48500 25.22000
C  1.94600 9.54000 27.88100
C  1.29400 4.72600 27.26200
C  0.68600 5.60700 22.43400
C  1.57600 10.33500 23.08800
N  1.52600 7.23900 27.31100
C  1.79200 8.20100 28.25700
C  1.69900 7.63900 29.68900
C  1.97900 6.09100 29.39800
C  1.54000 5.95700 27.92100
C  3.51600 5.70100 29.76700
C  0.37200 7.89300 30.32600
C  0.45600 8.31700 31.78700
H  1.59600 7.76500 32.67400
N  0.84900 5.45500 24.92100
C  0.95500 4.50400 25.87000
C  0.63900 3.19600 25.31700
C  0.56900 3.41500 23.89200
C  0.70800 4.88400 23.69100
C  0.33200 2.12400 26.24000
C  0.37000 2.38300 22.81500
O  0.17000 2.70400 21.65200
C  0.43700 0.93900 23.11300
N  0.96300 7.95900 23.05500
C  0.77200 6.96000 22.15600
C  0.81200 7.51600 20.76600
C  1.15800 9.07200 20.94400
C  1.30200 9.14500 22.46000
C  1.78400 6.79600 19.83300
C  0.07200 10.07900 20.35200
C  -1.26500 10.12800 21.06400
N  1.75400 9.47600 25.38400
C  1.69900 10.49600 24.48500
C  1.94500 11.77800 25.16100
C  2.07100 11.40400 26.45700
C  1.94600 10.00300 26.52800
C  2.05100 13.19600 24.54900
C  2.32200 11.94800 27.77600
O  2.64200 13.06200 28.12500
C  2.15500 10.80000 28.71900
C  3.22900 10.81100 29.68300
O  4.22800 10.08100 29.62400
O  2.77800 11.40900 30.81100
C  3.31200 11.34900 32.11300
H  1.32500 3.95000 28.03000
H  0.59400 4.98900 21.53800
H  1.53500 11.19900 22.42100
H  2.51800 8.15300 30.19200
H  1.28000 5.48800 29.97800
H  3.87000 6.51000 30.40600
H  4.20700 5.75200 28.92500
H  3.64000 4.79700 30.36400
H  -0.29700 7.03200 30.30400
H  -0.13600 8.74400 29.87100
H  -0.47800 8.10000 32.30500
H  0.57900 9.39800 31.85400
H  -0.68800 2.16700 26.62100
H  1.03100 2.14300 27.07600
H  0.59500 1.16500 25.79400
H  -0.34500 0.66500 23.82200
H  1.35300 0.81100 23.68900
H  0.42900 0.25200 22.26700
H  -0.19300 7.47300 20.34600
H  2.12600 9.32100 20.50700
H  2.67400 7.41200 19.70200
H  1.34700 6.75900 18.83500
H  2.08000 5.82000 20.21500
H  -0.17000 9.85800 19.31300
H  0.50900 11.07400 20.43600
H  -1.35400 9.16000 21.55600
H  -2.03800 10.27000 20.30900
H  -1.31200 10.96700 21.75900
H  1.63900 13.18800 23.54000
H  3.03000 13.67200 24.59400
H  1.35600 13.67900 25.23700
H  1.26700 11.01300 29.31500
H  4.15900 10.66400 32.15300
H  2.63300 10.95600 32.87000
H  3.61800 12.36200 32.37500
Mg 36.35400 48.85300 25.05900
C  36.72500 47.05700 28.15800
C  35.14200 51.61500 26.74500
C  35.62700 50.24000 22.07900
C  37.65500 46.01700 23.49600
N  35.97200 49.24100 27.12500
C  36.26400 48.41700 28.27800
C  36.05100 49.18200 29.58900
C  35.20100 50.41400 29.12700
C  35.54500 50.46900 27.56500
C  33.67500 50.33300 29.54800
C  37.38200 49.37000 30.53200
C  37.22100 48.84300 31.97000
H  35.94500 49.18200 32.74700
N  35.59100 50.66500 24.53700
C  35.24900 51.64500 25.37900
C  34.93600 52.86000 24.58100
C  34.93700 52.46400 23.18100
C  35.38600 51.06900 23.20100
C  34.76100 54.22600 25.29800
C  34.66700 53.34000 21.91300
O  34.67500 52.83100 20.75000
C  34.13200 54.73600 22.08700
N  36.53400 48.13900 23.11900
C  36.16000 48.94700 22.03000
C  36.55300 48.36500 20.70500
C  37.56200 47.16500 21.12800
C  37.25200 47.05500 22.65300
C  35.44300 47.96000 19.70800
C  39.03600 47.39000 20.73100
C  39.90500 46.22600 20.34200
N  36.97700 46.90300 25.61100
C  37.47900 45.87200 24.85400
C  37.70700 44.74800 25.66100
C  37.45400 45.19200 26.98000
C  37.04000 46.48300 26.87500
C  38.13100 43.33700 25.11300
C  37.41400 44.75500 28.33800
O  37.68400 43.69400 28.81900
C  37.01800 46.00900 29.20000
C  35.93600 45.69300 30.15500
O  34.71800 45.68300 29.96600
O  36.39800 45.33100 31.37200
C  35.46700 45.15800 32.52300
H  34.64800 52.37200 27.35800
H  35.48000 50.71100 21.10500
H  37.97300 45.17600 22.87600
H  35.37100 48.43800 30.00400
H  35.62300 51.34000 29.51600
H  33.08500 50.30300 28.63200
H  33.27600 51.27300 29.93000
H  33.39900 49.57100 30.27700
H  37.80100 50.37600 30.50100
H  38.11300 48.74400 30.02100
H  38.09400 49.27400 32.46000
H  37.63900 47.84300 32.08500
H  35.44600 54.92500 24.81800
H  35.12200 54.13500 26.32200
H  33.73600 54.58200 25.18900
H  34.94800 55.35800 22.45300
H  33.30300 54.75800 22.79400
H  33.85200 55.33900 21.22300
H  37.09100 49.18700 20.23200
H  37.19200 46.20400 20.77100
H  35.47700 46.97300 19.24700
H  35.51100 48.68200 18.89500
H  34.43000 47.93900 20.11100
H  39.55000 47.70200 21.64000
H  39.07500 48.16100 19.96200
H  40.28700 45.71800 21.22700
H  40.69000 46.81900 19.87500
H  39.39700 45.59900 19.60900
H  38.04500 43.27500 24.02800
H  37.67300 42.48100 25.60800
H  39.18800 43.37800 25.37600
H  37.91900 46.24700 29.76700
H  35.67900 44.16300 32.91300
H  34.39200 45.21200 32.34600
H  35.80900 45.90000 33.24400

