158

Mg 46.88000 16.49400 28.23100
C  44.96700 15.74800 31.04800
C  49.23000 17.87700 30.21100
C  48.57400 17.25000 25.46400
C  44.35500 14.96000 26.16600
N  47.11400 16.74500 30.35300
C  46.18000 16.38800 31.37600
C  46.69900 16.69100 32.79600
C  48.07600 17.40100 32.44300
C  48.19800 17.29600 30.90300
C  48.18200 18.84300 33.03200
C  46.94900 15.31300 33.49600
C  46.50700 15.27200 34.97500
H  46.39500 16.54900 35.73400
N  48.68800 17.41600 27.92300
C  49.47000 17.94200 28.87500
C  50.57000 18.71200 28.22900
C  50.33500 18.55600 26.81400
C  49.17000 17.71200 26.65400
C  51.72800 19.39100 28.94100
C  51.17300 19.15800 25.67100
O  50.88900 18.97600 24.49700
C  52.37000 20.02500 25.96300
N  46.50000 16.12300 26.02200
C  47.40300 16.60200 25.19600
C  46.84400 16.41200 23.75600
C  45.70000 15.33500 24.00600
C  45.49600 15.44100 25.51600
C  46.30400 17.76600 23.14300
C  46.16200 13.83500 23.67500
C  45.13600 12.98900 22.81600
N  45.01400 15.57500 28.45000
C  44.16000 15.02800 27.57500
C  42.98700 14.45200 28.38300
C  43.24200 14.81600 29.72700
C  44.50700 15.50800 29.69900
C  41.80800 13.66700 27.93800
C  42.80400 14.67500 31.08000
O  41.80000 14.09500 31.53800
C  43.85300 15.33700 31.98400
C  43.32800 16.56000 32.59500
O  43.34800 17.69800 32.19900
O  42.85800 16.24100 33.79200
C  42.55300 17.37400 34.69900
H  50.01400 18.37800 30.78300
H  49.07300 17.72900 24.61800
H  43.60700 14.43000 25.57100
H  45.96800 17.34000 33.27700
H  48.87700 16.76600 32.82000
H  48.06000 19.55300 32.21400
H  49.08400 19.10500 33.58500
H  47.33300 18.93700 33.70900
H  47.98500 14.98400 33.57100
H  46.51700 14.48600 32.93200
H  47.19300 14.63400 35.53300
H  45.45600 14.98200 34.96700
H  52.61600 18.89300 28.55000
H  51.68800 19.24200 30.02000
H  51.71500 20.46900 28.78000
H  52.80400 20.43100 25.05000
H  53.13100 19.33500 26.32600
H  52.17800 20.78300 26.72300
H  47.58200 15.87300 23.16200
H  44.78900 15.56100 23.45200
H  47.06400 18.16300 22.46900
H  46.07500 18.53400 23.88100
H  45.47000 17.62200 22.45700
H  46.08000 13.34400 24.64500
H  47.13700 13.79400 23.19100
H  44.46800 13.59900 22.20700
H  44.43900 12.44000 23.44900
H  45.66500 12.25800 22.20500
H  41.80400 13.78000 26.85400
H  40.91800 14.11900 28.37500
H  42.14700 12.67300 28.23200
H  44.10600 14.62700 32.77200
H  43.26900 18.19300 34.62700
H  42.71900 17.09700 35.74000
H  41.55600 17.80400 34.60200
Mg -10.61300 16.87600 41.09300
C  -7.97600 14.55400 40.97700
C  -8.77700 18.95500 39.09600
C  -13.33000 18.62200 40.50000
C  -12.60400 14.23000 42.40600
N  -8.62000 16.76600 40.29200
C  -7.69400 15.78700 40.39500
C  -6.44900 16.16400 39.50100
C  -6.64000 17.63000 39.28600
C  -8.09200 17.85300 39.61900
C  -5.71700 18.52100 40.18400
C  -6.34900 15.42700 38.16600
C  -5.34600 14.22800 38.11800
H  -4.19500 14.09400 37.00300
N  -10.93500 18.62400 40.07100
C  -10.05200 19.35500 39.36800
C  -10.70500 20.54000 38.88800
C  -12.07900 20.47300 39.33500
C  -12.14800 19.20800 40.05000
C  -9.99100 21.67900 38.22000
C  -13.18600 21.63900 39.03600
O  -12.86100 22.62800 38.36700
C  -14.62600 21.46800 39.47900
N  -12.67300 16.52100 41.47300
C  -13.61000 17.43100 41.17600
C  -15.11600 16.93800 41.61900
C  -14.77100 15.56900 42.37500
C  -13.30200 15.39400 41.99400
C  -15.89700 17.93400 42.59900
C  -15.67700 14.40100 41.99200
C  -16.80100 13.92900 43.01500
N  -10.38900 14.87400 41.85300
C  -11.23100 13.91900 42.31400
C  -10.56600 12.76300 42.64600
C  -9.27400 12.98800 42.20100
C  -9.23600 14.30300 41.63300
C  -11.03900 11.52300 43.24000
C  -7.90500 12.41000 42.11000
O  -7.42900 11.30300 42.44800
C  -7.04300 13.35900 41.32600
C  -5.84000 13.74300 42.16500
O  -5.89300 13.91400 43.37800
O  -4.66000 13.94300 41.39700
C  -3.61400 14.71900 42.13000
H  -8.08700 19.63100 38.58600
H  -14.27600 19.08300 40.20800
H  -13.20300 13.48100 42.92800
H  -5.63900 15.84100 40.15600
H  -6.40500 17.87700 38.25100
H  -6.36300 19.02200 40.90400
H  -5.13600 19.18800 39.54600
H  -5.03200 17.93400 40.79600
H  -6.14000 16.05800 37.30200
H  -7.33200 15.02900 37.91900
H  -5.91200 13.29800 38.06400
H  -4.84700 14.17200 39.08500
H  -9.60400 21.36700 37.25100
H  -9.15600 21.97000 38.85700
H  -10.61100 22.57500 38.18300
H  -15.10200 22.44700 39.53000
H  -14.59500 21.13900 40.51700
H  -15.20800 20.85500 38.79100
H  -15.72100 16.85800 40.71600
H  -14.75900 15.65600 43.46100
H  -16.41700 17.32400 43.33800
H  -16.69300 18.35600 41.98500
H  -15.28200 18.76500 42.94400
H  -15.07900 13.53100 41.72000
H  -16.28500 14.64600 41.12200
H  -16.91400 14.59900 43.86700
H  -16.59900 12.89700 43.30000
H  -17.75800 13.89500 42.49300
H  -10.18000 10.97600 43.63000
H  -11.51000 10.91400 42.46800
H  -11.75700 11.88000 43.97800
H  -6.79800 12.70600 40.48900
H  -3.32000 14.21200 43.04900
H  -3.99000 15.74100 42.09200
H  -2.80600 14.66600 41.40000

