158

Mg 25.89400 0.93300 29.21600
C  27.85500 0.93600 32.09700
C  23.11900 1.69900 31.13500
C  24.05100 0.47600 26.42000
C  28.66500 -0.24400 27.40600
N  25.60400 1.20100 31.32500
C  26.52900 1.28700 32.35400
C  25.92600 1.79400 33.74500
C  24.38900 1.78300 33.37000
C  24.30600 1.48100 31.84800
C  23.67400 0.73800 34.15400
C  26.56700 3.18700 34.26000
C  27.14300 3.04400 35.68500
H  26.31400 3.83100 36.73900
N  23.90000 1.12800 28.86200
C  22.93300 1.49500 29.81700
C  21.65700 1.58800 29.01100
C  21.87200 1.16900 27.69300
C  23.37100 0.87700 27.59100
C  20.30000 2.02000 29.57800
C  20.88900 1.02500 26.52900
O  21.25300 0.73300 25.39300
C  19.47000 1.32600 26.67700
N  26.34300 0.25800 27.14000
C  25.42100 0.28900 26.14600
C  26.06800 -0.03200 24.79800
C  27.59400 -0.06800 25.10700
C  27.58500 -0.03600 26.61700
C  25.45800 -1.21600 23.96800
C  28.47400 0.98600 24.44000
C  28.62100 0.77000 22.95700
N  27.82900 0.37100 29.61600
C  28.85600 0.00300 28.78500
C  30.11400 -0.21000 29.55400
C  29.72000 0.30700 30.81400
C  28.37300 0.60500 30.83200
C  31.44400 -0.73600 29.15400
C  30.26600 0.37800 32.18600
O  31.40600 0.14600 32.55100
C  29.01600 0.86600 33.08300
C  28.84900 -0.25300 34.13400
O  28.32900 -1.30500 33.84900
O  29.51800 0.01200 35.27900
C  29.36500 -1.02300 36.33600
H  22.29800 1.97900 31.79800
H  23.51900 0.41200 25.46800
H  29.55900 -0.56500 26.86600
H  26.09900 1.00500 34.47700
H  23.92700 2.75100 33.56000
H  22.68500 0.61900 33.71300
H  23.50000 0.90200 35.21700
H  24.14700 -0.24400 34.14500
H  25.86100 4.01400 34.19500
H  27.32800 3.42200 33.51600
H  28.14500 3.46900 35.75100
H  27.22800 2.00700 36.00900
H  20.08000 3.05900 29.33200
H  20.36700 1.77500 30.63800
H  19.58600 1.24000 29.31300
H  18.87400 0.57500 27.19600
H  19.02000 1.34900 25.68400
H  19.46800 2.34200 27.07100
H  25.78000 0.83000 24.19600
H  27.97700 -1.06600 24.89400
H  24.48700 -1.47300 24.39100
H  26.12100 -2.07000 23.82800
H  25.21000 -0.88400 22.96000
H  29.37900 0.85700 25.03500
H  28.17500 2.02100 24.60200
H  28.28100 1.60400 22.34400
H  28.13800 -0.15200 22.63300
H  29.70600 0.72500 22.86200
H  32.21300 -0.35000 29.82300
H  31.69400 -0.50300 28.11900
H  31.41200 -1.82500 29.12300
H  29.34700 1.81700 33.50100
H  28.35900 -1.43100 36.24800
H  29.47400 -0.51800 37.29600
H  30.18800 -1.72800 36.21400
Mg 47.04900 15.79500 28.22300
C  44.92400 15.60100 31.03200
C  49.27000 17.37300 30.43400
C  49.16300 16.26300 25.63900
C  44.64900 14.48700 26.27900
N  47.05900 16.45400 30.50500
C  46.12800 16.15300 31.43000
C  46.59600 16.41500 32.87800
C  47.91100 17.19900 32.57600
C  48.12600 16.99600 31.09000
C  47.96200 18.72200 32.99100
C  46.66800 15.12100 33.77700
C  46.25700 15.39000 35.25900
H  46.10800 16.82000 35.78500
N  48.98000 16.58600 28.04800
C  49.75800 17.10900 29.07600
C  51.04400 17.29400 28.54100
C  51.03600 17.06300 27.09400
C  49.67400 16.58300 26.86500
C  52.18300 17.75000 29.33800
C  52.17500 17.18800 26.05100
O  52.19600 16.75900 24.89500
C  53.51600 17.80800 26.48800
N  46.97600 15.36300 26.27800
C  47.88600 15.74300 25.36100
C  47.51900 15.39400 23.92300
C  46.11900 14.76400 24.16200
C  45.88400 14.79500 25.68800
C  47.64100 16.52400 22.86000
C  46.01300 13.29200 23.72000
C  45.08400 13.15200 22.59000
N  45.12700 15.17000 28.53900
C  44.28200 14.58100 27.62300
C  43.10100 14.18600 28.31900
C  43.30400 14.54700 29.64900
C  44.55300 15.13700 29.73600
C  41.95500 13.51400 27.63300
C  42.69500 14.54800 31.03400
O  41.66000 14.08400 31.40000
C  43.82800 15.12000 31.99200
C  43.19400 16.26500 32.79800
O  43.21800 17.47600 32.52100
O  42.55800 15.66900 33.90200
C  41.90100 16.65500 34.77000
H  49.98500 17.96900 31.00600
H  49.73900 16.61400 24.77900
H  43.86200 14.08600 25.63700
H  45.84000 17.08000 33.29400
H  48.66900 16.67400 33.15700
H  46.95500 18.99700 33.30300
H  48.27700 19.35000 32.15800
H  48.73000 18.73900 33.76500
H  47.70300 14.80400 33.90800
H  46.21500 14.30200 33.21900
H  46.92600 14.84100 35.92100
H  45.29400 14.88300 35.32800
H  53.13400 17.36800 28.96700
H  52.02900 17.33800 30.33600
H  52.17600 18.84000 29.34000
H  53.50900 18.70300 27.11000
H  54.10000 18.02700 25.59500
H  54.09200 17.02500 26.98100
H  48.19400 14.59500 23.61600
H  45.40000 15.42300 23.67400
H  47.35200 17.50100 23.24700
H  47.07400 16.16200 22.00200
H  48.66300 16.61800 22.49500
H  45.74400 12.59700 24.51600
H  47.02500 13.02400 23.41500
H  45.47700 12.39700 21.90900
H  45.01200 14.11100 22.07700
H  44.10900 12.89800 23.00500
H  41.74200 14.08000 26.72700
H  41.02800 13.48600 28.20500
H  42.22700 12.50000 27.34000
H  44.08800 14.26700 32.61800
H  40.95300 17.03500 34.39100
H  42.48000 17.57400 34.86700
H  41.71700 16.25000 35.76500

