158

Mg 55.71000 23.35700 45.37400
C  53.27500 25.90500 44.68200
C  53.52900 21.01300 44.02400
C  58.07500 21.16500 45.71500
C  57.83000 25.93800 46.51200
N  53.74900 23.53900 44.27900
C  52.93600 24.63000 44.17100
C  51.63700 24.18900 43.49900
C  51.55100 22.70000 43.73200
C  53.04900 22.33100 44.02000
C  50.52300 22.18000 44.82300
C  51.46400 24.68600 42.04300
C  50.02400 25.05900 41.54700
H  49.69800 24.67600 40.08400
N  55.83300 21.33800 44.82500
C  54.80900 20.54300 44.35500
C  55.28100 19.19800 44.29500
C  56.62900 19.18600 44.76600
C  56.93300 20.58400 45.09200
C  54.47200 18.05700 43.76700
C  57.46900 17.94300 44.79300
O  57.00600 16.81300 44.54200
C  58.96500 18.04800 45.10100
N  57.68000 23.51700 46.02000
C  58.38700 22.42800 46.13400
C  59.71600 22.69700 46.86900
C  59.72300 24.25100 46.92100
C  58.33100 24.61300 46.44500
C  59.85700 22.06000 48.24000
C  60.75800 24.99100 46.07000
C  61.32400 26.28600 46.65200
N  55.61900 25.49400 45.56900
C  56.50000 26.40600 46.10300
C  55.96600 27.75900 46.17600
C  54.68700 27.54300 45.68300
C  54.51700 26.21400 45.27900
C  56.56000 29.05000 46.58100
C  53.42500 28.20200 45.36900
O  53.05300 29.35500 45.49900
C  52.53700 27.12600 44.71200
C  52.26200 27.70600 43.39200
O  53.01800 27.89000 42.48000
O  50.91700 28.01300 43.24800
C  50.60000 28.88600 42.14800
H  52.76400 20.31000 43.68700
H  58.84900 20.45500 46.01200
H  58.50200 26.64600 47.00300
H  50.77700 24.55200 44.06100
H  51.24300 22.24500 42.79100
H  50.98400 21.44500 45.48200
H  49.69200 21.67200 44.33400
H  50.21300 22.93900 45.54100
H  51.81900 23.83400 41.46300
H  52.09600 25.57400 42.04400
H  49.94500 26.14600 41.53800
H  49.21000 24.56900 42.08100
H  55.10300 17.43300 43.13400
H  53.57200 18.37200 43.24000
H  54.20900 17.39600 44.59300
H  59.53600 18.69300 44.43200
H  59.40500 17.08600 44.84000
H  59.13300 18.44300 46.10300
H  60.47200 22.34800 46.16600
H  59.84200 24.64100 47.93200
H  58.99800 21.49800 48.60500
H  60.17000 22.76800 49.00800
H  60.62300 21.29700 48.10100
H  60.31300 25.26700 45.11400
H  61.62600 24.34700 45.93300
H  61.73700 26.84300 45.81100
H  62.18600 25.90100 47.19700
H  60.71100 26.84900 47.35500
H  56.04000 29.48500 47.43400
H  56.45000 29.64700 45.67600
H  57.64400 28.98400 46.66900
H  51.56800 26.99100 45.19300
H  51.29400 29.71600 42.01300
H  49.56900 29.21300 42.28100
H  50.53500 28.19000 41.31200
Mg 26.53200 50.07100 26.37300
C  24.41700 51.47200 28.72500
C  28.71600 49.13400 28.73300
C  28.58300 48.78200 23.87200
C  24.35900 51.33000 23.88600
N  26.58600 50.28200 28.46800
C  25.54800 50.75400 29.22800
C  25.82300 50.45600 30.81100
C  27.26800 49.86600 30.74300
C  27.52200 49.68800 29.21700
C  28.34500 50.85300 31.31600
C  24.72200 49.69500 31.49200
C  24.22400 50.13400 32.89700
H  25.12800 50.79200 33.98300
N  28.29000 49.06000 26.33400
C  29.11600 48.82300 27.40400
C  30.24800 48.10100 27.03600
C  30.15800 47.87900 25.62100
C  28.89300 48.53700 25.20000
C  31.31800 47.59100 28.01500
C  31.09300 47.01600 24.75900
O  30.82700 46.63500 23.66100
C  32.46800 46.77600 25.28500
N  26.59300 50.22700 24.13500
C  27.43900 49.49600 23.38900
C  27.16200 49.61900 21.89600
C  25.70300 50.29300 21.86500
C  25.51100 50.67000 23.35000
C  28.29700 50.34000 21.13400
C  24.62700 49.37100 21.22000
C  24.12500 48.15300 21.96500
N  24.69700 51.15000 26.26900
C  23.96000 51.57600 25.22900
C  22.80800 52.29900 25.71700
C  22.97400 52.32700 27.07000
C  24.14500 51.61100 27.38200
C  21.80900 53.03300 24.90500
C  22.36800 52.79800 28.29800
O  21.43300 53.54000 28.55400
C  23.29000 52.23900 29.42300
C  23.68600 53.42000 30.24600
O  24.21200 54.46600 29.87500
O  23.06600 53.36600 31.45400
C  23.19600 54.45200 32.46600
H  29.23500 48.80200 29.63500
H  29.31300 48.35500 23.18100
H  23.55700 51.50500 23.16600
H  25.77100 51.40300 31.34800
H  27.32700 48.88400 31.21200
H  29.15300 50.92700 30.58900
H  28.65400 50.28700 32.19500
H  28.00300 51.85100 31.59000
H  25.03500 48.65600 31.60000
H  23.91100 49.61800 30.76800
H  24.09100 49.16500 33.37800
H  23.31400 50.70500 32.71400
H  31.49400 46.53000 27.84000
H  30.84200 47.75500 28.98200
H  32.23100 48.18000 27.92500
H  32.84300 47.65900 25.80200
H  33.22900 46.57200 24.53100
H  32.54300 45.92800 25.96700
H  27.17600 48.62000 21.46000
H  25.64200 51.25000 21.34800
H  28.17500 51.40800 20.95300
H  28.57700 49.81400 20.22200
H  29.25800 50.33800 21.64900
H  25.07800 49.17800 20.24600
H  23.69400 49.84500 20.91500
H  23.08500 48.39400 22.18600
H  24.77500 48.19900 22.83900
H  24.27400 47.25400 21.36700
H  21.85600 54.07700 25.21600
H  20.80600 52.62000 25.01300
H  22.16700 52.98900 23.87700
H  22.75100 51.50000 30.01800
H  23.70000 55.31500 32.02900
H  23.78100 54.11800 33.32200
H  22.19900 54.75900 32.78200

