158

Mg -2.23500 16.36500 26.60500
C  -2.52900 13.76900 29.08300
C  -2.80400 18.65600 28.91200
C  -2.71100 18.58400 24.14800
C  -2.50600 13.66000 24.27200
N  -2.64200 16.16100 28.75400
C  -2.69800 15.10600 29.60500
C  -2.96500 15.55300 31.08200
C  -3.00200 17.11700 30.99300
C  -2.84600 17.38000 29.42900
C  -4.28000 17.85800 31.58800
C  -2.01500 14.90000 32.17700
C  -1.56500 15.76800 33.33300
H  -0.75400 15.16100 34.49300
N  -2.47000 18.34300 26.51900
C  -2.64500 19.14200 27.61200
C  -2.70000 20.56100 27.16600
C  -2.62600 20.57600 25.76000
C  -2.57500 19.11300 25.37600
C  -2.85400 21.66600 28.09800
C  -2.44600 21.76000 24.77800
O  -2.25300 21.60400 23.59800
C  -2.48300 23.13500 25.34200
N  -2.70700 16.12200 24.56100
C  -2.85700 17.23800 23.74000
C  -3.20100 16.87700 22.28900
C  -2.95900 15.29400 22.29900
C  -2.73500 14.99000 23.80400
C  -4.62800 17.43100 21.91200
C  -1.97200 14.75300 21.28600
C  -0.51100 15.13000 21.49200
N  -2.28400 14.13500 26.61400
C  -2.38600 13.24100 25.59900
C  -2.38200 11.89400 26.13200
C  -2.41200 12.05200 27.52600
C  -2.44300 13.46900 27.74300
C  -2.70400 10.66900 25.37500
C  -2.57900 11.35800 28.73700
O  -2.71400 10.15900 28.96100
C  -2.74500 12.44000 29.76500
C  -1.84400 12.04800 30.95500
O  -0.58600 12.06300 30.99200
O  -2.69300 11.65500 31.91900
C  -2.07600 11.22600 33.25800
H  -2.79600 19.43400 29.67800
H  -2.93200 19.34500 23.39700
H  -2.58100 12.93700 23.45700
H  -3.95300 15.15400 31.31300
H  -2.14200 17.58300 31.47500
H  -5.01100 17.14400 31.96800
H  -4.76600 18.54000 30.89000
H  -4.00500 18.46100 32.45300
H  -1.14800 14.40100 31.74400
H  -2.63400 14.15900 32.68300
H  -2.43300 16.20900 33.82200
H  -0.91800 16.53100 32.90000
H  -3.83500 22.02300 27.78600
H  -1.99500 22.28000 27.82600
H  -2.71700 21.40100 29.14700
H  -3.38200 23.34100 25.92200
H  -2.54900 23.83100 24.50500
H  -1.63900 23.15300 26.03100
H  -2.52900 17.31500 21.55000
H  -3.90600 14.80700 22.06700
H  -5.05900 17.68900 22.88000
H  -5.22600 16.62200 21.49200
H  -4.60300 18.30200 21.25700
H  -2.33100 15.19000 20.35400
H  -2.04100 13.66600 21.31600
H  -0.17300 15.75500 20.66600
H  -0.01000 14.18400 21.69800
H  -0.45900 15.70600 22.41600
H  -3.24100 10.83000 24.44000
H  -3.32100 10.08500 26.05700
H  -1.75800 10.19000 25.12400
H  -3.79700 12.41500 30.04800
H  -2.01100 10.13900 33.29300
H  -2.73200 11.57200 34.05700
H  -1.13000 11.74000 33.43000
Mg 26.20500 0.39600 29.62200
C  28.00000 0.20800 32.64100
C  23.31200 0.80100 31.53300
C  24.39500 0.21600 26.76000
C  28.99200 -0.50100 27.82100
N  25.70200 0.32500 31.92800
C  26.64600 0.44800 32.92200
C  26.00100 0.81200 34.25500
C  24.42700 0.87600 33.92000
C  24.44200 0.64900 32.31900
C  23.53300 0.09800 34.87300
C  26.62900 2.14900 34.77600
C  27.35600 1.99200 36.09300
H  26.81500 2.84900 37.28400
N  24.09300 0.45500 29.18400
C  23.05600 0.50800 30.12000
C  21.77500 0.43000 29.39700
C  22.06100 0.22800 28.00500
C  23.55900 0.32400 27.95300
C  20.44300 0.48100 30.15600
C  21.08900 -0.06100 26.81800
O  21.50800 -0.19500 25.66700
C  19.64100 -0.10500 26.99100
N  26.59000 -0.05800 27.56300
C  25.71800 0.00200 26.54900
C  26.38300 -0.08300 25.16300
C  27.82200 -0.45800 25.58700
C  27.86100 -0.31900 27.06600
C  25.67300 -1.06700 24.15600
C  28.94400 0.34500 24.79000
C  29.18900 1.74900 25.14800
N  28.12800 -0.03500 30.03300
C  29.17000 -0.39300 29.20600
C  30.30000 -0.72200 30.01500
C  29.94400 -0.42600 31.34500
C  28.57600 -0.04900 31.30700
C  31.64900 -1.19300 29.44700
C  30.44200 -0.41200 32.74600
O  31.46600 -0.85600 33.22600
C  29.17600 0.11100 33.66800
C  29.14600 -0.79400 34.80000
O  28.41400 -1.81800 34.88200
O  29.91600 -0.37100 35.80400
C  29.80000 -1.08400 37.08600
H  22.45200 1.19600 32.07800
H  23.89500 -0.00600 25.81500
H  29.86300 -0.82100 27.24600
H  26.14400 -0.06900 34.88200
H  24.02900 1.87200 34.11300
H  22.96100 -0.62000 34.28500
H  22.87500 0.81900 35.35800
H  24.05400 -0.45600 35.65400
H  25.86100 2.90900 34.91800
H  27.43200 2.64000 34.22600
H  28.38800 2.28300 35.89800
H  27.26800 0.95000 36.40000
H  20.58200 1.07800 31.05800
H  19.97800 -0.45600 30.46300
H  19.78400 1.00000 29.46000
H  19.20200 -0.16300 25.99500
H  19.32300 0.83300 27.44700
H  19.37100 -0.94300 27.63400
H  26.44500 0.84100 24.58700
H  27.93600 -1.54200 25.55900
H  24.73000 -1.37300 24.60900
H  26.22800 -1.99500 24.01700
H  25.60100 -0.59800 23.17500
H  28.57400 0.40600 23.76700
H  29.85500 -0.24000 24.65900
H  30.25200 1.92500 25.31500
H  28.67000 2.07100 26.05000
H  28.73000 2.46400 24.46500
H  31.69200 -0.89100 28.40100
H  31.74200 -2.27200 29.57200
H  32.50700 -0.68100 29.88100
H  29.38200 1.13400 33.98200
H  29.97500 -2.15600 36.99500
H  28.80700 -0.94300 37.51200
H  30.45700 -0.63600 37.83100

