158

Mg 2.61200 -0.61600 43.66500
C  6.21500 -0.07500 43.48600
C  2.15900 2.17600 41.88000
C  -0.46200 -1.72100 42.99000
C  3.48100 -3.92500 44.75000
N  4.10000 0.73400 42.67000
C  5.44500 0.83200 42.76900
C  5.95600 2.17000 42.25400
C  4.63500 3.01900 42.20600
C  3.53200 1.93300 42.20500
C  4.63200 4.13100 43.26600
C  6.77000 2.20300 40.97100
C  6.11900 1.53900 39.72900
H  6.21200 2.43500 38.47200
N  1.05200 0.14800 42.57700
C  0.99900 1.34800 42.01600
C  -0.31400 1.59900 41.54500
C  -1.16900 0.54500 41.91000
C  -0.19200 -0.41900 42.48800
C  -0.71900 2.86600 40.79300
C  -2.65100 0.41800 41.85100
O  -3.37500 1.16000 41.26100
C  -3.34100 -0.62000 42.65400
N  1.68300 -2.58200 43.66700
C  0.36200 -2.63700 43.59500
C  -0.25100 -4.00200 44.13600
C  1.05400 -4.74100 44.57000
C  2.16000 -3.71700 44.32200
C  -1.26300 -3.68600 45.30800
C  1.29800 -6.20300 44.05800
C  1.39300 -7.32400 45.16500
N  4.40900 -1.75400 44.22500
C  4.58900 -3.00900 44.76300
C  5.87400 -3.19500 45.30700
C  6.59100 -2.05400 44.74800
C  5.66400 -1.27900 44.10900
C  6.33100 -4.38800 46.06800
C  7.86400 -1.45300 44.66100
O  8.92000 -1.90000 45.08100
C  7.73300 -0.15700 43.77900
C  8.39400 1.00400 44.51700
O  9.37900 1.60600 44.05000
O  7.89600 1.10900 45.77300
C  8.45500 2.22600 46.63800
H  2.01000 3.23100 41.63800
H  -1.43500 -2.19700 42.85400
H  3.69000 -4.92000 45.14900
H  6.59200 2.61500 43.01800
H  4.58100 3.53800 41.24800
H  5.38700 4.03700 44.04600
H  3.64600 4.09700 43.72900
H  4.89300 5.05600 42.75000
H  7.75000 1.76600 41.16500
H  7.14100 3.20800 40.76600
H  5.05200 1.45700 39.93600
H  6.54000 0.54900 39.55600
H  -0.95200 2.62600 39.75500
H  0.06600 3.62200 40.78800
H  -1.59100 3.34400 41.23800
H  -4.17700 -0.03000 43.02900
H  -2.84200 -0.82700 43.60000
H  -3.59600 -1.49100 42.05000
H  -0.74500 -4.59000 43.36300
H  1.12800 -4.81100 45.65600
H  -1.60800 -2.67500 45.09200
H  -0.89600 -3.88500 46.31400
H  -2.17000 -4.28000 45.20100
H  2.18400 -6.11600 43.42900
H  0.43400 -6.51600 43.47200
H  2.34700 -7.84200 45.06400
H  0.64200 -8.10700 45.05500
H  1.21500 -6.89800 46.15200
H  7.03400 -4.85500 45.37900
H  5.53900 -5.08300 46.34800
H  6.82500 -4.15400 47.01100
H  8.42600 -0.25100 42.94300
H  9.43400 1.94100 47.02200
H  7.80400 2.35400 47.50400
H  8.47100 3.05000 45.92500
Mg 35.71500 0.34200 29.71800
C  33.59200 1.03700 32.51600
C  38.24600 0.10800 32.09400
C  37.73000 -0.06000 27.24800
C  32.96500 0.78200 27.63800
N  35.85900 0.61400 32.14100
C  34.87100 0.83500 32.99000
C  35.43700 0.87600 34.48300
C  36.94300 0.77100 34.30600
C  37.03000 0.45100 32.76900
C  37.78400 2.04000 34.61300
C  34.75300 -0.15600 35.39900
C  34.48000 0.20900 36.84800
H  35.07600 1.43000 37.56500
N  37.74400 0.01200 29.67400
C  38.60700 -0.01100 30.70600
C  39.90000 -0.48100 30.22500
C  39.74900 -0.43200 28.78600
C  38.39400 -0.15500 28.50800
C  41.02600 -0.74400 31.21600
C  40.77300 -0.74600 27.65700
O  40.69000 -0.67500 26.44300
C  42.11900 -1.11000 28.18700
N  35.37100 0.24100 27.77600
C  36.41700 0.11300 26.89400
C  35.91400 -0.00800 25.46800
C  34.39100 0.13400 25.61800
C  34.20700 0.40700 27.11600
C  36.53800 0.94900 24.42200
C  33.68400 -1.01700 25.08700
C  33.37000 -2.11900 26.15900
N  33.67100 0.91300 29.92300
C  32.71100 1.06600 29.00500
C  31.43800 1.37400 29.70200
C  31.81200 1.47800 31.05100
C  33.10600 1.01400 31.15400
C  30.20300 1.79900 29.04800
C  31.25100 1.83300 32.31500
O  30.13300 2.15800 32.55400
C  32.38600 1.47500 33.36500
C  32.66500 2.72500 34.11600
O  33.40900 3.67400 33.81800
O  31.91900 2.63500 35.28600
C  31.90100 3.93700 36.04000
H  39.13000 0.16300 32.73200
H  38.32900 -0.21000 26.34600
H  32.12600 0.75200 26.93900
H  35.25600 1.83300 34.97300
H  37.26800 -0.11900 34.84500
H  38.60000 2.13400 33.89700
H  38.34100 1.77500 35.51100
H  37.13900 2.91900 34.62700
H  35.29000 -1.09900 35.29900
H  33.78000 -0.26700 34.92100
H  34.90800 -0.58600 37.46000
H  33.42000 0.32500 37.07500
H  41.93800 -1.16500 30.79200
H  40.58500 -1.43800 31.93100
H  41.20700 0.18300 31.76000
H  42.14000 -2.04600 28.74600
H  42.37300 -0.24900 28.80500
H  42.83600 -1.11900 27.36600
H  36.10800 -1.04600 25.19800
H  34.04400 1.08900 25.22500
H  35.97100 1.87900 24.42200
H  36.67100 0.57500 23.40600
H  37.55300 1.17400 24.75200
H  34.16100 -1.46800 24.21700
H  32.78900 -0.56300 24.66200
H  33.94700 -2.18600 27.08200
H  33.71200 -2.97000 25.57100
H  32.30400 -2.21800 26.36300
H  29.82200 2.79000 29.29500
H  29.52600 0.96300 29.22400
H  30.35800 1.68100 27.97600
H  31.92700 0.67300 33.94400
H  32.78600 4.00200 36.67200
H  30.96300 3.98400 36.59300
H  31.95800 4.74500 35.31100

