158

Mg 25.75000 0.43700 29.15800
C  27.64000 -0.17200 32.04800
C  23.04400 1.11600 31.19500
C  24.03800 0.83200 26.39900
C  28.41500 -0.90100 27.25000
N  25.46600 0.74900 31.39300
C  26.39500 0.48600 32.36200
C  25.77200 0.54500 33.80100
C  24.25800 0.66600 33.45900
C  24.22100 0.98000 31.91000
C  23.38100 -0.51200 33.92500
C  26.32500 1.59500 34.79700
C  26.87100 1.00300 36.11100
H  26.74000 1.91400 37.30500
N  23.80700 0.91900 28.82100
C  22.81800 1.10000 29.81600
C  21.52500 1.23200 29.07700
C  21.81000 1.30000 27.65500
C  23.27800 1.06100 27.53900
C  20.21200 1.27300 29.75900
C  20.88900 1.41000 26.39700
O  21.24400 1.18800 25.21900
C  19.46300 1.79700 26.58400
N  26.22400 0.08900 27.12800
C  25.36400 0.38400 26.16000
C  26.01900 0.52300 24.78800
C  27.34800 -0.33600 24.93300
C  27.41700 -0.31200 26.55100
C  25.10500 0.03000 23.66500
C  28.54900 0.31500 24.27500
C  29.40300 1.47200 24.95200
N  27.64900 -0.19300 29.49500
C  28.61900 -0.78400 28.64900
C  29.69500 -1.29100 29.40100
C  29.33700 -1.01200 30.69700
C  28.09800 -0.43800 30.73700
C  30.95000 -1.99700 28.78500
C  29.86700 -1.12600 32.02700
O  30.97300 -1.63600 32.37000
C  28.75000 -0.62600 32.98700
C  28.43000 -1.65100 33.98600
O  27.54100 -2.41700 33.87700
O  29.26200 -1.61400 35.05100
C  29.01900 -2.45700 36.17500
H  22.12100 1.30300 31.74800
H  23.61500 0.99400 25.40500
H  29.27200 -1.22600 26.65600
H  25.95200 -0.44400 34.22300
H  23.81200 1.54800 33.91900
H  23.32600 -1.26200 33.13700
H  22.40700 -0.11500 34.21000
H  23.73400 -1.11900 34.75900
H  25.70900 2.45600 35.05500
H  27.18000 1.98400 34.24500
H  27.86700 0.62100 35.88600
H  26.37400 0.08200 36.41800
H  19.51200 0.48400 29.48500
H  19.75800 2.18700 29.37600
H  20.23400 1.17000 30.84400
H  18.86200 2.04500 25.70900
H  19.23800 2.63200 27.24700
H  18.95300 0.91300 26.96800
H  26.36700 1.54600 24.63800
H  27.17800 -1.37900 24.66700
H  24.33900 -0.61300 24.09800
H  25.66300 -0.39600 22.83100
H  24.40300 0.76400 23.27100
H  28.25400 0.62900 23.27300
H  29.23400 -0.52200 24.13200
H  28.94600 1.90700 25.84100
H  29.44500 2.27100 24.21200
H  30.43900 1.16000 25.09000
H  31.56700 -1.26400 28.26700
H  30.52000 -2.61200 27.99400
H  31.52000 -2.57400 29.51300
H  29.20600 0.19900 33.53400
H  28.88500 -3.44900 35.74500
H  28.09100 -2.15600 36.66200
H  29.85600 -2.51300 36.87100
Mg 15.91800 52.06100 25.02800
C  17.86400 51.20300 27.78300
C  13.36400 52.95200 27.13500
C  14.10000 52.76100 22.26200
C  18.52400 50.90300 22.89700
N  15.57500 51.86800 27.25100
C  16.59900 51.67500 28.18000
C  16.01700 51.98800 29.57400
C  14.51900 52.26000 29.37100
C  14.47400 52.36900 27.82500
C  13.51500 51.14600 29.92000
C  16.71200 53.17300 30.26300
C  16.56900 53.30100 31.83600
H  15.76300 52.18700 32.49300
N  14.00800 52.89200 24.75100
C  13.14100 53.18400 25.73100
C  11.95100 53.72900 25.09200
C  12.03800 53.56000 23.70000
C  13.41300 53.00300 23.52700
C  10.92200 54.43100 25.85600
C  11.08600 53.79900 22.58100
O  11.38500 53.71100 21.37500
C  9.72000 54.19000 22.87700
N  16.27400 51.89300 22.90100
C  15.33700 52.17300 21.98800
C  15.86700 52.02900 20.60400
C  17.30400 51.58600 20.78500
C  17.43600 51.49600 22.28800
C  15.01200 51.01800 19.84800
C  18.43900 52.52700 20.21100
C  19.72800 51.86900 19.62100
N  17.77700 51.14800 25.23300
C  18.76200 50.78800 24.28500
C  19.86300 50.25500 25.03500
C  19.53500 50.35400 26.41700
C  18.25500 50.92600 26.43200
C  21.02900 49.57900 24.46700
C  20.05000 50.11600 27.72200
O  21.14800 49.63800 28.08700
C  18.96900 50.61500 28.72900
C  18.38700 49.46500 29.44400
O  17.85800 48.46800 28.96900
O  18.76700 49.57200 30.76700
C  18.43600 48.36500 31.61600
H  12.53900 53.25000 27.78600
H  13.53500 52.85600 21.33200
H  19.25100 50.50500 22.18700
H  16.25200 51.05000 30.07900
H  14.28200 53.25700 29.74200
H  14.00800 50.21800 30.21100
H  12.88400 50.82500 29.09100
H  12.87000 51.53900 30.70500
H  16.12400 54.05500 30.01200
H  17.71800 53.41100 29.91700
H  16.21200 54.31300 32.02900
H  17.60800 53.15800 32.13300
H  10.89700 55.45700 25.48800
H  11.11900 54.47700 26.92700
H  9.90700 54.03400 25.84900
H  9.01900 54.07200 22.05100
H  9.75600 55.26700 23.04400
H  9.34400 53.53000 23.65900
H  15.88200 52.99700 20.10400
H  17.43000 50.61000 20.31700
H  15.45600 50.04500 19.63700
H  14.65400 51.36900 18.87900
H  14.04800 50.76100 20.28600
H  18.78400 53.15200 21.03600
H  18.14800 53.23100 19.43100
H  19.47600 50.92900 19.13100
H  20.30500 51.70500 20.53100
H  20.40900 52.55600 19.11800
H  21.58900 49.19700 25.32000
H  21.61400 50.33400 23.94200
H  20.68500 48.80500 23.78100
H  19.38300 51.32400 29.44700
H  18.80500 47.40700 31.25000
H  17.35300 48.32300 31.73800
H  18.84100 48.43800 32.62600

