158

Mg 16.39300 52.88300 26.51200
C  18.42400 51.34000 29.15300
C  14.12200 53.68300 28.98800
C  14.56400 54.02000 24.18000
C  18.69700 51.53900 24.23600
N  16.24300 52.45700 28.83200
C  17.25800 51.96700 29.61400
C  16.89500 52.31100 31.03100
C  15.36300 52.59200 30.90800
C  15.26200 52.98700 29.50200
C  14.44400 51.32400 31.25500
C  17.79900 53.44300 31.48400
C  17.87600 53.77300 33.01700
H  16.96100 53.01400 34.02800
N  14.63300 53.85300 26.59700
C  13.84700 54.11200 27.67800
C  12.66700 54.83500 27.26300
C  12.74900 54.92800 25.85600
C  13.99900 54.28600 25.43900
C  11.49200 55.19800 28.16800
C  11.68000 55.42000 24.81900
O  11.94000 55.46200 23.60900
C  10.25500 55.92000 25.30000
N  16.54700 52.68900 24.51000
C  15.63900 53.30300 23.76300
C  15.80100 53.01600 22.28900
C  17.28800 52.37700 22.29900
C  17.62300 52.25500 23.75000
C  14.72000 52.20700 21.69700
C  18.40200 53.16700 21.52900
C  19.29600 52.24200 20.73700
N  18.22000 51.71700 26.60400
C  19.04200 51.23100 25.59100
C  20.21300 50.62100 26.09700
C  20.00700 50.64400 27.48800
C  18.78400 51.30400 27.75300
C  21.36600 49.96300 25.36600
C  20.67500 50.26000 28.70900
O  21.78800 49.78000 28.85900
C  19.71800 50.80300 29.91000
C  19.35400 49.68100 30.84000
O  19.07700 48.53300 30.53400
O  19.49600 50.03000 32.16400
C  19.55300 48.92500 33.17600
H  13.32100 53.79300 29.72200
H  13.95200 54.42600 23.37100
H  19.51300 51.28300 23.55600
H  17.16900 51.51500 31.72400
H  15.02800 53.35700 31.60800
H  14.29900 51.22700 32.33100
H  15.03400 50.53500 30.78800
H  13.50800 51.42500 30.70500
H  17.53300 54.37200 30.97700
H  18.81800 53.35500 31.10900
H  17.49400 54.79400 33.01700
H  18.87900 53.84000 33.43800
H  10.76000 54.39200 28.22100
H  10.90600 56.05700 27.84100
H  11.98800 55.45100 29.10500
H  10.35300 56.88000 25.80700
H  9.95300 55.13000 25.98700
H  9.63800 56.12200 24.42400
H  15.85300 54.01100 21.84800
H  17.25200 51.34600 21.94700
H  15.23400 51.54300 21.00300
H  13.91500 52.74900 21.20000
H  14.21700 51.61600 22.46300
H  19.03700 53.80500 22.14500
H  17.91400 53.87700 20.86100
H  19.27000 51.20700 21.07700
H  20.34300 52.43700 20.96700
H  19.14500 52.37700 19.66600
H  22.30300 49.96300 25.92400
H  21.60200 50.49700 24.44600
H  21.18400 48.88800 25.33600
H  20.17600 51.59600 30.50000
H  19.54200 49.45300 34.13000
H  20.42600 48.28100 33.07500
H  18.62300 48.36800 33.06200
Mg -9.65500 40.55100 39.50600
C  -8.61700 37.38600 38.68300
C  -6.55300 41.71700 38.73100
C  -10.91900 43.65700 39.57200
C  -12.89400 39.23300 39.96300
N  -7.81200 39.57700 38.78400
C  -7.58300 38.24800 38.55600
C  -6.04500 38.00800 38.12900
C  -5.41900 39.41100 38.40400
C  -6.66300 40.29200 38.63800
C  -4.49800 39.48700 39.69900
C  -5.89300 37.45200 36.65400
C  -6.69700 38.26400 35.54400
H  -7.58500 37.42100 34.64000
N  -8.91200 42.45200 39.05500
C  -7.58500 42.72900 38.80800
C  -7.39300 44.13600 38.58000
C  -8.59300 44.78200 39.08800
C  -9.52600 43.66400 39.30600
C  -6.13400 44.77600 38.17900
C  -8.79300 46.23900 39.21400
O  -8.03400 47.03700 38.66000
C  -9.92100 46.75300 39.97000
N  -11.69800 41.30500 39.48000
C  -11.86000 42.60000 39.65100
C  -13.36700 42.92900 39.84800
C  -14.01300 41.53500 40.05800
C  -12.78700 40.58600 39.94800
C  -13.64400 43.81600 41.06200
C  -15.21400 41.11700 39.20000
C  -16.49500 40.71500 39.97300
N  -10.56600 38.69000 39.45600
C  -11.88900 38.35400 39.61300
C  -12.09300 36.93500 39.48300
C  -10.77900 36.45300 39.07700
C  -9.90000 37.61400 39.08100
C  -13.35900 36.14900 39.68100
C  -10.02600 35.27800 38.72900
O  -10.39600 34.10400 38.72300
C  -8.52100 35.85600 38.50000
C  -7.53800 35.05500 39.33700
O  -7.72100 34.90400 40.54300
O  -6.48300 34.48700 38.65800
C  -5.37500 34.03700 39.49000
H  -5.52500 42.08300 38.69200
H  -11.23600 44.67400 39.81000
H  -13.87200 38.75000 40.01100
H  -5.73100 37.23300 38.82700
H  -4.81500 39.72500 37.55200
H  -4.98600 40.13200 40.42900
H  -3.45600 39.71500 39.47300
H  -4.50700 38.45400 40.04700
H  -6.09400 36.38600 36.54900
H  -4.83900 37.55800 36.39900
H  -5.94800 38.59500 34.82500
H  -7.31300 39.06800 35.94600
H  -6.38400 45.56300 37.46700
H  -5.36200 44.04500 37.93800
H  -5.77400 45.31700 39.05400
H  -9.99000 46.16400 40.88500
H  -10.84400 46.59600 39.41200
H  -9.80400 47.82000 40.15700
H  -13.73900 43.34800 38.91300
H  -14.28900 41.38600 41.10200
H  -14.31100 43.42100 41.82800
H  -14.01000 44.80200 40.77500
H  -12.66600 43.89200 41.53600
H  -14.85400 40.28300 38.59800
H  -15.38000 41.92300 38.48500
H  -17.19600 41.50200 39.69400
H  -16.27700 40.62900 41.03700
H  -16.83100 39.79800 39.48700
H  -14.22700 36.29400 39.03900
H  -13.76300 36.53500 40.61700
H  -13.04600 35.10500 39.69900
H  -8.30500 35.57100 37.47000
H  -4.46800 34.22500 38.91600
H  -5.46300 32.97400 39.71500
H  -5.41400 34.54100 40.45500

