158

Mg 7.73000 2.70800 28.76600
C  9.23400 1.33000 31.77100
C  5.63900 4.42900 30.89000
C  6.01900 3.61700 26.08300
C  9.36100 0.09800 26.97200
N  7.62700 2.95400 31.13300
C  8.27700 2.29900 32.11200
C  7.85400 2.82000 33.56100
C  6.70300 3.80000 33.22500
C  6.57400 3.69900 31.67700
C  5.35800 3.42600 33.94800
C  8.98800 3.56100 34.37200
C  8.63000 4.08600 35.77200
H  8.88800 3.27100 37.07700
N  6.17900 3.87400 28.48900
C  5.43300 4.47400 29.49000
C  4.40700 5.34800 28.87900
C  4.52900 5.17900 27.44700
C  5.57200 4.19200 27.32000
C  3.49900 6.21500 29.65600
C  3.87100 5.86800 26.29300
O  4.12100 5.65700 25.10000
C  2.65600 6.71400 26.51700
N  7.71400 1.97200 26.78700
C  7.07800 2.67800 25.82300
C  7.43100 2.13700 24.44000
C  8.63100 1.08100 24.70500
C  8.59000 1.04400 26.27200
C  6.16800 1.61700 23.80500
C  10.02500 1.50000 24.12600
C  11.10800 2.16600 25.03900
N  9.14300 1.08700 29.15400
C  9.64100 0.09600 28.36100
C  10.58900 -0.64300 29.14800
C  10.46500 -0.26200 30.44800
C  9.56000 0.84900 30.47500
C  11.37800 -1.85300 28.60900
C  10.91500 -0.51900 31.80700
O  11.67400 -1.35700 32.25700
C  10.15100 0.50100 32.69500
C  9.38000 -0.28800 33.64400
O  8.47900 -1.02400 33.39200
O  9.86000 -0.16600 34.97100
C  9.27200 -0.98400 36.02100
H  5.02400 5.12000 31.47100
H  5.52200 3.86000 25.14200
H  9.81800 -0.71700 26.40800
H  7.42600 2.03600 34.18600
H  6.93200 4.84000 33.46000
H  4.59000 2.94600 33.34100
H  4.89200 4.32400 34.35300
H  5.43400 2.60700 34.66300
H  9.46900 4.36800 33.81900
H  9.84000 2.90700 34.55400
H  7.54700 3.99300 35.85300
H  8.91400 5.12500 35.93900
H  3.74200 6.37300 30.70700
H  2.58800 5.65500 29.86400
H  3.42200 7.17600 29.14600
H  2.22600 6.93100 25.53900
H  2.95000 7.69600 26.89000
H  1.99200 6.21200 27.22100
H  7.87700 2.95700 23.87700
H  8.34700 0.08400 24.36700
H  5.34100 1.54800 24.51200
H  6.30600 0.63400 23.35600
H  5.88400 2.34800 23.04800
H  9.91300 2.30500 23.39900
H  10.58600 0.67400 23.68900
H  10.72600 2.29300 26.05200
H  11.30900 3.19200 24.73100
H  11.98500 1.51900 25.01800
H  12.18000 -1.97400 29.33600
H  11.73100 -1.76200 27.58200
H  10.71300 -2.70700 28.74400
H  10.88300 1.15400 33.17100
H  9.33700 -0.41900 36.95100
H  9.59600 -2.02200 36.09700
H  8.18800 -0.99700 35.90900
Mg 16.76500 -2.34100 28.97800
C  15.60300 -0.20600 31.53200
C  19.06100 -3.67600 31.10800
C  17.98800 -4.10900 26.41300
C  14.61700 -0.63900 26.77300
N  17.13600 -2.01400 31.12200
C  16.57100 -1.08800 31.98700
C  17.13700 -1.32500 33.36600
C  18.40100 -2.12400 33.15300
C  18.16100 -2.69800 31.69800
C  19.78000 -1.40500 33.31200
C  15.99300 -2.05200 34.17400
C  15.63000 -1.45500 35.48900
H  16.69900 -0.52600 36.17800
N  18.19700 -3.83700 28.83200
C  19.03700 -4.27000 29.82700
C  19.80100 -5.40600 29.37400
C  19.54000 -5.52900 27.91000
C  18.52300 -4.45500 27.62200
C  20.66900 -6.23100 30.22600
C  20.02300 -6.56000 26.83000
O  19.79000 -6.59700 25.59400
C  20.93400 -7.70800 27.29200
N  16.41600 -2.32200 26.85700
C  16.97100 -3.22200 26.02900
C  16.44100 -3.00200 24.62000
C  15.32700 -1.97700 24.75400
C  15.44100 -1.60800 26.24200
C  17.55000 -2.65400 23.53600
C  13.87000 -2.53500 24.48200
C  13.33700 -2.04200 23.11600
N  15.48800 -0.76100 29.10200
C  14.61500 -0.17200 28.15000
C  13.76700 0.87200 28.72400
C  14.07000 0.80400 30.07700
C  15.10300 -0.18200 30.23600
C  12.86600 1.78000 27.93200
C  13.83500 1.48600 31.38200
O  13.01400 2.36300 31.64400
C  14.81700 0.77400 32.39100
C  15.58500 1.88500 32.99000
O  16.67300 2.28400 32.60500
O  14.93800 2.34500 34.07500
C  15.58900 3.44600 34.88900
H  19.78000 -4.09700 31.81400
H  18.38000 -4.61700 25.52800
H  13.80800 -0.19700 26.18700
H  17.33800 -0.30900 33.70700
H  18.52700 -2.99600 33.79400
H  20.46900 -1.91900 33.98200
H  19.52100 -0.41400 33.68500
H  20.31100 -1.16700 32.39000
H  16.38600 -3.05500 34.34100
H  15.05600 -2.11200 33.62000
H  15.56500 -2.14400 36.33100
H  14.80400 -0.75000 35.39600
H  21.72800 -6.01800 30.07800
H  20.38600 -7.26300 30.01700
H  20.37900 -6.06100 31.26300
H  21.89100 -7.31400 27.63300
H  21.06900 -8.33400 26.41100
H  20.45400 -8.35700 28.02500
H  16.14600 -3.93100 24.13200
H  15.57400 -1.03800 24.25800
H  17.72100 -1.57800 23.54400
H  17.40900 -2.78000 22.46300
H  18.49700 -3.06400 23.88700
H  13.17300 -2.32600 25.29300
H  13.87400 -3.62000 24.38200
H  12.29000 -1.75100 23.20200
H  13.42900 -2.85900 22.40000
H  13.85000 -1.16200 22.73000
H  12.84200 2.73100 28.46500
H  11.92800 1.22600 27.93400
H  13.24300 1.85000 26.91200
H  14.14700 0.30300 33.11000
H  15.92600 3.07900 35.85800
H  14.89500 4.28500 34.94000
H  16.43000 3.92600 34.38900

