158

Mg 35.60700 1.66600 30.12300
C  33.24200 2.79500 32.30500
C  37.82300 1.61100 32.72900
C  38.02900 0.98500 27.98100
C  33.41800 2.29300 27.50600
N  35.56600 2.19800 32.23600
C  34.47700 2.62000 32.92700
C  34.71200 2.76000 34.45000
C  36.26400 2.60000 34.54700
C  36.62400 2.15400 33.10300
C  36.96200 3.93400 34.96300
C  34.01900 1.65800 35.32800
C  33.43100 2.08300 36.66200
H  34.06600 3.30700 37.40800
N  37.63500 1.23000 30.30400
C  38.33100 1.17000 31.47700
C  39.63100 0.59700 31.20300
C  39.70700 0.40200 29.78100
C  38.45000 0.93500 29.21700
C  40.61600 0.31900 32.36300
C  40.92700 -0.13000 29.00900
O  40.90500 -0.23800 27.76400
C  42.07300 -0.74700 29.72800
N  35.66700 1.68400 27.99200
C  36.78200 1.31500 27.40500
C  36.53400 1.01000 25.91300
C  35.08000 1.56800 25.69400
C  34.65000 1.86300 27.13300
C  37.57600 1.61600 24.91300
C  34.15000 0.48700 25.05200
C  33.59800 -0.77000 25.81300
N  33.67900 2.37100 29.92000
C  32.91500 2.45500 28.80100
C  31.59700 2.81600 29.19200
C  31.65300 2.96200 30.51500
C  32.95400 2.65100 30.92900
C  30.38200 3.00900 28.24800
C  30.90000 3.36500 31.66900
O  29.76200 3.74600 31.72000
C  31.87600 3.15400 32.93600
C  31.90900 4.46200 33.69100
O  32.49100 5.46700 33.29400
O  31.34900 4.40100 34.96300
C  31.09500 5.73600 35.59100
H  38.54000 1.64800 33.55200
H  38.75300 0.64100 27.24000
H  32.70400 2.47700 26.70000
H  34.42100 3.77200 34.73200
H  36.62500 1.85500 35.25600
H  36.35600 4.83700 34.89600
H  37.79600 4.13900 34.29200
H  37.37400 3.92200 35.97300
H  34.77100 0.90600 35.56700
H  33.29700 1.10100 34.73100
H  33.37400 1.26400 37.37800
H  32.47700 2.29900 36.18000
H  40.26400 0.67500 33.33200
H  41.55700 0.84200 32.19500
H  40.80400 -0.75400 32.39700
H  42.79100 -1.13700 29.00700
H  41.60900 -1.49400 30.37300
H  42.60100 0.03400 30.27400
H  36.42300 -0.06200 25.74900
H  35.06200 2.43000 25.02700
H  38.21800 2.38400 25.34400
H  37.17500 2.04300 23.99300
H  38.28800 0.84700 24.61400
H  34.53000 0.19200 24.07300
H  33.22100 1.03900 24.90700
H  34.02700 -0.75000 26.81500
H  33.94900 -1.66800 25.30400
H  32.51500 -0.89000 25.80700
H  30.28200 2.18700 27.53900
H  30.48000 3.91100 27.64400
H  29.44400 3.08100 28.79900
H  31.53300 2.34000 33.57500
H  32.04100 6.27500 35.53400
H  30.81800 5.64300 36.64100
H  30.31500 6.32600 35.11100
Mg 30.75700 59.28800 38.83100
C  27.83200 57.37600 38.10700
C  32.59600 56.52000 38.17600
C  33.37700 61.18900 38.79700
C  28.62600 62.03200 39.26200
N  30.21800 57.26800 37.91700
C  28.94700 56.66700 37.92200
C  29.09500 55.21200 37.43400
C  30.55000 54.86800 37.99900
C  31.20900 56.31700 38.04800
C  30.54700 54.41400 39.48400
C  28.77300 55.14400 35.85600
C  27.55500 54.34100 35.46500
H  26.71100 55.03300 34.33600
N  32.65200 58.98300 38.28100
C  33.23500 57.71900 38.10500
C  34.64400 57.84200 37.82200
C  34.94800 59.26500 38.03000
C  33.62900 59.90500 38.40000
C  35.57900 56.71500 37.53200
C  36.34400 59.90800 37.93600
O  37.23200 59.11700 37.63500
C  36.69800 61.37000 38.26600
N  31.00300 61.32900 38.98300
C  32.19300 61.87000 39.11300
C  32.11000 63.35200 39.43500
C  30.58700 63.60100 39.67700
C  30.02300 62.23600 39.27400
C  33.06200 63.73600 40.64100
C  29.98000 64.73600 38.80900
C  28.87600 65.62400 39.43000
N  28.66200 59.66400 38.83500
C  27.97200 60.80900 39.06200
C  26.58300 60.56300 38.87200
C  26.40400 59.25600 38.51500
C  27.73300 58.72300 38.52300
C  25.43000 61.48900 39.06200
C  25.42800 58.26200 38.09700
O  24.17200 58.28000 38.12100
C  26.37600 56.97300 37.81100
C  26.02000 55.82900 38.67100
O  26.29000 55.71500 39.84800
O  25.23400 54.90400 38.02200
C  24.37200 54.13900 38.90400
H  33.16600 55.58900 38.19700
H  34.20400 61.90000 38.83900
H  27.99900 62.89300 39.50300
H  28.41100 54.60700 38.02900
H  31.11700 54.24200 37.31000
H  29.61900 53.91800 39.76700
H  30.64400 55.30500 40.10400
H  31.39800 53.73800 39.56900
H  29.73200 54.79700 35.47200
H  28.61200 56.11400 35.38600
H  27.00800 54.18900 36.39500
H  27.97500 53.43200 35.03500
H  35.13000 55.80300 37.14000
H  36.19900 56.39100 38.36800
H  36.24500 57.01300 36.72200
H  37.75000 61.47600 37.99900
H  36.51400 61.74600 39.27200
H  36.07800 61.92400 37.56100
H  32.44200 63.94600 38.58400
H  30.32000 63.75500 40.72300
H  34.02600 64.04300 40.23500
H  33.25800 62.89700 41.30900
H  32.59400 64.50200 41.25800
H  29.58700 64.30100 37.89000
H  30.74800 65.44700 38.50500
H  29.16900 66.59100 39.84000
H  28.34400 65.09800 40.22200
H  28.27700 65.83100 38.54300
H  24.87900 61.72700 38.15200
H  25.64700 62.24200 39.81900
H  24.72500 60.83600 39.57500
H  26.27500 56.68900 36.76300
H  23.99900 53.29600 38.32300
H  23.44800 54.70700 39.01400
H  24.72800 53.73100 39.84900

