158

Mg 35.39900 2.89900 29.87000
C  33.19400 3.50300 32.52200
C  38.05800 3.03100 32.18400
C  37.37200 2.28900 27.44100
C  32.68800 3.25200 27.63300
N  35.56900 3.44100 31.98300
C  34.56300 3.47600 32.91100
C  35.04100 3.50200 34.38500
C  36.56100 3.83400 34.10600
C  36.82300 3.42300 32.66300
C  37.05200 5.24700 34.59800
C  34.79700 2.19000 35.18500
C  34.01400 2.34000 36.45400
H  34.41800 3.51100 37.38000
N  37.44300 2.58700 29.80800
C  38.35200 2.59600 30.86200
C  39.62000 2.17600 30.34800
C  39.52700 2.05400 28.93200
C  38.08500 2.26800 28.65400
C  40.83500 2.01600 31.24300
C  40.64000 1.81700 27.87100
O  40.37900 1.90500 26.67800
C  42.04700 1.55600 28.39900
N  35.06400 2.92800 27.87200
C  36.04700 2.53200 27.09800
C  35.71200 2.60900 25.59600
C  34.20800 2.89500 25.58900
C  33.95600 3.03200 27.17600
C  36.58800 3.67400 24.82300
C  33.28900 1.92300 24.76200
C  32.79100 0.64800 25.56200
N  33.36600 3.33200 30.03600
C  32.39700 3.40300 29.03900
C  31.13900 3.67400 29.60300
C  31.35600 3.69500 31.03100
C  32.74700 3.49100 31.24400
C  29.84300 3.87300 29.00200
C  30.77400 3.84700 32.38100
O  29.64400 4.07500 32.72600
C  31.95700 3.74300 33.38400
C  31.86300 5.04000 34.18700
O  32.42000 6.08100 33.92700
O  31.12000 4.85800 35.30000
C  31.10700 5.92500 36.35300
H  38.85900 3.04300 32.92500
H  37.96900 2.16400 26.53500
H  31.83300 3.19400 26.95600
H  34.58400 4.37900 34.84400
H  37.14100 3.23500 34.80800
H  36.27100 5.71600 35.19600
H  37.20700 5.83300 33.69200
H  38.00200 5.06400 35.10100
H  35.69800 1.65200 35.47800
H  34.24800 1.54300 34.50100
H  34.01900 1.47300 37.11500
H  32.94700 2.49100 36.28600
H  40.55400 1.95900 32.29500
H  41.61500 2.77200 31.15200
H  41.35800 1.06000 31.19700
H  42.03000 0.54900 28.81500
H  42.47400 2.21200 29.15800
H  42.72100 1.64500 27.54700
H  35.83400 1.59700 25.21200
H  34.16500 3.85400 25.07200
H  37.57000 3.26900 24.58100
H  36.65800 4.58400 25.41700
H  36.06300 3.88800 23.89100
H  33.85100 1.51400 23.92200
H  32.50600 2.49900 24.26800
H  33.27800 -0.22100 25.11900
H  31.70900 0.69700 25.43600
H  33.06200 0.51500 26.60900
H  29.65400 3.15600 28.20200
H  29.71900 4.91200 28.69800
H  29.02500 3.67600 29.69400
H  31.88300 2.99300 34.17300
H  31.96400 6.59200 36.44900
H  30.89000 5.40800 37.28800
H  30.38800 6.69100 36.06500
Mg 48.02300 36.12800 28.31500
C  46.03800 34.73400 30.84800
C  48.79500 38.69700 30.56100
C  49.79800 37.61100 25.95000
C  47.25000 33.36600 26.30600
N  47.54200 36.55900 30.54500
C  46.70600 35.82200 31.36700
C  46.73500 36.33300 32.84400
C  47.26200 37.79100 32.57500
C  47.95900 37.70400 31.19500
C  46.07000 38.78600 32.45100
C  47.67400 35.48900 33.83900
C  48.85600 36.06500 34.71400
H  48.50400 36.64200 36.04000
N  49.08000 37.92400 28.26400
C  49.28200 38.83500 29.29600
C  50.09000 39.90500 28.76900
C  50.39100 39.58800 27.47800
C  49.77300 38.32200 27.19500
C  50.67700 41.09200 29.67800
C  51.25600 40.43200 26.51200
O  51.73700 39.96200 25.51300
C  51.63300 41.80900 26.84700
N  48.39700 35.64300 26.36200
C  49.28500 36.34900 25.57900
C  49.43200 35.70400 24.18700
C  48.89000 34.28200 24.38800
C  48.20400 34.33800 25.79600
C  48.84100 36.61800 23.08300
C  49.93200 33.14600 24.38300
C  50.81700 32.95000 23.21800
N  46.74400 34.49600 28.39200
C  46.61200 33.39100 27.57300
C  45.72600 32.38500 28.13200
C  45.41500 32.89600 29.39200
C  46.10800 34.12600 29.52500
C  45.33600 31.07000 27.45300
C  44.72800 32.61100 30.66900
O  44.04100 31.65900 30.98300
C  45.02400 33.86800 31.56200
C  45.20300 33.49100 32.91600
O  46.00600 32.74600 33.35300
O  44.26200 34.07500 33.69500
C  44.05200 33.65900 35.12000
H  49.00200 39.48900 31.28400
H  50.45700 38.04000 25.19200
H  47.31200 32.42800 25.75100
H  45.71000 36.37600 33.21400
H  47.97700 38.07800 33.34700
H  45.91600 39.34600 33.37300
H  45.15200 38.23900 32.23500
H  46.39600 39.55200 31.74700
H  47.95400 34.61400 33.25300
H  46.91400 35.21500 34.57200
H  49.35500 36.86700 34.17100
H  49.59700 35.26800 34.76900
H  51.75900 41.22400 29.64700
H  50.52000 40.93300 30.74500
H  50.21400 42.03100 29.37500
H  50.72500 42.26700 27.23900
H  51.95500 42.35000 25.95700
H  52.45200 41.76000 27.56400
H  50.51000 35.58300 24.07600
H  48.10400 34.01000 23.68300
H  48.07000 36.04700 22.56600
H  49.66700 36.87200 22.41800
H  48.43800 37.50700 23.56800
H  49.43000 32.19300 24.55400
H  50.48500 33.34600 25.30100
H  51.84700 32.95500 23.57300
H  50.87400 33.79600 22.53300
H  50.72300 31.97500 22.73900
H  44.34300 31.07600 27.00300
H  45.64100 30.23600 28.08600
H  46.06700 30.98900 26.64900
H  44.08700 34.40700 31.41900
H  43.47800 32.73400 35.18100
H  43.42700 34.39600 35.62400
H  44.97500 33.57100 35.69300

