158

Mg 47.38000 44.79900 43.67100
C  43.84700 45.13500 43.17700
C  47.30700 41.69300 42.28700
C  50.82500 44.62300 43.83100
C  47.53800 48.22700 44.54300
N  45.76200 43.59700 42.71200
C  44.36900 43.89500 42.72900
C  43.60800 42.84600 41.93200
C  44.74200 41.70500 41.80400
C  46.03700 42.36000 42.31900
C  44.32300 40.41300 42.59000
C  43.21200 43.54800 40.58600
C  42.04500 43.04900 39.70100
H  42.33600 41.99100 38.62400
N  48.86500 43.30500 43.28500
C  48.60000 42.13200 42.71800
C  49.79400 41.34400 42.60500
C  50.84900 42.13600 43.20600
C  50.18700 43.44600 43.48200
C  49.81100 39.88000 42.03800
C  52.25700 41.66600 43.48700
O  52.56400 40.51700 43.18400
C  53.20500 42.50000 44.23600
N  48.98500 46.20900 44.06900
C  50.30100 45.91600 44.09700
C  51.17100 47.14400 44.42100
C  50.11700 48.25200 44.76100
C  48.76200 47.54400 44.44500
C  52.20700 46.92400 45.50800
C  50.27900 49.53000 43.96700
C  50.47700 50.87400 44.70400
N  45.99800 46.43300 43.91200
C  46.19700 47.74300 44.22300
C  44.89100 48.40100 44.32000
C  43.98500 47.45000 43.92100
C  44.66200 46.24000 43.65100
C  44.63300 49.90000 44.49100
C  42.55100 47.16300 43.68900
O  41.62900 47.98400 43.83100
C  42.43000 45.69600 43.18900
C  41.44500 44.94400 44.09200
O  40.31200 44.62200 43.75500
O  42.05700 44.68400 45.27800
C  41.20100 44.01500 46.25300
H  47.19700 40.77800 41.70100
H  51.91100 44.50400 43.82400
H  47.50100 49.20600 45.02500
H  42.72000 42.49500 42.45700
H  44.85000 41.31300 40.79200
H  43.80000 39.79500 41.85900
H  43.58300 40.66400 43.35000
H  45.18700 39.87100 42.97300
H  44.02900 43.40000 39.88000
H  43.19700 44.62800 40.73100
H  41.69800 43.99300 39.28100
H  41.30100 42.65600 40.39400
H  50.72900 39.48400 41.60300
H  48.99000 39.64100 41.36200
H  49.69100 39.20700 42.88700
H  53.67800 43.30500 43.67500
H  53.99500 41.80200 44.51200
H  52.77700 42.82000 45.18600
H  51.66100 47.47600 43.50500
H  50.01500 48.42800 45.83200
H  51.80400 46.16400 46.17700
H  52.32700 47.85300 46.06600
H  53.20400 46.66300 45.15400
H  49.30900 49.66500 43.49000
H  50.98700 49.46100 43.14100
H  49.72400 51.58200 44.35800
H  51.47800 51.27100 44.53400
H  50.40400 50.68100 45.77400
H  44.15300 50.27800 43.58800
H  45.56600 50.45800 44.57500
H  44.10300 50.11900 45.41700
H  41.87200 45.71300 42.25300
H  41.40600 44.48800 47.21400
H  41.54700 42.99500 46.42100
H  40.12600 43.97700 46.07500
Mg 26.32700 50.65700 26.71600
C  24.13600 51.45500 29.48500
C  28.66900 49.79700 28.95900
C  28.44000 50.42700 24.20800
C  23.87000 51.98700 24.60300
N  26.33500 50.77300 28.97500
C  25.37800 51.03900 29.92500
C  25.82600 50.71900 31.33400
C  27.29600 50.31500 31.10200
C  27.44800 50.28400 29.57800
C  28.34600 51.23800 31.74000
C  24.97700 49.67500 32.13300
C  24.64600 50.12100 33.62700
H  25.63700 50.60200 34.57500
N  28.23400 50.05900 26.55600
C  29.03300 49.69900 27.60600
C  30.29000 49.17900 27.10800
C  30.26600 49.52000 25.72200
C  28.91000 50.00000 25.40200
C  31.40400 48.62000 27.93400
C  31.34100 49.47300 24.70700
O  31.16000 49.76200 23.52500
C  32.60300 49.04100 25.12400
N  26.29200 51.49600 24.80500
C  27.24500 51.17200 23.90900
C  26.79800 51.22200 22.40600
C  25.38100 51.73400 22.52500
C  25.12700 51.81600 24.03600
C  27.72400 52.08600 21.48300
C  24.44200 50.80500 21.65300
C  23.54100 49.75600 22.30800
N  24.40800 51.58800 26.95700
C  23.47400 52.00500 25.98400
C  22.16400 52.26500 26.58600
C  22.42700 52.19000 27.95200
C  23.76700 51.61500 28.11100
C  20.95100 52.78400 25.85200
C  21.85100 52.43700 29.21400
O  20.81200 52.99300 29.50300
C  22.88000 51.83300 30.31900
C  23.19700 52.93900 31.24300
O  24.21400 53.61200 31.22100
O  22.32500 52.89300 32.24500
C  22.48500 53.77100 33.36400
H  29.32600 49.20900 29.60300
H  28.95500 50.20600 23.27100
H  23.10300 52.26100 23.87500
H  25.81200 51.66100 31.88200
H  27.37500 49.31100 31.51800
H  27.88900 52.22700 31.75300
H  29.24100 51.18200 31.12000
H  28.63000 50.98200 32.76100
H  25.43200 48.69000 32.03800
H  24.00800 49.58700 31.64200
H  24.05000 49.25500 33.91500
H  23.88600 50.89100 33.50100
H  31.07200 48.29000 28.91800
H  32.25700 49.29200 28.01900
H  31.67300 47.66600 27.48200
H  33.18200 48.89500 24.21100
H  32.53400 48.07200 25.61900
H  32.98100 49.68200 25.92000
H  26.81600 50.19100 22.05200
H  25.22000 52.73200 22.11600
H  28.23800 51.49800 20.72200
H  28.39600 52.53900 22.21100
H  27.18500 52.91900 21.03200
H  25.10900 50.29900 20.95500
H  23.73400 51.51600 21.22600
H  23.93600 49.45200 23.27800
H  23.67000 48.91400 21.62800
H  22.51600 50.10500 22.18200
H  20.87500 53.86300 25.71700
H  20.12600 52.68500 26.55800
H  20.70100 52.29000 24.91300
H  22.22900 51.12200 30.82800
H  22.66600 54.81100 33.09000
H  23.34700 53.45400 33.95200
H  21.55900 53.58600 33.90800

