158

Mg 24.21400 -7.39000 46.42600
C  26.27600 -4.94100 45.23200
C  21.76300 -6.38300 43.96000
C  22.35900 -10.03900 47.16300
C  26.76400 -8.57600 48.40600
N  24.04700 -5.86500 44.71700
C  25.11200 -4.95700 44.43400
C  24.77700 -4.07800 43.27600
C  23.19700 -4.45200 43.03500
C  22.93600 -5.59800 43.97400
C  22.27300 -3.27900 43.28700
C  25.61700 -4.29400 41.97100
C  26.31900 -3.03100 41.31600
H  26.11100 -3.00400 39.78500
N  22.35600 -8.03500 45.77500
C  21.45500 -7.47300 44.84400
C  20.24100 -8.16600 44.87100
C  20.39700 -9.18300 45.88200
C  21.67200 -9.09800 46.36600
C  19.04400 -8.04200 44.03100
C  19.29800 -10.20400 46.21000
O  18.26500 -10.24100 45.50700
C  19.34700 -11.16000 47.32300
N  24.58900 -9.18100 47.47700
C  23.59700 -10.08200 47.78900
C  24.16000 -11.24800 48.58400
C  25.56600 -10.69000 49.10400
C  25.65600 -9.35300 48.32600
C  23.28500 -11.79300 49.74300
C  26.68400 -11.73600 48.78300
C  26.65600 -13.02600 49.65400
N  26.04600 -6.94000 46.84700
C  26.97000 -7.36800 47.75500
C  28.14800 -6.60400 47.79900
C  27.96500 -5.66200 46.71900
C  26.61300 -5.92800 46.27000
C  29.41400 -6.86700 48.58800
C  28.55800 -4.53900 46.02800
O  29.60100 -3.95700 46.06800
C  27.44500 -4.09500 45.02400
C  27.21300 -2.67300 45.32000
O  26.83900 -2.16200 46.40400
O  27.77300 -1.97600 44.24500
C  27.69000 -0.47600 44.39500
H  20.92100 -6.21200 43.28600
H  21.75700 -10.87200 47.53200
H  27.41700 -8.89600 49.22100
H  24.91600 -3.01900 43.49200
H  23.01500 -4.77000 42.00800
H  21.69900 -3.58800 44.16100
H  21.61700 -3.12200 42.43100
H  22.77700 -2.33200 43.48000
H  24.90400 -4.71700 41.26300
H  26.41700 -4.99800 42.19800
H  27.40100 -3.05500 41.44100
H  26.01300 -2.08100 41.75500
H  18.14700 -7.91900 44.63800
H  18.96200 -8.89500 43.35700
H  19.14500 -7.14800 43.41600
H  19.42300 -10.71800 48.31700
H  20.12200 -11.89800 47.11600
H  18.39300 -11.68400 47.37800
H  24.25100 -12.00300 47.80300
H  25.64800 -10.54300 50.18100
H  23.18100 -12.87200 49.62900
H  22.26300 -11.41400 49.76000
H  23.72000 -11.49600 50.69700
H  27.72000 -11.48300 49.00700
H  26.57700 -11.93700 47.71700
H  27.61100 -13.54400 49.73700
H  25.96500 -13.69900 49.14700
H  26.23400 -12.75300 50.62100
H  29.96700 -7.62700 48.03600
H  29.11600 -7.20700 49.58000
H  29.99100 -5.94200 48.57200
H  27.76600 -4.20700 43.98800
H  26.61900 -0.28800 44.33000
H  28.21300 -0.04600 43.54000
H  28.17700 -0.14100 45.31100
Mg 26.80400 -0.96900 29.53700
C  28.73300 -1.06900 32.56900
C  24.07800 -0.41700 31.38300
C  25.06400 -0.87800 26.70600
C  29.73700 -1.65400 27.85200
N  26.49900 -0.82800 31.74000
C  27.41100 -0.74600 32.79700
C  26.71100 -0.33400 34.15900
C  25.20100 -0.22500 33.70800
C  25.24900 -0.53100 32.20300
C  24.29100 -1.24400 34.38500
C  27.32300 0.94400 34.86100
C  27.88300 0.59200 36.23200
H  27.48200 1.57800 37.48000
N  24.80200 -0.67500 29.10900
C  23.86000 -0.48100 30.00800
C  22.53200 -0.31000 29.37300
C  22.79200 -0.55800 27.96800
C  24.24000 -0.81000 27.87700
C  21.22300 0.01000 30.13500
C  21.81700 -0.53800 26.79700
O  22.24600 -0.75500 25.69200
C  20.37000 -0.30200 27.07200
N  27.29400 -1.35900 27.60000
C  26.44800 -0.97200 26.55600
C  27.21600 -1.07000 25.16900
C  28.64800 -1.29400 25.56500
C  28.60900 -1.41100 27.13800
C  26.57000 -2.09500 24.13400
C  29.61200 -0.19900 25.02500
C  29.53600 1.13700 25.68200
N  28.80600 -1.58500 30.01500
C  29.84800 -1.81300 29.25000
C  31.08200 -2.01700 30.03300
C  30.68100 -1.69600 31.30000
C  29.28100 -1.45200 31.30800
C  32.45600 -2.34700 29.57300
C  31.13100 -1.57700 32.71600
O  32.25300 -1.73400 33.21000
C  29.85500 -1.06500 33.57900
C  29.51600 -1.90500 34.73500
O  28.89900 -2.95000 34.64000
O  30.06100 -1.46500 35.91800
C  29.80500 -2.22300 37.16800
H  23.19700 -0.20700 31.99400
H  24.55800 -0.83100 25.74000
H  30.56600 -1.93700 27.19900
H  26.99400 -1.25200 34.67500
H  24.70300 0.73600 33.84000
H  24.22900 -2.10100 33.71400
H  23.28900 -0.81600 34.40900
H  24.54200 -1.57800 35.39200
H  26.62500 1.77700 34.94500
H  28.12000 1.30600 34.21100
H  28.96200 0.72300 36.15000
H  27.63800 -0.37000 36.68400
H  21.45600 0.56200 31.04600
H  20.61700 -0.84000 30.45100
H  20.48400 0.56900 29.56100
H  19.80400 -0.49400 26.16100
H  20.22000 0.76600 27.23100
H  19.96000 -0.88800 27.89500
H  27.05100 -0.08500 24.73300
H  28.87600 -2.26300 25.12100
H  25.99900 -1.49900 23.42300
H  25.98000 -2.89400 24.58300
H  27.36800 -2.62200 23.61200
H  29.35900 -0.02200 23.97900
H  30.64200 -0.55500 25.04600
H  29.17400 1.11000 26.71000
H  28.83200 1.74500 25.11500
H  30.53800 1.56500 25.70200
H  32.57500 -2.57300 28.51300
H  32.75200 -3.21000 30.16900
H  33.15300 -1.52600 29.73900
H  30.12300 -0.07000 33.93400
H  30.64100 -2.01900 37.83700
H  29.81900 -3.30400 37.02700
H  28.84600 -1.99400 37.63200

