158

Mg 1.15900 8.32700 25.08300
C  1.93500 10.35500 27.96400
C  1.32100 5.65100 27.17200
C  0.84700 6.41800 22.45300
C  1.50900 11.16700 23.10300
N  1.61300 8.11200 27.39900
C  1.75300 9.01300 28.32200
C  1.64900 8.36000 29.73700
C  1.67300 6.83300 29.40500
C  1.55700 6.80300 27.85300
C  2.91600 6.02600 29.96200
C  0.46500 8.79800 30.65200
C  0.77200 9.23000 32.03200
H  1.74600 8.48400 32.94400
N  1.07000 6.29100 24.79500
C  1.09400 5.36200 25.79300
C  0.92500 3.95400 25.28500
C  0.77500 4.19600 23.83900
C  0.91400 5.67300 23.61400
C  0.90400 2.70800 26.12800
C  0.54300 3.23300 22.80600
O  0.46300 3.58200 21.62400
C  0.37100 1.79400 23.14200
N  1.50400 8.65000 22.91500
C  1.04300 7.72000 22.10000
C  0.84400 8.22700 20.69200
C  1.13100 9.76600 20.86000
C  1.33600 9.89900 22.38300
C  1.75400 7.56800 19.51000
C  0.02800 10.67000 20.27500
C  -1.19000 11.12500 21.17500
N  1.53100 10.34500 25.34600
C  1.69900 11.36100 24.41100
C  2.04800 12.60600 25.14800
C  2.04300 12.24300 26.50100
C  1.80600 10.86300 26.54500
C  2.20800 14.03300 24.47700
C  2.20700 12.74900 27.83100
O  2.37000 13.93200 28.16900
C  2.10200 11.61100 28.89900
C  3.28100 11.66300 29.82400
O  4.37400 11.30900 29.35100
O  2.98000 11.97400 31.14900
C  4.06800 12.03000 32.09000
H  1.32100 4.75700 27.79800
H  0.62100 5.90300 21.51600
H  1.50700 11.99300 22.38900
H  2.60200 8.55800 30.22700
H  0.80100 6.30000 29.78300
H  2.56900 5.41000 30.79100
H  3.72400 6.61500 30.39500
H  3.29100 5.29400 29.24600
H  -0.25600 7.98100 30.67000
H  0.05100 9.67300 30.15100
H  -0.18300 9.29800 32.55300
H  1.03100 10.28500 31.94100
H  0.53400 1.77300 25.70800
H  0.27900 2.97300 26.98000
H  1.90200 2.54800 26.53500
H  1.20600 1.38300 23.70900
H  0.21300 1.04700 22.36500
H  -0.58500 1.71600 23.66000
H  -0.18000 8.05000 20.36100
H  2.08100 10.14700 20.48600
H  2.48600 6.87500 19.92600
H  2.27700 8.32100 18.92000
H  1.13500 7.06000 18.77100
H  -0.42000 10.13300 19.43900
H  0.43700 11.63300 19.96900
H  -1.04900 12.14500 21.53000
H  -1.17700 10.34400 21.93500
H  -2.16600 11.05700 20.69500
H  1.27700 14.59800 24.52300
H  2.32600 13.96100 23.39600
H  2.92200 14.71900 24.93300
H  1.18600 11.67000 29.48800
H  4.36300 13.06100 32.28500
H  4.84600 11.31700 31.81400
H  3.57600 11.71000 33.00800
Mg 8.90400 47.55600 27.67700
C  7.51500 47.07500 30.87900
C  11.95500 48.14800 29.26200
C  10.22900 48.71600 24.78800
C  5.77000 47.54000 26.29800
N  9.67800 47.63100 29.86700
C  8.89400 47.36600 31.00600
C  9.75400 47.51900 32.23800
C  11.18500 48.04500 31.66400
C  10.97100 47.78900 30.15200
C  11.69900 49.44800 32.19400
C  9.77100 46.29600 33.18800
C  9.47300 46.66800 34.60400
H  9.96100 45.61800 35.59600
N  10.80900 48.18500 27.08100
C  11.90500 48.22200 27.87500
C  13.04900 48.28300 27.06400
C  12.59500 48.73900 25.78100
C  11.14600 48.66000 25.84200
C  14.39500 48.03100 27.62300
C  13.44900 49.09100 24.52100
O  12.90900 49.31200 23.46000
C  14.93600 49.04300 24.60200
N  8.14000 48.05300 25.83900
C  8.80700 48.52100 24.82200
C  8.04800 48.98100 23.61600
C  6.58500 48.39800 23.98900
C  6.82200 48.02600 25.50400
C  8.08900 50.45700 23.35900
C  6.28300 47.18300 23.19200
C  5.49800 47.50000 21.85700
N  7.00100 47.28800 28.35800
C  5.77900 47.32000 27.71000
C  4.71000 47.14000 28.64500
C  5.38200 46.95900 29.87300
C  6.73100 47.08700 29.68800
C  3.27900 47.33100 28.40400
C  5.08800 46.93400 31.30800
O  4.09700 46.84600 32.01300
C  6.51800 46.87900 32.00300
C  6.58400 45.50500 32.51600
O  6.69700 44.52300 31.80000
O  6.51600 45.52300 33.87800
C  6.79300 44.20500 34.58800
H  12.93100 48.32700 29.71900
H  10.66900 49.07700 23.85500
H  4.76900 47.52500 25.86100
H  9.28800 48.35500 32.76000
H  11.97700 47.30700 31.79200
H  11.87000 50.03800 31.29300
H  12.67900 49.42000 32.67000
H  10.99100 49.95500 32.85000
H  10.72500 45.78800 33.05000
H  9.07000 45.54300 32.82800
H  8.40400 46.81200 34.75600
H  9.82900 47.68400 34.77200
H  14.27100 47.30900 28.43000
H  14.99500 48.91200 27.85100
H  14.96700 47.51200 26.85300
H  15.28900 49.74100 25.36000
H  15.41600 49.18400 23.63300
H  15.21800 48.05700 24.97200
H  8.42000 48.46700 22.73000
H  5.80300 49.13500 23.80800
H  7.77500 50.50600 22.31600
H  9.10100 50.86100 23.38100
H  7.56800 51.17500 23.99300
H  5.63000 46.62200 23.86000
H  7.16900 46.60300 22.93300
H  5.39500 48.56000 21.62300
H  4.50100 47.12100 22.08000
H  6.04800 47.09900 21.00600
H  2.86400 46.33500 28.55500
H  3.06400 47.71200 27.40500
H  2.89600 47.93900 29.22400
H  6.54500 47.54200 32.86800
H  7.80000 43.85100 34.36400
H  6.01200 43.47700 34.37200
H  6.91900 44.52800 35.62200

