158

Mg 17.31400 -1.61500 28.30800
C  16.81200 0.74000 30.89800
C  19.12600 -3.51900 30.62800
C  18.53600 -3.60700 25.83000
C  16.48900 0.79300 25.98100
N  17.78700 -1.49300 30.64300
C  17.57300 -0.32500 31.42700
C  18.27600 -0.48100 32.75500
C  19.12900 -1.79200 32.61200
C  18.65100 -2.27600 31.24600
C  20.65100 -1.47000 32.60500
C  17.14000 -0.65300 33.75900
C  17.47000 -0.78300 35.22500
H  18.68700 -0.09900 35.81700
N  18.38200 -3.49200 28.30800
C  19.02400 -4.04600 29.32500
C  19.67900 -5.26400 28.93500
C  19.46200 -5.41900 27.49600
C  18.75500 -4.12900 27.14000
C  20.39800 -6.27400 29.84300
C  19.83800 -6.52700 26.37700
O  19.53000 -6.49800 25.20900
C  20.70700 -7.61000 26.84500
N  17.42600 -1.42000 26.12800
C  18.01700 -2.36000 25.34600
C  18.07600 -1.87300 23.93200
C  17.37400 -0.46800 23.92700
C  17.02200 -0.34600 25.42600
C  19.54900 -1.77400 23.45700
C  16.03600 -0.33100 23.06800
C  14.69700 -0.78400 23.63100
N  16.53900 0.24500 28.32100
C  16.22800 1.12600 27.34700
C  15.70000 2.38500 27.89200
C  15.85000 2.18300 29.30800
C  16.39900 0.91100 29.51700
C  15.18700 3.54500 27.10700
C  15.60200 2.82700 30.57900
O  14.99100 3.88000 30.79100
C  16.26300 1.88900 31.65100
C  17.25300 2.67200 32.37500
O  18.37000 2.69100 32.02000
O  16.66000 3.36400 33.42800
C  17.49500 4.28500 34.08500
H  19.66600 -4.16400 31.32500
H  19.03900 -4.23700 25.09300
H  16.52100 1.65300 25.31000
H  18.93800 0.38000 32.85000
H  18.91100 -2.60600 33.30400
H  21.30700 -2.28200 32.29200
H  20.95000 -1.10400 33.58700
H  20.69700 -0.53400 32.04900
H  16.61800 -1.57600 33.50500
H  16.50500 0.23300 33.76200
H  17.37100 -1.83100 35.50700
H  16.61800 -0.26600 35.66500
H  21.47200 -6.09400 29.78000
H  20.25500 -7.33400 29.63000
H  19.95600 -6.12000 30.82700
H  21.62200 -7.17100 27.24300
H  20.93200 -8.25600 25.99600
H  20.11600 -8.18200 27.56000
H  17.56700 -2.56300 23.25900
H  18.02100 0.39500 23.77200
H  19.76400 -0.78600 23.05100
H  19.71100 -2.54200 22.70100
H  20.32700 -1.99500 24.18800
H  16.36200 -0.72000 22.10300
H  16.00000 0.74600 22.90300
H  14.06100 0.08400 23.80000
H  14.79000 -1.27400 24.60100
H  14.16800 -1.43900 22.93900
H  14.60500 4.13700 27.81200
H  14.52000 3.31900 26.27500
H  16.02200 4.16800 26.78500
H  15.52100 1.49500 32.34500
H  18.06400 4.92500 33.41000
H  18.20000 3.78200 34.74800
H  16.93700 4.96500 34.72900
Mg 35.84300 0.54900 29.37500
C  33.85200 2.07200 31.99300
C  38.10500 -0.18200 31.70700
C  37.69700 -0.45300 26.78000
C  33.23100 1.34300 27.17800
N  35.92700 0.91200 31.68400
C  35.05600 1.52700 32.52100
C  35.53700 1.50000 33.97200
C  36.96100 0.76000 33.84500
C  37.03600 0.52400 32.29800
C  38.11100 1.63600 34.44600
C  34.49800 0.77800 34.93800
C  34.07200 1.57500 36.17400
H  35.08300 2.60800 36.81400
N  37.68200 -0.20700 29.31300
C  38.47500 -0.45500 30.34100
C  39.75900 -0.97600 29.88700
C  39.66400 -1.03700 28.44600
C  38.26100 -0.63200 28.12000
C  40.93400 -1.47400 30.84800
C  40.74100 -1.56000 27.39600
O  40.54500 -1.67100 26.16800
C  42.13600 -1.97800 27.95300
N  35.40100 0.13600 27.34600
C  36.37800 -0.09900 26.44700
C  35.79800 -0.04300 24.99700
C  34.29400 0.24600 25.19200
C  34.34600 0.65200 26.65000
C  36.59900 0.79100 23.96700
C  33.34500 -0.95700 24.85200
C  32.66800 -1.00000 23.43700
N  33.91200 1.42700 29.51200
C  33.02100 1.74500 28.48700
C  31.90000 2.55500 29.06400
C  32.15900 2.62600 30.40400
C  33.38600 1.95600 30.62500
C  30.66700 3.15300 28.30400
C  31.64200 3.22700 31.62300
O  30.65700 3.88900 31.82800
C  32.70200 2.88000 32.70300
C  33.08100 4.20700 33.23800
O  34.09100 4.83400 32.99700
O  32.23000 4.63100 34.25500
C  32.71300 5.76300 35.12200
H  38.79700 -0.41100 32.52100
H  38.42300 -0.69900 26.00300
H  32.56800 1.82200 26.45400
H  35.71700 2.53000 34.27900
H  36.96100 -0.19600 34.36800
H  37.76600 2.44100 35.09500
H  38.73400 1.95800 33.61200
H  38.64200 0.97900 35.13600
H  34.88300 -0.18500 35.27300
H  33.59300 0.63200 34.34700
H  33.74200 0.88700 36.95200
H  33.26000 2.21000 35.82000
H  40.62000 -1.46700 31.89200
H  41.72700 -0.72800 30.78900
H  41.33500 -2.46000 30.61400
H  42.80000 -2.08100 27.09500
H  41.94100 -2.82900 28.60600
H  42.52300 -1.23800 28.65300
H  35.97800 -1.04600 24.61200
H  33.84000 1.04900 24.61100
H  37.46800 1.17600 24.50100
H  36.12500 1.72100 23.65400
H  36.91000 0.19900 23.10600
H  32.62800 -1.01700 25.67100
H  34.01000 -1.81300 24.97300
H  32.87000 -1.93700 22.91900
H  33.03700 -0.15900 22.85100
H  31.58900 -0.97600 23.58700
H  29.75800 2.68400 28.68000
H  30.81100 3.10800 27.22400
H  30.60700 4.21900 28.52400
H  32.15900 2.47500 33.55700
H  33.70100 5.40300 35.40800
H  32.12700 5.96300 36.01900
H  32.77500 6.74100 34.64600

