158

Mg 2.56300 -1.16500 43.72500
C  6.00900 -0.39500 43.30300
C  1.85700 1.98200 42.21100
C  -0.44300 -2.20100 43.02500
C  3.49200 -4.40200 44.77600
N  3.77100 0.57500 42.80600
C  5.13700 0.66800 42.80700
C  5.66700 1.91300 42.10700
C  4.36500 2.71000 41.85900
C  3.23800 1.79900 42.38400
C  4.30300 4.11700 42.36700
C  6.47200 1.60300 40.75400
C  7.28100 2.77400 40.16500
H  6.90700 3.23800 38.73000
N  0.87800 -0.17500 43.06200
C  0.78600 1.10700 42.45300
C  -0.51900 1.43100 42.19200
C  -1.27200 0.21000 42.39100
C  -0.30200 -0.80600 42.88500
C  -0.99400 2.73100 41.59600
C  -2.65600 -0.03700 41.96900
O  -3.35600 0.76000 41.37900
C  -3.36500 -1.40700 42.30800
N  1.67000 -3.07000 43.87600
C  0.38600 -3.27800 43.49500
C  0.02400 -4.81700 43.57400
C  1.16200 -5.35500 44.44500
C  2.16100 -4.24500 44.41800
C  -1.41800 -5.18300 43.95900
C  1.71100 -6.79800 44.04400
C  1.75100 -7.85900 45.18800
N  4.32300 -2.18000 44.08600
C  4.57600 -3.44000 44.55600
C  5.96200 -3.67300 44.74100
C  6.55900 -2.52900 44.21300
C  5.58400 -1.58700 43.88700
C  6.58900 -4.92200 45.31900
C  7.85700 -1.86500 43.96500
O  8.98900 -2.20300 44.19600
C  7.52700 -0.53300 43.26100
C  8.48700 0.52100 43.79600
O  9.60300 0.81000 43.30400
O  7.99000 1.09600 44.99500
C  8.93400 1.99000 45.72300
H  1.54900 2.93900 41.78500
H  -1.42200 -2.64000 42.82000
H  3.79600 -5.36200 45.19800
H  6.27300 2.55500 42.74700
H  4.20400 2.86900 40.79200
H  3.26000 4.42800 42.30700
H  4.90200 4.74100 41.70400
H  4.82500 4.09000 43.32400
H  5.70300 1.39200 40.01100
H  7.10700 0.72300 40.85500
H  8.37000 2.73100 40.20100
H  6.98400 3.66100 40.72500
H  -2.02200 3.01800 41.81900
H  -0.58100 2.88500 40.59900
H  -0.42400 3.46400 42.16600
H  -4.42700 -1.17300 42.23700
H  -3.42300 -1.78700 43.32800
H  -3.12000 -2.17800 41.57800
H  0.26100 -5.19100 42.57800
H  0.79700 -5.40000 45.47100
H  -1.41300 -6.03200 44.64300
H  -2.02400 -5.50900 43.11400
H  -1.99800 -4.32700 44.30300
H  2.69600 -6.61000 43.61800
H  1.15000 -7.33400 43.27800
H  2.83000 -7.95900 45.30700
H  1.10500 -8.71100 44.98100
H  1.33400 -7.32800 46.04400
H  6.34300 -5.87500 44.85000
H  6.09200 -4.93000 46.28900
H  7.67300 -4.83600 45.39700
H  7.80200 -0.73100 42.22500
H  8.70800 2.99500 45.36800
H  9.99300 1.73500 45.74500
H  8.61500 1.93600 46.76400
Mg 42.00600 7.89500 29.93300
C  43.79600 9.45100 32.39300
C  39.88300 6.57000 32.25500
C  40.30100 6.49600 27.45500
C  44.84600 8.34100 27.68900
N  42.05500 7.90900 32.08900
C  42.66200 8.83000 32.83900
C  42.08800 8.82000 34.31200
C  40.81200 7.82400 34.21900
C  40.98900 7.33800 32.81400
C  40.80900 6.62800 35.28000
C  41.73400 10.23300 34.88400
C  42.44900 10.68700 36.21200
H  41.55600 11.36700 37.30300
N  40.31000 6.80800 29.87700
C  39.55100 6.33100 30.92500
C  38.39900 5.60300 30.43000
C  38.38200 5.74500 29.02200
C  39.72600 6.32500 28.74800
C  37.43900 4.89800 31.38100
C  37.24400 5.33200 28.02200
O  37.49800 5.31200 26.82300
C  35.90700 5.19500 28.56500
N  42.64400 7.22300 27.89200
C  41.64200 6.88200 27.12500
C  42.15800 6.79200 25.63900
C  43.67600 7.29100 25.74100
C  43.80200 7.58500 27.21700
C  42.03800 5.32800 25.03500
C  43.96100 8.36000 24.76500
C  43.28900 9.73200 25.14100
N  43.95700 8.73300 29.98300
C  44.96800 8.81600 29.04900
C  45.97700 9.69300 29.58800
C  45.65300 9.93700 30.95500
C  44.40200 9.35500 31.15000
C  47.09200 10.31100 28.77200
C  46.04800 10.64600 32.16300
O  46.97200 11.40900 32.40100
C  44.83900 10.26200 33.22500
C  45.38300 9.45000 34.37300
O  45.45500 8.21300 34.59600
O  45.91400 10.40300 35.21900
C  46.32400 9.97700 36.57700
H  39.06000 6.35900 32.94000
H  39.75500 6.16400 26.57000
H  45.58900 8.58600 26.92800
H  42.89400 8.32000 34.84900
H  39.86100 8.33000 34.05000
H  39.75500 6.55000 35.54600
H  41.49600 6.97600 36.05100
H  41.29600 5.79700 34.77000
H  40.65200 10.35800 34.92700
H  42.01300 10.99500 34.15700
H  43.27100 11.36400 35.98200
H  42.93500 9.82400 36.66700
H  36.92400 4.09700 30.85000
H  36.72400 5.54700 31.88600
H  38.03200 4.31600 32.08600
H  35.76100 6.10700 29.14400
H  35.89300 4.31300 29.20600
H  35.10300 4.97700 27.86300
H  41.47400 7.38700 25.03300
H  44.39400 6.53000 25.43800
H  41.74900 4.75800 25.91800
H  42.98200 4.95300 24.63900
H  41.27900 5.15700 24.27200
H  43.53500 7.98900 23.83300
H  45.03500 8.53200 24.69100
H  42.71300 9.71000 26.06600
H  42.67300 10.04700 24.29900
H  44.08700 10.47400 25.18200
H  46.83300 11.16800 28.15000
H  47.59900 9.61100 28.10900
H  47.77700 10.69900 29.52600
H  44.34200 11.15200 33.61000
H  46.89500 9.04900 36.60600
H  45.49400 9.75100 37.24500
H  46.99900 10.77400 36.89000

