158

Mg 8.19200 2.88600 27.13700
C  9.63700 1.15800 30.03100
C  6.51600 4.81300 29.35300
C  6.95900 4.32200 24.44400
C  9.99000 0.55900 25.18000
N  8.14400 2.95600 29.52200
C  8.80700 2.20100 30.42800
C  8.52300 2.72600 31.87700
C  7.32300 3.73900 31.58800
C  7.19800 3.80300 30.05200
C  6.01900 3.35000 32.20600
C  9.79300 3.24300 32.55200
C  9.62500 4.22600 33.81200
H  10.61000 4.22700 34.90600
N  6.96900 4.46500 26.97500
C  6.33100 5.15000 27.98400
C  5.49400 6.23800 27.39300
C  5.73500 6.12800 25.94600
C  6.58600 4.89000 25.73400
C  4.60600 7.12700 28.18300
C  5.11600 6.98300 24.86500
O  5.08100 6.66700 23.69100
C  4.46100 8.24700 25.12000
N  8.40200 2.45800 25.15400
C  7.78600 3.19400 24.19200
C  7.97100 2.55600 22.80600
C  9.11400 1.58200 23.00700
C  9.24900 1.55100 24.56100
C  6.64600 1.95200 22.15000
C  10.34300 2.11000 22.31200
C  11.43500 1.07100 21.82100
N  9.40000 1.03100 27.43700
C  10.18900 0.33600 26.55000
C  11.04000 -0.63800 27.20200
C  10.83800 -0.33400 28.60300
C  9.81200 0.72800 28.67400
C  11.91400 -1.58900 26.60100
C  11.33800 -0.61800 29.88500
O  12.24300 -1.36600 30.22200
C  10.54400 0.28300 30.94100
C  9.60400 -0.46700 31.81400
O  8.82100 -1.31200 31.39700
O  9.89000 -0.22100 33.14800
C  9.38500 -1.22200 34.14100
H  5.90800 5.33400 30.09600
H  6.48000 4.71900 23.54600
H  10.51900 -0.13200 24.52100
H  8.10200 1.89600 32.44500
H  7.52800 4.70800 32.04200
H  5.34900 2.97000 31.43400
H  5.46900 4.21600 32.57300
H  6.12100 2.57800 32.96900
H  10.43100 3.83900 31.90000
H  10.28700 2.36200 32.96200
H  8.62000 4.12100 34.22200
H  9.62900 5.16600 33.26000
H  4.65700 6.92500 29.25300
H  3.54600 7.07100 27.93600
H  4.94800 8.14700 28.00800
H  5.11100 8.94900 25.64200
H  3.56700 8.11100 25.73000
H  4.18600 8.72500 24.18000
H  8.20900 3.32800 22.07500
H  8.95700 0.53600 22.74300
H  5.81400 2.18800 22.81500
H  6.59900 0.89800 21.87500
H  6.51500 2.53200 21.23700
H  10.82900 2.72400 23.07000
H  10.11200 2.69100 21.41900
H  10.93600 0.10300 21.78700
H  12.23800 0.98600 22.55400
H  11.90000 1.23800 20.84900
H  12.86800 -1.70400 27.11600
H  12.19800 -1.48600 25.55400
H  11.52800 -2.60400 26.50600
H  11.23700 0.76800 31.62800
H  8.98300 -0.58200 34.92600
H  10.26200 -1.75900 34.50300
H  8.60900 -1.83200 33.67900
Mg 23.33400 -6.29400 44.81600
C  25.58500 -3.69000 43.92900
C  20.85700 -4.57200 43.12100
C  21.52400 -9.12700 44.67200
C  25.98800 -7.92400 46.29600
N  23.27100 -4.39200 43.54500
C  24.30200 -3.51000 43.41300
C  23.71700 -2.25800 42.58100
C  22.16700 -2.38800 42.64100
C  22.05300 -3.86000 43.13000
C  21.36700 -1.28800 43.39200
C  24.24700 -2.23000 41.11400
C  24.66300 -0.93000 40.52300
H  24.83900 -0.87000 39.01000
N  21.36300 -6.78100 44.09500
C  20.51700 -5.90500 43.45300
C  19.20100 -6.62100 43.28600
C  19.43900 -8.00600 43.58200
C  20.76100 -8.00900 44.21300
C  17.99600 -5.98500 42.62500
C  18.46400 -9.14300 43.41400
O  17.35900 -8.91400 42.95400
C  18.85500 -10.63000 43.71900
N  23.78000 -8.22200 45.40000
C  22.84400 -9.22400 45.23800
C  23.35700 -10.55900 45.85100
C  24.69200 -10.18100 46.45800
C  24.82900 -8.67500 46.07600
C  22.38900 -11.31400 46.86500
C  25.94600 -11.14400 46.32300
C  26.68200 -11.67200 47.59900
N  25.40200 -5.87400 45.22400
C  26.32100 -6.63900 45.77800
C  27.59400 -5.93000 45.75200
C  27.36100 -4.79300 44.98600
C  25.99500 -4.78900 44.70500
C  28.84300 -6.34100 46.45200
C  28.02800 -3.60800 44.38500
O  29.18700 -3.22400 44.36800
C  26.85100 -2.80100 43.57300
C  26.65700 -1.48500 44.18500
O  26.34400 -1.24000 45.35400
O  27.07700 -0.48500 43.33800
C  27.39800 0.82300 43.97800
H  19.97700 -3.97900 42.86000
H  21.06700 -10.10300 44.84700
H  26.82900 -8.48700 46.70400
H  24.11400 -1.35600 43.04700
H  21.65600 -2.40900 41.67800
H  20.78100 -0.89300 42.56100
H  22.01200 -0.60300 43.94200
H  20.62400 -1.66000 44.09800
H  23.50400 -2.75300 40.51100
H  25.10100 -2.90600 41.17000
H  25.63800 -0.79600 40.99300
H  23.96400 -0.13600 40.78400
H  17.28600 -6.61100 42.08400
H  18.46300 -5.21700 42.00900
H  17.34100 -5.53100 43.36800
H  18.11400 -11.37300 43.42200
H  18.96400 -10.80500 44.79000
H  19.82900 -10.66300 43.23200
H  23.49000 -11.14600 44.94200
H  24.43200 -10.20100 47.51600
H  22.92200 -11.69600 47.73600
H  21.97700 -12.14400 46.29100
H  21.57000 -10.65800 47.16000
H  26.72500 -10.80700 45.63900
H  25.54800 -12.03800 45.84300
H  27.74600 -11.66100 47.36100
H  26.46900 -12.69400 47.91000
H  26.56800 -10.94700 48.40500
H  29.27700 -7.18500 45.91600
H  28.67100 -6.68600 47.47200
H  29.57200 -5.53400 46.52400
H  27.10300 -2.64200 42.52500
H  26.61000 1.53300 43.72700
H  28.26100 1.25500 43.47100
H  27.63900 0.76900 45.04000

