158

Mg 1.09100 7.67900 25.52000
C  1.76800 9.72600 28.22500
C  0.98800 4.97700 27.59400
C  0.53300 5.72200 22.85800
C  1.32400 10.45500 23.43800
N  1.27000 7.39200 27.64400
C  1.53500 8.34500 28.58700
C  1.65500 7.76000 29.98900
C  1.59800 6.18700 29.66600
C  1.19500 6.15100 28.25500
C  2.93000 5.42900 29.92300
C  0.50700 8.17200 30.91900
C  0.62100 7.91900 32.47800
H  1.90500 7.28800 33.04400
N  0.86800 5.66500 25.24400
C  0.82400 4.66200 26.23900
C  0.41500 3.37300 25.67700
C  0.51500 3.60400 24.23700
C  0.65600 5.03500 24.07600
C  0.22000 2.07600 26.38300
C  0.46500 2.69000 23.05500
O  0.80000 2.99300 21.88400
C  0.25700 1.19200 23.40500
N  1.20900 8.08500 23.38500
C  0.83100 7.11000 22.47100
C  0.53100 7.61800 21.06100
C  0.75000 9.17700 21.27300
C  1.10000 9.29000 22.77900
C  1.36500 7.00700 19.88600
C  -0.32100 10.21600 20.80200
C  0.18700 11.01100 19.49800
N  1.55000 9.68100 25.71000
C  1.55900 10.71800 24.83100
C  1.77400 12.00800 25.52400
C  1.95000 11.57400 26.81000
C  1.72000 10.23200 26.91600
C  1.73900 13.38400 24.96000
C  2.29100 12.11400 28.10200
O  2.64100 13.20800 28.40800
C  1.95400 10.95700 29.12600
C  3.04000 10.88100 30.08400
O  4.19700 10.44000 29.87100
O  2.64300 11.42100 31.27400
C  3.67700 11.38200 32.26800
H  0.89600 4.06400 28.18600
H  0.03500 5.27200 21.99600
H  1.12000 11.26400 22.73300
H  2.60100 8.02000 30.46500
H  0.91300 5.74500 30.38900
H  2.85600 4.65200 30.68400
H  3.67900 6.13300 30.28600
H  3.38200 4.97600 29.04000
H  -0.34200 7.65300 30.47400
H  0.33300 9.23900 30.78000
H  -0.19300 7.24900 32.75300
H  0.54100 8.89400 32.95800
H  -0.63700 1.75200 25.79300
H  -0.12800 2.04600 27.41600
H  1.03800 1.36300 26.27600
H  1.08000 0.81300 24.01100
H  0.41200 0.71800 22.43500
H  -0.75500 0.88500 23.66800
H  -0.52300 7.48800 20.81300
H  1.67500 9.44600 20.76300
H  2.34500 6.69600 20.24800
H  1.61500 7.71700 19.09800
H  0.92500 6.08400 19.50900
H  -0.45100 10.90600 21.63600
H  -1.22700 9.65300 20.57700
H  -0.59700 11.68500 19.15100
H  0.57900 10.33500 18.73900
H  0.99700 11.71300 19.69800
H  0.75700 13.78900 25.20400
H  1.79600 13.34400 23.87300
H  2.56200 14.01200 25.30200
H  0.97000 11.24700 29.49500
H  3.52700 11.96200 33.17800
H  4.57800 11.71500 31.75100
H  3.74200 10.35400 32.62300
Mg 30.08700 58.90000 38.33700
C  27.44900 56.79600 37.35700
C  32.32900 56.40900 37.79300
C  32.55100 61.18300 38.35300
C  27.70600 61.56100 38.38300
N  29.85900 56.84800 37.57200
C  28.74700 56.17200 37.16900
C  29.04700 54.71600 36.96300
C  30.50400 54.57500 37.59900
C  30.94400 56.02500 37.65600
C  30.70900 53.72100 38.90000
C  28.95000 54.41300 35.42400
C  27.67200 53.65700 34.97400
H  26.78400 54.31100 33.91100
N  32.08600 58.80100 38.11200
C  32.89700 57.67800 37.93100
C  34.34100 58.05200 37.88900
C  34.40500 59.43100 38.12600
C  32.98900 59.87300 38.19900
C  35.41500 57.01800 37.64400
C  35.64400 60.28400 38.25900
O  36.76600 59.77200 38.09100
C  35.64400 61.76100 38.67300
N  30.10100 61.15500 38.17300
C  31.29100 61.81500 38.39500
C  30.98700 63.37700 38.37200
C  29.47300 63.49000 38.46400
C  29.05700 61.97200 38.33400
C  31.89600 64.14600 39.35500
C  28.87800 64.44500 37.42900
C  27.83200 65.45900 37.96400
N  28.03400 59.20200 37.98100
C  27.24300 60.29300 38.12200
C  25.80800 59.93500 38.06200
C  25.84100 58.56300 37.70300
C  27.19600 58.18700 37.67900
C  24.63300 60.80000 38.40100
C  25.03800 57.34400 37.51700
O  23.85500 57.08800 37.54100
C  26.04500 56.22600 37.10200
C  25.72700 54.92300 37.74800
O  26.04100 54.57800 38.89300
O  24.80500 54.34800 36.99800
C  23.97800 53.23900 37.67200
H  33.10600 55.64500 37.86100
H  33.21000 62.04400 38.48900
H  26.98200 62.37200 38.48100
H  28.33400 54.08900 37.49900
H  31.19800 54.15900 36.86900
H  29.76700 53.20000 39.07200
H  30.99800 54.15000 39.85900
H  31.44300 52.97200 38.60400
H  29.79100 53.77600 35.15200
H  29.06600 55.34500 34.87200
H  26.99100 53.29500 35.74400
H  28.04800 52.77300 34.45900
H  35.53700 56.89500 36.56700
H  35.12400 56.14900 38.23400
H  36.31900 57.35700 38.14900
H  36.67700 62.09700 38.76500
H  35.14700 61.75400 39.64400
H  35.08300 62.34900 37.94800
H  31.33800 63.65800 37.37900
H  29.30400 63.87100 39.47200
H  31.32200 64.77700 40.03300
H  32.53400 64.81500 38.77800
H  32.52600 63.50100 39.96700
H  28.32600 63.83200 36.71600
H  29.63500 64.90000 36.79100
H  26.82900 65.07300 37.78100
H  28.09400 66.45600 37.60900
H  28.00900 65.46100 39.04000
H  23.95800 60.33300 39.11700
H  24.20500 60.77200 37.39900
H  24.89000 61.81800 38.69400
H  25.80900 56.03300 36.05500
H  23.00700 53.07700 37.20500
H  23.87600 53.30200 38.75600
H  24.52500 52.30100 37.56900

