158

Mg 5.91400 53.18100 41.10900
C  5.77500 49.75300 40.31300
C  9.19700 53.17700 39.64800
C  5.75900 56.52700 40.90600
C  2.56700 52.94700 41.98500
N  7.32600 51.62100 40.20200
C  7.08500 50.31000 40.06900
C  8.43600 49.58500 39.64000
C  9.50100 50.72400 39.83200
C  8.62200 51.94300 39.85500
C  10.28300 50.58900 41.16600
C  8.28600 49.08800 38.20100
C  7.56300 49.99300 37.10900
H  8.13100 49.88400 35.68800
N  7.29200 54.67200 40.37000
C  8.52800 54.44500 39.79000
C  9.14800 55.73300 39.61000
C  8.18300 56.75700 39.93300
C  7.01900 55.99300 40.46900
C  10.44200 55.96800 38.96600
C  8.37400 58.27400 39.74200
O  9.35600 58.68400 39.16400
C  7.42100 59.31500 40.32200
N  4.36000 54.49400 41.48900
C  4.56800 55.85500 41.31200
C  3.35500 56.57500 41.74900
C  2.29100 55.40600 41.97200
C  3.09500 54.20900 41.83900
C  3.71700 57.39300 43.00500
C  1.02000 55.44600 40.98400
C  -0.26700 55.56600 41.73900
N  4.52500 51.68900 41.25000
C  3.22200 51.75900 41.66200
C  2.61700 50.48300 41.72300
C  3.58400 49.64700 41.19300
C  4.73700 50.46000 40.88300
C  1.34800 50.00000 42.24600
C  3.94500 48.29400 40.84400
O  3.28400 47.29200 40.94600
C  5.39600 48.29200 40.21400
C  5.23600 47.86100 38.82200
O  4.43400 48.26200 38.01100
O  6.00800 46.77700 38.70300
C  5.85000 46.20000 37.33300
H  10.24000 53.17600 39.32600
H  5.75200 57.61100 41.03600
H  1.49600 53.00000 42.19000
H  8.60600 48.69200 40.24100
H  10.14400 50.88600 38.96700
H  11.31900 50.46000 40.85500
H  9.97300 49.71700 41.74300
H  10.11000 51.41500 41.85600
H  8.03100 48.04100 38.36500
H  9.35600 48.93000 38.06400
H  7.68700 51.00900 37.48200
H  6.51100 49.71000 37.15200
H  10.38200 56.32100 37.93600
H  11.07200 55.08000 38.92400
H  10.91100 56.77600 39.52700
H  7.80000 60.27400 39.96800
H  7.43100 59.27900 41.41100
H  6.41800 59.16200 39.92400
H  3.04400 57.23700 40.94100
H  1.94100 55.45800 43.00300
H  3.06900 57.02100 43.79900
H  3.55000 58.46400 42.88900
H  4.76100 57.19200 43.24500
H  0.92200 54.51400 40.42600
H  1.15000 56.17700 40.18600
H  -0.11700 55.62600 42.81700
H  -0.93000 54.77500 41.39100
H  -0.81100 56.46000 41.43100
H  0.59700 50.38800 41.55800
H  1.15100 50.34400 43.26200
H  1.22400 48.91900 42.18100
H  6.01500 47.58300 40.76500
H  6.76500 45.71000 37.00100
H  5.75500 46.96300 36.56100
H  5.05500 45.46700 37.19600
Mg 16.63400 51.30400 26.41200
C  18.89900 49.94800 28.76500
C  14.53500 52.10400 28.99200
C  14.69800 52.43900 24.12500
C  19.05600 50.28800 23.99200
N  16.64600 50.95900 28.56900
C  17.78300 50.58100 29.32800
C  17.61500 50.96000 30.76700
C  16.05800 51.23400 30.83000
C  15.66700 51.48000 29.38100
C  15.23000 50.10700 31.37400
C  18.51800 52.08900 31.30600
C  18.84700 51.98900 32.82800
H  17.87100 51.31200 33.79800
N  14.75900 52.06200 26.54600
C  14.04200 52.36300 27.71600
C  12.80100 52.92200 27.32400
C  12.80200 53.07200 25.93700
C  14.10300 52.50700 25.46900
C  11.64400 53.18100 28.38100
C  11.75100 53.54900 24.91900
O  11.98800 53.59000 23.72400
C  10.38900 53.94900 25.38400
N  16.75900 51.15200 24.31200
C  15.81100 51.82300 23.59700
C  16.25900 51.95400 22.13300
C  17.74500 51.35600 22.11400
C  17.84700 50.83100 23.55400
C  15.28200 51.14100 21.15800
C  18.80700 52.42100 21.72200
C  19.53800 52.17800 20.48700
N  18.52300 50.28100 26.27900
C  19.41200 49.91300 25.27000
C  20.53600 49.22600 25.75500
C  20.41200 49.30600 27.09900
C  19.10700 49.84600 27.37300
C  21.75800 48.63700 25.00400
C  21.02700 48.85500 28.33400
O  22.03300 48.18000 28.60500
C  20.14300 49.39000 29.44400
C  19.84200 48.40500 30.55100
O  19.44500 47.25400 30.38100
O  20.45400 48.88300 31.67100
C  20.65400 47.82000 32.64400
H  13.93900 52.54000 29.79600
H  14.13400 53.07500 23.43900
H  19.84200 50.01800 23.28300
H  17.83300 49.98500 31.20300
H  15.86400 52.16700 31.35900
H  15.85200 49.28100 31.71900
H  14.63100 49.66600 30.57700
H  14.67900 50.44700 32.25100
H  17.99800 53.03800 31.17900
H  19.41100 52.02400 30.68500
H  19.14400 53.00300 33.09300
H  19.74900 51.37900 32.86500
H  11.33400 54.22600 28.35800
H  12.04400 52.87900 29.34900
H  10.71400 52.63600 28.22000
H  9.71000 54.01300 24.53300
H  10.51100 54.96000 25.77200
H  10.01300 53.20900 26.09100
H  16.09400 53.02600 22.03100
H  17.73100 50.50500 21.43300
H  15.01300 50.23200 21.69600
H  15.91300 50.90700 20.30100
H  14.42000 51.73600 20.85500
H  19.47300 52.80400 22.49500
H  18.23300 53.34300 21.61700
H  19.39700 52.97000 19.75100
H  19.22200 51.23500 20.04100
H  20.58700 52.07800 20.76400
H  21.70800 47.63100 24.58800
H  22.66700 48.68500 25.60400
H  21.85600 49.31400 24.15600
H  20.71900 50.19200 29.90600
H  21.18500 48.14000 33.54000
H  21.18300 46.98800 32.17800
H  19.71900 47.42500 33.04100

