158

Mg 44.56000 5.00000 48.08000
C  42.52400 7.76600 47.49700
C  41.78100 2.99300 47.13500
C  46.64200 2.37600 47.79700
C  47.28700 7.19900 48.18500
N  42.49000 5.36000 47.27800
C  41.95800 6.57700 47.01400
C  40.50900 6.54300 46.49400
C  40.18800 5.03400 46.70700
C  41.49900 4.37400 47.12100
C  39.10200 4.67500 47.76400
C  40.30500 7.19200 45.06500
C  38.88000 7.70300 44.63500
H  38.48200 7.35000 43.17700
N  44.20800 2.94600 47.76700
C  43.01800 2.34000 47.35700
C  43.28100 0.91800 47.30500
C  44.66400 0.67400 47.48000
C  45.22300 2.01000 47.70900
C  42.14800 -0.06800 47.11300
C  45.34800 -0.68500 47.61700
O  44.70800 -1.68100 47.32900
C  46.78600 -0.90100 48.10100
N  46.63600 4.84600 47.85900
C  47.24600 3.63000 47.91600
C  48.75500 3.83500 48.07200
C  48.95100 5.35800 47.90100
C  47.51400 5.84700 47.92900
C  49.33900 3.19600 49.31000
C  49.80100 5.91100 46.65900
C  49.06400 6.08700 45.28300
N  44.87400 7.01500 48.07600
C  46.01400 7.74600 48.20200
C  45.62600 9.17000 48.32600
C  44.25800 9.21400 48.01700
C  43.83300 7.86600 47.89600
C  46.49000 10.39200 48.46000
C  43.12000 10.07000 47.80000
O  42.90400 11.29600 47.83500
C  41.96400 9.11400 47.48800
C  40.96000 9.34800 48.43400
O  40.97100 9.11800 49.59600
O  39.84100 9.95100 47.86000
C  38.70000 10.12900 48.73200
H  40.93500 2.37900 46.82000
H  47.41200 1.61700 47.95400
H  48.12700 7.88400 48.32100
H  39.85900 7.03400 47.21800
H  39.90000 4.71300 45.70600
H  38.18800 4.38400 47.24700
H  38.88800 5.58900 48.31700
H  39.39800 3.94100 48.51500
H  40.39400 6.27600 44.48100
H  41.09200 7.81500 44.63900
H  38.91800 8.78600 44.52600
H  38.13000 7.41300 45.37200
H  41.24000 0.38700 46.71800
H  42.03400 -0.68300 48.00600
H  42.52100 -0.71900 46.32200
H  47.12500 -0.28400 48.93300
H  47.45100 -0.65900 47.27200
H  46.82300 -1.98800 48.17000
H  49.13100 3.27800 47.21400
H  49.35300 5.72400 48.84600
H  49.27200 2.11000 49.36100
H  48.92200 3.76500 50.14000
H  50.39400 3.46200 49.37400
H  50.45400 5.07100 46.42200
H  50.39400 6.78600 46.92400
H  49.47500 5.40100 44.54300
H  49.20200 7.09300 44.88700
H  48.02700 5.79300 45.45000
H  46.32900 10.90400 49.40900
H  46.23200 11.06400 47.64100
H  47.49800 10.01000 48.29900
H  41.60600 9.37400 46.49200
H  39.06700 10.44900 49.70600
H  38.04400 9.25900 48.77800
H  38.04200 10.92900 48.39300
Mg 8.48300 48.10300 26.29300
C  6.15200 48.15700 28.96300
C  10.93800 48.66200 28.60500
C  10.71100 48.38300 23.78100
C  5.84000 47.59500 24.05300
N  8.53500 48.20600 28.58800
C  7.43800 48.16000 29.44500
C  7.94500 48.13100 30.86000
C  9.44300 48.66600 30.71500
C  9.72600 48.49000 29.21800
C  9.62800 50.10800 31.19800
C  7.84000 46.71700 31.62000
C  7.34000 46.90400 33.03200
H  8.02700 46.28800 34.31400
N  10.55700 48.45600 26.16500
C  11.39100 48.77100 27.25800
C  12.68900 49.15800 26.77100
C  12.66700 48.91700 25.38400
C  11.28200 48.53600 25.03200
C  13.77500 49.54800 27.73000
C  13.77300 48.94500 24.33700
O  13.61400 48.65800 23.12500
C  15.18700 49.18200 24.81700
N  8.33200 48.05000 24.19700
C  9.42100 48.13500 23.31200
C  9.01200 47.71800 21.86600
C  7.43400 47.48100 22.02000
C  7.17600 47.67400 23.52600
C  9.44900 48.70200 20.75500
C  6.96300 46.12300 21.46300
C  5.66900 46.12100 20.66300
N  6.46000 48.00600 26.35700
C  5.51500 47.82400 25.35000
C  4.22400 47.84000 25.89300
C  4.36900 47.96100 27.31000
C  5.78600 48.00800 27.56700
C  2.89800 47.65300 25.28100
C  3.63300 47.99500 28.62800
O  2.44700 47.85900 28.89300
C  4.80000 48.46900 29.67200
C  4.46900 47.84700 30.94500
O  4.55800 46.64900 31.18800
O  4.17600 48.69300 31.89700
C  3.77700 48.26300 33.20800
H  11.71200 48.90100 29.33800
H  11.38400 48.32700 22.92300
H  5.07600 47.20000 23.38100
H  7.48100 48.91300 31.46100
H  10.16200 48.16600 31.36400
H  8.72700 50.55500 31.61800
H  9.99500 50.76000 30.40500
H  10.37400 50.15300 31.99200
H  8.84200 46.28900 31.65600
H  7.11600 46.14400 31.04000
H  6.37400 46.40600 32.94300
H  7.27000 47.95300 33.32000
H  13.68700 48.81100 28.52800
H  13.47300 50.55900 28.00200
H  14.78400 49.49200 27.32100
H  15.42900 48.31200 25.42800
H  15.21400 50.16600 25.28400
H  15.92200 49.28100 24.01700
H  9.41100 46.72400 21.66400
H  6.86200 48.24200 21.49000
H  10.33100 49.29400 20.99900
H  8.63600 49.41300 20.60600
H  9.68400 48.21300 19.81000
H  6.69900 45.50800 22.32400
H  7.77800 45.74400 20.84700
H  5.29600 45.17000 20.28200
H  5.84300 46.79300 19.82300
H  4.86600 46.52200 21.28200
H  2.55200 48.66000 25.05000
H  2.19100 47.12700 25.92300
H  3.02400 47.23600 24.28200
H  4.83700 49.55800 29.69100
H  3.24300 49.14900 33.55000
H  4.69900 48.19700 33.78500
H  3.18600 47.35000 33.28700

