158

Mg 40.53900 10.25900 29.22500
C  42.44900 11.80100 31.76600
C  38.20400 9.32000 31.51500
C  38.74700 9.07700 26.70000
C  43.01900 11.10800 27.03400
N  40.31200 10.57800 31.33100
C  41.21100 11.23400 32.20100
C  40.68800 11.30600 33.59700
C  39.53000 10.34800 33.54700
C  39.37500 9.94600 32.07100
C  39.45600 9.14800 34.45600
C  40.27800 12.84500 33.85100
C  39.52700 13.12700 35.22900
H  40.27500 13.75000 36.36000
N  38.75800 9.25400 29.12900
C  37.95600 8.89900 30.20100
C  36.84200 8.20100 29.71600
C  37.04700 8.05900 28.29300
C  38.22100 8.86000 27.97300
C  35.75500 7.60400 30.53700
C  36.12800 7.37300 27.29400
O  36.42500 7.19000 26.14200
C  34.76000 6.85300 27.74800
N  40.87200 10.03600 27.12500
C  39.97000 9.51900 26.29300
C  40.40900 9.56700 24.82300
C  41.75900 10.31800 24.94800
C  41.89200 10.61300 26.47500
C  40.29900 8.28500 23.95900
C  41.94400 11.48800 23.99900
C  41.46900 12.91000 24.46700
N  42.45300 11.02000 29.36200
C  43.32400 11.31600 28.38600
C  44.55500 11.82700 28.91500
C  44.20600 12.10600 30.24400
C  42.92200 11.63000 30.46500
C  45.89100 11.98300 28.32300
C  44.57500 12.78800 31.44500
O  45.61300 13.36300 31.66900
C  43.42400 12.63700 32.48900
C  44.04200 11.76500 33.61300
O  44.47900 10.63300 33.44500
O  43.78400 12.38900 34.82900
C  43.93800 11.44000 35.96400
H  37.48200 9.08300 32.29900
H  38.27700 8.82100 25.74800
H  43.80800 11.35100 26.32000
H  41.47000 11.01900 34.30100
H  38.60400 10.88500 33.75000
H  39.37600 8.21000 33.90700
H  38.61100 9.19900 35.14200
H  40.35700 9.13900 35.07000
H  39.64900 13.13400 33.00900
H  41.16300 13.47900 33.89600
H  39.22700 12.15800 35.62900
H  38.63500 13.71100 35.00000
H  35.77000 6.51600 30.60700
H  34.80900 8.01100 30.17900
H  35.75100 7.96700 31.56500
H  34.32200 6.44400 26.83800
H  34.21700 7.66100 28.24000
H  34.79700 6.01500 28.44400
H  39.80600 10.32300 24.32000
H  42.43800 9.48500 24.76500
H  41.12200 8.21900 23.24800
H  39.35500 8.27000 23.41400
H  40.38700 7.46300 24.67000
H  41.51900 11.32000 23.01000
H  42.98500 11.66700 23.72800
H  40.77900 12.76300 25.29800
H  40.87200 13.45300 23.73400
H  42.40400 13.37100 24.78300
H  46.07500 13.03200 28.08900
H  46.09700 11.33400 27.47200
H  46.55300 11.63700 29.11700
H  43.02600 13.60900 32.78300
H  44.99700 11.18700 35.99900
H  43.41500 10.49000 35.85100
H  43.66100 11.82900 36.94400
Mg 1.65300 41.02100 25.74500
C  2.74400 41.37600 28.99800
C  -1.30700 39.86700 26.78600
C  1.23200 40.28300 22.47600
C  4.94100 42.23500 24.70800
N  0.70000 40.97400 27.67100
C  1.40900 41.00800 28.88600
C  0.35500 40.86200 30.00800
C  -0.80600 40.09000 29.33900
C  -0.45800 40.27000 27.83000
C  -0.92200 38.60600 29.63500
C  -0.04700 42.24200 30.64900
C  -0.08900 42.33800 32.17400
H  -0.87900 41.18800 32.84200
N  0.19100 40.19800 24.77000
C  -1.03400 39.83800 25.37500
C  -1.94800 39.41700 24.28700
C  -1.20900 39.37100 23.06300
C  0.13500 39.94300 23.39400
C  -3.38400 38.98800 24.66500
C  -1.60900 39.04300 21.62700
O  -0.86700 39.05000 20.68900
C  -3.05100 38.71000 21.36300
N  2.86400 41.38800 23.81500
C  2.44300 40.90600 22.69100
C  3.48300 41.16700 21.55100
C  4.46700 42.06600 22.19200
C  4.08200 41.87300 23.70300
C  4.19600 39.92700 20.85300
C  4.49000 43.56200 21.69700
C  3.16900 44.33100 21.98200
N  3.48500 41.72200 26.65700
C  4.71200 42.06200 26.08900
C  5.62300 42.42400 27.13800
C  4.95600 42.20300 28.37600
C  3.65700 41.77000 27.99400
C  7.05400 42.80000 26.87700
C  4.99900 42.10100 29.77300
O  5.89600 42.32600 30.56100
C  3.53800 41.62200 30.25200
C  3.63000 40.40400 31.13700
O  4.28200 39.32900 30.93700
O  2.91200 40.66100 32.26100
C  2.71800 39.50100 33.06600
H  -2.22600 39.39800 27.14400
H  1.27100 40.00100 21.42200
H  5.88700 42.69500 24.41500
H  0.77900 40.24900 30.80300
H  -1.73000 40.58800 29.63600
H  -0.10100 38.23500 30.24800
H  -0.87800 38.07600 28.68300
H  -1.85000 38.27300 30.10000
H  -0.98600 42.65100 30.27500
H  0.69200 42.98000 30.33800
H  -0.48200 43.32500 32.41500
H  0.93500 42.34500 32.54700
H  -4.08700 38.99000 23.83200
H  -3.81200 39.60600 25.45500
H  -3.45700 37.98900 25.09400
H  -3.66800 39.59900 21.49600
H  -3.46100 37.83800 21.87200
H  -3.19700 38.51100 20.30100
H  2.84400 41.68500 20.83500
H  5.51400 41.76400 22.15500
H  4.27800 39.15200 21.61500
H  5.21100 40.26200 20.63800
H  3.64500 39.53600 19.99700
H  4.51400 43.44700 20.61400
H  5.35400 44.08800 22.10300
H  3.15800 45.10600 21.21500
H  3.31700 44.72400 22.98800
H  2.24300 43.75900 22.02300
H  7.28800 43.56200 27.62000
H  7.28000 43.24300 25.90700
H  7.65400 41.89100 26.84700
H  2.96900 42.37400 30.79900
H  2.47900 38.55500 32.58000
H  1.78600 39.83300 33.52200
H  3.45900 39.38600 33.85700

