158

Mg -0.62800 6.76000 25.10600
C  0.09400 7.89600 28.27000
C  -0.97600 3.48700 26.37900
C  -0.83700 5.49600 21.95400
C  0.20800 9.92100 23.79900
N  -0.38900 5.75900 27.06400
C  -0.26000 6.55100 28.24400
C  -0.62100 5.63000 29.46500
C  -0.75200 4.20600 28.88300
C  -0.77400 4.45800 27.36900
C  0.43200 3.19000 29.18900
C  -1.83800 6.20500 30.27300
C  -1.80200 6.07700 31.81800
H  -1.08200 4.83100 32.48600
N  -0.99000 4.85100 24.28700
C  -1.14600 3.65100 24.98500
C  -1.59400 2.61000 24.09100
C  -1.45300 3.15600 22.78100
C  -1.09200 4.57200 22.92700
C  -1.95400 1.19100 24.52400
C  -1.43700 2.40600 21.40900
O  -1.25700 2.85400 20.29900
C  -1.84800 0.94500 21.37800
N  -0.19800 7.60900 23.07300
C  -0.49400 6.88600 21.97900
C  -0.41200 7.74200 20.74800
C  -0.41400 9.20700 21.36100
C  -0.18300 8.95000 22.88500
C  0.83100 7.38200 19.89900
C  -1.77000 9.99200 21.17000
C  -1.82000 10.99200 19.99400
N  0.16700 8.52300 25.87700
C  0.36100 9.80600 25.21400
C  0.72600 10.80100 26.21400
C  0.56600 10.11600 27.47900
C  0.23800 8.80100 27.18800
C  0.92200 12.26600 26.03300
C  0.56200 10.34700 28.89400
O  0.87700 11.27000 29.65300
C  0.28200 8.88100 29.42800
C  1.45000 8.43000 30.27300
O  2.52700 8.12300 29.79800
O  1.07700 8.45300 31.59400
C  2.18100 8.22500 32.61500
H  -1.07200 2.47900 26.78700
H  -0.93900 5.03300 20.97000
H  0.49300 10.84100 23.28400
H  0.25600 5.72200 30.10600
H  -1.67100 3.71000 29.19800
H  -0.03700 2.22300 29.37200
H  0.94800 3.41000 30.12400
H  1.15600 3.12500 28.37700
H  -2.72300 5.68600 29.90400
H  -2.05300 7.25900 30.09700
H  -2.79400 6.13900 32.26500
H  -1.27200 6.98400 32.11100
H  -1.06800 0.58100 24.34800
H  -2.75200 0.74700 23.92800
H  -2.21000 1.11000 25.58000
H  -1.93200 0.55100 20.36500
H  -2.87700 0.99100 21.73400
H  -1.15400 0.31900 21.93800
H  -1.27200 7.50800 20.12100
H  0.39500 9.75700 20.87900
H  0.77100 8.03600 19.02900
H  0.68600 6.33700 19.62300
H  1.78500 7.49200 20.41500
H  -1.83600 10.49400 22.13500
H  -2.68200 9.39500 21.16900
H  -1.78700 11.98400 20.44500
H  -2.71300 10.85800 19.38300
H  -0.96800 10.88500 19.32200
H  0.13400 12.72300 25.43400
H  1.89900 12.39700 25.56800
H  0.76500 12.74900 26.99800
H  -0.54100 8.99200 30.13400
H  3.12200 7.89600 32.17400
H  1.82500 7.58400 33.42200
H  2.43400 9.16400 33.10700
Mg 27.36100 52.03000 25.50700
C  25.50600 52.91400 28.37700
C  29.91700 51.15000 27.64300
C  29.30100 51.64400 22.79600
C  24.84700 53.42200 23.52100
N  27.64200 52.02900 27.83800
C  26.75700 52.31600 28.76200
C  27.25500 51.91600 30.15600
C  28.75500 51.49200 29.92400
C  28.83900 51.60500 28.34800
C  29.73100 52.41800 30.69400
C  26.30100 50.78500 30.70600
C  25.50900 51.03100 32.05800
H  25.75600 50.08300 33.28500
N  29.30200 51.21100 25.24700
C  30.19700 50.94100 26.23200
C  31.33800 50.25100 25.58600
C  31.18000 50.43300 24.18000
C  29.88900 51.13100 24.02000
C  32.43500 49.64200 26.35500
C  32.13400 49.98600 23.08600
O  31.84500 50.11900 21.90100
C  33.58700 49.58000 23.31600
N  27.10300 52.57100 23.49200
C  28.05600 52.29800 22.57100
C  27.46300 52.35300 21.19000
C  25.94800 52.69900 21.34800
C  25.93100 52.95500 22.88100
C  28.34400 53.31400 20.27600
C  24.95200 51.58700 20.97300
C  24.66600 51.60100 19.45400
N  25.57400 53.02300 25.78500
C  24.64700 53.45400 24.87500
C  23.49600 53.97900 25.55400
C  23.82700 53.81000 26.90100
C  25.01800 53.12800 26.97500
C  22.28800 54.65200 25.06500
C  23.29100 54.03000 28.19400
O  22.25700 54.64300 28.48400
C  24.23800 53.19800 29.15300
C  24.49400 54.12900 30.30000
O  25.20400 55.10200 30.34300
O  23.89200 53.52200 31.37100
C  23.80000 54.26100 32.60600
H  30.72700 50.70100 28.22200
H  29.83200 51.45500 21.86100
H  23.97000 53.58900 22.89200
H  27.21600 52.80800 30.78000
H  28.89500 50.42000 30.06200
H  29.34400 53.11100 31.44100
H  30.22400 53.03000 29.93900
H  30.44100 51.74500 31.17600
H  26.87600 49.86300 30.78300
H  25.67700 50.63500 29.82500
H  24.47600 51.03200 31.71200
H  25.75000 52.03100 32.42100
H  32.44400 50.05800 27.36300
H  33.40400 49.70200 25.86000
H  32.21300 48.58500 26.50400
H  33.47000 48.53800 23.61500
H  33.90100 50.31100 24.06000
H  34.28100 49.68100 22.48200
H  27.65900 51.36800 20.76500
H  25.62500 53.63600 20.89400
H  29.21400 53.68000 20.82000
H  27.86000 54.24300 19.97500
H  28.49200 52.84400 19.30400
H  23.99600 51.85400 21.42400
H  25.21400 50.59100 21.33100
H  25.06600 50.73700 18.92500
H  25.07200 52.52100 19.03400
H  23.58500 51.58800 19.31200
H  22.47000 55.72100 25.18000
H  21.40200 54.63000 25.69900
H  22.03000 54.45800 24.02400
H  23.68100 52.33900 29.52500
H  23.82100 55.34400 32.48700
H  24.57700 53.85000 33.25000
H  22.82400 54.03500 33.03400

