158

Mg 23.82800 -7.65400 46.65800
C  26.56100 -5.66600 45.79500
C  22.01300 -6.35400 43.95700
C  21.59100 -10.04400 47.02800
C  26.03400 -9.36700 48.84400
N  24.26100 -6.21100 44.97200
C  25.48500 -5.53000 44.90600
C  25.56900 -4.77600 43.61600
C  24.02500 -4.77400 43.15700
C  23.30300 -5.85400 44.05800
C  23.41200 -3.33900 43.32800
C  26.57700 -5.36800 42.56500
C  27.60500 -4.33900 41.87300
H  27.26400 -3.64100 40.50800
N  21.91700 -7.92900 45.87900
C  21.37200 -7.25700 44.74200
C  20.04500 -7.86300 44.46900
C  19.92500 -8.97600 45.35100
C  21.14700 -9.04500 46.17600
C  19.17900 -7.31400 43.37600
C  18.77100 -9.96100 45.28400
O  17.97200 -9.80700 44.35100
C  18.48100 -11.10500 46.25200
N  23.76200 -9.39200 47.90500
C  22.73100 -10.19600 47.81200
C  22.97500 -11.48600 48.69000
C  24.44400 -11.20000 49.24300
C  24.79500 -9.94700 48.60100
C  21.87300 -11.68000 49.78400
C  25.35500 -12.43200 48.89200
C  24.88700 -13.92200 49.09600
N  25.85700 -7.54300 47.29700
C  26.57500 -8.26000 48.23500
C  27.91900 -7.69300 48.36400
C  27.96300 -6.66000 47.39800
C  26.71800 -6.64700 46.79000
C  28.90300 -8.15700 49.30300
C  28.81600 -5.61600 46.86400
O  29.95400 -5.28800 47.06600
C  27.90400 -4.89000 45.75400
C  27.85600 -3.42700 46.03300
O  27.16800 -2.91500 46.98100
O  28.65900 -2.83300 45.12300
C  28.71700 -1.37100 45.31700
H  21.42300 -5.92100 43.14600
H  20.92500 -10.88600 47.22900
H  26.70100 -9.96900 49.46500
H  25.87500 -3.79500 43.97900
H  24.02100 -5.07500 42.10900
H  23.55800 -2.94500 42.32300
H  23.97200 -2.76500 44.06600
H  22.34900 -3.32000 43.56900
H  26.00600 -5.88100 41.79100
H  27.02800 -6.24100 43.03500
H  28.63100 -4.70400 41.82300
H  27.58300 -3.52300 42.59500
H  19.26500 -6.24700 43.17000
H  18.12200 -7.35400 43.64100
H  19.38000 -7.99600 42.55000
H  18.35600 -10.73600 47.27000
H  19.30100 -11.82200 46.25900
H  17.54900 -11.62600 46.03200
H  23.04600 -12.32700 48.00000
H  24.37000 -11.04200 50.31900
H  21.44500 -12.67400 49.65600
H  21.14600 -10.86700 49.77400
H  22.38700 -11.59800 50.74100
H  26.19600 -12.36500 49.58300
H  25.66500 -12.30400 47.85500
H  24.07300 -14.15000 48.40700
H  24.59900 -14.08600 50.13400
H  25.71200 -14.58100 48.82700
H  29.65800 -7.46400 49.67400
H  29.51400 -8.88400 48.76800
H  28.45100 -8.73400 50.11000
H  28.36900 -4.92000 44.76800
H  29.43600 -1.22600 46.12400
H  27.82500 -0.77900 45.51800
H  29.19400 -1.04200 44.39300
Mg -0.02300 43.14700 26.22300
C  2.12200 43.06300 29.02000
C  -2.57600 42.06600 28.18600
C  -1.80700 42.92100 23.45000
C  2.76100 44.13000 24.29900
N  -0.25500 42.79500 28.36500
C  0.80600 42.75100 29.31600
C  0.21600 42.32900 30.69000
C  -1.24900 41.77000 30.36700
C  -1.40900 42.25400 28.86600
C  -1.45900 40.21200 30.46200
C  0.15500 43.50500 31.66600
C  0.65100 43.19300 33.08300
H  0.15000 41.85800 33.74500
N  -1.91200 42.59200 25.85500
C  -2.78400 42.20800 26.79500
C  -4.04600 41.98300 26.07700
C  -3.81800 42.04700 24.67900
C  -2.44500 42.57000 24.62100
C  -5.32300 41.53500 26.81200
C  -4.78200 41.81200 23.54100
O  -4.48400 42.12300 22.37200
C  -6.19700 41.22300 23.81700
N  0.41800 43.46600 24.13300
C  -0.50700 43.37800 23.15600
C  0.01800 43.82500 21.78000
C  1.41800 44.38800 22.15700
C  1.53300 43.98600 23.63300
C  -0.05500 42.61900 20.75400
C  1.60200 45.83000 21.91100
C  0.97000 46.44900 20.65800
N  1.97900 43.62300 26.52000
C  2.98300 44.02800 25.70200
C  4.19800 44.14600 26.40200
C  3.86300 43.84600 27.71800
C  2.54500 43.48100 27.77100
C  5.56600 44.30900 25.85900
C  4.38200 43.75200 29.11500
O  5.50900 44.03500 29.60600
C  3.22400 43.28200 30.03900
C  3.65900 42.04900 30.67100
O  3.95500 40.97700 30.24700
O  3.77500 42.32500 32.04900
C  4.26200 41.28000 32.97400
H  -3.41100 41.59600 28.71000
H  -2.33000 42.76800 22.50300
H  3.62000 44.43000 23.69500
H  0.83900 41.56300 31.15100
H  -1.90000 42.20500 31.12600
H  -0.50500 39.74800 30.71200
H  -1.79900 39.60700 29.62100
H  -2.04600 40.05200 31.36700
H  -0.82800 43.97500 31.68000
H  0.83700 44.29000 31.33900
H  0.38800 44.00100 33.76600
H  1.74000 43.21200 33.04300
H  -5.21700 41.44700 27.89300
H  -5.69600 40.61600 26.35900
H  -6.09400 42.29300 26.67600
H  -6.87300 41.28900 22.96500
H  -6.64300 41.96300 24.48100
H  -6.23100 40.20300 24.20200
H  -0.67000 44.58900 21.41900
H  2.18000 43.77800 21.67100
H  0.92700 42.53000 20.28900
H  -0.81700 42.89100 20.02400
H  -0.22500 41.68300 21.28500
H  2.68800 45.92600 21.89900
H  1.16400 46.29200 22.79600
H  0.46600 45.77500 19.96600
H  1.75800 46.92600 20.07600
H  0.28500 47.20500 21.04300
H  6.14600 43.41400 26.08700
H  6.02500 45.26000 26.13100
H  5.63500 44.26100 24.77200
H  3.00400 43.99100 30.83700
H  4.71500 41.62400 33.90400
H  5.04400 40.67200 32.52000
H  3.40100 40.65300 33.20600

