158

Mg 8.68800 4.33500 27.43000
C  10.12500 2.77500 30.28800
C  6.88200 6.33900 29.49600
C  7.32200 5.63700 24.74500
C  10.23900 1.72900 25.47000
N  8.49500 4.50200 29.64100
C  9.22700 3.81600 30.57800
C  8.79900 4.25800 31.94600
C  7.57400 5.14600 31.67600
C  7.63500 5.38800 30.18800
C  6.17700 4.81200 32.26500
C  9.93200 4.90900 32.72600
C  10.24000 4.33400 34.16500
H  10.86700 5.29400 35.18700
N  7.39900 5.84600 27.17400
C  6.69500 6.53000 28.10600
C  5.78300 7.35100 27.38400
C  6.04700 7.32000 26.02500
C  6.98200 6.24300 25.92300
C  4.78700 8.14700 28.13600
C  5.50800 8.13500 24.81300
O  5.93800 8.16600 23.63200
C  4.34400 9.11100 25.12200
N  8.61800 3.61100 25.42400
C  8.08500 4.47900 24.48700
C  8.52800 4.16000 23.08100
C  9.50400 2.86400 23.25500
C  9.40500 2.65800 24.78800
C  7.31800 3.89900 22.15500
C  10.94800 3.05100 22.63900
C  11.12800 2.62200 21.06600
N  9.86500 2.55700 27.71100
C  10.46700 1.62500 26.87100
C  11.29500 0.75900 27.57500
C  11.25200 1.21600 28.92500
C  10.32600 2.26900 28.96600
C  12.22200 -0.36000 26.94500
C  11.79700 1.08100 30.20100
O  12.63700 0.30000 30.64000
C  11.01700 1.98100 31.22100
C  10.31600 1.08500 32.24400
O  9.22500 0.61100 32.12500
O  11.09200 1.03100 33.35100
C  10.44100 0.49900 34.54500
H  6.08500 6.72100 30.13700
H  6.96600 6.08000 23.81300
H  10.81200 1.03600 24.85000
H  8.43500 3.36900 32.46000
H  7.73300 6.12300 32.13000
H  6.12200 4.05800 33.05100
H  5.51500 4.56700 31.43400
H  5.72300 5.65900 32.77800
H  9.75600 5.97600 32.86200
H  10.79200 4.86800 32.05800
H  10.91700 3.48600 34.06900
H  9.25900 4.05400 34.54900
H  4.77700 9.15300 27.71700
H  5.02000 8.13200 29.20100
H  3.83900 7.64800 27.93200
H  3.52700 8.55800 25.58500
H  3.96500 9.61200 24.23100
H  4.62000 9.95700 25.75200
H  9.19100 4.91300 22.65200
H  9.06400 1.94500 22.86800
H  6.39500 4.18900 22.65700
H  7.38100 2.83400 21.93300
H  7.41100 4.53600 21.27500
H  11.61800 2.42300 23.22600
H  11.23500 4.09600 22.75200
H  10.27600 2.04500 20.70600
H  11.90200 1.86400 20.94300
H  11.17200 3.50100 20.42200
H  11.65800 -1.28600 26.83400
H  13.18400 -0.56200 27.41700
H  12.51000 -0.09500 25.92700
H  11.75800 2.54000 31.79300
H  10.19000 1.37800 35.14000
H  11.14000 -0.17000 35.04900
H  9.47200 0.01200 34.44200
Mg -6.33400 25.75600 25.70800
C  -4.74700 27.36500 28.54300
C  -7.75800 23.56300 27.89700
C  -7.27600 24.11100 23.11900
C  -4.26100 27.91100 23.71300
N  -6.13700 25.45500 27.85700
C  -5.50600 26.28600 28.85400
C  -5.95700 25.82700 30.25400
C  -6.61000 24.38700 30.05700
C  -6.89300 24.48800 28.50400
C  -5.64200 23.18300 30.43200
C  -7.04100 26.81400 30.84600
C  -7.04000 27.11000 32.38000
H  -6.81800 25.82400 33.22100
N  -7.37800 23.99500 25.57900
C  -7.89100 23.23200 26.59100
C  -8.78100 22.33400 26.06800
C  -8.71300 22.47000 24.59600
C  -7.78500 23.58500 24.35200
C  -9.50000 21.36600 27.02000
C  -9.43900 21.55200 23.58400
O  -9.17000 21.75600 22.43500
C  -10.35100 20.47500 23.95400
N  -5.78600 25.99200 23.72800
C  -6.41000 25.10300 22.83500
C  -6.12100 25.53500 21.40400
C  -5.28700 26.85900 21.58700
C  -5.09400 26.97300 23.12000
C  -5.30600 24.29800 20.72100
C  -6.08700 28.13900 21.16600
C  -5.61100 28.87200 19.90400
N  -4.87900 27.44700 25.97900
C  -4.15700 28.18500 25.10100
C  -3.32300 29.14400 25.77700
C  -3.48800 28.84000 27.17400
C  -4.43900 27.78400 27.20000
C  -2.41300 30.23100 25.20100
C  -3.05100 29.14200 28.59900
O  -2.23100 29.88500 29.04600
C  -3.99100 28.25100 29.46400
C  -3.11400 27.44100 30.33700
O  -2.18700 26.69900 30.00300
O  -3.49200 27.59400 31.62000
C  -2.66200 26.91900 32.63300
H  -8.20500 23.01400 28.72900
H  -7.60700 23.52200 22.26100
H  -3.61400 28.50400 23.06300
H  -5.13300 25.71900 30.95900
H  -7.55500 24.27700 30.59000
H  -4.69200 23.57100 30.80100
H  -5.45200 22.65100 29.50000
H  -6.10900 22.45400 31.09500
H  -8.02600 26.36100 30.74000
H  -6.93900 27.78800 30.36600
H  -7.94600 27.67400 32.59900
H  -6.28100 27.88900 32.45000
H  -10.28700 21.92800 27.52200
H  -8.82600 21.04700 27.81600
H  -9.82900 20.40600 26.62300
H  -11.27300 20.79400 24.44100
H  -9.89300 19.57200 24.35800
H  -10.77900 20.21100 22.98700
H  -7.02500 25.73000 20.82500
H  -4.30500 26.77300 21.12200
H  -5.78200 24.26400 19.74100
H  -5.49200 23.36400 21.25100
H  -4.23000 24.38100 20.56700
H  -5.99900 28.95500 21.88400
H  -7.15100 27.99300 20.97700
H  -6.42000 29.49400 19.52100
H  -5.45100 28.17800 19.07900
H  -4.73000 29.49400 20.06800
H  -2.80800 30.58500 24.24900
H  -1.47300 29.74400 24.94400
H  -2.33800 31.03300 25.93600
H  -4.66800 28.85100 30.07000
H  -3.02500 27.09200 33.64600
H  -1.60600 27.18600 32.57600
H  -2.72300 25.86200 32.37400

