158

Mg 43.51100 3.79700 48.59500
C  41.28000 6.27500 47.67700
C  41.06300 1.47100 48.13100
C  45.93200 1.34800 48.28300
C  46.17600 6.24100 48.41500
N  41.45400 3.91800 47.81200
C  40.71900 5.06600 47.59200
C  39.22100 4.69100 47.31000
C  39.16100 3.20400 47.84800
C  40.67400 2.83100 47.93300
C  38.55400 3.01400 49.28600
C  38.93400 4.69500 45.76000
C  37.75300 5.47600 45.19800
H  37.91500 6.46200 44.07200
N  43.49400 1.69200 48.50200
C  42.33300 0.95400 48.23700
C  42.66500 -0.42900 48.28800
C  44.09200 -0.55700 48.37700
C  44.60200 0.83400 48.40300
C  41.59000 -1.53800 48.27400
C  44.85000 -1.83000 48.45000
O  44.31900 -2.89800 48.32300
C  46.33900 -1.87500 48.71700
N  45.69500 3.79500 48.36600
C  46.45200 2.67100 48.29100
C  47.95300 2.93200 48.21700
C  48.03500 4.47100 48.41800
C  46.53600 4.89300 48.46400
C  48.77900 2.10500 49.23400
C  48.85500 5.27700 47.32800
C  49.88300 6.22900 47.93700
N  43.70700 5.81200 48.21300
C  44.86000 6.61300 48.17500
C  44.43100 7.94900 48.03400
C  43.02800 7.88300 47.82000
C  42.65900 6.53400 47.90700
C  45.28600 9.22400 48.00300
C  41.76000 8.67600 47.53900
O  41.54800 9.90600 47.45700
C  40.56600 7.59700 47.44200
C  39.60400 7.93700 48.46200
O  39.54700 7.56100 49.64700
O  38.60800 8.59500 47.85500
C  37.40400 8.81100 48.55900
H  40.27900 0.73400 48.31700
H  46.66300 0.55200 48.13000
H  46.95900 6.99700 48.50400
H  38.61400 5.36600 47.91400
H  38.67900 2.48300 47.18800
H  39.30400 3.23500 50.04600
H  38.12400 2.01200 49.29000
H  37.77200 3.73800 49.51800
H  38.80200 3.63100 45.56100
H  39.78700 5.05500 45.18500
H  37.38100 6.05000 46.04600
H  37.02000 4.76400 44.81800
H  41.84100 -2.13100 47.39500
H  40.55100 -1.25200 48.43900
H  41.81900 -2.11800 49.16800
H  46.75200 -1.55400 47.76100
H  46.64000 -2.92100 48.77800
H  46.44700 -1.35800 49.67100
H  48.23400 2.62800 47.20900
H  48.30700 4.82100 49.41300
H  48.10700 1.71400 49.99800
H  49.45100 2.71900 49.83400
H  49.35700 1.30400 48.77300
H  48.18300 5.93900 46.78000
H  49.40700 4.50100 46.79700
H  49.53500 7.25300 47.80900
H  50.78000 6.14700 47.32200
H  50.09300 6.14600 49.00300
H  45.61800 9.42400 46.98400
H  46.18300 9.24300 48.62200
H  44.60300 9.99900 48.35000
H  40.16000 7.64200 46.43100
H  36.66800 9.14300 47.82700
H  37.41200 9.56400 49.34700
H  36.87200 7.92600 48.90800
Mg 30.57500 59.80500 39.67800
C  27.76000 58.07900 38.74200
C  32.44800 56.84900 39.00800
C  33.40300 61.67900 39.65800
C  28.63000 62.64600 39.85900
N  30.10600 57.70800 38.94700
C  28.92200 57.27500 38.59200
C  28.94400 55.83100 38.10000
C  30.43100 55.38200 38.30200
C  31.06500 56.72400 38.84100
C  30.61300 54.15200 39.21700
C  28.55300 55.68900 36.52100
C  27.38300 54.72100 36.06100
H  26.69400 55.06000 34.76500
N  32.66900 59.31100 39.44500
C  33.21200 58.04100 39.20400
C  34.64200 58.16000 39.16100
C  34.90200 59.53500 39.28100
C  33.60100 60.24600 39.35700
C  35.46700 56.94100 38.99400
C  36.31300 60.23200 39.21600
O  37.35600 59.57200 39.02700
C  36.55800 61.68200 39.35700
N  30.98800 62.04000 39.61000
C  32.26100 62.47400 39.75800
C  32.13200 64.03700 39.92700
C  30.64000 64.35800 40.13800
C  30.00500 62.95200 39.90700
C  33.18500 64.62600 40.99500
C  30.01400 65.39900 39.18200
C  29.16800 66.51400 39.78100
N  28.51700 60.27400 39.54500
C  27.89500 61.45200 39.60800
C  26.46500 61.27600 39.52000
C  26.33400 59.91400 39.19300
C  27.59500 59.41300 39.16200
C  25.35100 62.27400 39.49500
C  25.35000 58.90200 38.77400
O  24.12400 59.04500 38.66900
C  26.30600 57.63100 38.45400
C  25.93300 56.47500 39.40300
O  26.42900 56.26000 40.51300
O  24.80900 55.82300 38.87900
C  24.04200 54.98400 39.74700
H  33.04900 55.95800 38.81500
H  34.28900 62.31400 39.58300
H  28.04100 63.51400 40.16200
H  28.26700 55.17100 38.64200
H  30.87200 55.19400 37.32300
H  31.19800 53.43800 38.63800
H  29.66800 53.66900 39.46400
H  31.22400 54.28600 40.11000
H  29.40900 55.28500 35.98100
H  28.42000 56.70700 36.15300
H  26.57300 54.55200 36.77200
H  27.71600 53.68300 36.06800
H  36.54300 57.11500 38.98000
H  35.12200 56.21300 38.25900
H  35.29000 56.36300 39.90100
H  37.63400 61.83100 39.26500
H  36.19500 62.12300 40.28600
H  36.20900 62.21600 38.47300
H  32.37700 64.60500 39.02900
H  30.37100 64.62400 41.16100
H  33.93800 65.22100 40.47800
H  33.64300 63.89400 41.66000
H  32.55600 65.32100 41.55000
H  29.34800 64.83500 38.52900
H  30.73000 65.77800 38.45200
H  29.87900 67.34000 39.78900
H  28.86200 66.16800 40.76800
H  28.32500 66.71000 39.11800
H  24.47900 61.77700 39.92100
H  24.98600 62.43100 38.48000
H  25.62100 63.14300 40.09500
H  26.14500 57.27000 37.43800
H  23.32100 55.65400 40.21400
H  24.72700 54.62600 40.51600
H  23.57600 54.12200 39.27000

