158

Mg 10.20300 47.51500 26.05000
C  8.17200 47.80000 28.89400
C  12.82000 48.77300 27.84400
C  12.02600 47.22100 23.28000
C  7.29500 46.55900 24.26400
N  10.46500 48.16100 28.09400
C  9.52700 48.12200 29.12200
C  10.18900 48.44400 30.47100
C  11.40000 49.28700 29.95400
C  11.63400 48.79600 28.58200
C  11.17600 50.88800 30.02200
C  10.61400 47.17000 31.26900
C  10.73400 47.28800 32.74500
H  10.46300 46.12700 33.74200
N  12.23500 47.94600 25.59700
C  13.16400 48.44000 26.48900
C  14.50800 48.35900 25.85700
C  14.22100 47.91800 24.51500
C  12.79200 47.65100 24.37100
C  15.71600 48.76500 26.63800
C  15.20100 47.78900 23.31300
O  14.87000 47.60800 22.12300
C  16.73600 47.94500 23.63600
N  9.70600 47.16400 23.94400
C  10.67100 46.97600 23.06200
C  10.01200 46.68700 21.64600
C  8.56200 46.31600 22.01800
C  8.50900 46.66700 23.47500
C  10.08500 47.93600 20.75300
C  8.10800 44.85100 21.70800
C  8.20600 43.67900 22.77900
N  8.09100 47.30000 26.45600
C  7.02300 46.89600 25.59900
C  5.81200 46.97800 26.36700
C  6.21500 47.19200 27.68200
C  7.59600 47.48100 27.69600
C  4.35400 46.58700 26.01900
C  5.77400 47.31900 29.06600
O  4.69600 47.06300 29.61400
C  7.07500 47.65700 29.97000
C  7.23400 46.42300 30.75100
O  7.34000 45.27800 30.30500
O  7.25800 46.76800 32.08900
C  7.20000 45.58400 33.02600
H  13.59900 49.18900 28.48600
H  12.48500 47.16500 22.29100
H  6.41000 46.30000 23.68000
H  9.43900 49.04700 30.98400
H  12.37800 49.19100 30.42400
H  12.12600 51.32300 30.33300
H  10.47900 51.14100 30.82100
H  10.85200 51.28600 29.06100
H  11.63000 46.93400 30.95500
H  9.98100 46.29200 31.13900
H  10.18500 48.08200 33.25100
H  11.75300 47.65000 32.88200
H  15.51200 48.53200 27.68300
H  16.01000 49.80300 26.48400
H  16.50500 48.06500 26.36400
H  16.91200 47.32700 24.51600
H  16.84300 48.93200 24.08600
H  17.34900 47.77200 22.75100
H  10.65100 45.87000 21.30900
H  7.80200 46.92700 21.53100
H  9.10300 48.13500 20.32300
H  10.83200 47.80400 19.97000
H  10.24900 48.89500 21.24400
H  8.66000 44.47500 20.84700
H  7.06500 44.89100 21.39400
H  8.38500 43.82700 23.84400
H  8.94400 42.90200 22.57800
H  7.26800 43.14500 22.63000
H  4.38100 45.60100 25.55400
H  4.02400 47.32900 25.29200
H  3.67200 46.61100 26.86800
H  6.89500 48.53500 30.59100
H  6.46700 44.80900 32.80600
H  6.99700 45.98900 34.01700
H  8.12200 45.00400 33.07100
Mg -5.74300 24.91200 25.75900
C  -4.12300 26.06700 28.68600
C  -7.66700 22.72000 27.71700
C  -6.62500 23.29600 23.00100
C  -3.25000 26.73200 23.95200
N  -5.80500 24.34500 27.90100
C  -5.12000 25.06300 28.92500
C  -5.66100 24.61000 30.31700
C  -6.58500 23.37400 29.99000
C  -6.75700 23.48000 28.46100
C  -5.98000 21.97300 30.32200
C  -6.51000 25.83000 30.92800
C  -6.30000 26.02500 32.52200
H  -5.49200 24.95200 33.28600
N  -7.14600 23.37000 25.36300
C  -7.82000 22.59500 26.28300
C  -8.67400 21.67600 25.60400
C  -8.44200 21.87400 24.21000
C  -7.37900 22.87200 24.13700
C  -9.58700 20.72500 26.28400
C  -9.02500 21.14700 22.95800
O  -8.68400 21.40500 21.81500
C  -10.12200 20.12400 23.07500
N  -4.98300 25.03300 23.71400
C  -5.57100 24.22200 22.77500
C  -4.93200 24.46400 21.40100
C  -4.05000 25.70500 21.64400
C  -4.02200 25.85400 23.19400
C  -4.11800 23.27200 20.88600
C  -4.57100 26.97400 20.88200
C  -3.65600 27.62200 19.74200
N  -4.11600 26.20800 26.19400
C  -3.26900 26.96800 25.33000
C  -2.46700 27.93700 26.14400
C  -2.80600 27.54600 27.47900
C  -3.76200 26.51700 27.46300
C  -1.40300 28.96700 25.69000
C  -2.37900 27.81200 28.87400
O  -1.54300 28.51900 29.35400
C  -3.36000 26.86400 29.68500
C  -2.57100 26.13000 30.66600
O  -1.99900 25.06900 30.46000
O  -2.65100 26.77400 31.88700
C  -1.73800 26.11100 32.82800
H  -8.17800 21.97100 28.32500
H  -6.81300 22.87000 22.01300
H  -2.67300 27.42800 23.33900
H  -4.79000 24.40000 30.93700
H  -7.60800 23.40600 30.36600
H  -4.96400 21.93100 30.71300
H  -5.99600 21.38900 29.40300
H  -6.77600 21.60000 30.96700
H  -7.57400 25.66700 30.76200
H  -6.26600 26.74900 30.39500
H  -7.31400 26.21900 32.87300
H  -5.75000 26.96300 32.59700
H  -10.58100 20.78100 25.84000
H  -9.81300 20.98200 27.31800
H  -9.27100 19.68200 26.25100
H  -10.25600 19.73900 22.06500
H  -11.02200 20.61500 23.44600
H  -9.73800 19.30700 23.68600
H  -5.74200 24.67300 20.70200
H  -3.05000 25.46000 21.28500
H  -3.62100 22.65200 21.63300
H  -3.30900 23.63200 20.25000
H  -4.69400 22.56500 20.28800
H  -4.60200 27.73500 21.66200
H  -5.59700 26.84000 20.54200
H  -2.74000 27.04100 19.63500
H  -3.32600 28.62300 20.02100
H  -4.16700 27.74700 18.78700
H  -0.64500 29.15100 26.45100
H  -1.82600 29.95000 25.48300
H  -1.06000 28.61500 24.71700
H  -4.09200 27.39300 30.29600
H  -1.86500 26.65000 33.76700
H  -0.73900 26.07900 32.39300
H  -2.00000 25.05500 32.88000

