158

Mg 8.72600 3.89400 27.55200
C  9.84100 2.31100 30.48300
C  6.66900 5.92600 29.49800
C  7.57600 5.30800 24.70800
C  10.55400 1.57200 25.68700
N  8.44900 4.13700 29.75300
C  8.98000 3.36300 30.80400
C  8.40600 3.84600 32.18800
C  7.35900 4.93600 31.74900
C  7.44500 4.96900 30.19400
C  5.89300 4.75000 32.25700
C  9.47900 4.41200 33.12200
C  9.49100 3.70500 34.55200
H  10.85300 3.90200 35.40000
N  7.35400 5.49100 27.20400
C  6.53700 6.15700 28.08300
C  5.71400 7.17100 27.46600
C  6.02100 7.01800 26.05500
C  7.06900 5.91400 25.90200
C  4.80600 8.08100 28.21200
C  5.51400 7.92100 24.87800
O  5.87000 7.75300 23.68000
C  4.53600 8.93100 25.16700
N  8.85800 3.42700 25.50000
C  8.46500 4.31000 24.53300
C  8.99100 3.82200 23.12700
C  9.81400 2.53300 23.49800
C  9.78300 2.55000 25.01700
C  7.94400 3.51400 22.01300
C  11.19600 2.33800 22.83900
C  11.32900 0.89500 22.08000
N  9.84100 2.18700 27.89300
C  10.52400 1.34400 27.08700
C  11.22300 0.32700 27.83300
C  11.04400 0.69900 29.11900
C  10.17200 1.84600 29.15300
C  12.10500 -0.76600 27.33700
C  11.46500 0.41900 30.46600
O  12.30400 -0.44300 30.90100
C  10.67900 1.43100 31.38800
C  9.77600 0.71900 32.32200
O  8.65500 0.32400 31.99000
O  10.32700 0.53400 33.60500
C  9.41800 -0.20200 34.45100
H  5.96900 6.52000 30.09000
H  7.18600 5.81000 23.82000
H  11.07500 0.75500 25.18200
H  7.84800 3.02100 32.63100
H  7.62000 5.97700 31.93900
H  5.35900 4.12100 31.54300
H  5.51000 5.76400 32.37000
H  5.96800 4.24900 33.22200
H  9.21100 5.45200 33.30700
H  10.43600 4.34700 32.60500
H  9.15300 2.67200 34.47100
H  8.73400 4.18500 35.17300
H  5.07300 9.13300 28.10900
H  4.77800 7.90400 29.28700
H  3.79600 7.90900 27.83900
H  4.14700 9.20700 24.18700
H  4.99300 9.79900 25.64200
H  3.71700 8.42800 25.68300
H  9.64900 4.53800 22.63500
H  9.30400 1.62500 23.17700
H  6.90400 3.71700 22.26900
H  7.96400 2.48100 21.66500
H  8.29300 4.17200 21.21800
H  12.05700 2.47300 23.49300
H  11.38800 3.15100 22.13800
H  11.71900 0.99700 21.06700
H  10.45700 0.24700 22.16300
H  12.17600 0.39700 22.55200
H  13.15900 -0.49000 27.32100
H  11.93600 -1.06000 26.30100
H  11.95600 -1.66100 27.94000
H  11.50200 1.87000 31.95100
H  8.37800 0.10400 34.33800
H  9.58000 -0.12500 35.52600
H  9.35000 -1.18300 33.98100
Mg -10.46400 38.93300 41.11600
C  -8.64300 36.04400 40.38800
C  -8.00500 40.76200 39.42000
C  -12.42700 41.57400 41.00700
C  -13.00000 36.98200 42.45400
N  -8.58200 38.56200 40.04400
C  -8.10800 37.25100 39.84800
C  -7.02100 37.21400 38.76800
C  -6.60000 38.69900 38.74200
C  -7.85300 39.42400 39.34900
C  -5.24200 39.09300 39.47900
C  -7.47300 36.61900 37.38500
C  -6.71300 35.52000 36.78500
H  -6.13100 35.70400 35.41600
N  -10.19400 40.91000 40.53300
C  -9.13600 41.43600 39.78800
C  -9.33500 42.85200 39.71700
C  -10.59900 43.13500 40.21300
C  -11.15000 41.86600 40.62200
C  -8.32800 43.69700 39.05900
C  -11.16300 44.56900 40.40500
O  -10.54900 45.50400 40.01600
C  -12.42500 44.78100 41.17300
N  -12.44300 39.22500 41.49100
C  -13.00300 40.38600 41.42000
C  -14.46000 40.35000 41.98700
C  -14.78900 38.80100 42.06900
C  -13.31700 38.26300 42.05700
C  -14.52700 41.18600 43.37900
C  -15.42400 38.12000 40.78100
C  -16.49100 37.08000 41.04000
N  -10.77400 36.90800 41.52600
C  -11.81600 36.25400 42.21400
C  -11.40900 34.88000 42.35200
C  -10.22700 34.72500 41.65300
C  -9.86700 36.01300 41.15200
C  -12.15300 33.79700 43.10800
C  -9.18100 33.81500 41.17200
O  -9.08900 32.60200 41.34500
C  -8.19200 34.59700 40.29300
C  -6.80400 34.42500 40.89300
O  -6.02800 33.55200 40.52100
O  -6.55200 35.33900 41.86600
C  -5.15800 35.44600 42.20000
H  -7.16100 41.28600 38.96700
H  -13.13400 42.40500 40.94900
H  -13.82900 36.39500 42.85500
H  -6.24600 36.59500 39.21900
H  -6.52200 39.03200 37.70700
H  -4.50200 38.29300 39.50500
H  -5.40300 39.33600 40.53000
H  -4.65000 39.88000 39.01200
H  -7.25900 37.41500 36.67200
H  -8.55500 36.49200 37.35900
H  -7.30300 34.60400 36.75100
H  -5.94200 35.23800 37.50200
H  -8.16700 44.62700 39.60400
H  -8.62100 43.94500 38.03900
H  -7.33400 43.25300 39.11900
H  -12.41200 45.82200 41.49800
H  -12.41700 44.16000 42.06800
H  -13.32100 44.63000 40.57100
H  -15.14900 40.78800 41.26500
H  -15.17600 38.63900 43.07500
H  -13.54200 41.61900 43.55100
H  -14.77200 40.58300 44.25300
H  -15.26400 41.98100 43.26300
H  -14.59200 37.67800 40.23400
H  -15.85900 38.94200 40.21300
H  -16.84800 37.27500 42.05100
H  -16.16700 36.04000 40.98200
H  -17.25700 37.23100 40.28000
H  -12.71500 33.13100 42.45300
H  -12.88000 34.31100 43.73800
H  -11.41200 33.32200 43.75000
H  -8.15700 34.20300 39.27700
H  -4.99000 36.51300 42.05200
H  -4.54200 34.84100 41.53400
H  -4.98200 35.24100 43.25600

