158

Mg 47.76000 25.28800 28.42000
C  48.58300 27.43100 31.09700
C  47.42700 22.75700 30.82200
C  46.95600 23.27800 25.87000
C  48.81900 27.85000 26.21900
N  47.84900 25.15400 30.74800
C  48.13000 26.21300 31.61700
C  47.98300 25.75600 33.04000
C  47.83000 24.22100 32.96100
C  47.69400 24.00000 31.45000
C  48.92100 23.33000 33.59900
C  46.84100 26.58900 33.82700
C  47.25400 27.59800 34.85100
H  46.41500 27.86200 36.09100
N  47.38800 23.24200 28.32700
C  47.18600 22.38000 29.39700
C  46.71700 21.10600 28.87600
C  46.58600 21.22700 27.49800
C  46.95500 22.64400 27.15400
C  46.54200 19.95900 29.83900
C  46.16400 20.20000 26.43500
O  46.01300 20.42100 25.25800
C  45.89200 18.82600 27.00200
N  47.89700 25.51400 26.34500
C  47.44500 24.52800 25.47900
C  47.86400 24.94400 24.04200
C  48.17600 26.46800 24.15600
C  48.28500 26.65400 25.62500
C  49.03200 24.08200 23.52900
C  47.09000 27.42100 23.56500
C  46.84400 27.39000 22.06900
N  48.57700 27.22600 28.57200
C  48.98000 28.06100 27.57600
C  49.36300 29.27900 28.18000
C  49.27700 29.10500 29.60500
C  48.72300 27.82800 29.76700
C  49.76300 30.49700 27.40800
C  49.47300 29.65200 30.84400
O  49.95400 30.75900 31.12500
C  49.03700 28.60300 31.91900
C  50.22900 28.25200 32.80900
O  51.08500 27.40000 32.57600
O  50.18800 29.10300 33.85600
C  51.21600 29.08700 34.96300
H  47.28100 22.01900 31.61300
H  46.67300 22.68100 25.00000
H  49.09700 28.67400 25.55900
H  49.01200 25.93600 33.35100
H  46.91400 24.06300 33.52900
H  49.80700 23.88900 33.90000
H  49.26400 22.52600 32.94800
H  48.50700 22.78900 34.45000
H  46.38100 25.74300 34.33700
H  46.11500 26.96400 33.10600
H  47.38600 28.58900 34.41700
H  48.15900 27.22100 35.32800
H  47.03900 20.04600 30.80500
H  46.91400 19.04200 29.38300
H  45.51400 19.69000 30.08100
H  45.38900 18.24100 26.23200
H  45.21200 18.86300 27.85300
H  46.88200 18.37900 27.09300
H  46.96000 24.77500 23.45700
H  49.13700 26.73500 23.71800
H  48.84800 23.55400 22.59400
H  49.35200 23.35100 24.27100
H  49.94100 24.62500 23.27300
H  47.36700 28.46100 23.73800
H  46.10100 27.22300 23.97900
H  47.44400 26.61800 21.58700
H  47.18300 28.32300 21.61900
H  45.79100 27.27000 21.81500
H  50.81400 30.68300 27.63000
H  49.17200 31.31000 27.82800
H  49.47000 30.51900 26.35900
H  48.15800 28.97000 32.44900
H  51.61800 30.07500 35.18800
H  52.12700 28.52100 34.76600
H  50.74600 28.71900 35.87500
Mg 9.67600 47.47400 26.58200
C  7.60500 47.78200 29.42500
C  12.23500 48.83800 28.38800
C  11.58700 47.52300 23.76100
C  6.73500 47.22600 24.58800
N  9.90000 48.26100 28.63300
C  8.96900 48.17200 29.68700
C  9.59800 48.51900 31.00500
C  10.88800 49.29800 30.53700
C  10.99100 48.81400 29.10900
C  10.77400 50.84200 30.65400
C  10.06200 47.33500 31.92000
C  10.17200 47.55100 33.46900
H  9.74600 46.36600 34.44300
N  11.65800 47.73900 26.26800
C  12.53400 48.30300 27.12700
C  13.82800 48.27400 26.54100
C  13.65200 47.79000 25.22700
C  12.25700 47.66800 25.03000
C  15.12700 48.65900 27.22100
C  14.65000 47.36500 24.16900
O  14.38000 47.04100 23.03700
C  16.07600 47.19700 24.47400
N  9.15400 47.43000 24.41700
C  10.16500 47.32100 23.53600
C  9.61900 46.95800 22.22200
C  8.09600 46.59100 22.49700
C  7.91600 47.12200 23.92400
C  9.86700 48.04100 21.10400
C  7.75700 45.10100 22.48200
C  8.79100 44.15100 23.14300
N  7.54400 47.53300 26.81700
C  6.49900 47.38200 25.90400
C  5.25400 47.24300 26.69000
C  5.71800 47.29500 28.06000
C  7.07800 47.55300 28.11200
C  3.88000 47.04400 26.23700
C  5.28700 47.11700 29.40000
O  4.19800 46.79000 29.79500
C  6.50300 47.48500 30.38600
C  6.74100 46.30400 31.20600
O  7.08400 45.21200 30.73100
O  6.41900 46.52700 32.44400
C  6.46600 45.35900 33.32300
H  13.00900 49.40500 28.90900
H  12.16500 47.44700 22.83800
H  5.79000 47.10900 24.05300
H  8.82100 49.06000 31.54500
H  11.74800 48.97900 31.12600
H  9.83000 51.21800 31.04700
H  10.90600 51.22800 29.64300
H  11.47000 51.26300 31.37900
H  11.03900 47.06300 31.52000
H  9.49500 46.44700 31.64000
H  9.50800 48.37900 33.71700
H  11.17200 47.82500 33.80600
H  14.81100 49.01100 28.20300
H  15.58400 49.51000 26.71700
H  15.83000 47.83800 27.36100
H  16.26500 46.36000 25.14600
H  16.49200 48.17000 24.73500
H  16.49900 46.80800 23.54700
H  10.15300 46.08900 21.83600
H  7.39100 47.10300 21.84200
H  10.68500 47.64500 20.50100
H  10.24600 48.96900 21.53000
H  8.96600 48.14200 20.49900
H  7.55700 44.72900 21.47800
H  6.94100 44.84300 23.15600
H  8.21600 43.63800 23.91400
H  9.67300 44.54700 23.64700
H  9.10700 43.38800 22.43100
H  3.34800 46.56500 27.06000
H  3.88400 46.29600 25.44500
H  3.32000 47.97400 26.13700
H  6.22800 48.28300 31.07600
H  7.06900 44.55700 32.89800
H  5.44000 45.09300 33.57800
H  6.93300 45.62900 34.27100

