158

Mg 8.05700 3.23000 27.53800
C  9.54300 1.98300 30.32300
C  6.18000 5.39200 29.36800
C  6.57300 4.29900 24.63000
C  9.51700 0.58700 25.63900
N  7.92400 3.65200 29.61000
C  8.62600 3.01500 30.61000
C  8.26000 3.64100 32.01800
C  7.07500 4.55500 31.69700
C  7.02000 4.52300 30.11000
C  5.70700 4.32500 32.40400
C  9.51300 4.36300 32.65500
C  9.22400 5.31400 33.87800
H  10.04700 5.15900 35.08500
N  6.67000 4.72900 27.02800
C  5.95200 5.46000 27.93900
C  5.04700 6.37600 27.32300
C  5.09800 6.08500 25.93000
C  6.17500 5.05300 25.81700
C  4.12100 7.34000 28.05800
C  4.36200 6.72200 24.76900
O  4.72700 6.49800 23.61500
C  3.23700 7.66800 24.96400
N  8.15200 2.57300 25.37300
C  7.41100 3.15200 24.37300
C  7.70900 2.55900 23.07800
C  8.67300 1.38700 23.40200
C  8.77500 1.46300 24.90400
C  6.42700 2.15300 22.21900
C  10.04100 1.24300 22.54100
C  11.23400 1.85700 23.30700
N  9.20600 1.56300 27.86100
C  9.76000 0.63200 27.03700
C  10.68400 -0.26700 27.77900
C  10.73200 0.30800 29.07600
C  9.75000 1.39300 29.07600
C  11.55800 -1.41200 27.28100
C  11.40300 0.23100 30.37400
O  12.17900 -0.58600 30.79300
C  10.55100 1.29700 31.27200
C  9.88300 0.56700 32.42800
O  9.16600 -0.41700 32.30200
O  10.26200 1.10100 33.69600
C  9.91000 0.35500 34.88600
H  5.68500 6.07500 30.06200
H  6.06100 4.74200 23.77300
H  9.98100 -0.15100 24.98100
H  7.94600 2.75200 32.56500
H  7.32700 5.59200 31.91800
H  5.22800 5.25400 32.71300
H  5.83500 3.72000 33.30100
H  5.11600 3.84800 31.62200
H  9.88000 5.00500 31.85400
H  10.30800 3.65600 32.89300
H  8.19500 5.31500 34.23700
H  9.33400 6.36200 33.59800
H  4.30900 7.39800 29.13000
H  3.09200 6.98300 28.08800
H  4.20600 8.35200 27.66300
H  2.43800 7.24200 25.57100
H  2.79600 7.91600 23.99800
H  3.64800 8.55000 25.45600
H  8.31900 3.27600 22.52800
H  8.18300 0.41600 23.33200
H  5.58200 2.31300 22.88900
H  6.46700 1.06900 22.10800
H  6.40900 2.74500 21.30500
H  10.00000 1.83500 21.62600
H  10.19900 0.21100 22.22800
H  10.89300 2.51300 24.10700
H  12.01200 2.34800 22.72200
H  11.72700 1.05300 23.85300
H  12.29400 -0.96300 26.61400
H  11.02100 -2.12200 26.65200
H  12.07000 -1.91100 28.10400
H  11.25800 2.00800 31.69800
H  9.69700 -0.70500 34.75100
H  9.04400 0.86200 35.31400
H  10.76800 0.45600 35.55000
Mg 47.60100 25.33800 29.06100
C  48.57600 27.52100 31.62900
C  46.60200 23.15100 31.48000
C  47.18900 23.18000 26.63100
C  48.93300 27.65800 26.72400
N  47.76100 25.34700 31.33500
C  48.11800 26.35000 32.16100
C  47.63300 26.14200 33.60900
C  47.24400 24.62000 33.51400
C  47.13900 24.39100 32.06500
C  48.24800 23.62200 34.11100
C  46.48600 27.10700 34.11800
C  46.84600 27.75900 35.45300
H  45.69700 27.78800 36.53400
N  46.83000 23.46900 29.06500
C  46.43100 22.65800 30.17900
C  45.84900 21.47200 29.63700
C  46.00000 21.47600 28.19800
C  46.72100 22.69500 27.89700
C  45.23200 20.41700 30.61000
C  45.63100 20.46300 27.20900
O  45.78600 20.59200 26.00800
C  44.93000 19.18200 27.60000
N  48.33400 25.37200 27.04100
C  47.87200 24.35800 26.22400
C  48.18100 24.65300 24.71600
C  48.52900 26.18800 24.70600
C  48.56700 26.43600 26.25200
C  49.23000 23.75200 23.99000
C  47.47900 27.13000 24.05900
C  48.09000 28.16700 23.10300
N  48.65500 27.15900 29.12600
C  49.04500 28.01700 28.11600
C  49.59100 29.28400 28.64500
C  49.39500 29.11400 30.03500
C  48.82100 27.78300 30.22600
C  50.16900 30.40900 27.86800
C  49.55200 29.78400 31.26200
O  49.92500 30.90900 31.44500
C  49.17600 28.71900 32.32300
C  50.32800 28.43500 33.17400
O  51.25400 27.69700 32.85200
O  50.24400 29.09200 34.41000
C  51.27400 28.86200 35.38600
H  46.02600 22.53600 32.17500
H  46.79100 22.71000 25.72900
H  49.26700 28.40300 25.99900
H  48.59200 26.22000 34.12200
H  46.33700 24.45300 34.09600
H  49.13900 24.11500 34.49800
H  48.69100 23.07100 33.28100
H  47.71600 22.95600 34.79000
H  45.59400 26.52300 34.34500
H  46.24100 27.87600 33.38600
H  47.03500 28.79500 35.17300
H  47.75600 27.36700 35.90600
H  44.31500 20.04200 30.15500
H  45.13500 20.72200 31.65200
H  45.86500 19.53500 30.70100
H  44.64700 18.60400 26.72100
H  44.00200 19.32000 28.15500
H  45.65900 18.62200 28.18600
H  47.16700 24.49300 24.34900
H  49.54500 26.16700 24.31200
H  50.04700 24.23500 23.45400
H  48.70300 23.14000 23.25800
H  49.67000 23.00300 24.64800
H  46.82400 27.52000 24.83900
H  46.84400 26.47300 23.46500
H  49.14800 27.99900 22.90200
H  47.96100 29.16800 23.51500
H  47.53400 28.16100 22.16600
H  49.73200 30.42500 26.86900
H  51.24500 30.33600 27.70900
H  49.86200 31.37900 28.25800
H  48.40400 29.22300 32.90400
H  50.78900 28.26800 36.16000
H  51.63400 29.79000 35.83100
H  52.17400 28.34300 35.05700

