158

Mg 47.72600 25.68400 28.96000
C  48.53800 27.81800 31.60600
C  46.28800 23.56400 31.28700
C  47.35600 23.30400 26.65800
C  49.67100 27.64600 26.80300
N  47.41300 25.74200 31.15400
C  47.83200 26.70400 32.03100
C  47.22200 26.61700 33.37600
C  46.64600 25.15700 33.35700
C  46.71500 24.75900 31.82400
C  47.24500 24.10500 34.34500
C  46.15100 27.71400 33.76300
C  46.23200 28.30900 35.15800
H  46.70900 27.51900 36.35600
N  46.85700 23.75800 28.95000
C  46.19300 23.11600 29.97200
C  45.66000 21.86600 29.52100
C  46.03400 21.70500 28.21300
C  46.76700 22.92900 27.86500
C  44.85400 20.90800 30.41300
C  45.69200 20.60700 27.22900
O  45.98300 20.66500 26.04600
C  44.89500 19.39000 27.65200
N  48.42600 25.49200 27.11100
C  48.03200 24.42900 26.34000
C  48.62700 24.51800 24.90800
C  49.17600 26.00500 24.87500
C  49.12100 26.41500 26.35000
C  49.67600 23.43500 24.67000
C  48.49100 27.05600 23.93100
C  49.45100 28.11800 23.35300
N  48.83700 27.46200 29.08100
C  49.59600 28.15500 28.16400
C  50.11100 29.37600 28.76700
C  49.69200 29.27900 30.11900
C  49.02000 28.02600 30.24600
C  50.77800 30.45200 27.95600
C  49.80100 29.97900 31.35900
O  50.31400 31.03500 31.62200
C  49.12400 29.08300 32.32800
C  50.14800 28.76300 33.44600
O  51.01600 27.91100 33.33800
O  49.86000 29.41600 34.58200
C  50.81800 29.39400 35.71600
H  45.71100 22.98900 32.01500
H  47.06900 22.63600 25.84300
H  50.22200 28.19600 26.03800
H  48.11800 26.50500 33.98600
H  45.61600 25.13300 33.71400
H  47.85000 24.68600 35.04100
H  47.91600 23.42600 33.82000
H  46.45800 23.57000 34.87700
H  45.10000 27.42600 33.73700
H  46.24800 28.56800 33.09300
H  45.21800 28.64700 35.37300
H  46.70700 29.29000 35.12300
H  45.36000 19.94400 30.36300
H  43.83500 20.79000 30.04400
H  44.93500 21.23000 31.45200
H  45.44400 18.94100 28.48000
H  44.76800 18.71700 26.80400
H  43.89800 19.73600 27.92700
H  47.81000 24.43800 24.19000
H  50.23500 26.03700 24.62100
H  49.62400 23.28700 23.59200
H  49.30300 22.52300 25.13600
H  50.63300 23.64300 25.15000
H  47.78600 27.57800 24.57800
H  48.01800 26.51800 23.10900
H  49.08900 29.11500 23.60300
H  49.45200 28.12600 22.26300
H  50.51200 27.95300 23.54100
H  50.75600 30.27000 26.88200
H  51.81100 30.66400 28.23200
H  50.26700 31.40000 28.12100
H  48.32900 29.66400 32.79600
H  50.48900 28.77800 36.55200
H  50.85000 30.41700 36.09100
H  51.79600 29.07500 35.35300
Mg 1.51500 41.30200 26.61300
C  3.44500 41.59800 29.59300
C  -0.99500 40.04500 28.56300
C  0.05000 40.56400 23.72100
C  4.51400 42.04500 24.77700
N  1.22400 40.90900 28.84300
C  2.12000 41.23700 29.91000
C  1.41900 41.25100 31.22400
C  0.00100 40.66700 30.89800
C  0.06900 40.44200 29.36900
C  -0.50300 39.42300 31.69500
C  1.36900 42.67700 31.85400
C  0.91900 42.79700 33.34100
H  0.57900 41.46100 34.17000
N  -0.35900 40.56100 26.25700
C  -1.22400 40.01800 27.11600
C  -2.42400 39.58400 26.39700
C  -2.08600 39.77200 25.01200
C  -0.71600 40.28700 24.95300
C  -3.63600 38.96900 27.18700
C  -2.94600 39.36700 23.80600
O  -2.51600 39.46300 22.65700
C  -4.26000 38.76100 23.96500
N  2.14600 41.45300 24.54000
C  1.32700 41.13100 23.49300
C  1.97500 41.52300 22.17100
C  3.38500 42.07600 22.51000
C  3.36700 41.83900 24.00500
C  1.93600 40.47000 20.95700
C  3.68900 43.50900 22.03300
C  4.88200 43.70000 21.17000
N  3.50200 41.81800 27.01600
C  4.57800 42.04800 26.18300
C  5.74600 42.30200 26.91900
C  5.30000 42.06600 28.23100
C  3.94400 41.78100 28.25600
C  7.13900 42.76900 26.41100
C  5.80800 42.02100 29.62600
O  6.97500 42.11400 30.01500
C  4.63000 41.78100 30.51500
C  4.83800 40.59000 31.33800
O  5.15400 39.53800 30.86000
O  4.96200 40.86500 32.67300
C  5.54300 39.76200 33.46600
H  -1.93800 39.83400 29.07100
H  -0.53300 40.56800 22.79800
H  5.41400 42.27500 24.20100
H  1.90900 40.50400 31.84800
H  -0.73700 41.46100 31.00800
H  0.22700 39.21900 32.47800
H  -0.58900 38.53900 31.06300
H  -1.49700 39.75100 31.99800
H  0.67200 43.29800 31.29200
H  2.34300 43.13900 31.68800
H  -0.00200 43.36100 33.48600
H  1.74300 43.29600 33.85000
H  -3.47400 37.96200 27.57200
H  -4.55000 38.88100 26.60000
H  -3.99300 39.52200 28.05600
H  -4.64900 38.65100 22.95300
H  -4.90400 39.44300 24.52200
H  -4.20000 37.76700 24.40800
H  1.25600 42.28800 21.87700
H  4.09200 41.37000 22.07400
H  1.65300 39.55300 21.47500
H  2.87300 40.22400 20.45800
H  1.15600 40.71100 20.23400
H  3.61800 44.16300 22.90300
H  2.83300 43.80100 21.42300
H  4.50500 43.64100 20.14900
H  5.68600 42.97500 21.29500
H  5.35500 44.67700 21.26800
H  7.30900 42.90100 25.34200
H  7.92600 42.10600 26.76800
H  7.41200 43.75100 26.79700
H  4.46300 42.69300 31.08900
H  4.80900 38.95900 33.39700
H  5.82700 40.13500 34.45000
H  6.41300 39.39000 32.92400

