158

Mg 24.86100 -5.45300 46.22000
C  27.28900 -3.53500 44.48400
C  22.57700 -4.30000 43.88500
C  23.01800 -8.14000 46.90100
C  27.43500 -6.62000 48.25500
N  24.87000 -3.95300 44.48400
C  26.02400 -3.36800 43.95100
C  25.59700 -2.53500 42.73600
C  24.06700 -2.39400 42.86600
C  23.84100 -3.58300 43.77400
C  23.60900 -1.03800 43.45000
C  26.16700 -3.14700 41.51500
C  26.51900 -2.03100 40.39900
H  26.06800 -2.34100 38.96100
N  23.01900 -6.04300 45.53600
C  22.19300 -5.46500 44.65900
C  20.99400 -6.24900 44.44600
C  21.01600 -7.25400 45.38600
C  22.38100 -7.20300 46.00700
C  19.90900 -5.90000 43.39600
C  19.94500 -8.35400 45.56200
O  18.83000 -8.23800 45.01900
C  20.12300 -9.50600 46.54400
N  25.12400 -7.08000 47.39900
C  24.25900 -8.14300 47.48300
C  24.58400 -9.06000 48.71700
C  26.09000 -8.73800 48.87400
C  26.17600 -7.35700 48.22700
C  23.83900 -8.59600 49.90400
C  26.98400 -9.74700 48.08500
C  27.70800 -10.80100 48.91300
N  27.03500 -5.06500 46.43800
C  27.89400 -5.64800 47.31200
C  29.24600 -5.10000 47.08900
C  29.04000 -4.26400 46.00200
C  27.71000 -4.36100 45.60500
C  30.45900 -5.22800 47.91200
C  29.77100 -3.30700 45.09500
O  30.96400 -3.13600 45.02400
C  28.64400 -2.84400 44.08900
C  28.53200 -1.38500 44.14000
O  28.37000 -0.77600 45.17700
O  28.71300 -0.75100 42.91700
C  28.66900 0.77300 42.95200
H  21.88800 -3.84800 43.16800
H  22.37700 -8.97200 47.19800
H  28.13200 -7.14200 48.91500
H  26.02500 -1.56300 42.98100
H  23.51100 -2.63600 41.96000
H  24.35600 -0.27000 43.65000
H  23.01400 -1.31600 44.32000
H  22.91400 -0.46500 42.83600
H  25.40100 -3.88600 41.27800
H  27.05300 -3.72100 41.78600
H  27.60300 -2.13200 40.44200
H  26.16000 -1.04900 40.70700
H  19.97900 -4.94500 42.87600
H  18.92100 -5.87600 43.85600
H  20.01900 -6.68400 42.64700
H  19.24600 -10.09800 46.80400
H  20.38800 -8.96300 47.45100
H  20.93300 -10.15300 46.20700
H  24.39900 -10.11300 48.50300
H  26.47000 -8.72000 49.89500
H  22.76900 -8.55400 49.70100
H  24.17100 -7.59300 50.17400
H  23.94200 -9.30200 50.72800
H  27.73400 -9.21500 47.50000
H  26.41800 -10.37800 47.40000
H  27.74400 -10.45300 49.94600
H  28.71800 -10.96500 48.53800
H  27.13900 -11.72900 48.86600
H  30.78100 -4.21600 48.15700
H  31.17800 -5.82400 47.35000
H  30.30400 -5.80800 48.82200
H  28.92300 -3.07500 43.06100
H  27.81600 1.03700 43.57700
H  28.51200 1.06300 41.91300
H  29.55400 1.26300 43.35800
Mg -11.91400 37.73000 42.20400
C  -9.20800 35.42900 41.85300
C  -9.95900 40.14900 40.56000
C  -14.59000 39.77200 41.98200
C  -13.94400 34.94000 42.97300
N  -9.91100 37.68800 41.12200
C  -8.98200 36.68800 41.30500
C  -7.65500 37.18200 40.75400
C  -7.82500 38.70000 40.63200
C  -9.33000 38.91000 40.78200
C  -6.91600 39.48200 41.60000
C  -7.22900 36.55800 39.40000
C  -5.69600 36.39400 39.24500
H  -5.07000 37.21800 38.12800
N  -12.23900 39.74500 41.47100
C  -11.29800 40.57100 40.90500
C  -11.86400 41.88700 40.64300
C  -13.29200 41.78200 40.90900
C  -13.47400 40.39000 41.47000
C  -11.23700 43.02500 39.93800
C  -14.35400 42.84100 40.50800
O  -14.02600 43.98000 40.12700
C  -15.79000 42.63400 40.59100
N  -13.90100 37.40200 42.34400
C  -14.79400 38.45900 42.46400
C  -16.11100 38.01400 43.03200
C  -15.91000 36.47700 43.24700
C  -14.48100 36.21300 42.76700
C  -16.56700 38.67500 44.30700
C  -16.89800 35.52700 42.42800
C  -18.07200 35.01100 43.28800
N  -11.69600 35.56000 42.56400
C  -12.58400 34.60200 42.89100
C  -11.85400 33.40200 43.17200
C  -10.51500 33.61600 42.78600
C  -10.49700 34.94300 42.40100
C  -12.43500 32.08900 43.66800
C  -9.19100 33.13400 42.81000
O  -8.73100 32.13000 43.25500
C  -8.22900 34.25700 42.16100
C  -7.18200 34.57700 43.13600
O  -6.01500 34.71600 42.89400
O  -7.70700 34.74500 44.40300
C  -6.65000 35.22900 45.35700
H  -9.24700 40.90200 40.21500
H  -15.46300 40.42600 42.03900
H  -14.62400 34.16900 43.34100
H  -6.90100 36.84800 41.46600
H  -7.47800 39.08600 39.67300
H  -6.13900 38.83400 42.00700
H  -7.52100 39.88400 42.41300
H  -6.41900 40.35100 41.17000
H  -7.57300 37.08400 38.51000
H  -7.61300 35.54400 39.29200
H  -5.39500 35.34700 39.26100
H  -5.25000 36.82600 40.14100
H  -11.57600 43.93600 40.43100
H  -11.42100 43.03400 38.86400
H  -10.14900 43.05100 39.99300
H  -16.31700 43.50500 40.20300
H  -16.09100 42.51200 41.63100
H  -16.05700 41.72700 40.04900
H  -16.87900 38.24200 42.29400
H  -15.83000 36.18000 44.29300
H  -16.74300 37.87900 45.03000
H  -17.40300 39.33100 44.06400
H  -15.81700 39.30700 44.78100
H  -16.48700 34.66400 41.90300
H  -17.39200 36.15000 41.68200
H  -18.19700 33.93800 43.14300
H  -19.03500 35.39900 42.95600
H  -17.89900 35.20300 44.34700
H  -12.49500 31.29400 42.92400
H  -13.41900 32.25700 44.10400
H  -11.75400 31.73800 44.44400
H  -7.74900 33.89600 41.25100
H  -7.18000 35.42000 46.29000
H  -6.21900 36.18600 45.06200
H  -5.95000 34.50200 45.76800

