158

Mg 40.89500 9.36400 29.91100
C  42.82200 10.61500 32.51700
C  38.52900 8.43400 32.02200
C  39.31000 8.07800 27.14700
C  43.57200 10.36200 27.71700
N  40.72300 9.50500 31.98200
C  41.57400 10.14800 32.90000
C  41.04100 10.00200 34.37300
C  39.66000 9.33600 34.17800
C  39.61200 9.05800 32.65800
C  39.39300 8.03400 35.03200
C  40.98400 11.44200 35.06900
C  40.07700 11.55000 36.30400
H  40.64900 12.49000 37.40500
N  39.16500 8.33000 29.64000
C  38.27300 8.14200 30.60500
C  37.07800 7.54200 30.04100
C  37.26800 7.54600 28.64800
C  38.63000 7.97500 28.44400
C  35.84000 7.21300 30.88900
C  36.36000 7.05600 27.51800
O  36.58500 7.14500 26.34700
C  35.00300 6.57600 27.77400
N  41.43600 8.98000 27.74700
C  40.61900 8.53000 26.85600
C  41.29200 8.40100 25.48400
C  42.50900 9.43300 25.65500
C  42.56300 9.55000 27.14500
C  41.60700 6.96300 25.00900
C  42.23500 10.76100 24.88400
C  41.76200 12.03700 25.71900
N  42.89300 10.25300 30.04900
C  43.80600 10.65000 29.07100
C  44.93500 11.31500 29.67800
C  44.54500 11.34700 31.01600
C  43.28000 10.65200 31.18600
C  46.09700 11.81500 28.91700
C  44.94200 11.95000 32.31900
O  45.78300 12.72300 32.62700
C  43.89800 11.38000 33.30900
C  44.67500 10.51500 34.21700
O  45.63500 9.83600 33.86200
O  44.11200 10.46000 35.41700
C  44.50500 9.48900 36.49000
H  37.66400 8.42500 32.68900
H  38.80200 7.52600 26.35300
H  44.34400 10.78300 27.06900
H  41.69200 9.31900 34.91900
H  38.88100 10.03500 34.48300
H  40.24500 7.81300 35.67600
H  39.47400 7.25300 34.27600
H  38.44900 8.07500 35.57500
H  40.51100 12.00000 34.26100
H  41.98000 11.81300 35.31100
H  39.93600 10.54800 36.70800
H  39.15900 11.98900 35.91300
H  35.88500 7.56700 31.91900
H  35.79500 6.12500 30.94400
H  34.89900 7.60000 30.49800
H  34.46200 7.43100 28.17700
H  35.27900 5.80500 28.49400
H  34.76300 6.14500 26.80200
H  40.42800 8.76800 24.93000
H  43.45300 9.04100 25.27700
H  42.64700 6.99900 24.68400
H  40.93700 6.59700 24.23100
H  41.50800 6.33100 25.89200
H  41.37800 10.52200 24.25500
H  43.14500 11.02400 24.34300
H  41.86200 11.96200 26.80200
H  40.71300 12.16600 25.45200
H  42.39700 12.84700 25.35900
H  46.85100 12.12900 29.63800
H  45.90800 12.67900 28.28000
H  46.60200 11.06800 28.30500
H  43.44200 12.24200 33.79600
H  43.64500 8.90300 36.81400
H  44.86900 10.03400 37.36100
H  45.12900 8.68000 36.11000
Mg 53.72800 24.48900 44.58700
C  51.15500 26.95700 43.96000
C  51.62600 22.20900 43.08400
C  56.26800 22.56900 44.26900
C  55.83600 27.25800 45.37700
N  51.63400 24.63200 43.61400
C  50.76100 25.65400 43.56600
C  49.36400 25.16500 43.19100
C  49.47800 23.61300 43.13800
C  51.03400 23.44900 43.29800
C  48.66400 22.93800 44.24000
C  48.91000 25.82700 41.77900
C  49.90400 25.67600 40.63600
H  49.39700 25.44200 39.24900
N  53.90900 22.58000 43.97000
C  52.96000 21.80200 43.36700
C  53.54300 20.46300 43.09800
C  54.86100 20.50100 43.61900
C  55.05500 21.89200 44.02100
C  52.85700 19.26600 42.35800
C  55.75100 19.31700 43.69900
O  55.30400 18.16100 43.41400
C  57.12300 19.44600 44.33900
N  55.79700 24.94400 44.66900
C  56.63400 23.87700 44.57500
C  58.05700 24.26200 44.68700
C  57.99200 25.69200 45.34000
C  56.48000 25.97400 45.16100
C  58.96600 23.26100 45.49200
C  58.82600 26.78500 44.64500
C  59.43500 27.82100 45.66700
N  53.54800 26.66400 44.72100
C  54.46700 27.59900 45.18000
C  53.78700 28.82900 45.46900
C  52.45500 28.62300 44.99600
C  52.39000 27.33100 44.46700
C  54.33500 30.00400 46.09200
C  51.19900 29.22700 44.93200
O  50.90400 30.37000 45.35500
C  50.26800 28.21200 44.08600
C  49.90600 28.86800 42.79000
O  50.59200 28.75500 41.75900
O  48.75500 29.57800 42.86300
C  48.15200 30.03200 41.63800
H  51.01000 21.36300 42.77300
H  57.16600 22.02400 43.97300
H  56.41700 28.08700 45.78700
H  48.67500 25.60500 43.91200
H  49.16100 23.21400 42.17400
H  49.23700 22.44200 45.02300
H  47.95000 22.21300 43.85000
H  48.09500 23.71200 44.75500
H  48.50300 26.81500 41.99000
H  48.02400 25.26500 41.48300
H  50.58800 24.88400 40.94100
H  50.54200 26.56000 40.62000
H  53.55200 18.61900 41.82200
H  52.06100 19.63700 41.71400
H  52.34300 18.68200 43.12100
H  57.57600 18.46600 44.49100
H  56.98100 20.00600 45.26300
H  57.72700 20.12800 43.74200
H  58.53900 24.22600 43.71000
H  58.05100 25.67500 46.42900
H  58.31700 22.47700 45.87900
H  59.56700 23.77000 46.24600
H  59.60500 22.72500 44.79000
H  58.20400 27.42600 44.02000
H  59.58300 26.36400 43.98200
H  60.51600 27.74100 45.78200
H  59.03900 27.85500 46.68200
H  59.13000 28.79700 45.28900
H  53.49700 30.59700 46.45900
H  54.84000 30.60700 45.33800
H  54.93700 29.74200 46.96200
H  49.41100 27.93000 44.69800
H  47.06900 29.93200 41.70800
H  48.55800 29.43700 40.82000
H  48.25600 31.11200 41.53600

