158

Mg 24.38000 -5.75500 45.50800
C  26.51500 -3.26700 44.30700
C  21.79800 -4.33400 43.87400
C  22.53400 -8.53600 46.10300
C  27.23800 -7.37800 46.87200
N  24.27500 -4.12400 44.06000
C  25.22400 -3.19200 43.75100
C  24.62100 -2.01600 43.02000
C  23.06600 -2.21900 43.23600
C  23.02700 -3.68200 43.70300
C  22.36800 -1.28300 44.30300
C  24.96600 -1.87100 41.50500
C  24.96900 -0.46400 40.93600
H  25.70700 -0.49100 39.53300
N  22.41800 -6.32800 45.08200
C  21.50500 -5.51600 44.43100
C  20.20300 -6.24000 44.49800
C  20.37900 -7.49100 45.11800
C  21.79600 -7.47400 45.52800
C  18.89600 -5.57500 43.93900
C  19.26800 -8.48500 45.24000
O  18.15000 -8.30200 44.80800
C  19.45200 -9.69900 46.15200
N  24.82600 -7.71400 46.27100
C  23.92000 -8.69100 46.38600
C  24.51100 -9.98800 46.94300
C  25.92700 -9.52000 47.42200
C  26.03300 -8.11500 46.75900
C  23.76100 -10.61700 48.13900
C  27.15200 -10.31700 47.01100
C  28.04100 -10.67300 48.21300
N  26.52100 -5.42400 45.64200
C  27.53700 -6.16900 46.29000
C  28.77900 -5.43500 46.21200
C  28.43600 -4.22800 45.45800
C  27.05100 -4.34300 45.09700
C  29.98000 -5.92000 46.79400
C  28.93700 -2.92100 44.89700
O  30.04600 -2.31500 44.94900
C  27.72500 -2.30200 44.03500
C  27.42700 -0.91200 44.59200
O  26.71100 -0.58900 45.50800
O  27.88000 -0.00900 43.67700
C  27.31000 1.36700 43.75000
H  20.89700 -3.83700 43.50900
H  22.01100 -9.40700 46.50300
H  28.02500 -7.89400 47.42600
H  24.88200 -1.13100 43.60000
H  22.41100 -2.14500 42.36800
H  21.48100 -0.87500 43.81600
H  22.92500 -0.46100 44.75200
H  21.98800 -1.78400 45.19300
H  24.19400 -2.34700 40.90000
H  25.89300 -2.37200 41.22600
H  25.54700 0.15000 41.62600
H  23.99300 0.00100 40.79700
H  18.55300 -5.97200 42.98300
H  18.82000 -4.48700 43.92100
H  18.03800 -5.78700 44.57600
H  18.41900 -9.97600 46.36200
H  20.01400 -9.33900 47.01400
H  19.99800 -10.55400 45.75300
H  24.58100 -10.73900 46.15600
H  25.97200 -9.30200 48.48900
H  23.08300 -9.82700 48.46000
H  24.50300 -11.01500 48.83200
H  23.13300 -11.41600 47.74400
H  27.82900 -9.80200 46.32900
H  26.93500 -11.18800 46.39200
H  27.44200 -10.61800 49.12200
H  28.95700 -10.09100 48.10800
H  28.44800 -11.68300 48.16200
H  29.74000 -6.51700 47.67400
H  30.63500 -5.14000 47.18300
H  30.49400 -6.53400 46.05500
H  27.96600 -2.24300 42.97300
H  27.43200 1.94600 42.83400
H  27.72500 1.88400 44.61400
H  26.23200 1.24000 43.85200
Mg 24.91300 1.46700 29.62300
C  27.22500 1.09500 32.29100
C  22.49800 2.00500 32.01300
C  22.80200 1.72600 27.08700
C  27.47900 0.45600 27.41500
N  24.83100 1.57800 31.85600
C  25.91400 1.46800 32.72600
C  25.50000 1.66300 34.25500
C  23.96800 1.73200 34.10300
C  23.69700 1.73900 32.62600
C  23.13200 0.63400 34.88000
C  26.17700 2.94700 34.82100
C  26.86300 2.82000 36.19000
H  26.60400 3.89600 37.29700
N  22.91300 1.80400 29.55700
C  22.03900 1.93100 30.67100
C  20.71800 2.04500 30.08200
C  20.81700 1.93200 28.62800
C  22.23500 1.79900 28.38300
C  19.48800 2.34800 30.95500
C  19.68300 2.08900 27.54800
O  19.86300 1.88500 26.35900
C  18.33500 2.31800 28.09300
N  25.03000 1.01300 27.53300
C  24.06000 1.30600 26.68300
C  24.58200 1.24800 25.18600
C  26.12100 0.97600 25.31600
C  26.22800 0.79100 26.84500
C  23.75700 0.13200 24.38000
C  26.91900 2.19000 24.91900
C  28.38900 1.98300 24.65000
N  26.87500 0.88700 29.72400
C  27.75500 0.47300 28.77900
C  29.04900 0.22300 29.37600
C  28.85800 0.42200 30.77000
C  27.53100 0.84300 30.94600
C  30.30600 -0.21700 28.60000
C  29.57300 0.47000 32.07400
O  30.73400 0.27600 32.36800
C  28.52000 1.00000 33.12700
C  28.52400 0.31300 34.39500
O  27.87400 -0.73100 34.61600
O  29.29100 0.88500 35.31100
C  29.25200 0.19400 36.66600
H  21.63700 2.11600 32.67600
H  22.14000 1.78000 26.22000
H  28.34800 0.16100 26.82400
H  25.81900 0.78400 34.81400
H  23.51200 2.67700 34.39700
H  22.34000 0.19200 34.27600
H  22.60800 1.04900 35.74100
H  23.84800 -0.15800 35.09600
H  25.57500 3.85200 34.89900
H  26.98100 3.09300 34.10000
H  27.94800 2.81100 36.08700
H  26.58700 1.83100 36.55400
H  19.90100 2.54200 31.94500
H  18.87400 1.45200 30.86600
H  18.99300 3.27200 30.65700
H  18.40600 3.27000 28.61800
H  18.16900 1.44400 28.72300
H  17.59200 2.34000 27.29500
H  24.39700 2.23100 24.75400
H  26.52700 0.05200 24.90600
H  23.41200 0.52800 23.42500
H  22.82900 -0.19700 24.84600
H  24.35400 -0.75100 24.15400
H  26.95700 2.99800 25.65000
H  26.44100 2.51800 23.99600
H  28.90900 2.48100 25.46900
H  28.73900 2.48000 23.74500
H  28.53500 0.90800 24.55000
H  31.17600 -0.41700 29.22600
H  30.53500 0.43300 27.75600
H  30.09100 -1.19200 28.16200
H  28.88400 2.00000 33.36500
H  30.20300 -0.26700 36.93400
H  28.48500 -0.54500 36.89900
H  29.00400 0.83800 37.51000

