158

Mg 41.02800 8.09600 29.08200
C  42.64200 9.06900 32.01600
C  38.66600 6.68400 31.01000
C  39.50500 6.85400 26.21600
C  43.66900 9.30400 27.16100
N  40.69000 8.10200 31.28600
C  41.45500 8.45900 32.30400
C  40.69500 8.31700 33.67500
C  39.41600 7.53700 33.31500
C  39.60700 7.45200 31.77300
C  39.28300 6.08900 33.93300
C  40.32700 9.75300 34.21900
C  39.30400 9.93700 35.29300
H  39.75000 10.93700 36.40000
N  39.27100 6.95900 28.70500
C  38.43100 6.41400 29.67200
C  37.44200 5.67900 29.02900
C  37.57800 5.87800 27.65900
C  38.82700 6.59100 27.48700
C  36.36100 5.05800 29.79100
C  36.53500 5.59300 26.55400
O  36.74900 5.92000 25.38900
C  35.15900 4.95300 26.88700
N  41.45900 8.15800 26.89500
C  40.78400 7.52000 25.98300
C  41.50300 7.61300 24.64500
C  42.78000 8.52500 24.94400
C  42.66100 8.70000 26.44400
C  41.93400 6.20300 24.02400
C  43.01000 9.78200 24.02600
C  42.93900 11.15000 24.63200
N  42.85500 8.99300 29.42000
C  43.81500 9.44800 28.52300
C  44.94700 10.01200 29.29900
C  44.44200 9.98600 30.64900
C  43.25600 9.28400 30.67200
C  46.17500 10.75200 28.79100
C  44.79700 10.37800 32.04300
O  45.80700 10.89300 32.47600
C  43.57500 9.85500 32.96100
C  44.19000 9.06700 34.01900
O  44.95300 8.11200 33.80500
O  43.55200 9.31200 35.17700
C  43.84100 8.36800 36.30400
H  37.97400 6.14600 31.66100
H  39.14800 6.45600 25.26400
H  44.39000 9.70400 26.44500
H  41.22600 7.84700 34.50300
H  38.49100 8.08200 33.50400
H  39.54500 5.27800 33.25300
H  38.24000 5.94600 34.21400
H  39.80900 6.10300 34.88700
H  40.12600 10.41200 33.37400
H  41.26000 10.10600 34.65900
H  38.78400 9.09200 35.74400
H  38.49800 10.50500 34.82700
H  36.54700 5.09200 30.86400
H  36.27600 3.99600 29.56000
H  35.43700 5.61400 29.63200
H  35.13200 4.05300 27.50100
H  34.73700 4.56600 25.96000
H  34.49900 5.78100 27.14500
H  40.91400 8.03400 23.83100
H  43.63200 7.84500 24.92300
H  41.39800 6.05200 23.08700
H  41.74000 5.43300 24.77000
H  42.99300 6.05000 23.81500
H  42.27600 9.63300 23.23400
H  44.01700 9.73400 23.61100
H  42.53500 10.99400 25.63200
H  42.25700 11.78500 24.06700
H  43.88600 11.68900 24.61200
H  45.92900 11.45600 27.99600
H  46.79800 10.05600 28.23000
H  46.72900 11.25200 29.58600
H  43.08700 10.74800 33.35100
H  44.89600 8.43900 36.56900
H  43.59500 7.31900 36.14200
H  43.21000 8.76500 37.09900
Mg 26.53900 49.95500 26.67300
C  24.51400 51.28100 29.27000
C  28.89800 49.05100 29.02600
C  28.42500 48.82600 24.16500
C  24.19000 51.03000 24.45800
N  26.65700 50.09200 28.91200
C  25.77100 50.69500 29.75600
C  26.12300 50.42900 31.23600
C  27.64500 49.86500 31.08100
C  27.76500 49.62900 29.57200
C  28.80100 50.74600 31.71600
C  25.21000 49.31100 31.76000
C  24.69900 49.36500 33.23000
H  25.44600 49.97100 34.47900
N  28.53900 49.21300 26.59500
C  29.26900 48.81900 27.64500
C  30.41100 48.11100 27.21500
C  30.36100 48.13700 25.78400
C  29.05800 48.70000 25.41700
C  31.49500 47.63400 28.06100
C  31.44200 47.70600 24.78700
O  31.16600 47.85000 23.58700
C  32.82500 47.15000 25.34700
N  26.29500 49.85300 24.60400
C  27.21900 49.29300 23.79200
C  26.74100 49.32100 22.30700
C  25.40500 50.09100 22.49200
C  25.24500 50.30000 23.97800
C  27.76800 50.00400 21.24500
C  24.18700 49.43000 21.80000
C  23.67000 48.14200 22.47700
N  24.69400 50.89800 26.86500
C  23.89200 51.34300 25.82800
C  22.77700 51.97800 26.30400
C  22.91300 51.99300 27.72200
C  24.12200 51.32400 27.92800
C  21.61000 52.51800 25.46000
C  22.29000 52.35600 28.96500
O  21.21800 52.81600 29.20900
C  23.36000 51.93300 30.03500
C  23.77900 53.09100 30.99000
O  24.89100 53.62900 30.93100
O  22.83500 53.30600 31.96400
C  23.28700 54.15600 33.08400
H  29.70600 48.76100 29.70200
H  28.93100 48.41800 23.28700
H  23.46200 51.34300 23.70700
H  26.11100 51.32200 31.86100
H  27.78000 48.94500 31.65000
H  29.47800 51.12200 30.94900
H  29.34900 49.97800 32.26100
H  28.40600 51.58800 32.28400
H  25.51200 48.27600 31.60400
H  24.29800 49.38500 31.16900
H  24.59700 48.33300 33.56800
H  23.71100 49.81700 33.15400
H  31.25800 47.89300 29.09300
H  32.42400 48.13600 27.79300
H  31.51300 46.54700 28.13600
H  33.27200 48.06300 25.73900
H  33.52900 46.73700 24.62500
H  32.77700 46.33500 26.06900
H  26.49400 48.31100 21.98200
H  25.44900 51.07700 22.03000
H  28.76600 50.05700 21.68000
H  27.33900 50.92200 20.84300
H  27.83700 49.23500 20.47500
H  24.49600 49.17000 20.78800
H  23.34100 50.10900 21.69100
H  24.11900 47.95100 23.45200
H  23.80500 47.27400 21.83200
H  22.59600 48.21100 22.65200
H  21.48500 52.21300 24.42100
H  21.78400 53.59400 25.44800
H  20.66600 52.28300 25.95000
H  22.90600 51.16000 30.65500
H  23.93600 53.58900 33.75100
H  22.52900 54.47700 33.79800
H  23.76300 55.06200 32.70900

