158

Mg 36.22100 49.17500 26.05100
C  36.12700 47.17400 28.79600
C  35.12600 51.82200 27.92100
C  35.79400 51.13200 23.11100
C  36.90100 46.48400 23.95700
N  35.53700 49.46100 28.09100
C  35.70000 48.47400 29.00100
C  35.56400 49.08300 30.45500
C  35.03100 50.52600 30.17000
C  35.28200 50.63800 28.60500
C  33.61700 50.84800 30.62600
C  36.94500 48.96600 31.13500
C  36.94000 48.15200 32.50500
H  35.84800 48.56500 33.50800
N  35.58400 51.24800 25.59300
C  35.16100 52.13900 26.55800
C  34.83000 53.39100 25.91400
C  35.06100 53.20600 24.49100
C  35.51800 51.84700 24.35900
C  34.43600 54.66500 26.71100
C  34.93700 54.18300 23.33700
O  35.37900 53.95400 22.17500
C  34.29600 55.54300 23.52500
N  36.32300 48.85100 23.89700
C  36.12200 49.82300 22.91000
C  36.08000 49.20300 21.48800
C  36.45600 47.69900 21.80600
C  36.62700 47.65100 23.30800
C  34.79900 49.48400 20.67300
C  37.83500 47.30500 21.11300
C  39.20900 47.79000 21.82900
N  36.48300 47.19200 26.29200
C  36.81600 46.21300 25.37300
C  36.97600 44.95500 26.09200
C  36.78400 45.33800 27.46600
C  36.44000 46.62100 27.53300
C  37.28700 43.61700 25.48700
C  36.74700 44.81300 28.75200
O  36.95000 43.68700 29.18800
C  36.37000 46.00700 29.72900
C  35.16800 45.57900 30.47200
O  34.02400 45.67700 30.14200
O  35.54300 45.17600 31.73200
C  34.47900 44.85400 32.72400
H  34.79400 52.61500 28.59400
H  35.64100 51.64900 22.16200
H  37.17500 45.59000 23.39200
H  34.84000 48.47500 30.99600
H  35.74500 51.29200 30.47100
H  32.76800 50.83700 29.94300
H  33.68600 51.85900 31.02700
H  33.34700 50.22500 31.47900
H  37.31700 49.95500 31.40500
H  37.76900 48.52800 30.57200
H  37.84700 48.47300 33.01700
H  37.02400 47.07300 32.37700
H  33.40100 54.53800 27.02700
H  34.56200 55.62800 26.21600
H  35.19600 54.56000 27.48400
H  34.23600 55.89800 22.49700
H  34.95500 56.25300 24.02500
H  33.32700 55.57500 24.02200
H  37.02100 49.62300 21.13100
H  35.69900 47.01300 21.42800
H  33.86200 49.41400 21.22500
H  34.77300 48.61200 20.02000
H  34.90600 50.41300 20.11200
H  37.83300 47.67000 20.08600
H  37.86400 46.21700 21.04300
H  39.85600 48.27100 21.09500
H  39.73100 46.94200 22.27300
H  38.97800 48.51500 22.61000
H  38.37100 43.50800 25.47100
H  37.09300 43.71300 24.41900
H  36.74500 42.74900 25.86400
H  37.24400 46.22600 30.34200
H  34.42100 43.77000 32.82200
H  33.52400 45.27100 32.40600
H  34.64500 45.29500 33.70700
Mg 10.03900 49.16500 26.11800
C  8.03400 49.04600 28.91100
C  12.52600 50.74400 27.93000
C  11.92500 49.36800 23.24000
C  7.46000 47.86800 24.23900
N  10.18400 49.85500 28.22500
C  9.28300 49.61500 29.16800
C  9.93800 50.10300 30.56100
C  11.32200 50.77700 30.21900
C  11.40800 50.42300 28.71400
C  11.13400 52.38900 30.59600
C  10.13400 48.85000 31.53300
C  9.21800 48.89900 32.83200
H  9.89000 49.72200 34.01900
N  11.93900 49.76600 25.73600
C  12.86000 50.25600 26.62900
C  14.14500 50.32100 25.98700
C  13.97100 50.00200 24.56000
C  12.53300 49.63300 24.43700
C  15.41700 50.68400 26.75900
C  15.01300 49.89400 23.49000
O  14.72600 49.63800 22.31800
C  16.46100 50.28800 23.73200
N  9.70000 48.64500 24.00900
C  10.59900 48.91000 23.03000
C  10.12300 48.35100 21.71300
C  8.70700 47.71500 22.08800
C  8.64600 48.01100 23.56700
C  10.12800 49.46600 20.70800
C  8.61900 46.14200 21.80800
C  9.46400 45.15900 22.64300
N  8.06800 48.81400 26.46000
C  7.15600 48.22500 25.59300
C  5.89000 48.21300 26.28600
C  6.17100 48.37000 27.61500
C  7.57100 48.71900 27.62800
C  4.56700 47.87100 25.63200
C  5.68000 48.44400 29.00400
O  4.57100 48.24600 29.50900
C  6.91800 48.61400 29.87800
C  7.04700 47.36300 30.56900
O  7.79500 46.50600 30.17500
O  6.31800 47.30000 31.78600
C  6.50700 46.22900 32.78600
H  13.27900 51.21400 28.56600
H  12.53500 49.37900 22.33400
H  6.65000 47.45000 23.63800
H  9.18300 50.74400 31.01600
H  12.23600 50.40000 30.67700
H  12.01600 52.76900 31.11200
H  10.19400 52.56300 31.11900
H  11.14300 52.90700 29.63700
H  11.11200 48.67800 31.98300
H  10.10600 47.84800 31.10600
H  9.01000 47.85000 33.04300
H  8.28600 49.45100 32.71500
H  15.37300 50.52800 27.83700
H  15.66200 51.72400 26.54400
H  16.15300 50.00400 26.33100
H  16.82400 49.58300 24.48000
H  16.48100 51.16500 24.37900
H  17.11600 50.29400 22.86100
H  10.73400 47.48000 21.47200
H  7.90300 48.25900 21.59100
H  10.19200 50.48200 21.09800
H  9.17700 49.38500 20.18100
H  10.97700 49.34100 20.03500
H  8.78100 45.97200 20.74400
H  7.56500 45.86800 21.86700
H  10.15600 45.56500 23.38200
H  9.98000 44.56900 21.88600
H  8.76100 44.59000 23.25100
H  3.81400 47.92100 26.41900
H  4.59000 46.89500 25.14800
H  4.35800 48.63200 24.88000
H  6.74200 49.36000 30.65300
H  6.77600 46.57200 33.78500
H  7.37000 45.62200 32.51300
H  5.62600 45.59200 32.85800

