158

Mg 25.85800 0.83600 29.15700
C  27.92500 0.01100 31.85900
C  23.36600 1.20600 31.46000
C  23.84600 1.67000 26.63900
C  28.41300 0.13700 26.91300
N  25.67500 0.63600 31.54800
C  26.69000 0.43300 32.39300
C  26.13300 0.53200 33.81200
C  24.63300 0.94000 33.69700
C  24.50900 0.85500 32.18900
C  23.67000 0.09200 34.47000
C  26.99800 1.49300 34.67600
C  26.41000 2.39000 35.80700
H  27.18600 2.41600 37.11300
N  23.86500 1.28800 29.04300
C  23.00300 1.38600 30.10100
C  21.71500 1.72100 29.54800
C  21.77900 1.96700 28.11800
C  23.20200 1.64500 27.87800
C  20.45600 1.73500 30.46200
C  20.66800 2.32300 27.06800
O  20.87300 2.21300 25.88300
C  19.27900 2.78400 27.45600
N  26.15000 1.08200 26.98200
C  25.10900 1.35800 26.20600
C  25.54000 1.31500 24.71500
C  27.00500 0.85900 24.85900
C  27.20900 0.65900 26.32500
C  24.63300 0.53800 23.76300
C  28.06700 1.80800 24.23300
C  28.14000 3.19200 24.86100
N  27.74400 0.19700 29.30500
C  28.61900 -0.10400 28.29300
C  29.85300 -0.43800 28.95200
C  29.67700 -0.44700 30.29700
C  28.30300 -0.02300 30.49700
C  31.15400 -0.85600 28.20900
C  30.27300 -0.62300 31.62500
O  31.40500 -0.72600 31.97300
C  29.13900 -0.38900 32.62600
C  28.92000 -1.63100 33.35000
O  28.45400 -2.62300 32.88700
O  29.14400 -1.36400 34.71900
C  28.55500 -2.37400 35.61500
H  22.51100 1.41400 32.10800
H  23.12400 1.94900 25.86900
H  29.23900 -0.05300 26.22500
H  26.21900 -0.45300 34.26900
H  24.42700 1.99200 33.89800
H  23.52800 -0.82300 33.89500
H  22.71800 0.53000 34.77000
H  24.13300 -0.21200 35.40900
H  27.31000 2.31400 34.03100
H  27.71800 0.94000 35.27900
H  25.38200 2.06300 35.96500
H  26.33300 3.42500 35.47200
H  20.60900 1.18600 31.39100
H  19.64000 1.22600 29.95000
H  20.17500 2.76800 30.67000
H  19.32900 3.24800 28.44100
H  18.64700 1.90000 27.54100
H  18.97800 3.50800 26.69900
H  25.65600 2.36900 24.46500
H  27.06000 -0.14300 24.43400
H  25.01700 -0.43400 23.45500
H  24.61800 1.16400 22.87100
H  23.68700 0.20000 24.18500
H  27.75000 1.86900 23.19200
H  28.99600 1.27500 24.03500
H  27.51700 3.76500 24.17500
H  29.16200 3.56900 24.89500
H  27.71600 3.28800 25.86100
H  31.42900 -0.12500 27.44900
H  30.93500 -1.78800 27.68700
H  31.89600 -1.15700 28.94900
H  29.40400 0.45500 33.26200
H  29.21000 -2.68200 36.43000
H  28.39800 -3.33600 35.12600
H  27.55000 -2.03900 35.86900
Mg 41.86700 7.92200 29.48300
C  43.74600 9.46400 31.86600
C  39.61800 6.76100 31.83600
C  40.42800 6.12500 27.05600
C  44.46300 8.87000 27.12100
N  41.63700 8.27500 31.51500
C  42.50800 8.90300 32.29700
C  42.08300 8.91000 33.79300
C  40.95800 7.87800 33.82300
C  40.64800 7.61000 32.31400
C  40.98900 6.62400 34.76200
C  41.71400 10.39600 34.33100
C  41.00600 10.37800 35.67400
H  41.24400 11.46200 36.78300
N  40.14600 6.80000 29.35900
C  39.39400 6.44600 30.48500
C  38.30400 5.65900 30.01200
C  38.43200 5.51600 28.60900
C  39.73800 6.06800 28.27600
C  37.20900 5.06200 30.95600
C  37.50500 4.85100 27.54300
O  37.83700 4.76100 26.40400
C  36.16700 4.43100 27.91600
N  42.46000 7.50200 27.42400
C  41.55900 6.83000 26.60300
C  41.91000 6.89100 25.13200
C  43.04200 7.95100 25.14200
C  43.36500 8.16600 26.65400
C  42.20900 5.56900 24.31500
C  42.74700 9.23100 24.38000
C  41.78400 10.24500 25.05400
N  43.69400 8.90600 29.45700
C  44.63100 9.13800 28.45900
C  45.76800 9.84900 29.00600
C  45.45500 10.01800 30.35400
C  44.23300 9.38900 30.56700
C  46.88900 10.45000 28.23600
C  45.94700 10.59000 31.60700
O  47.03100 11.11900 31.94200
C  44.75100 10.29800 32.67100
C  45.34900 9.69700 33.85900
O  45.98100 8.63300 33.87500
O  44.99500 10.46200 34.87100
C  45.61600 10.24000 36.13800
H  38.86300 6.43800 32.55500
H  40.03800 5.43300 26.30700
H  45.04000 9.37500 26.34300
H  42.84000 8.43100 34.41400
H  40.02800 8.33500 34.16000
H  40.85800 5.69500 34.20700
H  40.05800 6.68000 35.32600
H  41.84200 6.48300 35.42600
H  41.10200 10.75300 33.50200
H  42.60500 11.00500 34.48300
H  41.07500 9.40300 36.15600
H  39.93100 10.46600 35.51800
H  36.19400 5.38200 30.72200
H  37.38600 5.47200 31.95000
H  37.35100 3.98400 31.03900
H  35.67700 4.01400 27.03600
H  35.52600 5.27300 28.17800
H  36.24300 3.83300 28.82300
H  40.99600 7.27700 24.68100
H  43.84300 7.40200 24.64800
H  43.08500 5.57500 23.66700
H  41.32400 5.45900 23.68900
H  42.34500 4.79000 25.06500
H  42.27200 8.95300 23.44000
H  43.61100 9.84500 24.12500
H  41.05300 10.57200 24.31400
H  42.38300 11.11600 25.32100
H  41.11900 9.76200 25.77000
H  47.37100 9.58800 27.77500
H  47.52100 10.86700 29.02000
H  46.43700 11.12700 27.51100
H  44.17500 11.13800 33.05700
H  44.92400 9.62200 36.70900
H  45.96900 11.19000 36.54000
H  46.53800 9.67100 36.01600

