158

Mg 30.04400 58.90700 40.76400
C  27.34100 56.90200 39.67200
C  32.12100 56.36500 39.66600
C  32.81400 60.92100 40.75200
C  27.94400 61.54500 41.16100
N  29.71400 56.92900 39.75000
C  28.56400 56.32400 39.38500
C  28.79700 55.17000 38.42000
C  30.23600 54.78300 38.80200
C  30.73900 56.10600 39.47900
C  30.26000 53.56300 39.70500
C  28.56100 55.54100 36.92500
C  27.36800 55.08100 36.17100
H  26.62000 56.05200 35.30700
N  32.20100 58.56000 40.42500
C  32.83100 57.49200 39.97700
C  34.31200 57.62000 39.90000
C  34.53000 58.97500 40.28800
C  33.12600 59.57100 40.44200
C  35.30700 56.61200 39.26900
C  35.85100 59.74200 40.54600
O  36.90300 59.10600 40.51800
C  35.94400 61.12300 41.17600
N  30.33800 60.94700 40.90700
C  31.55100 61.52900 41.04500
C  31.43700 63.03700 41.34100
C  29.93000 63.18600 41.46300
C  29.33000 61.83700 41.17000
C  32.31500 63.58500 42.44800
C  29.24400 64.31700 40.55900
C  30.00900 65.60000 40.33000
N  28.06300 59.17200 40.71400
C  27.31400 60.29500 40.95100
C  25.86900 59.88800 40.91800
C  25.88000 58.57100 40.41400
C  27.20100 58.20300 40.24500
C  24.69300 60.82600 41.15100
C  25.02200 57.59100 39.93900
O  23.77900 57.63500 39.96700
C  25.93800 56.37700 39.45600
C  25.53300 55.21300 40.21000
O  25.96400 54.92800 41.28500
O  24.55700 54.52300 39.50200
C  24.06100 53.31600 40.17100
H  32.78700 55.57400 39.31600
H  33.60900 61.66900 40.78600
H  27.28400 62.38700 41.37900
H  28.24300 54.28700 38.74200
H  30.92500 54.61000 37.97500
H  29.27600 53.28700 40.08200
H  30.91700 53.74200 40.55600
H  30.54100 52.70000 39.10100
H  29.48300 55.25800 36.41600
H  28.62300 56.62500 36.83400
H  26.71700 54.56400 36.87600
H  27.71100 54.37500 35.41500
H  36.25100 56.99000 38.87700
H  34.88100 56.21100 38.35000
H  35.41100 55.71000 39.87100
H  35.28700 61.15000 42.04500
H  35.50800 61.83100 40.47100
H  37.00000 61.23600 41.42300
H  31.64300 63.50600 40.37900
H  29.63000 63.43300 42.48200
H  32.96700 62.81000 42.85100
H  31.76800 63.99900 43.29600
H  32.88000 64.41000 42.01400
H  28.21000 64.47400 40.86600
H  29.04500 63.85500 39.59200
H  29.26200 66.38600 40.44200
H  30.44100 65.70300 39.33400
H  30.70900 65.72200 41.15700
H  24.51200 61.24400 40.16100
H  25.09800 61.47400 41.92900
H  23.87800 60.22600 41.55700
H  25.61700 56.17400 38.43400
H  24.06400 53.21500 41.25600
H  24.63100 52.42200 39.91500
H  23.05600 53.13300 39.79100
Mg -9.78900 39.07800 41.69400
C  -9.05900 35.67800 41.28600
C  -6.76900 39.91200 40.88000
C  -10.89200 42.32900 41.57900
C  -13.15500 38.10800 42.10300
N  -8.22100 37.94200 40.85700
C  -8.05500 36.61400 40.83900
C  -6.70800 36.23200 40.20200
C  -5.90900 37.55900 40.49700
C  -7.02100 38.55100 40.82600
C  -4.79900 37.49800 41.59100
C  -6.74400 35.55900 38.81200
C  -5.35100 34.94200 38.43100
H  -4.54500 35.51500 37.25000
N  -8.93200 40.87200 41.28900
C  -7.71600 41.03100 40.97400
C  -7.33200 42.41500 40.95800
C  -8.51000 43.19000 41.22000
C  -9.54700 42.17000 41.38100
C  -6.00400 42.95500 40.61900
C  -8.64300 44.74100 41.16600
O  -7.70700 45.42500 40.84800
C  -9.90800 45.51400 41.49300
N  -11.73700 40.09400 41.66300
C  -11.84200 41.40700 41.89500
C  -13.27300 41.88100 42.20600
C  -14.03600 40.52500 42.25100
C  -12.92800 39.50700 41.90300
C  -13.58200 42.84400 43.43200
C  -15.27500 40.33100 41.35100
C  -16.60700 39.97800 42.09400
N  -10.92000 37.24300 41.87900
C  -12.24000 37.01100 42.13000
C  -12.42700 35.54700 42.34500
C  -11.19000 34.99100 42.11300
C  -10.30700 36.05400 41.71800
C  -13.73600 34.86000 42.73300
C  -10.40800 33.79800 42.07200
O  -10.67800 32.70200 42.47800
C  -9.02400 34.24200 41.47100
C  -7.87300 33.90500 42.31800
O  -7.47200 34.54500 43.27400
O  -7.14700 32.87500 41.69000
C  -5.73500 32.77500 42.07700
H  -5.80100 40.38000 40.68800
H  -11.22300 43.35600 41.41200
H  -14.17100 37.79300 42.35200
H  -6.34600 35.41000 40.82000
H  -5.50100 37.81800 39.52000
H  -4.93100 38.18100 42.43000
H  -3.85000 37.75500 41.11900
H  -4.70200 36.50800 42.03600
H  -7.01400 36.28200 38.04200
H  -7.48900 34.76400 38.80500
H  -5.65700 33.91200 38.24500
H  -4.66800 34.73800 39.25600
H  -5.29000 42.29400 40.12800
H  -5.54800 43.38000 41.51300
H  -6.16400 43.74100 39.88100
H  -10.32600 45.10900 42.41400
H  -10.52900 45.28900 40.62600
H  -9.84200 46.59200 41.63800
H  -13.59100 42.42400 41.31600
H  -14.28000 40.32000 43.29400
H  -14.21900 43.64600 43.05900
H  -12.63900 43.28400 43.75900
H  -14.02600 42.46100 44.35100
H  -15.11100 39.47900 40.69100
H  -15.35900 41.31700 40.89200
H  -17.10000 40.94500 42.19500
H  -16.46900 39.61900 43.11400
H  -17.22600 39.27700 41.53400
H  -14.38800 35.45300 43.37400
H  -13.55900 34.00400 43.38300
H  -14.32000 34.48700 41.89200
H  -8.88000 33.76600 40.50100
H  -5.06800 32.26900 41.37900
H  -5.70900 32.12500 42.95200
H  -5.31400 33.73500 42.37700

