158

Mg 41.08300 9.02700 28.92200
C  42.74600 10.34500 31.75600
C  38.95000 7.31200 31.04500
C  39.32100 8.01900 26.34600
C  43.64500 10.34600 26.95600
N  40.91100 8.71400 31.21400
C  41.62100 9.50200 32.14500
C  41.02100 9.27600 33.54600
C  39.80100 8.30700 33.24000
C  39.89500 8.08200 31.77300
C  39.80000 6.90900 34.01300
C  40.56500 10.66700 34.22400
C  40.16100 10.62500 35.71700
H  41.12500 11.19400 36.72800
N  39.42800 7.79800 28.67800
C  38.69700 7.18200 29.67000
C  37.54400 6.51400 29.16600
C  37.57100 6.75900 27.77800
C  38.77500 7.51400 27.55800
C  36.63600 5.61300 30.08300
C  36.55400 6.33000 26.72700
O  36.79200 6.63400 25.54500
C  35.32200 5.59800 27.09100
N  41.57300 9.00700 26.92900
C  40.61800 8.60200 26.02300
C  41.10500 8.90100 24.58200
C  42.41700 9.77000 24.76700
C  42.57000 9.68800 26.28500
C  41.24800 7.77900 23.54300
C  42.47100 11.17300 24.15900
C  41.84100 12.36300 24.86200
N  42.84700 10.13700 29.19100
C  43.76800 10.56900 28.33800
C  44.75500 11.39900 29.06800
C  44.35700 11.39000 30.40100
C  43.26300 10.55100 30.45600
C  45.96100 12.16100 28.48000
C  44.67800 11.84800 31.69800
O  45.59200 12.50100 32.16100
C  43.56500 11.36600 32.64100
C  44.19200 10.62500 33.84200
O  44.31000 9.39800 34.03900
O  44.75300 11.54900 34.66800
C  45.43000 10.95200 35.88500
H  38.16900 6.92900 31.70400
H  38.66000 7.91300 25.48400
H  44.41800 10.83800 26.36300
H  41.83200 8.87200 34.15300
H  38.88500 8.84100 33.49300
H  39.19500 7.03700 34.91000
H  40.77500 6.56500 34.36100
H  39.42100 6.14200 33.33800
H  39.72400 11.09600 33.67900
H  41.46800 11.27600 34.25600
H  39.89900 9.62100 36.04900
H  39.27300 11.25700 35.73500
H  36.29400 6.37200 30.78700
H  37.44900 5.02000 30.50100
H  35.87500 4.95700 29.65800
H  35.60700 4.60600 27.44100
H  34.72500 5.58500 26.17900
H  34.61800 6.17000 27.69600
H  40.47100 9.68100 24.16100
H  43.32700 9.26600 24.43900
H  42.29900 7.51900 23.41500
H  40.75900 8.15200 22.64300
H  40.57600 6.98500 23.86900
H  42.11200 11.02700 23.14000
H  43.51700 11.36300 23.91400
H  41.45900 12.10300 25.84900
H  41.00700 12.74400 24.27300
H  42.64300 13.09000 24.98700
H  45.66500 12.80300 27.65000
H  46.69300 11.47800 28.04800
H  46.49000 12.77100 29.21200
H  42.96000 12.22000 32.94400
H  44.64500 10.53800 36.51800
H  45.96600 11.75500 36.39200
H  46.16100 10.18400 35.63200
Mg 9.43100 48.77700 26.06900
C  7.32500 48.68100 28.84800
C  11.81000 50.14600 27.95200
C  11.09300 49.04600 23.32000
C  6.41600 48.10500 24.13600
N  9.35900 49.52800 28.12300
C  8.54200 49.22600 29.13800
C  9.03800 49.67300 30.50700
C  10.36100 50.31800 30.13700
C  10.60600 49.94600 28.63300
C  10.44900 51.84700 30.40200
C  9.22900 48.61800 31.66100
C  8.25500 48.86500 32.78200
H  8.80100 49.65100 33.96800
N  11.27100 49.36500 25.74900
C  12.18600 49.83700 26.62500
C  13.47900 49.76900 25.94800
C  13.27800 49.48200 24.55400
C  11.84700 49.30100 24.50400
C  14.73500 50.00200 26.75000
C  14.23000 49.38700 23.37200
O  13.87500 49.36100 22.17800
C  15.76300 49.56500 23.58400
N  8.81200 48.79100 24.04800
C  9.71300 48.90100 23.05000
C  9.20900 48.60100 21.63500
C  7.71100 48.17400 22.02900
C  7.61500 48.40700 23.50800
C  9.28300 49.73100 20.55800
C  7.29400 46.70000 21.57100
C  7.43100 45.55600 22.52400
N  7.28600 48.45400 26.39500
C  6.20300 48.17500 25.56600
C  5.03900 47.92800 26.29400
C  5.47300 48.06100 27.63800
C  6.81900 48.44000 27.60900
C  3.66200 47.53600 25.71600
C  4.94600 48.14600 28.99200
O  3.81100 47.94300 29.39900
C  6.20400 48.44800 29.86200
C  6.38200 47.15400 30.58500
O  7.07000 46.22500 30.17600
O  5.73800 47.08500 31.83500
C  6.04400 45.83300 32.59200
H  12.60200 50.57100 28.57200
H  11.62600 48.88800 22.38000
H  5.60400 47.71900 23.51600
H  8.32000 50.43900 30.80000
H  11.17400 49.94300 30.75800
H  9.65500 52.12100 31.09700
H  10.27100 52.37700 29.46600
H  11.44100 52.15700 30.72900
H  10.21500 48.55900 32.12200
H  8.99700 47.65300 31.20900
H  7.84600 47.91300 33.12200
H  7.38600 49.30700 32.29600
H  14.54500 49.80800 27.80600
H  15.01000 51.01900 26.47000
H  15.67200 49.48400 26.54300
H  15.86800 48.83700 24.38800
H  16.02200 50.58700 23.86300
H  16.33700 49.30900 22.69400
H  9.63500 47.71200 21.17000
H  6.98400 48.82800 21.55000
H  9.65300 50.68200 20.94100
H  8.27700 49.93500 20.19300
H  9.94500 49.41300 19.75200
H  7.63800 46.44000 20.56900
H  6.23100 46.79500 21.35300
H  8.18000 45.67500 23.30600
H  7.57900 44.66100 21.91900
H  6.45200 45.30800 22.93500
H  3.68900 47.19800 24.68000
H  3.04300 48.43300 25.69400
H  3.18400 46.85700 26.42200
H  6.00500 49.15600 30.66600
H  5.41500 45.06900 32.13600
H  5.69600 45.95300 33.61800
H  7.08000 45.50600 32.68400

