158

Mg 40.67600 8.69200 29.30700
C  42.38300 9.88700 32.06800
C  38.63200 6.93500 31.44300
C  38.97800 7.38200 26.59600
C  43.01600 10.12900 27.14900
N  40.54700 8.40300 31.55200
C  41.27800 9.07600 32.44200
C  40.70800 9.01200 33.87900
C  39.63500 7.88800 33.67800
C  39.53400 7.73700 32.12400
C  39.79600 6.67300 34.56200
C  40.36800 10.31500 34.62200
C  39.25600 10.29600 35.66300
H  39.46500 11.22600 36.82000
N  39.11900 7.32700 29.02800
C  38.41300 6.69700 30.07300
C  37.41100 5.83400 29.49600
C  37.48100 5.94400 28.08900
C  38.62300 6.84000 27.80700
C  36.52500 4.94700 30.28900
C  36.58200 5.33100 27.05100
O  36.75100 5.55100 25.87300
C  35.45300 4.47900 27.33700
N  40.99900 8.61300 27.16100
C  40.05500 8.20600 26.24200
C  40.35000 8.66900 24.87900
C  41.65900 9.55100 25.07100
C  41.89700 9.51800 26.63400
C  40.51000 7.54600 23.77800
C  41.56200 10.90400 24.36400
C  40.39100 11.82000 24.82100
N  42.34900 9.72500 29.52500
C  43.21000 10.25900 28.57200
C  44.29900 10.97900 29.28900
C  43.91300 10.91000 30.64700
C  42.75300 10.10300 30.73200
C  45.32500 11.73000 28.49500
C  44.29500 11.38400 31.93400
O  45.18600 12.13400 32.28300
C  43.28400 10.77600 32.92000
C  44.08200 10.10700 34.10700
O  44.66400 9.00400 34.09000
O  44.12700 11.02600 35.20400
C  44.55900 10.41700 36.54300
H  37.93100 6.49400 32.15600
H  38.39900 7.01000 25.74900
H  43.60400 10.73300 26.45400
H  41.62900 8.69500 34.36700
H  38.62200 8.23400 33.88500
H  40.58200 6.81800 35.30300
H  40.06900 5.77400 34.01000
H  38.84000 6.58700 35.08000
H  40.02700 11.08000 33.92400
H  41.25000 10.74800 35.09400
H  39.10700 9.30800 36.09800
H  38.40800 10.64900 35.07600
H  35.53800 5.40700 30.26900
H  36.83300 4.92900 31.33400
H  36.39400 3.93400 29.90800
H  34.71800 4.87800 28.03600
H  35.73500 3.48400 27.68100
H  34.98400 4.20300 26.39200
H  39.49500 9.20700 24.47100
H  42.50900 9.02600 24.63700
H  41.23800 7.80900 23.01000
H  39.64000 7.31000 23.16500
H  40.94800 6.62500 24.16300
H  41.53400 10.70200 23.29300
H  42.49200 11.43900 24.56100
H  39.69800 11.35000 25.51900
H  39.91700 12.07700 23.87400
H  40.80700 12.71100 25.29200
H  44.87600 12.21500 27.62800
H  46.15600 11.06000 28.27500
H  45.62500 12.44900 29.25800
H  42.63600 11.54500 33.33900
H  44.44400 9.33600 36.62400
H  43.88400 10.74400 37.33400
H  45.54400 10.74200 36.87900
Mg 52.71800 23.78800 44.17900
C  50.15900 26.08800 43.47200
C  50.80700 21.32500 42.68900
C  55.45800 21.87200 43.99900
C  54.53400 26.42600 45.49700
N  50.75100 23.77900 43.05700
C  49.95000 24.84900 42.89500
C  48.84800 24.36000 41.93100
C  48.80300 22.83500 42.08200
C  50.22700 22.61900 42.64400
C  47.67500 22.29800 43.07400
C  48.94000 24.77300 40.39800
C  50.33900 25.11900 39.87900
H  50.44300 25.95400 38.64600
N  53.07800 21.77200 43.46000
C  52.18400 20.90600 43.01300
C  52.81300 19.58600 42.98400
C  54.18200 19.78900 43.13600
C  54.30500 21.18000 43.60300
C  52.23600 18.22200 42.61000
C  55.28300 18.72700 42.96900
O  54.99000 17.65700 42.55600
C  56.64500 19.11600 43.01800
N  54.74600 24.22500 44.40800
C  55.68500 23.25900 44.30700
C  57.05400 23.70700 44.79700
C  56.73500 25.07800 45.41300
C  55.26900 25.32300 45.12500
C  57.80100 22.76900 45.81400
C  57.40300 26.32900 44.81100
C  57.86500 27.38400 45.78000
N  52.40800 25.85700 44.48400
C  53.21000 26.72600 45.13400
C  52.56400 27.99600 45.22800
C  51.27800 27.79200 44.70900
C  51.26900 26.48300 44.20700
C  53.11100 29.25300 45.82500
C  49.97600 28.37500 44.47000
O  49.59900 29.48300 44.79900
C  49.24300 27.29000 43.54900
C  48.98000 27.87100 42.18500
O  49.85700 28.00600 41.32100
O  47.72100 28.27200 42.09000
C  47.34800 29.12500 40.98600
H  50.20700 20.51900 42.26300
H  56.42300 21.36400 43.92900
H  55.05800 27.16800 46.10300
H  47.85000 24.68900 42.22000
H  48.67300 22.26400 41.16300
H  47.12900 21.50900 42.55700
H  46.92000 23.01100 43.40500
H  48.25600 21.92000 43.91600
H  48.39400 25.69400 40.19200
H  48.55600 23.90300 39.86600
H  50.80700 24.15600 39.67600
H  50.88500 25.55100 40.71800
H  52.38600 17.90700 41.57700
H  51.19900 18.38200 42.90700
H  52.46400 17.40700 43.29700
H  56.86800 19.37000 44.05400
H  56.86000 19.96900 42.37500
H  57.38700 18.37100 42.73000
H  57.69600 23.71900 43.91600
H  56.76800 25.12600 46.50100
H  57.05300 22.05500 46.15800
H  58.26200 23.30500 46.64400
H  58.54000 22.30000 45.16400
H  56.88300 26.80500 43.98000
H  58.28600 25.99800 44.26400
H  58.87300 27.67300 45.48500
H  57.89900 27.03900 46.81400
H  57.25100 28.26800 45.60700
H  52.42800 29.74100 46.52000
H  53.38700 30.06300 45.14900
H  54.04100 29.16500 46.38600
H  48.31600 27.05100 44.07000
H  48.24700 29.69800 40.75700
H  46.57300 29.86500 41.19000
H  47.14000 28.57300 40.06900

