158

Mg -2.72800 17.44200 27.67800
C  -2.92100 15.38400 30.42100
C  -3.36400 20.08500 29.65000
C  -2.55400 19.33300 24.83200
C  -2.69100 14.56900 25.58500
N  -3.31200 17.62200 29.93600
C  -3.15600 16.70200 30.83300
C  -3.63900 17.28900 32.24300
C  -3.67800 18.81800 31.93600
C  -3.35900 18.87200 30.43400
C  -4.95400 19.53600 32.26600
C  -2.56900 17.06600 33.35500
C  -2.44100 18.04900 34.63100
H  -2.03700 17.33300 35.91600
N  -2.98700 19.43300 27.35500
C  -3.24300 20.34800 28.32600
C  -3.07900 21.64400 27.66100
C  -2.83900 21.50500 26.25200
C  -2.73700 20.02200 26.10200
C  -3.31500 22.82600 28.46300
C  -2.59500 22.47700 25.21400
O  -2.19200 22.19200 24.09200
C  -2.70000 23.94200 25.54700
N  -2.63500 17.05900 25.50700
C  -2.58800 17.96500 24.60400
C  -2.70200 17.41000 23.17000
C  -2.61200 15.90000 23.35000
C  -2.67600 15.80500 24.87000
C  -4.06100 17.72300 22.46900
C  -1.28200 15.30800 22.76200
C  0.09100 15.35900 23.58500
N  -2.78600 15.41500 27.95000
C  -2.72400 14.34000 26.97900
C  -2.64800 13.12900 27.71900
C  -2.82200 13.48400 29.00900
C  -2.85500 14.89100 29.14400
C  -2.63400 11.68500 27.17700
C  -3.01000 12.94500 30.35000
O  -3.15600 11.78500 30.68700
C  -2.98800 14.14400 31.32000
C  -1.76400 13.99700 32.14600
O  -0.71300 14.46300 31.86800
O  -2.09600 13.31700 33.27200
C  -1.11600 13.33800 34.30400
H  -3.42000 20.91600 30.35600
H  -2.65400 20.00400 23.97600
H  -2.77000 13.64900 25.00300
H  -4.61100 16.90300 32.55200
H  -2.84300 19.28700 32.45700
H  -4.80800 20.34500 32.98100
H  -5.47600 18.73100 32.78400
H  -5.47000 19.84400 31.35600
H  -1.62300 17.07800 32.81500
H  -2.70200 16.02100 33.63500
H  -3.40100 18.50100 34.88200
H  -1.53900 18.64300 34.48500
H  -2.70900 22.88100 29.36700
H  -4.39200 22.80900 28.62800
H  -3.00100 23.69000 27.87700
H  -1.81400 24.31900 26.05700
H  -3.72200 23.95800 25.92600
H  -2.72900 24.42000 24.56800
H  -1.92800 17.69200 22.45600
H  -3.52700 15.41000 23.01600
H  -4.54400 18.42800 23.14600
H  -4.79700 16.97200 22.18400
H  -3.84300 18.38400 21.63000
H  -1.02700 15.85300 21.85400
H  -1.40800 14.24700 22.54600
H  -0.04000 15.22800 24.65900
H  0.44200 16.37800 23.42000
H  0.79300 14.59700 23.24800
H  -1.74600 11.63800 26.54700
H  -3.57300 11.52200 26.64700
H  -2.71600 10.94400 27.97300
H  -3.88700 14.14200 31.93700
H  -0.98600 14.25200 34.88300
H  -0.17900 13.04600 33.83000
H  -1.34300 12.46800 34.92100
Mg 45.01300 4.77500 48.41200
C  42.76100 7.40100 47.77400
C  42.39500 2.52200 47.77800
C  47.24400 2.27600 48.06400
C  47.53700 7.16000 48.31800
N  42.75200 4.99800 47.80100
C  42.13000 6.16900 47.58000
C  40.69300 5.89600 47.16300
C  40.53700 4.34100 47.36300
C  41.98100 3.89900 47.60200
C  39.65100 3.94600 48.55300
C  40.48900 6.31100 45.64100
C  39.32700 7.13300 45.32700
H  38.82200 7.02800 43.89100
N  44.86400 2.69200 48.19600
C  43.70700 1.97900 48.03700
C  44.01100 0.61400 47.94000
C  45.46800 0.44900 48.00700
C  45.91500 1.85200 48.12100
C  43.00500 -0.45700 47.75300
C  46.21700 -0.88000 47.93800
O  45.65400 -2.00200 47.77800
C  47.71700 -0.83000 48.14400
N  47.08000 4.75100 48.38100
C  47.76800 3.55500 48.08100
C  49.31000 3.87200 47.91700
C  49.41400 5.30200 48.35700
C  47.91900 5.80600 48.37300
C  50.15400 2.83700 48.72800
C  50.43300 6.21200 47.52500
C  51.20300 7.27200 48.31400
N  45.21300 6.82200 48.10600
C  46.20700 7.67100 48.21300
C  45.76200 9.03700 48.07300
C  44.43500 8.94800 47.93200
C  44.09600 7.61800 47.93600
C  46.63600 10.21600 48.13500
C  43.24300 9.79600 47.75700
O  43.12400 10.99200 47.81100
C  42.13900 8.83500 47.54600
C  41.13600 9.09400 48.63200
O  41.23000 8.65400 49.77000
O  40.17800 9.97300 48.20000
C  39.22700 10.37700 49.20900
H  41.62800 1.76500 47.60000
H  48.02700 1.59700 47.72100
H  48.22800 7.97500 48.54500
H  40.00800 6.34400 47.88300
H  40.15000 3.78200 46.51100
H  38.88800 4.71400 48.68000
H  40.26300 3.91800 49.45400
H  39.01900 3.08500 48.33400
H  40.49900 5.43000 44.99900
H  41.30400 7.00100 45.42100
H  39.70400 8.14800 45.45700
H  38.45900 6.99300 45.97100
H  43.39100 -1.30000 48.32600
H  42.91700 -0.71100 46.69600
H  42.02400 -0.22800 48.16700
H  47.95500 -1.88900 48.23700
H  48.08300 -0.28200 49.01300
H  48.16300 -0.53500 47.19400
H  49.60500 3.78300 46.87200
H  49.76000 5.26500 49.39000
H  50.92300 2.37100 48.11100
H  49.54700 2.08000 49.22300
H  50.63300 3.32400 49.57800
H  49.80600 6.73100 46.80100
H  51.05600 5.50600 46.97400
H  50.97000 8.27000 47.94200
H  52.28200 7.15100 48.21200
H  51.13900 7.24800 49.40200
H  46.36200 10.59900 49.11800
H  46.47800 10.89200 47.29500
H  47.69800 9.98900 48.22300
H  41.66500 8.99400 46.57700
H  39.34600 11.40600 49.54800
H  39.18900 9.74500 50.09700
H  38.25200 10.36300 48.72100

