158

Mg -0.26900 7.74200 26.86800
C  0.49300 9.71500 29.75100
C  -0.60300 5.11400 29.06900
C  -0.49300 5.72400 24.25800
C  0.66100 10.46700 24.89800
N  0.03800 7.44700 29.17200
C  0.13200 8.42500 30.10100
C  -0.27000 7.90100 31.49000
C  -0.33200 6.37700 31.29500
C  -0.33700 6.31800 29.76100
C  0.97500 5.57800 31.72000
C  -1.54800 8.54500 32.07000
C  -1.65300 8.40000 33.66600
H  -0.50500 8.01800 34.56500
N  -0.62200 5.72600 26.68100
C  -0.75400 4.78000 27.69900
C  -1.05600 3.50200 27.15900
C  -1.12800 3.70100 25.75400
C  -0.73400 5.06600 25.46900
C  -1.37800 2.25700 28.02000
C  -1.43400 2.71600 24.67900
O  -1.33900 3.04500 23.47700
C  -1.89300 1.32900 25.07200
N  -0.21200 8.19500 24.92200
C  -0.26000 7.13400 23.99900
C  0.05000 7.61800 22.60400
C  0.18000 9.17400 22.72400
C  0.21900 9.33500 24.28900
C  1.29500 6.95400 21.89000
C  -0.84600 10.06800 22.10700
C  -2.35200 9.87100 22.50400
N  0.41600 9.75400 27.22300
C  0.78900 10.70000 26.33800
C  1.31300 11.83200 27.09700
C  1.22200 11.49900 28.44500
C  0.66500 10.20900 28.45100
C  1.63300 13.17300 26.50600
C  1.41500 11.94000 29.77900
O  1.91800 13.02100 30.21500
C  0.85600 10.83500 30.70700
C  1.94700 10.62600 31.70700
O  2.99500 10.03400 31.48700
O  1.63200 11.21000 32.88500
C  2.78200 11.29400 33.87300
H  -0.48900 4.23700 29.70900
H  -0.51800 5.17100 23.31700
H  0.95200 11.30000 24.25400
H  0.50900 8.26900 32.15800
H  -1.16900 5.82000 31.71700
H  1.62800 6.17900 32.35400
H  1.66400 5.27800 30.93000
H  0.67600 4.62700 32.16100
H  -2.30300 7.83100 31.74100
H  -1.67300 9.53600 31.63400
H  -2.43200 7.68500 33.93300
H  -2.11700 9.33700 33.97300
H  -1.31200 2.52700 29.07400
H  -0.65100 1.46100 27.85900
H  -2.33700 1.74000 27.96800
H  -2.88300 1.35600 25.52600
H  -0.97700 0.98700 25.55500
H  -1.95000 0.83900 24.10000
H  -0.76600 7.36900 21.92600
H  1.17100 9.54000 22.45700
H  2.18300 7.58500 21.83800
H  0.94900 6.58500 20.92400
H  1.64200 6.06800 22.42300
H  -0.85700 9.95700 21.02300
H  -0.61600 11.09100 22.40400
H  -2.90500 9.98500 21.57200
H  -2.68700 10.64100 23.19900
H  -2.45400 8.87800 22.94100
H  1.73600 13.19800 25.42100
H  2.51800 13.59800 26.98100
H  0.88800 13.83600 26.94400
H  0.00900 11.24900 31.25300
H  2.36000 11.80100 34.74100
H  3.55000 11.88900 33.37900
H  3.25400 10.33600 34.09100
Mg 42.37100 42.20400 26.83400
C  41.56900 44.58400 29.11100
C  43.44900 40.09300 29.39700
C  43.66100 40.01700 24.53900
C  41.92200 44.63100 24.25100
N  42.61600 42.39100 28.95900
C  42.09200 43.41300 29.72000
C  41.99200 43.01600 31.26800
C  42.61400 41.55400 31.29400
C  42.97700 41.30400 29.81100
C  43.71400 41.32100 32.30000
C  40.49900 43.11000 31.72000
C  40.08000 42.23400 32.91600
H  39.38700 42.83600 34.14000
N  43.26000 40.27500 26.93600
C  43.71300 39.67400 28.10000
C  44.35500 38.48200 27.77300
C  44.44100 38.42300 26.33000
C  43.79400 39.63200 25.89800
C  44.78100 37.46100 28.74500
C  45.11900 37.38100 25.32300
O  45.18300 37.52800 24.09100
C  45.86400 36.16700 25.94500
N  42.80800 42.32600 24.69300
C  43.17600 41.22500 23.95300
C  43.09800 41.52800 22.49400
C  42.27800 42.86300 22.40200
C  42.39400 43.39800 23.82700
C  44.45200 41.74500 21.74500
C  40.79100 42.76200 21.93300
C  39.79700 41.87500 22.81400
N  41.78800 44.17500 26.68100
C  41.59000 44.95500 25.59800
C  41.09600 46.29000 26.06100
C  41.06800 46.06500 27.45500
C  41.61000 44.87200 27.74500
C  40.70900 47.45600 25.20900
C  40.52900 46.71800 28.63000
O  39.91900 47.75100 28.83300
C  40.90400 45.77100 29.75900
C  41.71800 46.46700 30.80800
O  42.91900 46.55100 30.82300
O  40.81300 46.87700 31.74900
C  41.47800 47.02300 33.04100
H  43.75200 39.46500 30.23700
H  43.92900 39.31300 23.74800
H  41.67500 45.41900 23.53600
H  42.62400 43.68200 31.85400
H  41.85200 40.81500 31.54000
H  43.50400 40.33100 32.70500
H  43.62100 42.08600 33.07100
H  44.73100 41.36800 31.90900
H  39.79200 43.08400 30.89000
H  40.32000 44.11400 32.10400
H  40.99800 41.71700 33.19300
H  39.47200 41.46200 32.44400
H  44.61400 36.44300 28.39500
H  44.20900 37.34600 29.66600
H  45.83900 37.66500 28.90600
H  46.30800 36.56100 26.85900
H  46.69800 35.85200 25.31700
H  45.17600 35.35500 26.18100
H  42.55100 40.66000 22.12300
H  42.69100 43.52300 21.64000
H  44.82500 42.76200 21.62500
H  44.41200 41.31400 20.74500
H  45.17800 41.17900 22.33000
H  40.83600 42.28500 20.95300
H  40.41100 43.78300 21.90300
H  40.37100 41.36200 23.58500
H  39.25500 41.12000 22.24500
H  38.99800 42.43600 23.30000
H  39.64900 47.69200 25.11400
H  40.89400 47.24600 24.15600
H  41.29100 48.30600 25.56700
H  39.98900 45.44200 30.25200
H  42.30700 47.72900 32.98800
H  41.82700 46.10000 33.50500
H  40.82700 47.52000 33.76100

