158

Mg 42.47900 41.78500 26.92000
C  41.81900 44.33300 29.24600
C  43.37700 39.76700 29.50900
C  43.17600 39.51600 24.65000
C  41.82200 44.07500 24.24700
N  42.65000 42.07300 29.03100
C  42.18300 43.10200 29.81900
C  42.17900 42.75400 31.28700
C  42.92600 41.38000 31.31000
C  42.97600 41.03600 29.84800
C  44.25500 41.33100 32.02500
C  40.72800 42.87400 31.85600
C  40.44800 43.69800 33.05600
H  39.87800 43.02800 34.33900
N  43.18000 39.89400 27.06200
C  43.43700 39.18500 28.23900
C  43.79200 37.78700 27.86800
C  43.75500 37.69100 26.43600
C  43.33500 39.08100 25.96500
C  43.98400 36.76600 28.87700
C  44.05500 36.49000 25.52000
O  43.93900 36.46700 24.27500
C  44.43500 35.10700 26.10900
N  42.47300 41.81700 24.68200
C  42.77700 40.68600 24.03200
C  42.58600 40.77600 22.51500
C  42.04500 42.27900 22.35600
C  42.05600 42.78300 23.85600
C  43.88700 40.53800 21.74300
C  40.65600 42.51100 21.62600
C  39.55700 41.70800 22.29500
N  42.05400 43.88400 26.73300
C  41.70500 44.59000 25.57500
C  41.34500 45.90600 25.96500
C  41.29900 45.82200 27.44100
C  41.73600 44.56400 27.80300
C  41.05700 47.07400 25.01100
C  40.99500 46.59900 28.64400
O  40.55800 47.72600 28.83500
C  41.27300 45.62900 29.86600
C  42.28900 46.31300 30.72300
O  43.42500 46.71200 30.43000
O  41.69300 46.39200 31.99500
C  42.38400 47.28400 33.00600
H  43.56700 39.08900 30.34400
H  43.33000 38.64500 24.01000
H  41.58600 44.82100 23.48500
H  42.77000 43.55200 31.73600
H  42.19500 40.73500 31.79700
H  44.37800 40.72300 32.92100
H  44.53300 42.36300 32.23900
H  44.99600 40.98800 31.30400
H  40.20200 41.92900 31.99200
H  40.11000 43.29000 31.06100
H  39.73700 44.49300 32.82700
H  41.45100 44.05600 33.28600
H  43.96600 37.13000 29.90400
H  44.94100 36.27000 28.71400
H  43.19400 36.04500 28.67200
H  43.50300 34.56400 26.26400
H  44.95200 35.12200 27.06900
H  45.17900 34.56500 25.52500
H  41.87300 40.04800 22.12700
H  42.78500 42.86000 21.80500
H  44.73800 40.27200 22.36900
H  44.18400 41.48400 21.29100
H  43.72000 39.79700 20.96100
H  40.72400 42.12200 20.61000
H  40.43600 43.57800 21.64500
H  39.25900 40.94100 21.58000
H  38.73500 42.31700 22.67200
H  39.86100 41.23300 23.22800
H  40.32100 47.84400 25.24300
H  40.73300 46.76600 24.01700
H  41.99500 47.61600 24.89100
H  40.35200 45.50200 30.43600
H  43.23300 47.78400 32.54100
H  42.74700 46.69600 33.84900
H  41.60700 47.90300 33.45500
Mg 36.31700 49.79400 25.90800
C  36.83100 47.93800 28.81800
C  35.14600 52.27100 27.73400
C  35.94000 51.41000 23.01400
C  37.19300 46.89600 23.96300
N  35.95100 50.00300 28.04800
C  36.42400 49.22100 29.03700
C  36.19800 49.91900 30.39800
C  35.45200 51.25500 30.05700
C  35.44100 51.21100 28.48300
C  34.00000 51.32300 30.54200
C  37.49100 50.08400 31.21300
C  37.49200 49.61300 32.60600
H  36.22900 49.71400 33.40300
N  35.70500 51.63000 25.39200
C  35.26300 52.53000 26.33500
C  35.00500 53.81800 25.70600
C  35.17200 53.62800 24.30200
C  35.56700 52.20300 24.17700
C  34.55900 54.91100 26.52500
C  35.04700 54.61700 23.19600
O  35.08300 54.32000 21.99100
C  34.83100 56.11000 23.48500
N  36.36600 49.14300 23.90800
C  36.26300 50.05700 22.92700
C  36.40800 49.40600 21.52000
C  36.99800 48.01200 21.80200
C  36.79400 48.00200 23.30300
C  35.05500 49.33700 20.64500
C  38.53200 47.88000 21.38100
C  38.84200 47.08600 20.02300
N  36.75000 47.76000 26.27200
C  37.06400 46.70600 25.39700
C  37.48400 45.54900 26.14800
C  37.40000 45.97900 27.51900
C  36.98800 47.31900 27.55300
C  38.05900 44.29400 25.60500
C  37.62900 45.56900 28.91700
O  37.95500 44.46400 29.33700
C  37.20100 46.82100 29.79800
C  36.08800 46.37000 30.63200
O  34.91600 46.39100 30.38000
O  36.56700 45.99100 31.94200
C  35.57200 45.56300 32.96000
H  34.77900 53.13900 28.28600
H  35.89600 51.98000 22.08300
H  37.36500 46.04400 23.30200
H  35.45200 49.21900 30.77600
H  36.04800 52.09100 30.42300
H  33.37500 51.78300 29.77700
H  34.03300 51.97500 31.41500
H  33.70900 50.31800 30.84800
H  37.78400 51.12800 31.09600
H  38.23800 49.57100 30.60800
H  38.16000 50.22700 33.20900
H  37.85400 48.58900 32.69300
H  35.42500 55.57000 26.59400
H  34.10800 54.75300 27.50400
H  33.82800 55.50600 25.97800
H  35.51100 56.29900 24.31700
H  33.74900 56.18000 23.59600
H  35.12700 56.64100 22.58100
H  37.11100 50.00700 20.94300
H  36.39800 47.18100 21.43000
H  35.28900 49.08500 19.61100
H  34.40300 50.20800 20.71200
H  34.53300 48.47300 21.05500
H  39.02400 47.38800 22.22000
H  38.94900 48.88700 21.37400
H  37.87600 46.63500 19.79500
H  39.64600 46.38000 20.22800
H  39.06700 47.67200 19.13100
H  38.46100 44.45200 24.60400
H  37.22600 43.59600 25.52200
H  38.85400 44.03200 26.30200
H  38.03900 47.19800 30.38400
H  36.08000 45.13700 33.82500
H  35.03400 44.82500 32.36500
H  34.90200 46.39500 33.17900

