158

Mg 3.54600 -0.05600 44.43100
C  6.91900 0.12800 43.96700
C  3.21400 2.72800 42.25300
C  0.16700 -0.62700 43.96200
C  3.81500 -2.97100 46.17000
N  4.95000 1.20000 43.18200
C  6.31900 1.09300 43.14200
C  6.98600 2.09200 42.25300
C  5.76300 3.07600 42.03400
C  4.54200 2.29900 42.54800
C  5.87600 4.47100 42.80000
C  7.64500 1.44400 40.96900
C  8.29700 2.45100 39.99500
H  7.62200 2.72700 38.73800
N  1.93300 1.03900 43.44600
C  2.01200 2.13200 42.62800
C  0.69300 2.48800 42.03800
C  -0.18800 1.53100 42.50200
C  0.63300 0.61800 43.38700
C  0.47800 3.71500 41.20400
C  -1.65700 1.45000 42.18600
O  -2.18900 2.23600 41.41000
C  -2.57800 0.33800 42.74000
N  2.17200 -1.59500 44.98900
C  0.81800 -1.52200 44.71700
C  0.16900 -2.86600 45.18300
C  1.25900 -3.55500 45.96200
C  2.51600 -2.68000 45.70900
C  -1.14200 -2.61000 46.10400
C  1.58500 -5.07000 45.66700
C  0.37400 -5.91500 45.22300
N  5.00400 -1.18100 45.05800
C  4.98900 -2.34800 45.81700
C  6.37200 -2.70200 46.06000
C  7.14700 -1.71300 45.41600
C  6.27000 -0.83600 44.76100
C  6.76700 -3.89700 46.83100
C  8.50300 -1.23900 45.07500
O  9.59400 -1.66600 45.43600
C  8.43400 -0.07400 44.11800
C  9.02300 1.13500 44.84200
O  8.73400 1.56300 45.91600
O  9.86200 1.66500 43.91600
C  10.31000 3.00000 44.29500
H  3.29200 3.67300 41.71100
H  -0.88400 -0.91100 43.87500
H  3.86300 -3.83600 46.83500
H  7.81000 2.55700 42.79500
H  5.64800 3.31800 40.97800
H  6.69600 4.51200 43.51700
H  4.96300 4.65600 43.36500
H  6.05000 5.24900 42.05600
H  6.84400 0.86200 40.51200
H  8.51000 0.83200 41.22300
H  9.34000 2.20400 39.79700
H  8.32700 3.44500 40.44100
H  1.03800 3.59400 40.27700
H  0.97400 4.62700 41.53600
H  -0.53500 3.94500 40.87500
H  -3.60500 0.36800 42.37600
H  -2.63200 0.38600 43.82800
H  -2.24300 -0.67100 42.50000
H  -0.07100 -3.36100 44.24200
H  1.08000 -3.51200 47.03600
H  -1.84500 -3.35000 45.72100
H  -1.49000 -1.58100 46.18600
H  -0.95800 -2.92800 47.13100
H  2.04200 -5.54100 46.53700
H  2.35300 -5.05700 44.89400
H  0.61000 -6.53800 44.36100
H  -0.57400 -5.39300 45.09600
H  0.22300 -6.66300 46.00200
H  7.69200 -3.78900 47.39700
H  6.99300 -4.78300 46.23700
H  5.99100 -4.25600 47.50700
H  8.94800 -0.44600 43.23100
H  10.57400 3.47600 43.35100
H  11.16100 3.11400 44.96700
H  9.58600 3.68500 44.73800
Mg 8.78600 47.79600 26.65900
C  6.83300 47.44000 29.55200
C  11.51300 48.00700 28.82000
C  10.74600 47.98400 24.00600
C  5.91700 47.56000 24.74400
N  9.08000 47.81400 28.95600
C  8.14100 47.57600 29.95200
C  8.72100 47.64600 31.34000
C  10.22700 47.97100 31.07400
C  10.27600 47.92000 29.52900
C  10.78900 49.33700 31.74000
C  8.33900 46.48600 32.37400
C  9.40300 45.98800 33.40200
H  8.89200 45.49200 34.69500
N  10.84100 47.98100 26.46400
C  11.77300 48.02200 27.44700
C  13.11900 48.11100 26.86600
C  12.99200 48.17800 25.47000
C  11.49000 48.08400 25.25000
C  14.34500 48.12800 27.86100
C  13.99500 48.25200 24.33400
O  13.66700 48.56700 23.17100
C  15.46700 48.33700 24.77800
N  8.40900 47.86200 24.69900
C  9.36200 47.96400 23.76400
C  8.77600 48.15900 22.38500
C  7.27900 47.85500 22.59500
C  7.18300 47.73900 24.08400
C  9.16900 49.52300 21.55200
C  6.57200 46.72300 21.78400
C  5.70500 47.21000 20.59200
N  6.77700 47.68700 26.98900
C  5.73000 47.54500 26.10600
C  4.53900 47.43000 26.83700
C  4.90100 47.38600 28.19900
C  6.31400 47.54500 28.25100
C  3.09900 47.35600 26.28800
C  4.35500 47.20500 29.58800
O  3.19100 47.04700 29.96000
C  5.62400 47.24600 30.47600
C  5.55300 46.02000 31.30300
O  5.83800 44.89800 30.93600
O  5.14700 46.33500 32.53600
C  4.89000 45.23500 33.47900
H  12.33200 48.09800 29.53700
H  11.31400 48.14900 23.08800
H  4.95400 47.48600 24.23400
H  8.31800 48.54800 31.80200
H  10.96000 47.21200 31.34900
H  11.82700 49.14300 32.01100
H  10.22800 49.65200 32.62000
H  10.55300 50.04800 30.94800
H  8.13000 45.61300 31.75600
H  7.44300 46.81900 32.89800
H  10.16200 46.75100 33.56900
H  9.92300 45.15800 32.92300
H  15.14200 47.43000 27.60400
H  14.13800 47.78700 28.87500
H  14.76600 49.13000 27.77200
H  15.72000 47.38000 25.23500
H  15.49900 49.08400 25.57100
H  16.13000 48.48600 23.92600
H  9.22400 47.32700 21.84100
H  6.72400 48.78400 22.46400
H  9.13500 50.48600 22.06200
H  8.58600 49.56600 20.63200
H  10.21400 49.38700 21.27300
H  6.10200 46.05900 22.50900
H  7.35400 46.15300 21.28200
H  5.93300 48.24600 20.34400
H  4.63700 47.20900 20.81100
H  5.84900 46.53900 19.74500
H  2.54500 46.54700 26.76400
H  3.11700 47.18900 25.21100
H  2.51300 48.22200 26.59500
H  5.52000 47.99000 31.26600
H  3.82100 45.07700 33.62800
H  5.31100 45.29900 34.48200
H  5.49100 44.36400 33.21600

