158

Mg 24.73300 -5.98000 46.15500
C  26.88800 -3.56300 44.45500
C  22.29400 -5.17800 43.87300
C  23.39300 -8.89900 46.82200
C  27.76800 -6.84100 47.92100
N  24.73200 -4.66100 44.24300
C  25.61200 -3.68100 43.89900
C  24.99700 -2.73800 42.91900
C  23.48800 -3.12100 42.97600
C  23.47600 -4.41800 43.71600
C  22.66700 -2.03000 43.64600
C  25.62400 -2.88700 41.50400
C  25.52200 -1.60300 40.60800
H  24.81300 -1.74900 39.26300
N  22.90900 -6.82800 45.65600
C  22.05200 -6.38800 44.68300
C  20.95800 -7.23500 44.62100
C  21.19400 -8.27400 45.54600
C  22.52500 -8.03600 46.06800
C  19.75000 -6.98600 43.71200
C  20.17900 -9.30600 45.96300
O  19.14900 -9.42800 45.37600
C  20.49300 -10.28600 47.12800
N  25.60300 -7.75400 46.99400
C  24.76200 -8.78500 47.25100
C  25.40300 -9.81900 48.29600
C  26.72300 -9.03500 48.75600
C  26.72400 -7.82800 47.78100
C  24.34500 -10.02200 49.49400
C  27.97000 -9.88100 48.78900
C  28.77100 -9.83600 50.05300
N  26.87200 -5.20300 46.36700
C  27.90800 -5.68000 47.18400
C  29.00500 -4.70700 47.06900
C  28.69200 -3.91500 45.99800
C  27.37100 -4.26000 45.53400
C  30.23200 -4.64300 47.93300
C  29.11600 -2.80500 45.22100
O  30.15500 -2.17400 45.34400
C  28.03400 -2.56600 44.11700
C  27.70300 -1.14500 44.03200
O  26.82000 -0.49900 44.66600
O  28.36000 -0.63400 42.96400
C  28.00800 0.79700 42.79400
H  21.45000 -4.81000 43.28500
H  22.94000 -9.86900 47.03800
H  28.55700 -7.06000 48.64400
H  25.18300 -1.69100 43.16000
H  23.20100 -3.40900 41.96500
H  23.24500 -1.15400 43.93700
H  22.32600 -2.32100 44.63900
H  21.83400 -1.73100 43.00900
H  25.03500 -3.68100 41.04600
H  26.68600 -3.13400 41.49300
H  26.46000 -1.22700 40.20000
H  25.08600 -0.71400 41.06300
H  19.66400 -5.91400 43.53600
H  18.87300 -7.42900 44.18300
H  19.95600 -7.33600 42.70100
H  20.99900 -9.79100 47.95800
H  21.11100 -11.10400 46.75800
H  19.59400 -10.76100 47.52000
H  25.67300 -10.76000 47.81700
H  26.61200 -8.58300 49.74200
H  23.52000 -9.32300 49.35600
H  24.79200 -9.90800 50.48200
H  23.89200 -11.01400 49.48800
H  28.65700 -9.60900 47.98700
H  27.78200 -10.94100 48.61600
H  28.87000 -10.83300 50.48400
H  28.43500 -9.14400 50.82500
H  29.80600 -9.51300 49.94300
H  30.65300 -5.61300 48.19900
H  30.05500 -4.06900 48.84300
H  31.11800 -4.09400 47.61200
H  28.44100 -2.79900 43.13400
H  28.61800 1.49600 43.36700
H  26.94900 1.01900 42.92200
H  28.29000 1.00800 41.76200
Mg -10.23400 16.51200 40.95900
C  -6.63600 16.61000 40.92000
C  -10.16200 19.69800 40.00800
C  -13.53700 16.31400 40.43400
C  -10.14900 13.09500 41.32500
N  -8.55100 17.94100 40.64600
C  -7.22400 17.82500 40.68300
C  -6.58200 19.09200 40.16200
C  -7.65400 20.15400 40.34100
C  -8.92100 19.22400 40.33500
C  -7.55500 20.95900 41.65500
C  -5.97500 18.83400 38.71400
C  -4.49000 19.11800 38.45000
H  -3.81100 18.27500 37.38000
N  -11.66500 17.89500 40.47600
C  -11.41600 19.17000 40.10700
C  -12.65400 19.82300 39.75900
C  -13.67600 18.89900 39.91100
C  -12.99600 17.62800 40.27800
C  -12.79300 21.32900 39.42100
C  -15.14800 19.22800 39.77800
O  -15.61800 20.35600 39.49700
C  -16.16900 18.14800 39.92200
N  -11.64600 14.88800 40.75000
C  -13.00500 15.10800 40.58500
C  -13.78600 13.81300 40.81200
C  -12.72400 12.76500 41.11200
C  -11.41400 13.60500 41.12600
C  -14.89600 13.78300 41.90600
C  -12.70200 11.41600 40.27400
C  -12.36600 11.59700 38.80000
N  -8.77700 15.10600 41.11000
C  -8.85400 13.76300 41.36300
C  -7.51200 13.23500 41.65600
C  -6.63900 14.34100 41.43000
C  -7.41900 15.46600 41.12800
C  -7.12700 11.76200 41.90800
C  -5.25800 14.60500 41.26500
O  -4.26900 13.88400 41.35700
C  -5.17400 16.15400 40.92000
C  -4.35700 16.97400 41.88100
O  -3.28400 17.53800 41.65800
O  -5.10400 16.94900 43.10500
C  -4.54600 17.72400 44.20600
H  -10.17400 20.76500 39.77700
H  -14.55900 16.21600 40.06400
H  -10.02800 12.02300 41.49400
H  -5.78300 19.51500 40.77100
H  -7.63700 20.97000 39.61900
H  -7.27400 20.24700 42.43100
H  -8.52200 21.29500 42.02700
H  -6.79200 21.73100 41.55600
H  -6.47800 19.59000 38.11300
H  -6.18400 17.85600 38.28000
H  -3.92500 18.76800 39.31400
H  -4.29900 20.17500 38.27100
H  -13.14300 21.38900 38.39100
H  -11.79600 21.76400 39.50100
H  -13.59600 21.81400 39.97700
H  -17.18000 18.55100 39.97100
H  -16.00000 17.63300 40.86800
H  -16.05600 17.52400 39.03500
H  -14.30100 13.51900 39.89700
H  -12.82200 12.41600 42.14000
H  -14.91500 12.80000 42.37800
H  -15.87400 13.90100 41.43900
H  -14.70600 14.60500 42.59500
H  -13.68300 10.94300 40.31800
H  -12.03500 10.73400 40.80100
H  -13.26800 11.60600 38.18800
H  -11.68000 10.86900 38.36700
H  -11.88100 12.52600 38.49900
H  -7.38700 11.17900 41.02400
H  -7.52600 11.34500 42.83200
H  -6.03700 11.77800 41.89900
H  -4.70900 16.24400 39.93800
H  -4.51200 17.09700 45.09700
H  -5.30900 18.48200 44.38600
H  -3.60100 18.18000 43.90800

