158

Mg 26.47800 49.79800 25.95800
C  24.20900 50.93200 28.47100
C  28.60700 48.78100 28.45100
C  28.64900 48.78800 23.65600
C  24.28600 50.96000 23.62800
N  26.46600 50.01800 28.13100
C  25.41700 50.38000 29.02600
C  25.85300 50.26400 30.50900
C  27.23100 49.49600 30.43100
C  27.46500 49.51300 28.93100
C  28.31800 50.12500 31.30100
C  24.72600 49.75400 31.42800
C  25.07800 48.84300 32.63600
H  25.76200 49.62800 33.84100
N  28.40800 48.93900 26.00400
C  29.03400 48.48400 27.12800
C  30.18400 47.71100 26.67700
C  30.25300 47.79300 25.30500
C  29.11400 48.58300 24.93600
C  31.14000 46.98100 27.67300
C  31.24900 47.23200 24.35900
O  31.27400 47.33100 23.16600
C  32.39800 46.45200 24.98900
N  26.50300 50.03400 23.97000
C  27.44400 49.37900 23.20500
C  27.02500 49.26700 21.69200
C  25.49300 49.61500 21.85200
C  25.43300 50.24900 23.20500
C  27.73000 50.34900 20.82100
C  24.56400 48.27000 21.72200
C  23.93200 48.12400 20.28400
N  24.69200 50.88900 26.02900
C  23.93000 51.29000 24.93900
C  22.70800 51.81200 25.41400
C  22.72500 51.73000 26.77800
C  23.96400 51.16000 27.11400
C  21.59400 52.32400 24.59300
C  22.07800 51.91800 28.01800
O  21.04500 52.43500 28.21600
C  23.03600 51.43300 29.17500
C  23.31300 52.56600 30.12400
O  24.28400 53.35100 30.08300
O  22.41500 52.57700 31.14000
C  22.77000 53.42900 32.34000
H  29.30100 48.31500 29.15300
H  29.31900 48.57500 22.82000
H  23.40200 51.23500 23.04900
H  26.13200 51.28600 30.76700
H  27.10500 48.44300 30.68300
H  29.22100 50.23100 30.69900
H  28.63700 49.36000 32.00900
H  28.26800 51.15500 31.65400
H  24.04000 49.20000 30.78800
H  24.17400 50.62300 31.78400
H  25.70300 48.01000 32.31400
H  24.14000 48.36400 32.91600
H  32.19000 47.23900 27.53500
H  30.95000 45.93500 27.43300
H  30.87300 47.07400 28.72600
H  33.12000 46.13800 24.23500
H  31.86400 45.63800 25.48000
H  33.05900 47.03700 25.62900
H  27.27400 48.25400 21.37700
H  25.11000 50.34400 21.13800
H  27.15400 51.11500 20.30100
H  28.18600 49.86600 19.95700
H  28.47900 50.86000 21.42600
H  23.81000 48.28100 22.50900
H  25.24500 47.43000 21.86000
H  24.11100 47.09000 19.99100
H  24.44400 48.69000 19.50600
H  22.87100 48.36100 20.20900
H  21.04200 51.45100 24.24500
H  22.08800 52.78000 23.73500
H  20.95300 53.03400 25.11500
H  22.65900 50.60700 29.77700
H  22.89000 54.49100 32.12700
H  23.77000 53.11000 32.63200
H  22.18800 53.20100 33.23300
Mg 16.65400 51.17600 25.36200
C  18.47200 49.97800 28.18600
C  14.26000 52.12200 27.46100
C  15.04200 52.35500 22.62400
C  19.16500 49.75700 23.26000
N  16.27800 50.81900 27.61900
C  17.19200 50.53300 28.56800
C  16.68200 50.88200 29.94500
C  15.21900 51.32000 29.71300
C  15.23700 51.44800 28.15800
C  14.14600 50.43700 30.37700
C  17.52100 51.92900 30.78900
C  18.13200 51.55100 32.11500
H  17.53300 52.13200 33.35200
N  14.93900 52.17000 25.12200
C  14.05000 52.51200 26.13200
C  13.00600 53.35600 25.60600
C  13.14400 53.40000 24.18100
C  14.42600 52.64400 23.94200
C  11.91300 53.86800 26.52100
C  12.20400 54.00200 23.21000
O  12.51600 53.95000 22.03100
C  10.81900 54.47900 23.49900
N  17.18100 51.23500 23.23800
C  16.25200 51.69500 22.32300
C  16.78100 51.54400 20.89800
C  18.09800 50.64700 21.08900
C  18.21100 50.53100 22.57400
C  15.72300 50.95200 19.91000
C  19.30000 51.42300 20.43300
C  20.41200 50.48400 19.97700
N  18.42500 50.01500 25.58200
C  19.31100 49.55800 24.69200
C  20.45100 48.89200 25.38400
C  20.16600 49.10200 26.76600
C  18.90100 49.76300 26.84300
C  21.61400 48.17000 24.64500
C  20.70800 48.93800 28.17200
O  21.72900 48.38300 28.64700
C  19.53200 49.46500 29.08400
C  19.02300 48.49400 30.06700
O  18.01300 47.77300 30.03000
O  19.77700 48.67100 31.19600
C  19.42800 47.76100 32.27400
H  13.52200 52.46700 28.18700
H  14.48900 52.77900 21.78300
H  19.99800 49.32100 22.70400
H  16.69200 49.90900 30.43700
H  15.16000 52.34400 30.08200
H  13.14700 50.60000 29.97300
H  14.16300 50.66500 31.44300
H  14.37700 49.39200 30.17200
H  16.94500 52.84300 30.93900
H  18.19200 52.29700 30.01200
H  19.14500 51.95300 32.13500
H  18.08200 50.46200 32.12300
H  11.82800 54.92400 26.26600
H  12.23000 53.82800 27.56400
H  10.97800 53.32900 26.37200
H  10.43300 53.87700 24.32100
H  10.17300 54.42100 22.62300
H  10.83400 55.47300 23.94700
H  17.07600 52.46700 20.39900
H  17.89300 49.73400 20.53000
H  15.95900 49.97000 19.50100
H  15.46100 51.58300 19.06100
H  14.77900 50.81800 20.43900
H  19.79700 51.96400 21.23700
H  19.04400 52.16400 19.67600
H  20.25100 49.43100 20.20900
H  21.38900 50.86600 20.27200
H  20.48800 50.43000 18.89100
H  21.93300 47.35700 25.29800
H  22.47700 48.83500 24.61300
H  21.42700 47.78000 23.64400
H  19.94400 50.33000 29.60400
H  18.50600 48.14900 32.70700
H  20.15800 47.70600 33.08300
H  19.22900 46.75500 31.90400

