158

Mg 24.75300 1.58600 29.98600
C  26.56900 1.56500 32.97600
C  21.84300 1.74800 31.92500
C  22.99000 1.17900 27.19500
C  27.72600 0.90400 28.15900
N  24.35000 1.90600 32.18100
C  25.24000 1.93800 33.21600
C  24.56100 2.00100 34.58900
C  23.03200 1.84800 34.23500
C  23.06200 1.79900 32.68000
C  22.21400 0.70000 34.86400
C  25.04300 3.24600 35.50500
C  26.04500 3.05700 36.74900
H  25.73900 3.89500 38.02100
N  22.68900 1.50700 29.61200
C  21.64300 1.69900 30.54100
C  20.38800 1.76300 29.80400
C  20.76400 1.66400 28.38500
C  22.21300 1.51200 28.30500
C  19.10700 2.08800 30.48200
C  19.79200 1.64700 27.21400
O  20.15800 1.82700 26.03100
C  18.27700 1.60700 27.42200
N  25.32400 1.16200 27.94300
C  24.38200 1.13300 26.98000
C  25.03900 0.81700 25.61500
C  26.53600 0.77300 25.94800
C  26.58200 0.92400 27.42400
C  24.32100 -0.46000 25.06100
C  27.39800 1.82700 25.26300
C  27.12000 3.36200 25.50800
N  26.71400 1.16200 30.37400
C  27.82900 1.00200 29.55400
C  28.98300 0.92500 30.37700
C  28.51400 1.15300 31.64800
C  27.14900 1.27500 31.69100
C  30.39000 0.94300 29.96700
C  28.99500 1.37300 32.95800
O  30.12300 1.27200 33.40200
C  27.80900 1.51700 33.91000
C  27.68700 0.51100 34.91400
O  26.90500 -0.43700 34.83800
O  28.58400 0.71200 35.89000
C  28.42300 -0.17600 37.01600
H  20.99400 1.80900 32.60900
H  22.28800 0.94100 26.39400
H  28.62900 0.79600 27.55500
H  24.96100 1.08700 35.02900
H  22.48200 2.73600 34.54500
H  21.82500 0.07400 34.06100
H  21.31800 1.14700 35.29600
H  22.87200 0.07400 35.46600
H  24.12900 3.65600 35.93500
H  25.57200 3.93000 34.84100
H  26.97700 3.42500 36.32200
H  26.27500 2.01100 36.95400
H  18.78700 2.97700 29.93900
H  19.27300 2.37700 31.52000
H  18.45300 1.21600 30.50000
H  17.87200 2.59800 27.62300
H  18.04200 0.85700 28.17800
H  17.77500 1.31100 26.50100
H  24.74200 1.60100 24.91700
H  26.95000 -0.19100 25.65200
H  23.72700 -0.95100 25.83100
H  25.21200 -1.03700 24.81400
H  23.84000 -0.17200 24.12600
H  27.15800 1.72500 24.20500
H  28.40900 1.48500 25.48400
H  27.88900 3.80800 26.13800
H  26.22800 3.55000 26.10700
H  27.06500 3.86200 24.54200
H  30.75300 -0.07500 29.82100
H  30.91400 1.35200 30.83100
H  30.57700 1.40600 28.99800
H  28.16100 2.48000 34.28000
H  28.89600 -1.12700 36.76800
H  27.43100 -0.45300 37.37400
H  28.93600 0.29700 37.85400
Mg 1.12300 42.07900 26.31800
C  2.72300 41.91800 29.38000
C  -1.76100 41.01600 27.63900
C  -0.14400 41.63200 23.14300
C  4.20000 43.28600 24.88500
N  0.62400 41.37000 28.25600
C  1.37900 41.54700 29.39800
C  0.47300 41.34100 30.62200
C  -0.98800 41.07800 30.05000
C  -0.72500 41.24200 28.54200
C  -1.61600 39.72000 30.54300
C  0.50100 42.49300 31.65400
C  0.94000 42.25500 33.10800
H  -0.07700 42.47700 34.28100
N  -0.66900 41.40500 25.60200
C  -1.74500 40.88600 26.28700
C  -2.75700 40.55100 25.34300
C  -2.31400 40.80000 24.05900
C  -0.94000 41.24600 24.19700
C  -4.06800 39.99000 25.82500
C  -3.09000 40.78600 22.69900
O  -2.65100 40.90000 21.57800
C  -4.65500 40.59900 22.78300
N  1.83300 42.40100 24.35700
C  1.13800 42.12600 23.19700
C  2.00100 42.55400 21.91900
C  3.31200 43.17000 22.64100
C  3.05600 42.96400 24.09100
C  2.28300 41.44300 20.82900
C  3.60600 44.61900 22.11000
C  3.56400 44.87000 20.58900
N  3.03200 42.49300 26.93700
C  4.14700 42.93200 26.24700
C  5.28400 43.00200 27.14800
C  4.71900 42.68100 28.36100
C  3.41100 42.26300 28.18600
C  6.62400 43.48100 26.91900
C  5.04000 42.50600 29.78700
O  6.14000 42.76700 30.33700
C  3.75100 42.03300 30.54000
C  4.00800 40.76000 31.26600
O  4.43000 39.69700 30.86000
O  3.94000 41.06800 32.56100
C  3.86200 39.90100 33.48500
H  -2.64800 40.81500 28.24400
H  -0.48100 41.41200 22.12800
H  5.12500 43.59500 24.39400
H  0.88500 40.42400 31.04200
H  -1.66200 41.88900 30.32700
H  -1.17200 39.37600 31.47700
H  -1.39000 38.93900 29.81700
H  -2.70000 39.76100 30.64200
H  -0.43100 43.05500 31.71000
H  1.14800 43.32000 31.36200
H  1.65300 43.04800 33.33300
H  1.34100 41.24300 33.17500
H  -4.67000 39.52700 25.04400
H  -4.67700 40.81400 26.19700
H  -3.95200 39.20900 26.57700
H  -5.05400 41.20600 23.59600
H  -4.89400 39.54100 22.89100
H  -5.10300 41.01100 21.87900
H  1.38000 43.36900 21.54700
H  4.25000 42.65500 22.43200
H  2.18000 40.39100 21.09400
H  3.23100 41.62700 20.32300
H  1.49600 41.49300 20.07700
H  4.63500 44.83300 22.40100
H  2.98000 45.27100 22.71900
H  4.28300 44.23600 20.07000
H  4.00900 45.82600 20.31400
H  2.57900 44.87300 20.12200
H  6.58000 44.56800 26.98200
H  6.89600 43.18500 25.90600
H  7.21900 43.05200 27.72500
H  3.48600 42.79400 31.27500
H  3.22900 40.35900 34.24500
H  4.81100 39.74700 33.99900
H  3.30800 39.04600 33.09800

