158

Mg 24.52000 -6.94800 47.79000
C  27.04200 -4.76500 46.81100
C  22.44000 -5.68100 45.27200
C  22.37000 -9.45300 48.26900
C  26.88600 -8.64100 49.80500
N  24.76000 -5.45400 46.15400
C  25.92400 -4.69600 45.95000
C  25.64900 -3.67600 44.84900
C  24.10400 -3.92000 44.53200
C  23.74300 -5.16800 45.30900
C  23.22700 -2.64100 44.61800
C  26.55300 -3.96900 43.59600
C  27.31000 -2.83000 43.03700
H  27.17000 -2.36600 41.52900
N  22.56000 -7.38900 47.04200
C  21.88600 -6.71300 46.06400
C  20.58100 -7.34300 45.88300
C  20.47400 -8.41500 46.80400
C  21.80000 -8.46600 47.46500
C  19.58000 -6.85800 44.88900
C  19.22600 -9.28800 47.06200
O  18.14200 -8.94600 46.50600
C  19.29400 -10.49900 47.87900
N  24.66900 -8.74200 48.92900
C  23.50800 -9.51800 49.03200
C  23.82900 -10.77500 49.90900
C  25.22900 -10.51700 50.42000
C  25.65600 -9.18800 49.68800
C  22.73900 -11.23600 50.95600
C  26.29300 -11.67600 50.32200
C  27.30400 -11.57600 51.43400
N  26.60100 -6.76300 48.27800
C  27.39400 -7.47600 49.17300
C  28.67100 -6.85000 49.35800
C  28.61700 -5.75300 48.41500
C  27.28700 -5.77900 47.80400
C  29.85200 -7.25800 50.29500
C  29.28400 -4.63300 47.84200
O  30.37800 -4.22500 48.11500
C  28.30900 -3.94100 46.79300
C  28.24800 -2.42600 47.18800
O  28.12800 -1.86400 48.31000
O  28.31400 -1.72300 46.02900
C  28.08200 -0.26400 46.19700
H  21.82600 -5.17300 44.52600
H  21.64900 -10.25800 48.42400
H  27.63100 -9.00500 50.51600
H  25.93300 -2.65800 45.11400
H  23.98100 -4.22900 43.49400
H  23.84300 -1.75200 44.75000
H  22.45700 -2.76100 45.38100
H  22.66600 -2.47700 43.69800
H  25.94100 -4.38800 42.79800
H  27.21100 -4.80600 43.83200
H  28.34100 -3.17400 43.11400
H  27.35700 -1.95700 43.68800
H  19.51200 -7.75900 44.27900
H  19.87700 -5.94800 44.36700
H  18.62300 -6.57300 45.32500
H  19.36600 -10.33600 48.95400
H  20.15700 -11.03200 47.48100
H  18.36600 -10.97700 47.56500
H  23.81600 -11.56600 49.15900
H  24.98700 -10.38800 51.47500
H  21.74000 -10.90000 50.67700
H  22.98100 -10.70100 51.87400
H  22.72900 -12.31500 51.11200
H  26.76100 -11.75500 49.34000
H  25.79800 -12.63100 50.49600
H  27.28600 -12.47000 52.05800
H  27.38400 -10.63700 51.98100
H  28.25200 -11.64100 50.90100
H  30.31500 -8.14400 49.85900
H  29.46400 -7.48200 51.28800
H  30.52700 -6.40300 50.29000
H  28.85200 -3.92500 45.84800
H  28.26500 0.18800 45.22200
H  28.65400 0.20200 46.99900
H  27.06100 -0.08800 46.53600
Mg 35.48900 1.71800 29.81000
C  33.16400 2.71100 32.20700
C  37.87800 1.71300 32.39700
C  37.94900 1.37200 27.56800
C  33.16100 1.94900 27.35700
N  35.57100 2.43500 32.08000
C  34.44500 2.56400 32.81000
C  34.76900 2.73700 34.30800
C  36.27400 2.67600 34.32800
C  36.57400 2.15800 32.87600
C  37.21100 3.87000 34.74400
C  33.98400 1.62500 35.08000
C  33.41300 2.07800 36.45600
H  34.04100 3.26600 37.18000
N  37.59100 1.45900 29.96100
C  38.36000 1.56500 31.10200
C  39.71500 1.19500 30.75800
C  39.77900 1.10000 29.37800
C  38.40800 1.37600 28.89100
C  40.89600 1.07700 31.81100
C  41.06600 0.78600 28.46900
O  40.88700 0.63700 27.26000
C  42.47600 0.73400 29.07800
N  35.55300 1.63100 27.80000
C  36.66300 1.44300 27.00700
C  36.30300 1.24000 25.49900
C  34.75500 1.00700 25.59500
C  34.47200 1.58600 27.04700
C  36.88700 2.35300 24.66400
C  34.35800 -0.45700 25.36300
C  33.95400 -0.88100 23.92100
N  33.46600 2.22000 29.71400
C  32.69000 2.37500 28.62000
C  31.33900 2.62200 29.12500
C  31.44100 2.82900 30.52500
C  32.78400 2.58500 30.83100
C  30.18200 2.84400 28.24000
C  30.75200 3.22200 31.77700
O  29.64000 3.61900 31.99700
C  31.83600 3.18800 32.89400
C  31.97500 4.58500 33.30700
O  32.71700 5.40100 32.76800
O  31.10800 4.84700 34.38400
C  31.14000 6.26300 34.81800
H  38.55800 1.71400 33.25100
H  38.69300 1.31700 26.77100
H  32.54700 1.86700 26.45800
H  34.38800 3.73700 34.51700
H  36.49600 1.86100 35.01700
H  36.66800 4.81100 34.83700
H  37.96300 4.11800 33.99500
H  37.63100 3.79100 35.74600
H  34.71200 0.82600 35.22300
H  33.17000 1.15700 34.52600
H  33.57500 1.19700 37.07700
H  32.33200 2.14900 36.33900
H  40.43500 1.18000 32.79300
H  41.63800 1.87300 31.75800
H  41.40900 0.11700 31.86700
H  42.62700 -0.13000 29.72400
H  42.57100 1.69100 29.59200
H  43.29000 0.65000 28.35800
H  36.82100 0.34000 25.16800
H  34.22800 1.68300 24.92200
H  36.21200 2.92000 24.02300
H  37.71800 1.91400 24.11100
H  37.38500 3.09600 25.28600
H  33.57000 -0.71600 26.07100
H  35.19300 -1.02500 25.77200
H  34.80500 -0.74600 23.25400
H  33.09400 -0.25800 23.67700
H  33.64700 -1.91600 24.07300
H  29.85000 1.87300 27.87100
H  30.46600 3.49200 27.41100
H  29.41700 3.42300 28.75600
H  31.58800 2.51400 33.71400
H  32.07800 6.49400 35.32200
H  30.27100 6.47400 35.44100
H  30.95200 6.95000 33.99200

