158

Mg -1.56100 18.10700 26.87300
C  -2.34700 15.90600 29.61400
C  -2.10500 20.80000 28.99300
C  -1.53600 20.18400 24.26000
C  -2.14600 15.43200 24.79400
N  -2.20200 18.25500 29.04300
C  -2.34600 17.31400 29.96800
C  -2.30300 17.86800 31.41200
C  -2.64600 19.37700 31.14200
C  -2.22300 19.50800 29.66200
C  -4.19600 19.68300 31.16600
C  -1.05600 17.65500 32.35700
C  -1.39500 17.11700 33.70200
H  -0.29700 16.91700 34.73800
N  -1.73100 20.18800 26.67400
C  -1.77300 21.15200 27.68900
C  -1.43600 22.44100 27.15400
C  -1.30400 22.35300 25.75000
C  -1.42500 20.84000 25.53000
C  -1.46900 23.57900 28.02200
C  -0.94200 23.37200 24.68800
O  -0.87700 23.08400 23.48200
C  -0.63800 24.71600 25.12300
N  -1.86700 17.77600 24.81500
C  -1.81700 18.86200 23.91500
C  -1.97300 18.34900 22.48000
C  -2.05100 16.77400 22.67400
C  -2.19300 16.66900 24.16100
C  -3.25400 18.82900 21.67100
C  -0.72600 16.03000 22.16800
C  -0.89700 14.53600 21.59100
N  -1.88500 16.01200 27.11500
C  -2.04900 15.09500 26.13400
C  -2.33500 13.80200 26.88900
C  -2.37700 14.09800 28.24800
C  -2.14500 15.48400 28.30200
C  -2.68100 12.51100 26.12100
C  -2.62800 13.47500 29.48000
O  -2.69500 12.30800 29.86800
C  -2.47900 14.69000 30.46200
C  -1.28100 14.44700 31.33200
O  -0.08800 14.75900 31.01000
O  -1.54600 13.68600 32.37700
C  -0.33500 13.19700 33.12200
H  -2.13800 21.61000 29.72500
H  -1.50600 20.80300 23.36100
H  -2.46200 14.59900 24.16300
H  -3.11200 17.46900 32.02400
H  -2.03000 20.09500 31.68400
H  -4.57700 19.77400 30.14900
H  -4.33800 20.68000 31.58300
H  -4.77400 18.94500 31.72300
H  -0.72700 18.65000 32.65500
H  -0.23700 17.09500 31.90500
H  -1.94600 16.18800 33.55400
H  -2.09800 17.84200 34.11100
H  -1.49400 23.31800 29.08000
H  -2.39700 24.07300 27.73700
H  -0.56000 24.16500 27.88700
H  -0.59000 25.47300 24.34000
H  0.30900 24.57300 25.64300
H  -1.35100 25.08400 25.86000
H  -1.18400 18.72200 21.82700
H  -2.92600 16.31500 22.21300
H  -3.50600 19.75600 22.18500
H  -3.98500 18.03300 21.81400
H  -3.06900 19.09500 20.63100
H  0.01200 15.86700 22.95300
H  -0.29100 16.62700 21.36700
H  -0.27000 13.84600 22.15500
H  -0.57300 14.35000 20.56700
H  -1.96300 14.31000 21.61100
H  -3.44600 12.69300 25.36500
H  -3.02400 11.74400 26.81600
H  -1.79000 12.22400 25.56300
H  -3.29600 14.72200 31.18300
H  -0.61900 13.29700 34.16900
H  0.55900 13.76900 32.87700
H  -0.21600 12.14700 32.85600
Mg 8.87000 4.31900 27.11600
C  9.89400 2.76900 29.95600
C  6.55000 6.05300 29.06000
C  7.66900 5.70100 24.21300
C  10.38600 1.80900 25.17100
N  8.25400 4.31500 29.19200
C  8.97100 3.72500 30.21700
C  8.47700 4.08000 31.58600
C  7.15900 4.85900 31.29100
C  7.32400 5.10100 29.77500
C  5.90300 3.99900 31.62900
C  9.43000 4.92700 32.43000
C  9.30300 4.65100 33.94000
H  10.57100 4.41100 34.80600
N  7.41500 5.80500 26.72400
C  6.56100 6.40000 27.62600
C  5.86000 7.41600 27.00400
C  6.16200 7.32500 25.57300
C  7.16700 6.29200 25.42600
C  4.87000 8.26000 27.78500
C  5.46700 8.03000 24.47400
O  5.74300 7.89900 23.29100
C  4.42200 9.14400 24.80900
N  9.08900 3.88500 24.94700
C  8.50200 4.63100 23.96200
C  8.77000 4.00800 22.53100
C  9.71300 2.83500 22.92400
C  9.72000 2.75900 24.42000
C  7.50700 3.63200 21.83600
C  11.15000 3.09200 22.40700
C  11.97300 1.96200 21.77400
N  10.06500 2.68300 27.42000
C  10.60700 1.77500 26.54000
C  11.32800 0.80400 27.31800
C  11.15400 1.20900 28.71100
C  10.32700 2.32300 28.65400
C  12.20200 -0.28300 26.91300
C  11.44700 0.86500 30.14000
O  12.14400 0.03200 30.64300
C  10.79800 2.04500 31.05600
C  10.15400 1.36900 32.20000
O  9.21500 0.57600 32.11300
O  10.89600 1.53600 33.34300
C  10.20200 0.92400 34.50800
H  5.90300 6.64200 29.71400
H  7.19100 5.99400 23.27600
H  10.86000 0.95200 24.68800
H  8.26500 3.08600 31.98000
H  6.97400 5.74800 31.89400
H  5.49100 4.42200 32.54500
H  6.12100 2.96600 31.89900
H  5.19500 3.94500 30.80200
H  9.14700 5.97800 32.35900
H  10.45100 4.90100 32.05000
H  8.64800 3.78000 33.92900
H  8.64300 5.38500 34.40200
H  3.91100 8.00600 27.33300
H  5.09100 9.32500 27.84500
H  4.91400 8.06300 28.85700
H  4.59100 9.66800 25.74900
H  3.46900 8.61900 24.88300
H  4.24200 9.88600 24.03100
H  9.19900 4.88900 22.05400
H  9.39500 1.92700 22.41000
H  7.53500 2.68100 21.30300
H  7.08700 4.43800 21.23500
H  6.77200 3.61000 22.64000
H  11.68600 3.53500 23.24600
H  11.24700 3.81200 21.59500
H  11.38700 1.17900 21.29300
H  12.56900 1.52700 22.57600
H  12.60300 2.39400 20.99700
H  12.69800 0.04200 25.99800
H  11.66800 -1.19700 26.64800
H  12.96700 -0.41900 27.67700
H  11.66900 2.53700 31.48800
H  10.22800 -0.16500 34.53600
H  9.16300 1.24500 34.57800
H  10.80500 1.26400 35.35100

