158

Mg 46.67400 35.16100 28.73500
C  45.08800 33.07000 31.19500
C  46.90300 37.54500 31.17200
C  47.65200 37.31200 26.39500
C  45.87200 32.74500 26.41900
N  46.26000 35.20000 30.98300
C  45.58600 34.22000 31.76000
C  45.45900 34.66400 33.19000
C  45.69200 36.21400 33.06700
C  46.34800 36.30600 31.67100
C  44.42800 37.00400 33.23000
C  46.48200 34.03900 34.16600
C  45.86900 33.89100 35.63600
H  46.14100 35.01200 36.63500
N  47.55800 37.11900 28.78900
C  47.59600 37.88900 29.94000
C  48.18700 39.16700 29.54400
C  48.29500 39.14300 28.11800
C  47.86600 37.79700 27.68300
C  48.38000 40.31100 30.53500
C  48.76800 40.20400 27.18000
O  48.83000 40.03700 25.97700
C  49.29800 41.54900 27.72600
N  46.61700 35.15200 26.66600
C  47.16900 36.11200 25.89500
C  46.87200 35.87500 24.37400
C  46.36400 34.34600 24.42000
C  46.29800 34.05000 25.98600
C  45.92600 36.96700 23.78200
C  47.32900 33.37400 23.60800
C  46.78500 32.45900 22.51800
N  45.84300 33.19700 28.74600
C  45.60200 32.36700 27.70500
C  45.01500 31.11100 28.16800
C  44.76400 31.37300 29.52500
C  45.25400 32.65500 29.82000
C  44.64300 29.89500 27.41900
C  44.18600 30.74400 30.69800
O  43.79000 29.62500 30.91200
C  44.20300 31.91900 31.77000
C  44.70500 31.39200 33.02500
O  45.63100 30.62000 33.23400
O  43.77600 31.74100 34.00200
C  43.85200 31.03200 35.27900
H  46.71700 38.31400 31.92400
H  47.91500 38.05200 25.63700
H  45.68400 32.03100 25.61500
H  44.48500 34.49500 33.64900
H  46.30800 36.63400 33.86100
H  43.58500 36.42100 33.59900
H  44.06800 37.35400 32.26300
H  44.63300 37.87700 33.85000
H  47.32100 34.73400 34.20500
H  46.83800 33.08300 33.78300
H  46.25100 33.01100 36.15500
H  44.79400 33.72000 35.58100
H  48.15100 41.32800 30.21500
H  49.43400 40.35800 30.80900
H  47.77100 40.20800 31.43300
H  49.93000 42.10400 27.03200
H  49.83000 41.39000 28.66400
H  48.41600 42.18500 27.80800
H  47.82100 35.92700 23.84000
H  45.35500 34.34800 24.00700
H  45.60600 37.71800 24.50400
H  45.05000 36.50500 23.32500
H  46.48300 37.50700 23.01700
H  47.86000 32.81800 24.38100
H  47.99700 34.02500 23.04400
H  45.78300 32.10000 22.75300
H  47.55300 31.68500 22.49500
H  46.84300 33.11300 21.64700
H  43.66800 30.05300 26.95900
H  44.54300 29.09300 28.15000
H  45.40000 29.57300 26.70400
H  43.22800 32.38500 31.91000
H  42.83000 31.21800 35.60700
H  44.55300 31.43700 36.00900
H  43.98200 29.94900 35.29600
Mg 26.21700 52.23900 27.06100
C  23.65900 52.46600 29.40000
C  28.30900 51.10600 29.35800
C  28.59700 51.83200 24.54800
C  23.91000 53.07000 24.51700
N  25.89500 51.68700 29.21900
C  24.89000 51.97800 30.03500
C  25.19400 51.77200 31.52000
C  26.66700 51.23000 31.40500
C  27.02200 51.38400 29.94200
C  27.70200 51.98800 32.24800
C  24.22800 50.79200 32.34600
C  23.73000 51.28100 33.70100
H  24.79700 51.69700 34.73800
N  28.19900 51.61700 27.00500
C  28.90500 51.27600 28.07700
C  30.25800 50.89200 27.65200
C  30.35100 51.02700 26.23200
C  29.03600 51.54100 25.86900
C  31.20800 50.26100 28.56400
C  31.51500 50.73600 25.32100
O  31.43100 51.02700 24.11200
C  32.70900 50.16400 25.88200
N  26.29200 52.67600 24.84600
C  27.31600 52.27200 24.10700
C  27.04300 52.66100 22.57500
C  25.50600 52.88900 22.48300
C  25.20300 52.86300 23.98800
C  28.01500 53.82400 22.08800
C  24.72100 51.79100 21.71700
C  24.64100 51.99600 20.22900
N  24.21600 52.71200 26.96500
C  23.46600 53.05700 25.86200
C  22.16800 53.32500 26.29700
C  22.15000 53.15500 27.71000
C  23.44800 52.65900 28.04100
C  21.02100 53.50300 25.52300
C  21.30700 53.25800 28.91500
O  20.20600 53.68800 29.06500
C  22.32100 53.00600 30.12300
C  22.57100 54.26000 30.79800
O  23.11700 55.22200 30.28900
O  22.03300 54.25100 32.07000
C  22.37800 55.34300 32.93700
H  29.12400 50.91100 30.05800
H  29.26200 51.76700 23.68400
H  23.17600 53.27900 23.73600
H  25.18100 52.70400 32.08600
H  26.90900 50.17400 31.52200
H  28.42100 51.24600 32.59500
H  27.18200 52.45800 33.08300
H  28.25900 52.65200 31.58600
H  24.71900 49.82000 32.37500
H  23.27000 50.63700 31.85000
H  22.98300 50.61000 34.12600
H  23.24700 52.23000 33.47100
H  30.97500 50.14900 29.62300
H  32.11800 50.85800 28.50800
H  31.52000 49.27500 28.22200
H  33.47600 50.12300 25.10900
H  32.54300 49.12500 26.16800
H  33.17300 50.59100 26.77100
H  27.26000 51.73600 22.04000
H  25.32100 53.90000 22.11900
H  28.83100 53.85100 22.80900
H  27.51100 54.77100 21.89500
H  28.36000 53.52300 21.09800
H  23.68800 51.64600 22.03300
H  25.21400 50.83000 21.86400
H  24.83200 51.04100 19.73900
H  25.33900 52.69300 19.76500
H  23.65300 52.31400 19.89700
H  20.93600 52.83200 24.66800
H  20.81900 54.54000 25.25700
H  20.20200 53.24300 26.19300
H  22.01500 52.22700 30.82200
H  22.50800 56.27200 32.38200
H  23.30600 55.04300 33.42400
H  21.56000 55.37800 33.65600

