158

Mg 35.17500 48.21800 26.40000
C  35.55800 46.20600 29.08200
C  34.12400 50.70000 28.51400
C  34.62700 50.22400 23.64600
C  36.33000 45.68700 24.33500
N  34.91900 48.38300 28.57800
C  35.20200 47.46600 29.46100
C  35.21700 47.96800 30.86600
C  34.32000 49.31700 30.69800
C  34.51900 49.54500 29.16700
C  32.85800 49.12200 31.06900
C  36.72100 48.17500 31.32300
C  37.05500 47.70100 32.80800
H  36.73300 48.68100 33.96500
N  34.38900 50.17200 26.16400
C  34.02200 51.03400 27.09300
C  33.46700 52.16900 26.57400
C  33.83100 52.15000 25.17900
C  34.34300 50.79100 24.92700
C  32.71300 53.21100 27.31600
C  33.64900 53.27800 24.16000
O  33.97900 53.22200 22.94300
C  33.11800 54.59600 24.62800
N  35.37000 47.97600 24.32600
C  35.02500 48.91800 23.40900
C  35.25000 48.35200 22.03500
C  36.27900 47.12100 22.28300
C  35.80500 46.86100 23.72600
C  33.99900 48.06900 21.22400
C  37.77900 47.42900 22.02800
C  38.59500 46.69500 20.91600
N  35.82600 46.22600 26.60900
C  36.38300 45.36200 25.72400
C  36.70400 44.17500 26.37600
C  36.38800 44.39400 27.73700
C  35.86300 45.68300 27.78400
C  37.17800 42.89500 25.69700
C  36.42300 43.88500 29.09300
O  36.87300 42.82100 29.50100
C  36.04800 45.04200 30.02600
C  35.00600 44.58600 30.93300
O  33.84400 44.32400 30.67200
O  35.57000 44.46100 32.13700
C  34.61400 44.29200 33.25900
H  33.82900 51.50600 29.18900
H  34.55700 50.79700 22.72000
H  36.63800 44.91700 23.62600
H  34.92200 47.29000 31.66700
H  34.66600 50.25200 31.13800
H  32.27200 49.36600 30.18300
H  32.67100 49.86600 31.84400
H  32.65100 48.11200 31.42100
H  37.05800 49.21200 31.31500
H  37.42100 47.62500 30.69400
H  38.12500 47.49800 32.85900
H  36.48000 46.78700 32.95600
H  31.86900 53.48200 26.68300
H  33.27700 54.11000 27.56600
H  32.27200 52.92200 28.27100
H  32.09400 54.39400 24.94300
H  33.19300 55.30400 23.80300
H  33.65700 55.02400 25.47300
H  35.80600 49.01700 21.37400
H  35.91700 46.28900 21.67800
H  33.08000 48.47700 21.64500
H  33.89200 46.98800 21.14500
H  34.19800 48.55400 20.26800
H  38.42500 47.31700 22.89900
H  37.97900 48.49000 21.87700
H  38.85200 47.51000 20.23900
H  37.97900 45.98300 20.36800
H  39.48800 46.17300 21.26200
H  36.52200 42.11800 25.30400
H  37.95800 42.46000 26.32200
H  37.55100 43.23700 24.73100
H  36.98500 45.27700 30.53000
H  34.63300 45.15600 33.92400
H  34.90200 43.39200 33.80400
H  33.59100 44.17600 32.90300
Mg -10.01800 16.96600 40.44500
C  -6.60900 16.84400 40.54400
C  -9.76700 20.35800 39.57300
C  -13.40000 17.04400 39.95900
C  -10.05800 13.48900 40.44500
N  -8.35200 18.34600 39.96100
C  -7.07600 18.05000 40.10500
C  -6.26500 19.22300 39.53500
C  -7.17000 20.43900 39.74400
C  -8.50400 19.71300 39.75300
C  -6.95000 21.30900 40.98700
C  -5.79100 18.94200 38.07100
C  -4.37800 18.61500 37.66000
H  -4.14500 17.22900 37.01400
N  -11.38200 18.53400 39.92200
C  -11.08300 19.86600 39.54600
C  -12.30800 20.56900 39.28300
C  -13.37600 19.61400 39.44900
C  -12.72100 18.33200 39.82200
C  -12.27700 22.02200 38.99900
C  -14.79100 19.91200 39.36000
O  -15.10400 21.08400 39.13600
C  -15.87000 18.96200 39.59200
N  -11.47900 15.49300 40.18700
C  -12.85600 15.76700 40.06300
C  -13.68500 14.47500 39.98300
C  -12.51000 13.33500 39.95300
C  -11.25600 14.16500 40.19800
C  -14.67100 14.23600 41.10800
C  -12.33000 12.57000 38.58200
C  -12.39500 11.00400 38.63600
N  -8.67500 15.36900 40.57100
C  -8.82700 14.09400 40.64100
C  -7.46200 13.46200 40.98600
C  -6.58300 14.54100 41.06600
C  -7.37000 15.63200 40.70800
C  -7.30300 11.99400 41.20600
C  -5.20900 14.94900 41.25600
O  -4.25700 14.26300 41.66500
C  -5.10900 16.42700 40.82400
C  -4.62600 17.36500 41.93400
O  -5.30200 18.17500 42.53600
O  -3.32900 17.10800 42.24300
C  -2.73800 18.01100 43.24000
H  -9.60500 21.38900 39.25100
H  -14.44700 17.01300 39.65100
H  -10.18500 12.40500 40.47200
H  -5.38000 19.24900 40.17100
H  -7.25700 21.17200 38.94200
H  -6.04800 21.00600 41.51800
H  -7.80200 21.18000 41.65500
H  -6.75600 22.34300 40.70500
H  -6.02300 19.79500 37.43400
H  -6.41600 18.16000 37.64000
H  -3.75500 18.72000 38.54800
H  -4.14500 19.32500 36.86700
H  -12.25200 22.59300 39.92700
H  -13.03100 22.25300 38.24700
H  -11.32800 22.28300 38.52900
H  -15.70100 18.51800 40.57300
H  -15.86100 18.20200 38.81000
H  -16.84600 19.44500 39.56600
H  -14.27800 14.46100 39.06800
H  -12.67200 12.64200 40.77900
H  -14.47300 14.93900 41.91700
H  -14.55400 13.20300 41.43400
H  -15.71100 14.48300 40.89200
H  -11.34200 12.78700 38.17400
H  -13.00900 12.91400 37.80200
H  -12.00800 10.70800 39.61100
H  -11.63900 10.58200 37.97300
H  -13.39800 10.62300 38.44500
H  -6.47100 11.66100 41.82700
H  -7.15100 11.46600 40.26500
H  -8.12200 11.51300 41.74100
H  -4.53100 16.53800 39.90700
H  -2.80400 18.98600 42.75700
H  -1.69400 17.91700 43.54100
H  -3.36100 17.99200 44.13400

