158

Mg 42.37100 42.20400 26.83400
C  41.56900 44.58400 29.11100
C  43.44900 40.09300 29.39700
C  43.66100 40.01700 24.53900
C  41.92200 44.63100 24.25100
N  42.61600 42.39100 28.95900
C  42.09200 43.41300 29.72000
C  41.99200 43.01600 31.26800
C  42.61400 41.55400 31.29400
C  42.97700 41.30400 29.81100
C  43.71400 41.32100 32.30000
C  40.49900 43.11000 31.72000
C  40.08000 42.23400 32.91600
H  39.38700 42.83600 34.14000
N  43.26000 40.27500 26.93600
C  43.71300 39.67400 28.10000
C  44.35500 38.48200 27.77300
C  44.44100 38.42300 26.33000
C  43.79400 39.63200 25.89800
C  44.78100 37.46100 28.74500
C  45.11900 37.38100 25.32300
O  45.18300 37.52800 24.09100
C  45.86400 36.16700 25.94500
N  42.80800 42.32600 24.69300
C  43.17600 41.22500 23.95300
C  43.09800 41.52800 22.49400
C  42.27800 42.86300 22.40200
C  42.39400 43.39800 23.82700
C  44.45200 41.74500 21.74500
C  40.79100 42.76200 21.93300
C  39.79700 41.87500 22.81400
N  41.78800 44.17500 26.68100
C  41.59000 44.95500 25.59800
C  41.09600 46.29000 26.06100
C  41.06800 46.06500 27.45500
C  41.61000 44.87200 27.74500
C  40.70900 47.45600 25.20900
C  40.52900 46.71800 28.63000
O  39.91900 47.75100 28.83300
C  40.90400 45.77100 29.75900
C  41.71800 46.46700 30.80800
O  42.91900 46.55100 30.82300
O  40.81300 46.87700 31.74900
C  41.47800 47.02300 33.04100
H  43.75200 39.46500 30.23700
H  43.92900 39.31300 23.74800
H  41.67500 45.41900 23.53600
H  42.62400 43.68200 31.85400
H  41.85200 40.81500 31.54000
H  43.50400 40.33100 32.70500
H  43.62100 42.08600 33.07100
H  44.73100 41.36800 31.90900
H  39.79200 43.08400 30.89000
H  40.32000 44.11400 32.10400
H  40.99800 41.71700 33.19300
H  39.47200 41.46200 32.44400
H  44.61400 36.44300 28.39500
H  44.20900 37.34600 29.66600
H  45.83900 37.66500 28.90600
H  46.30800 36.56100 26.85900
H  46.69800 35.85200 25.31700
H  45.17600 35.35500 26.18100
H  42.55100 40.66000 22.12300
H  42.69100 43.52300 21.64000
H  44.82500 42.76200 21.62500
H  44.41200 41.31400 20.74500
H  45.17800 41.17900 22.33000
H  40.83600 42.28500 20.95300
H  40.41100 43.78300 21.90300
H  40.37100 41.36200 23.58500
H  39.25500 41.12000 22.24500
H  38.99800 42.43600 23.30000
H  39.64900 47.69200 25.11400
H  40.89400 47.24600 24.15600
H  41.29100 48.30600 25.56700
H  39.98900 45.44200 30.25200
H  42.30700 47.72900 32.98800
H  41.82700 46.10000 33.50500
H  40.82700 47.52000 33.76100
Mg 5.97200 54.35100 40.81300
C  5.05100 51.01900 40.36600
C  9.11400 53.63100 39.39200
C  6.63500 57.55500 41.02500
C  2.58200 55.03700 41.85000
N  6.93600 52.56700 40.03800
C  6.38400 51.33600 39.89600
C  7.42000 50.30000 39.40500
C  8.81300 51.06000 39.52300
C  8.25700 52.49900 39.52100
C  9.56700 50.60700 40.81000
C  7.04700 49.99400 37.96300
C  7.67600 48.77800 37.28400
H  6.86300 48.13800 36.11100
N  7.55800 55.43100 40.22500
C  8.78200 54.96400 39.73900
C  9.63800 56.08300 39.53700
C  9.08900 57.23700 40.05800
C  7.69000 56.78600 40.48600
C  10.91900 56.00800 38.78400
C  9.72700 58.53300 40.09700
O  10.85700 58.71600 39.60800
C  9.07400 59.59000 40.79900
N  4.79100 56.06800 41.28200
C  5.33400 57.26300 41.39500
C  4.34600 58.37100 41.85400
C  3.03000 57.59200 41.88400
C  3.45600 56.10500 41.64200
C  4.64600 59.03400 43.27200
C  1.97900 57.96800 40.83200
C  0.93000 59.08200 41.20100
N  4.17200 53.26600 41.08200
C  2.94100 53.64400 41.58500
C  2.17800 52.44800 41.84800
C  3.00400 51.38500 41.34300
C  4.16100 51.91800 40.88800
C  0.85900 52.40000 42.50200
C  3.03300 49.94600 41.25300
O  2.31200 49.03800 41.65400
C  4.42500 49.70800 40.66300
C  4.36100 48.69200 39.56100
O  3.81400 48.75500 38.43900
O  5.09100 47.57800 39.98000
C  4.75200 46.35800 39.18100
H  10.16800 53.40500 39.21700
H  6.69200 58.64100 41.13400
H  1.62200 55.37000 42.25000
H  7.30400 49.39200 39.99600
H  9.36000 50.99200 38.58200
H  9.17900 49.72200 41.31300
H  9.45300 51.43400 41.51100
H  10.63200 50.60000 40.57500
H  7.26500 50.87500 37.35800
H  5.96800 49.90800 37.84000
H  8.00000 48.04400 38.02200
H  8.55000 49.18900 36.77700
H  11.79000 56.13900 39.42600
H  10.93300 56.83800 38.07700
H  11.01000 55.07200 38.23300
H  8.28700 59.97800 40.15200
H  9.72000 60.38200 41.17700
H  8.69200 59.02100 41.64700
H  4.55500 59.14700 41.11800
H  2.56000 57.58500 42.86700
H  3.66300 59.33100 43.63900
H  5.15500 59.94400 42.95300
H  5.35100 58.55800 43.95300
H  1.40600 57.16800 40.36400
H  2.56100 58.36200 39.99900
H  0.94100 59.79600 40.37700
H  1.26800 59.54900 42.12600
H  -0.06800 58.67000 41.35300
H  0.15700 52.32200 41.67200
H  0.66600 53.31900 43.05500
H  0.94300 51.48100 43.08300
H  5.05300 49.27400 41.44100
H  3.70000 46.08200 39.25100
H  5.38900 45.58400 39.61000
H  5.01300 46.51600 38.13400

