158

Mg 17.39600 -1.13100 28.11300
C  16.20000 0.81100 30.80700
C  19.18000 -2.95200 30.38100
C  18.85900 -2.73900 25.57400
C  15.82800 1.06300 25.91300
N  17.61800 -0.98600 30.24700
C  17.02000 -0.25800 31.18400
C  17.52500 -0.50100 32.61600
C  18.60300 -1.54300 32.33700
C  18.44800 -1.85700 30.86300
C  20.10400 -1.31800 32.74000
C  16.43100 -0.98800 33.55500
C  16.72200 -0.52100 35.00600
H  18.09400 0.10400 35.39400
N  18.67500 -2.68600 28.00000
C  19.22500 -3.35000 29.01000
C  19.87700 -4.49100 28.53300
C  19.72100 -4.52100 27.09800
C  19.02100 -3.26600 26.83200
C  20.56400 -5.58500 29.51500
C  20.24100 -5.52500 26.08500
O  20.09500 -5.38200 24.88200
C  21.01300 -6.81600 26.61000
N  17.53100 -0.78300 26.02000
C  18.07600 -1.68100 25.17100
C  17.82800 -1.28100 23.71000
C  16.80300 -0.06400 23.82300
C  16.82300 0.18400 25.36400
C  19.10100 -1.03200 22.90700
C  15.43100 -0.24400 23.11300
C  14.13700 -0.79700 23.80400
N  16.18300 0.58700 28.27800
C  15.58200 1.31800 27.26700
C  14.83200 2.36500 27.89200
C  14.97100 2.22800 29.23600
C  15.86700 1.15200 29.45200
C  14.14800 3.49800 27.23400
C  14.58900 2.78200 30.54800
O  13.84900 3.73900 30.87000
C  15.55200 1.95600 31.62200
C  16.54900 2.80400 32.30500
O  17.73500 2.60100 32.15100
O  15.99600 3.71400 33.23800
C  16.97400 4.45600 34.06100
H  19.69800 -3.60200 31.08900
H  19.27000 -3.27900 24.71800
H  15.22300 1.58800 25.17100
H  17.99400 0.42100 32.95700
H  18.36800 -2.48400 32.83500
H  20.44600 -2.23200 33.22700
H  20.14400 -0.39500 33.31700
H  20.66400 -1.23700 31.80800
H  16.43700 -2.07700 33.49800
H  15.50000 -0.56000 33.18300
H  16.39900 -1.30100 35.69500
H  15.94300 0.23400 35.11700
H  20.02800 -5.68900 30.45800
H  21.63100 -5.38600 29.61800
H  20.40100 -6.55500 29.04600
H  21.39100 -7.26400 25.69100
H  20.22100 -7.44300 27.01900
H  21.86700 -6.61300 27.25700
H  17.31000 -2.06300 23.15500
H  17.29000 0.80600 23.38200
H  19.36800 0.02400 22.94100
H  18.92500 -1.44100 21.91200
H  19.97400 -1.52100 23.34100
H  15.46400 -0.85000 22.20800
H  15.22600 0.77400 22.78000
H  13.69300 -1.50000 23.10000
H  13.30400 -0.12200 24.00200
H  14.37300 -1.37300 24.69900
H  13.08400 3.27900 27.13500
H  14.60800 3.81600 26.29900
H  14.35400 4.27900 27.96600
H  14.85500 1.63800 32.39700
H  17.78100 4.95700 33.52600
H  17.48400 3.90800 34.85300
H  16.40500 5.21400 34.59900
Mg -5.31500 25.85400 26.10300
C  -4.10200 27.48300 28.89100
C  -7.03600 23.68900 28.03100
C  -6.00200 24.10600 23.29400
C  -3.25600 27.76600 24.10100
N  -5.35500 25.51900 28.21000
C  -4.91400 26.42900 29.14700
C  -5.70500 26.16500 30.52600
C  -6.38400 24.81900 30.25200
C  -6.21000 24.62600 28.72800
C  -5.93600 23.51100 31.04400
C  -6.67700 27.32900 31.02600
C  -7.12900 27.29100 32.47300
H  -6.49300 26.26200 33.46500
N  -6.53800 24.18800 25.67100
C  -7.23100 23.49000 26.62600
C  -8.01500 22.57200 25.97700
C  -7.72400 22.60000 24.55900
C  -6.69800 23.68100 24.43900
C  -9.01600 21.64900 26.64800
C  -8.41700 21.90100 23.42100
O  -8.12700 22.12000 22.22800
C  -9.52400 20.90900 23.73200
N  -4.79700 26.07300 23.95200
C  -5.08300 25.08700 23.05200
C  -4.36100 25.35600 21.70100
C  -3.65400 26.67900 21.97900
C  -3.86000 26.83000 23.45700
C  -3.54000 24.15800 21.11800
C  -4.21600 27.86600 21.07900
C  -3.13300 28.81000 20.44600
N  -4.04600 27.47300 26.36000
C  -3.28000 28.15000 25.43400
C  -2.41600 29.00700 26.17300
C  -2.72500 28.93800 27.53600
C  -3.73500 27.90900 27.58900
C  -1.41200 29.93000 25.52800
C  -2.36800 29.27800 28.88600
O  -1.40900 29.93900 29.36300
C  -3.39400 28.48000 29.81400
C  -2.61600 27.82500 30.97500
O  -1.73600 26.98500 30.93800
O  -3.14600 28.26600 32.16600
C  -2.42700 27.85300 33.39800
H  -7.61400 22.95700 28.59900
H  -6.19100 23.58300 22.35400
H  -2.50400 28.18300 23.42800
H  -4.92700 25.95500 31.26000
H  -7.43800 24.95800 30.49100
H  -5.06600 23.75700 31.65200
H  -5.82000 22.63200 30.41000
H  -6.74200 23.19600 31.70800
H  -7.60700 27.41500 30.46400
H  -6.10000 28.25300 30.98700
H  -8.21800 27.25200 32.47000
H  -7.04600 28.32500 32.80700
H  -10.00700 21.78400 26.21400
H  -9.04800 21.90300 27.70800
H  -8.74000 20.62200 26.41000
H  -10.35500 21.56100 24.00300
H  -9.16700 20.25400 24.52600
H  -9.73600 20.25500 22.88600
H  -5.25400 25.42100 21.07900
H  -2.60200 26.55800 21.72100
H  -3.43500 23.34700 21.83800
H  -2.57500 24.51800 20.76100
H  -3.99000 23.61900 20.28400
H  -4.97900 28.34400 21.69200
H  -4.67800 27.35900 20.23200
H  -3.31000 28.77400 19.37100
H  -2.10800 28.48400 20.62400
H  -3.34500 29.85700 20.66100
H  -1.03500 30.56500 26.33000
H  -1.94000 30.52400 24.78200
H  -0.55400 29.46200 25.04600
H  -4.00700 29.24600 30.28800
H  -2.03100 28.74000 33.89300
H  -1.61900 27.13700 33.24400
H  -3.15200 27.43400 34.09500

