158

Mg 44.56000 5.00000 48.08000
C  42.52400 7.76600 47.49700
C  41.78100 2.99300 47.13500
C  46.64200 2.37600 47.79700
C  47.28700 7.19900 48.18500
N  42.49000 5.36000 47.27800
C  41.95800 6.57700 47.01400
C  40.50900 6.54300 46.49400
C  40.18800 5.03400 46.70700
C  41.49900 4.37400 47.12100
C  39.10200 4.67500 47.76400
C  40.30500 7.19200 45.06500
C  38.88000 7.70300 44.63500
H  38.48200 7.35000 43.17700
N  44.20800 2.94600 47.76700
C  43.01800 2.34000 47.35700
C  43.28100 0.91800 47.30500
C  44.66400 0.67400 47.48000
C  45.22300 2.01000 47.70900
C  42.14800 -0.06800 47.11300
C  45.34800 -0.68500 47.61700
O  44.70800 -1.68100 47.32900
C  46.78600 -0.90100 48.10100
N  46.63600 4.84600 47.85900
C  47.24600 3.63000 47.91600
C  48.75500 3.83500 48.07200
C  48.95100 5.35800 47.90100
C  47.51400 5.84700 47.92900
C  49.33900 3.19600 49.31000
C  49.80100 5.91100 46.65900
C  49.06400 6.08700 45.28300
N  44.87400 7.01500 48.07600
C  46.01400 7.74600 48.20200
C  45.62600 9.17000 48.32600
C  44.25800 9.21400 48.01700
C  43.83300 7.86600 47.89600
C  46.49000 10.39200 48.46000
C  43.12000 10.07000 47.80000
O  42.90400 11.29600 47.83500
C  41.96400 9.11400 47.48800
C  40.96000 9.34800 48.43400
O  40.97100 9.11800 49.59600
O  39.84100 9.95100 47.86000
C  38.70000 10.12900 48.73200
H  40.93500 2.37900 46.82000
H  47.41200 1.61700 47.95400
H  48.12700 7.88400 48.32100
H  39.85900 7.03400 47.21800
H  39.90000 4.71300 45.70600
H  38.18800 4.38400 47.24700
H  38.88800 5.58900 48.31700
H  39.39800 3.94100 48.51500
H  40.39400 6.27600 44.48100
H  41.09200 7.81500 44.63900
H  38.91800 8.78600 44.52600
H  38.13000 7.41300 45.37200
H  41.24000 0.38700 46.71800
H  42.03400 -0.68300 48.00600
H  42.52100 -0.71900 46.32200
H  47.12500 -0.28400 48.93300
H  47.45100 -0.65900 47.27200
H  46.82300 -1.98800 48.17000
H  49.13100 3.27800 47.21400
H  49.35300 5.72400 48.84600
H  49.27200 2.11000 49.36100
H  48.92200 3.76500 50.14000
H  50.39400 3.46200 49.37400
H  50.45400 5.07100 46.42200
H  50.39400 6.78600 46.92400
H  49.47500 5.40100 44.54300
H  49.20200 7.09300 44.88700
H  48.02700 5.79300 45.45000
H  46.32900 10.90400 49.40900
H  46.23200 11.06400 47.64100
H  47.49800 10.01000 48.29900
H  41.60600 9.37400 46.49200
H  39.06700 10.44900 49.70600
H  38.04400 9.25900 48.77800
H  38.04200 10.92900 48.39300
Mg 35.78300 2.32400 31.01800
C  33.00400 3.32300 33.00800
C  37.70900 2.66700 33.83100
C  38.34700 1.72800 29.07000
C  33.58600 2.33700 28.17800
N  35.34100 2.87100 33.13900
C  34.18000 3.11600 33.78100
C  34.24500 3.30500 35.34200
C  35.77700 3.39300 35.48800
C  36.32900 2.99900 34.02100
C  36.28200 4.80900 35.80300
C  33.66900 2.13600 36.15200
C  33.02000 2.59300 37.48300
H  33.58200 3.74200 38.29400
N  37.76500 2.15900 31.37700
C  38.37000 2.29700 32.58500
C  39.79000 2.04900 32.41600
C  39.98200 1.70900 31.05500
C  38.69200 1.91100 30.41900
C  40.80200 2.22700 33.57400
C  41.24700 1.28300 30.33700
O  41.35900 1.13100 29.08900
C  42.52000 1.00800 31.18600
N  35.91400 2.20300 28.87900
C  37.13100 1.77900 28.37600
C  36.95800 1.26800 26.94800
C  35.42800 1.41400 26.65300
C  34.93000 1.95700 27.95000
C  37.80200 2.02100 25.90200
C  34.68800 0.07100 26.20100
C  33.59300 0.37200 25.05400
N  33.69400 2.70000 30.60800
C  32.95600 2.75100 29.44200
C  31.62700 3.25300 29.70500
C  31.60700 3.58300 31.13600
C  32.86700 3.22600 31.57600
C  30.43800 3.41800 28.81800
C  30.84400 4.18200 32.20700
O  29.70100 4.62200 32.21200
C  31.68900 3.95000 33.54400
C  31.97700 5.33600 34.03600
O  32.63800 6.14200 33.43800
O  31.20600 5.58600 35.15900
C  31.15500 6.99500 35.59400
H  38.30600 2.72500 34.74400
H  39.16800 1.35200 28.45500
H  32.80500 2.22700 27.42300
H  33.78500 4.26300 35.58300
H  36.30200 2.66300 36.10300
H  36.13200 5.46600 34.94700
H  37.33500 4.61200 36.00300
H  35.74400 5.26200 36.63600
H  34.42400 1.37400 36.34700
H  32.87900 1.64300 35.58500
H  32.91500 1.67900 38.06700
H  31.97100 2.80300 37.27100
H  40.98700 1.28300 34.08700
H  40.35700 2.89200 34.31400
H  41.72200 2.73200 33.28100
H  43.29300 0.70600 30.48000
H  42.30200 0.29900 31.98400
H  42.92500 1.98400 31.45400
H  37.13300 0.19200 26.96400
H  35.34200 2.21800 25.92200
H  37.30300 2.29200 24.97100
H  38.77800 1.60800 25.64700
H  38.11500 2.94100 26.39500
H  34.19800 -0.29600 27.10200
H  35.47200 -0.61100 25.87200
H  33.96400 0.12900 24.05800
H  33.33200 1.42800 25.12900
H  32.71600 -0.24200 25.25800
H  30.57100 3.16200 27.76700
H  30.07500 4.44400 28.76900
H  29.66700 2.77600 29.24300
H  31.03100 3.37000 34.19200
H  30.11800 7.32400 35.51600
H  31.69700 7.67900 34.94200
H  31.58800 7.01200 36.59400

