158

Mg 42.16500 41.13300 26.09600
C  41.18100 43.59300 28.56100
C  43.05300 39.01300 28.77000
C  43.34600 38.86900 23.93500
C  41.83000 43.45000 23.78600
N  42.20400 41.30200 28.37600
C  41.61800 42.34600 29.14500
C  41.54400 41.97600 30.62700
C  42.43300 40.62500 30.67200
C  42.62500 40.28200 29.21100
C  43.77300 40.64200 31.37500
C  40.06700 41.83800 31.33600
C  40.00800 41.23300 32.75400
H  39.50100 42.07700 33.93600
N  43.03600 39.17600 26.36900
C  43.31200 38.46600 27.50600
C  43.85900 37.16800 27.19400
C  43.95400 37.11000 25.77600
C  43.45700 38.39100 25.30900
C  44.07200 36.06800 28.25200
C  44.44100 36.03800 24.87600
O  44.59800 36.17300 23.64400
C  44.75500 34.60200 25.48000
N  42.65400 41.15600 24.19000
C  42.94300 40.09500 23.46500
C  42.98900 40.50000 21.97100
C  42.45000 41.95900 21.90100
C  42.31600 42.22600 23.41700
C  44.33400 40.34600 21.21900
C  41.08600 42.07200 21.22100
C  39.88700 41.22700 21.76000
N  41.67800 43.06400 26.06100
C  41.61300 43.93900 25.02200
C  41.15400 45.26700 25.42600
C  40.91400 45.11100 26.78700
C  41.24900 43.78700 27.16300
C  40.98000 46.46400 24.51700
C  40.46300 45.79900 27.98600
O  40.02400 46.89100 28.12800
C  40.63500 44.78200 29.19700
C  41.49000 45.33200 30.30400
O  42.55700 45.78400 30.13600
O  40.85400 45.16400 31.49600
C  41.63500 45.51600 32.69800
H  43.25600 38.33800 29.60400
H  43.69900 38.27600 23.08900
H  41.64100 44.22300 23.03800
H  42.03200 42.81600 31.12200
H  41.83000 39.87700 31.18800
H  43.79100 39.92700 32.19700
H  43.97300 41.58300 31.88700
H  44.61800 40.49900 30.70100
H  39.40400 41.36600 30.61100
H  39.50700 42.74500 31.56000
H  41.04800 40.93400 32.88600
H  39.36700 40.35500 32.67900
H  43.95500 36.35400 29.29700
H  45.09700 35.75300 28.05700
H  43.36500 35.27900 27.99800
H  45.45400 34.76900 26.29900
H  45.19400 33.98600 24.69500
H  43.86900 34.13500 25.91000
H  42.30600 39.76200 21.54800
H  43.17900 42.67800 21.52900
H  45.04100 40.09000 22.00800
H  44.64800 41.27100 20.73500
H  44.18200 39.44700 20.62100
H  41.25500 41.76900 20.18700
H  40.84900 43.13600 21.20000
H  39.72000 40.43600 21.02900
H  39.01600 41.87600 21.85800
H  40.06500 40.91000 22.78800
H  40.95500 46.16900 23.46800
H  41.82000 47.11100 24.76800
H  40.02800 46.96200 24.70200
H  39.65500 44.50900 29.59000
H  41.26700 44.95800 33.56000
H  41.61300 46.58100 32.92800
H  42.65600 45.13800 32.65400
Mg -10.41600 40.21000 42.42500
C  -9.45400 36.98400 41.51100
C  -7.60600 41.34700 40.56700
C  -11.58000 43.35700 42.47100
C  -13.50100 38.94500 43.30400
N  -8.85700 39.26200 40.92200
C  -8.59500 37.89900 40.95100
C  -7.28700 37.57100 40.18400
C  -6.53300 39.00900 40.19200
C  -7.75900 39.92600 40.61300
C  -5.29300 39.20400 41.15100
C  -7.59000 37.04100 38.76800
C  -6.82800 35.84000 38.15000
H  -5.75400 36.13300 37.13900
N  -9.61500 42.06400 41.74800
C  -8.48100 42.29400 41.02300
C  -8.24500 43.77700 41.02000
C  -9.35000 44.40400 41.66900
C  -10.23900 43.27600 41.97800
C  -7.10900 44.40200 40.26800
C  -9.53300 45.93100 41.84500
O  -8.81700 46.80400 41.35100
C  -10.62400 46.41900 42.63100
N  -12.34400 41.06900 42.83500
C  -12.58100 42.33000 42.86600
C  -14.09000 42.55500 43.16500
C  -14.53400 41.16500 43.73200
C  -13.41400 40.32400 43.20800
C  -14.49600 43.80600 44.09800
C  -16.01200 40.76500 43.32600
C  -16.90000 40.27200 44.48500
N  -11.32200 38.29500 42.53900
C  -12.55000 37.93400 42.97800
C  -12.65100 36.50600 42.97600
C  -11.53800 36.04600 42.35800
C  -10.70200 37.22600 42.13900
C  -13.78100 35.64300 43.49900
C  -10.76400 34.93200 41.78400
O  -11.06100 33.73500 41.72700
C  -9.38400 35.49100 41.21800
C  -8.25900 34.78300 41.91100
O  -7.77400 35.09800 42.98400
O  -7.84000 33.72400 41.20100
C  -6.77600 32.86300 41.71600
H  -6.73500 41.66900 39.99200
H  -12.10300 44.31500 42.47300
H  -14.45800 38.46700 43.52500
H  -6.57700 36.93200 40.71000
H  -6.23300 39.25600 39.17300
H  -4.58300 38.45200 40.80300
H  -5.61300 38.96700 42.16500
H  -5.02800 40.25900 41.08000
H  -7.45200 37.88600 38.09300
H  -8.65600 36.81800 38.72100
H  -7.54300 35.19300 37.64100
H  -6.35200 35.36200 39.00600
H  -7.25600 44.48700 39.19100
H  -6.19800 43.81200 40.37000
H  -6.85200 45.37200 40.69400
H  -10.72800 45.80500 43.52500
H  -11.55900 46.32700 42.07800
H  -10.45000 47.45000 42.93800
H  -14.52200 42.59500 42.16500
H  -14.33900 41.12300 44.80400
H  -13.64400 44.47300 44.23200
H  -14.72300 43.55400 45.13400
H  -15.31700 44.29600 43.57600
H  -15.98600 40.03200 42.52000
H  -16.59100 41.63900 43.02700
H  -16.29400 40.01600 45.35400
H  -17.36400 39.35000 44.13400
H  -17.67100 41.02600 44.64900
H  -14.20600 35.96400 44.45000
H  -13.42900 34.61400 43.56800
H  -14.57300 35.69100 42.75200
H  -9.49400 35.20900 40.17100
H  -7.09800 32.15100 42.47600
H  -6.03500 33.46200 42.24600
H  -6.20400 32.42900 40.89700

