158

Mg 23.86300 -5.04100 45.18300
C  25.78300 -2.53200 43.71500
C  21.29500 -4.15900 43.11600
C  22.31100 -7.96700 45.90100
C  26.90500 -6.32800 46.66400
N  23.63000 -3.58200 43.52300
C  24.49200 -2.62200 43.14200
C  23.87700 -1.59400 42.15000
C  22.38700 -2.02700 42.15500
C  22.42500 -3.36900 43.01100
C  21.43100 -0.99700 42.76800
C  24.55600 -1.69000 40.79100
C  24.14800 -0.66400 39.72300
H  24.52600 -0.97700 38.18900
N  22.01300 -5.92100 44.69100
C  21.12800 -5.35900 43.81200
C  19.97700 -6.32700 43.61600
C  20.25300 -7.46100 44.47400
C  21.55300 -7.14600 45.08200
C  18.82300 -5.97800 42.71600
C  19.32500 -8.60400 44.68100
O  18.32800 -8.68100 44.00600
C  19.53200 -9.70500 45.70800
N  24.50500 -6.80400 46.25700
C  23.63600 -7.84800 46.38000
C  24.28200 -8.98700 47.21900
C  25.69400 -8.44400 47.50100
C  25.77800 -7.21200 46.66700
C  23.35500 -9.26400 48.47200
C  26.91800 -9.41000 47.05400
C  28.09100 -9.55900 47.98500
N  25.89200 -4.49100 45.31900
C  26.94200 -5.07300 46.05200
C  28.07600 -4.13200 46.01400
C  27.73900 -3.13700 45.07100
C  26.33300 -3.43600 44.67600
C  29.50400 -4.28300 46.75700
C  28.18700 -1.93400 44.37400
O  29.22900 -1.34200 44.45000
C  26.95000 -1.51000 43.47100
C  26.61500 -0.16200 43.86600
O  25.79500 0.14200 44.71000
O  27.45200 0.74100 43.24300
C  27.19900 2.12400 43.58300
H  20.44400 -3.92500 42.47400
H  21.81500 -8.88000 46.23600
H  27.75900 -6.76800 47.18500
H  23.98500 -0.55800 42.47200
H  22.12700 -2.29900 41.13200
H  21.43300 0.03500 42.41600
H  21.46600 -0.90100 43.85400
H  20.43600 -1.40900 42.60200
H  24.34900 -2.71900 40.49500
H  25.55500 -1.33500 41.03900
H  24.87700 0.13000 39.88500
H  23.18500 -0.16900 39.84300
H  18.99300 -6.39600 41.72400
H  18.69100 -4.89800 42.64900
H  17.90600 -6.36500 43.16100
H  18.77500 -10.46500 45.89800
H  19.61800 -9.21600 46.67900
H  20.41100 -10.30600 45.47500
H  24.21900 -9.94700 46.70600
H  25.70000 -8.26900 48.57600
H  22.47100 -8.62600 48.50700
H  23.89200 -9.06600 49.40000
H  23.08800 -10.30800 48.63900
H  27.29600 -9.04800 46.09800
H  26.50000 -10.39000 46.82200
H  28.25100 -10.62200 48.16300
H  27.90400 -9.14500 48.97600
H  28.99100 -9.13500 47.54000
H  30.32100 -4.43200 46.05200
H  29.38000 -5.07000 47.50000
H  29.75500 -3.37200 47.30100
H  27.36100 -1.64100 42.47000
H  26.27500 2.36600 43.05700
H  28.05300 2.68000 43.19800
H  27.27300 2.30200 44.65600
Mg -0.84400 34.34400 26.73100
C  -2.88900 32.77900 29.14200
C  0.33300 36.32100 29.11300
C  0.71700 36.02300 24.23200
C  -2.52300 32.45400 24.25000
N  -1.46100 34.72500 28.81800
C  -2.15900 33.85600 29.65700
C  -1.86200 34.13100 31.14700
C  -0.92800 35.34800 31.12600
C  -0.69400 35.55500 29.61900
C  -1.41100 36.62200 31.88900
C  -1.37500 32.87100 31.99100
C  -2.09800 32.64000 33.37200
H  -1.28400 32.62200 34.67200
N  0.32700 35.98600 26.67200
C  0.83400 36.59900 27.76300
C  1.86800 37.47500 27.34000
C  1.81900 37.57200 25.92900
C  0.93500 36.52600 25.54800
C  2.59800 38.13300 28.34200
C  2.60700 38.38100 24.95400
O  2.49600 38.27700 23.75400
C  3.59400 39.32900 25.53600
N  -0.79200 34.17600 24.47800
C  -0.08400 35.01400 23.66500
C  -0.36700 34.83700 22.15600
C  -1.28700 33.56000 22.24600
C  -1.64500 33.39100 23.71800
C  -1.06000 36.06400 21.50500
C  -0.79200 32.28600 21.54500
C  0.28700 31.45300 22.19600
N  -2.27000 32.85100 26.68100
C  -2.87000 32.18600 25.59500
C  -3.81400 31.23400 26.10200
C  -3.81700 31.39400 27.52900
C  -2.92500 32.41200 27.79000
C  -4.63900 30.44100 25.20000
C  -4.41700 30.96000 28.74700
O  -5.36300 30.20100 28.94200
C  -3.77200 31.86400 29.82400
C  -4.80200 32.45000 30.61400
O  -5.40500 33.44800 30.24800
O  -5.13600 31.64800 31.69200
C  -6.43000 32.02900 32.23200
H  0.89700 36.90100 29.84600
H  1.25100 36.51900 23.41900
H  -2.97500 31.78800 23.51200
H  -2.79500 34.41700 31.63300
H  0.04500 35.11700 31.56000
H  -1.35400 37.45500 31.18700
H  -0.81000 36.84400 32.77100
H  -2.45400 36.59100 32.20500
H  -0.32400 32.84200 32.28100
H  -1.53100 31.98800 31.37100
H  -2.56200 31.65900 33.27600
H  -2.87200 33.38500 33.55500
H  2.80600 37.50700 29.21000
H  2.14200 39.04200 28.73200
H  3.53300 38.49100 27.91100
H  3.07600 39.85100 26.34100
H  3.91800 40.03700 24.77300
H  4.48100 38.79600 25.87800
H  0.64700 34.76700 21.76200
H  -2.22800 33.70100 21.71400
H  -2.08000 35.94300 21.14200
H  -0.63800 36.33300 20.53700
H  -1.06900 36.91300 22.18900
H  -0.50900 32.56600 20.53000
H  -1.69500 31.70900 21.34500
H  1.25000 31.58500 21.70300
H  -0.03400 30.42300 22.04500
H  0.35800 31.54500 23.28000
H  -5.42500 30.01400 25.82200
H  -4.04800 29.65200 24.73400
H  -4.98500 31.04900 24.36400
H  -3.19000 31.21200 30.47500
H  -6.19300 32.20900 33.28000
H  -7.07400 31.15400 32.14600
H  -7.01100 32.86800 31.84900

