158

Mg 1.06800 8.16200 27.24800
C  1.20200 10.58200 29.83400
C  1.45100 5.74100 29.76200
C  1.36200 5.66700 24.94200
C  1.28000 10.52800 24.92100
N  1.27700 8.18200 29.52500
C  1.10200 9.26000 30.35000
C  1.10900 8.89000 31.84300
C  1.30300 7.37300 31.79300
C  1.31200 7.04200 30.28500
C  2.62700 6.86100 32.56000
C  -0.14600 9.46800 32.56400
C  -0.02200 9.89000 34.08400
H  -0.66900 8.86800 35.03500
N  1.18000 5.99100 27.27100
C  1.33900 5.26300 28.42900
C  1.35400 3.85700 28.06800
C  1.17600 3.80200 26.65700
C  1.19700 5.18300 26.21000
C  1.53700 2.65700 28.99800
C  1.06600 2.58900 25.76800
O  0.84400 2.65800 24.55300
C  1.02900 1.23100 26.37200
N  1.26500 8.12200 25.26400
C  1.38500 7.00900 24.48300
C  1.43700 7.35300 22.98400
C  1.48000 8.91000 22.96700
C  1.28800 9.19900 24.47300
C  2.53800 6.70200 22.06900
C  0.31100 9.64300 22.18000
C  0.76100 10.56300 21.02300
N  1.18500 10.20500 27.30200
C  1.25100 11.04700 26.25200
C  1.41200 12.39500 26.79200
C  1.48600 12.30000 28.18400
C  1.27800 10.92400 28.43300
C  1.71600 13.59600 25.98200
C  1.70400 13.04800 29.44900
O  1.96300 14.23800 29.64700
C  1.42900 11.91000 30.58800
C  2.65800 11.84300 31.49900
O  3.71500 11.30000 31.28800
O  2.17100 12.42100 32.61700
C  3.11400 12.30800 33.75600
H  1.59300 4.96400 30.51700
H  1.23400 4.84300 24.23700
H  1.27500 11.41200 24.28000
H  1.98800 9.25000 32.37700
H  0.45000 6.88600 32.26500
H  3.19200 7.60700 33.11800
H  3.32500 6.37200 31.88100
H  2.29900 6.02100 33.17300
H  -0.97300 8.75800 32.56700
H  -0.59100 10.26700 31.97100
H  -0.39400 10.87000 34.38200
H  1.04400 9.93700 34.30900
H  2.23900 1.92500 28.59800
H  0.52700 2.32300 29.23600
H  2.04900 2.95000 29.91500
H  0.41000 1.06500 27.25400
H  2.05600 1.06400 26.69600
H  0.91100 0.41000 25.66500
H  0.49900 7.02900 22.53100
H  2.40800 9.30300 22.55100
H  3.39800 6.24400 22.55700
H  2.95300 7.43500 21.37700
H  2.04100 5.93600 21.47300
H  -0.35000 10.09200 22.92100
H  -0.39800 8.91200 21.79100
H  1.81400 10.84100 20.98000
H  0.14700 11.46200 20.97400
H  0.68100 10.10900 20.03500
H  2.53500 13.30200 25.32600
H  1.94700 14.46400 26.59900
H  0.80900 13.79900 25.41300
H  0.53600 12.15700 31.16300
H  3.98000 11.66300 33.61200
H  2.54200 11.85600 34.56600
H  3.19300 13.34300 34.08800
Mg 17.33500 -0.59100 27.59200
C  16.41200 1.37300 30.55500
C  19.08300 -2.52900 29.78900
C  18.74900 -1.90000 24.89500
C  15.93400 1.94500 25.64700
N  17.87000 -0.45400 29.94900
C  17.24600 0.28200 30.89800
C  17.63500 -0.14600 32.29200
C  18.80200 -1.18800 32.07300
C  18.54500 -1.44300 30.52300
C  20.24700 -0.77000 32.32700
C  16.52100 -0.87000 33.01100
C  16.59500 -0.89000 34.57200
H  17.87400 -0.31500 35.24800
N  18.73200 -2.02300 27.34900
C  19.30300 -2.80000 28.40500
C  20.04900 -3.89500 27.78300
C  19.89900 -3.80100 26.35200
C  19.14700 -2.56100 26.11300
C  20.89600 -4.96100 28.62900
C  20.45700 -4.70100 25.25500
O  20.31500 -4.50100 24.10900
C  21.06500 -5.98300 25.71800
N  17.18800 -0.11000 25.65100
C  18.01000 -0.71300 24.70800
C  18.02700 -0.05200 23.27500
C  16.81600 0.93400 23.48200
C  16.61600 0.97200 24.98700
C  19.38700 0.70000 22.90100
C  15.48100 0.65500 22.72900
C  15.17500 1.43700 21.49300
N  16.22600 1.16000 27.98700
C  15.79000 2.03900 27.02600
C  15.03500 3.03300 27.67300
C  15.16600 2.74600 29.07100
C  15.97600 1.68100 29.24200
C  14.33800 4.15700 27.04400
C  14.85600 3.30800 30.42100
O  14.22400 4.30800 30.71200
C  15.53700 2.37200 31.43900
C  16.33400 3.22400 32.41500
O  17.51500 3.53700 32.40300
O  15.44500 3.69100 33.37000
C  15.85900 4.85300 34.13700
H  19.57900 -3.26200 30.42900
H  19.28800 -2.25000 24.01200
H  15.49000 2.70700 25.00200
H  17.96800 0.75400 32.80900
H  18.75200 -2.16500 32.55300
H  20.35900 0.20400 32.80400
H  20.74600 -0.78000 31.35800
H  20.72900 -1.39600 33.07800
H  16.60100 -1.89400 32.64700
H  15.56000 -0.47700 32.68000
H  16.49900 -1.96300 34.73600
H  15.67000 -0.37700 34.83600
H  21.01600 -4.53600 29.62500
H  21.86200 -5.22500 28.19800
H  20.35100 -5.90100 28.71300
H  21.09200 -6.62600 24.83900
H  20.34100 -6.42600 26.40100
H  22.02800 -5.80800 26.19900
H  17.80900 -0.82800 22.54100
H  17.20000 1.92400 23.23400
H  19.22400 1.76600 22.74100
H  19.88800 0.15400 22.10200
H  19.94800 0.52000 23.81800
H  14.65300 0.76400 23.43000
H  15.48800 -0.40900 22.49300
H  16.01800 2.11300 21.34700
H  14.24000 1.93000 21.75900
H  15.11900 0.76400 20.63700
H  14.90100 4.67500 26.26700
H  13.99300 4.75700 27.88600
H  13.44900 3.79400 26.52900
H  14.80700 1.88100 32.08400
H  16.66900 4.58400 34.81500
H  14.97500 5.22300 34.65700
H  16.39500 5.57100 33.51600

