158

Mg 1.23800 8.25300 26.30200
C  1.46800 10.21000 29.06000
C  0.88700 5.43300 28.16700
C  1.09900 6.47100 23.39600
C  1.99900 11.09200 24.26900
N  1.29400 7.80300 28.50600
C  1.18400 8.85400 29.39900
C  1.05200 8.24400 30.84100
C  1.12500 6.66200 30.53400
C  1.12000 6.60000 29.02600
C  2.29000 6.00600 31.14200
C  -0.25700 8.59500 31.56900
C  -0.15800 8.44500 33.14000
H  1.01700 7.69600 33.83600
N  1.09900 6.21300 25.87700
C  0.95600 5.19300 26.76500
C  0.73800 3.94800 26.08900
C  0.81400 4.19500 24.74800
C  1.04900 5.66500 24.58100
C  0.62100 2.63300 26.86000
C  0.74800 3.19200 23.55000
O  0.96700 3.56900 22.41900
C  0.36400 1.77800 23.78600
N  1.67600 8.71200 24.12900
C  1.39500 7.77700 23.18000
C  1.34300 8.36100 21.78700
C  1.51200 9.91900 22.00700
C  1.81700 9.95400 23.55200
C  2.52800 7.69800 20.88400
C  0.39900 10.82900 21.49100
C  -0.79300 11.07900 22.38000
N  1.65600 10.25600 26.54300
C  1.93900 11.28000 25.68700
C  2.10000 12.51800 26.41400
C  2.07200 12.15300 27.77600
C  1.71300 10.77500 27.77900
C  2.34200 13.91100 25.94300
C  2.08700 12.57200 29.09800
O  2.40500 13.67800 29.57100
C  1.59300 11.39300 29.97100
C  2.66800 11.17100 31.02900
O  3.68900 10.58900 30.97200
O  2.13100 11.64600 32.26100
C  2.96000 11.41700 33.46500
H  0.61500 4.57200 28.78000
H  0.87500 6.04500 22.41600
H  2.07600 12.02700 23.70900
H  1.86400 8.66200 31.43700
H  0.23300 6.11600 30.84100
H  1.89400 5.36500 31.93000
H  2.99900 6.76300 31.47700
H  2.83900 5.36800 30.44900
H  -1.10300 7.97800 31.26400
H  -0.38800 9.65400 31.34400
H  -1.08700 8.01300 33.51200
H  -0.09500 9.48500 33.45900
H  0.91200 2.85400 27.88700
H  1.30200 1.88400 26.45600
H  -0.41600 2.30400 26.80000
H  0.27500 1.27000 22.82600
H  -0.62000 1.66200 24.24000
H  1.13100 1.25700 24.35900
H  0.35400 8.12300 21.39300
H  2.40500 10.35200 21.55600
H  2.07100 6.97500 20.20800
H  3.27000 7.21000 21.51700
H  3.08700 8.41500 20.28300
H  -0.15500 10.39000 20.66100
H  0.66300 11.84700 21.20600
H  -0.72700 10.35000 23.18800
H  -1.74900 10.85600 21.90700
H  -0.81200 12.07400 22.82500
H  1.44600 14.34100 25.49600
H  3.21400 14.03300 25.30100
H  2.48200 14.48500 26.85900
H  0.68500 11.59900 30.53800
H  2.26200 11.12200 34.24900
H  3.55200 12.32100 33.60400
H  3.72600 10.64600 33.38400
Mg 26.36600 1.00100 29.09900
C  28.17800 0.44000 32.02700
C  23.39700 0.89300 30.92100
C  24.53400 1.36000 26.25200
C  29.17700 0.53700 27.22900
N  25.92700 0.59300 31.20500
C  26.78500 0.59700 32.22300
C  26.05700 0.73200 33.57500
C  24.55000 0.52400 33.21100
C  24.63800 0.78100 31.66100
C  24.02400 -0.90800 33.44500
C  26.39500 2.03600 34.29200
C  26.77800 1.98700 35.79000
H  26.17300 3.02600 36.77900
N  24.15600 1.04300 28.64700
C  23.18300 0.99100 29.54900
C  21.95300 0.98600 28.83800
C  22.20600 1.29000 27.47700
C  23.70900 1.29100 27.40500
C  20.70000 0.63800 29.58600
C  21.20700 1.62600 26.35400
O  21.58800 1.85300 25.19700
C  19.67900 1.63100 26.53300
N  26.80600 1.04200 27.05800
C  25.88800 1.28900 26.05900
C  26.57300 1.19600 24.65800
C  28.05400 1.11000 25.00600
C  28.04900 0.89400 26.54300
C  25.94000 -0.00600 23.90300
C  29.01500 2.37200 24.69700
C  30.47000 2.04900 24.29600
N  28.38800 0.63700 29.48300
C  29.44400 0.41500 28.59200
C  30.64100 0.01600 29.45500
C  30.15600 0.13500 30.80800
C  28.78300 0.38400 30.74300
C  32.04800 -0.36800 29.04700
C  30.57800 0.11100 32.17900
O  31.70800 -0.08500 32.58300
C  29.23700 0.29300 33.09200
C  29.09700 -0.99500 33.84300
O  28.84100 -2.07900 33.43200
O  29.26200 -0.75000 35.21200
C  29.13300 -1.88300 36.17000
H  22.47300 0.83700 31.49900
H  24.04900 1.54000 25.29000
H  30.05700 0.35700 26.60800
H  26.41000 -0.08300 34.20700
H  23.93500 1.15600 33.85200
H  23.80900 -1.09700 34.49700
H  24.88400 -1.56800 33.33500
H  23.32300 -1.22800 32.67400
H  25.57500 2.75400 34.32500
H  27.16900 2.60800 33.78000
H  27.84200 2.17700 35.65200
H  26.69300 0.97300 36.18300
H  20.67800 1.33500 30.42400
H  20.54900 -0.38800 29.92000
H  19.82000 0.91200 29.00300
H  19.37500 0.62400 26.81900
H  19.13300 2.05900 25.69200
H  19.38700 2.34100 27.30700
H  26.26100 2.11500 24.16200
H  28.45100 0.16300 24.63800
H  26.62100 -0.77400 23.53800
H  25.46600 0.31900 22.97700
H  25.12200 -0.48500 24.44000
H  28.94600 3.07400 25.52800
H  28.67800 2.86600 23.78600
H  30.61300 2.31500 23.24800
H  30.55700 0.96300 24.33900
H  31.16000 2.56700 24.96200
H  32.68900 0.21500 29.70800
H  32.25200 -0.16900 27.99500
H  32.30600 -1.41600 29.20500
H  29.24100 1.15500 33.75800
H  29.95000 -1.93000 36.89000
H  29.07000 -2.84000 35.65100
H  28.26600 -1.72100 36.81000

