158

Mg 47.95800 45.53600 43.52600
C  44.34600 45.37400 43.03300
C  47.89500 42.14300 42.78600
C  51.11900 45.81400 43.10900
C  47.43200 49.06200 43.89100
N  46.24700 44.00300 42.85400
C  44.94000 44.15700 42.62000
C  44.31500 42.96200 41.95200
C  45.39400 41.85200 42.23600
C  46.63200 42.68700 42.67900
C  44.95600 40.77500 43.21900
C  43.87500 43.21700 40.48500
C  42.64800 42.56100 39.95500
H  42.64400 41.69100 38.68800
N  49.34700 44.14700 43.07900
C  49.15100 42.80900 42.91200
C  50.51800 42.22100 42.82400
C  51.48200 43.26900 42.65500
C  50.70400 44.47200 42.96400
C  50.70900 40.69900 42.88600
C  52.92600 43.07700 42.22500
O  53.33400 41.91100 42.06300
C  53.84100 44.20200 42.01300
N  49.01600 47.28000 43.14400
C  50.34300 47.06300 43.29800
C  51.06200 48.39600 43.58300
C  49.87700 49.33600 44.00100
C  48.66700 48.53300 43.68100
C  52.28400 48.27200 44.53700
C  49.82200 50.64600 43.23300
C  49.22800 51.84900 43.92300
N  46.24100 46.94600 43.64000
C  46.23700 48.29300 43.83100
C  44.89700 48.77500 43.97500
C  44.15400 47.65900 43.67500
C  44.98600 46.59100 43.41300
C  44.41900 50.21200 44.33100
C  42.78700 47.21200 43.41300
O  41.74200 47.81900 43.45100
C  42.88800 45.77100 42.99900
C  42.08800 45.06500 44.14800
O  41.20100 44.27000 43.92900
O  42.54900 45.32000 45.40000
C  41.97500 44.55200 46.52100
H  48.08400 41.08500 42.59300
H  52.18400 45.98500 42.94000
H  47.45800 50.13200 44.10900
H  43.39100 42.62700 42.42300
H  45.72100 41.36100 41.31900
H  45.62100 40.66400 44.07600
H  44.90100 39.80300 42.72900
H  43.95400 41.01200 43.57700
H  44.69800 42.90100 39.84400
H  43.89000 44.29400 40.32100
H  41.92300 43.37500 39.96300
H  42.30700 41.83200 40.69100
H  51.05800 40.51900 41.86900
H  49.80400 40.11800 43.06200
H  51.42400 40.42300 43.66200
H  53.41300 45.00900 41.41900
H  54.77500 43.88300 41.55000
H  54.07900 44.61300 42.99400
H  51.52400 48.82500 42.69400
H  49.81600 49.60300 45.05600
H  52.36200 47.31400 45.05000
H  52.21700 48.97400 45.36900
H  53.25600 48.54000 44.12400
H  49.31900 50.59400 42.26700
H  50.82300 51.00500 42.99800
H  49.92700 52.68300 43.98300
H  48.86800 51.63200 44.92900
H  48.36200 52.19700 43.36000
H  43.76600 50.65900 43.58200
H  45.30800 50.84200 44.31400
H  43.93900 50.15100 45.30800
H  42.41100 45.55300 42.04400
H  40.88600 44.57900 46.56100
H  42.37300 44.95700 47.45100
H  42.18300 43.48700 46.42200
Mg 30.34900 57.99100 40.66700
C  27.29000 56.38000 39.59000
C  31.87800 55.02600 39.53300
C  33.21400 59.71200 40.34900
C  28.54700 60.78500 41.15600
N  29.65000 55.92100 39.67800
C  28.39100 55.55500 39.30400
C  28.40400 54.25600 38.56500
C  29.76400 53.63600 38.87700
C  30.48900 54.88600 39.46900
C  29.88700 52.34800 39.81100
C  28.13200 54.46000 36.99200
C  27.11300 53.61900 36.19300
H  26.08300 54.34600 35.19600
N  32.33800 57.38400 40.07600
C  32.71100 56.14700 39.76700
C  34.11000 56.25000 39.49400
C  34.57800 57.52000 39.85700
C  33.34700 58.28100 40.09100
C  34.88700 55.17400 38.89100
C  36.03400 58.05100 39.66500
O  36.90500 57.24000 39.32500
C  36.43500 59.41500 39.98500
N  30.81400 60.04600 40.79600
C  32.05500 60.50700 40.71200
C  32.10500 62.00100 41.13500
C  30.59500 62.29100 41.45900
C  29.92800 60.97400 41.09300
C  33.07900 62.40900 42.21300
C  30.03500 63.48800 40.74500
C  29.68900 63.42900 39.27100
N  28.28900 58.50200 40.65300
C  27.77600 59.69900 40.86900
C  26.37300 59.64000 40.51000
C  26.14300 58.35400 40.04600
C  27.32300 57.66900 40.10300
C  25.24500 60.72200 40.53700
C  25.10800 57.50100 39.54000
O  23.95000 57.76800 39.29800
C  25.79900 56.12400 39.16900
C  25.32500 55.03100 40.06100
O  25.21500 55.07400 41.31500
O  24.87700 53.94800 39.39400
C  24.36500 52.83800 40.19700
H  32.24500 54.04000 39.23900
H  34.03600 60.41200 40.18400
H  28.05300 61.69700 41.49500
H  27.58800 53.66300 38.97700
H  30.30000 53.47100 37.94200
H  30.82800 52.43600 40.35500
H  29.63600 51.48100 39.20100
H  28.99800 52.42900 40.43700
H  29.10100 54.57700 36.50700
H  27.73200 55.46800 36.88600
H  26.43400 53.20600 36.93900
H  27.68500 52.82500 35.71300
H  35.37100 55.48900 37.96700
H  34.33000 54.28100 38.60700
H  35.55300 54.76200 39.64900
H  37.48100 59.32000 40.27800
H  35.85500 59.67600 40.87000
H  36.28700 60.16600 39.20800
H  32.27400 62.48800 40.17500
H  30.54800 62.35300 42.54600
H  33.69500 63.17600 41.74400
H  33.67300 61.50400 42.34300
H  32.80100 62.95200 43.11700
H  30.71200 64.34100 40.81000
H  29.17500 63.91200 41.26300
H  30.26300 64.17100 38.71600
H  28.64600 63.56200 38.98600
H  29.97200 62.42000 38.97000
H  25.45300 61.65400 40.01200
H  24.99100 60.97000 41.56700
H  24.28900 60.36400 40.15400
H  25.50900 55.90900 38.14000
H  24.98200 52.73500 41.09000
H  24.60400 51.89000 39.71400
H  23.27900 52.90900 40.25700

