158

Mg 24.71400 -4.63300 46.18400
C  26.50500 -2.31900 44.21400
C  21.81000 -3.75300 44.33600
C  23.21100 -7.39800 47.30200
C  27.72200 -5.49300 47.60500
N  24.33200 -3.18600 44.46300
C  25.16000 -2.29200 43.87000
C  24.41000 -1.44500 42.84400
C  22.95300 -1.54500 43.42700
C  23.02000 -2.98300 44.12200
C  22.47500 -0.48500 44.47100
C  24.51400 -2.10600 41.50400
C  25.30700 -1.41600 40.42700
H  25.03300 -2.02400 38.99700
N  22.77700 -5.46200 45.86900
C  21.68100 -4.93800 45.14500
C  20.51600 -5.73500 45.31100
C  20.90900 -6.78500 46.19200
C  22.34400 -6.54000 46.50200
C  19.14000 -5.48200 44.64200
C  19.92000 -7.83000 46.82000
O  18.80900 -7.93900 46.42900
C  20.36100 -8.75800 47.90000
N  25.46400 -6.35600 47.20000
C  24.59800 -7.29900 47.55700
C  25.34900 -8.37300 48.37200
C  26.82200 -7.74900 48.53600
C  26.69500 -6.45500 47.76300
C  24.63900 -8.75500 49.66800
C  27.88600 -8.54800 47.69200
C  28.90700 -9.18600 48.54700
N  26.67200 -4.01100 46.11300
C  27.79100 -4.29300 46.86600
C  29.01400 -3.60300 46.38700
C  28.51300 -2.73900 45.36600
C  27.06600 -3.07600 45.23000
C  30.49700 -3.81300 46.91600
C  28.84900 -1.67700 44.41600
O  29.92600 -1.15700 44.11900
C  27.54400 -1.34900 43.66100
C  27.31700 0.11700 43.65100
O  26.79800 0.69100 44.57500
O  27.87200 0.61800 42.53500
C  27.70100 2.02500 42.20500
H  20.99700 -3.40600 43.69500
H  22.67400 -8.25200 47.72000
H  28.70300 -5.83800 47.93700
H  24.90700 -0.47600 42.86600
H  22.23200 -1.58500 42.61100
H  23.15600 0.36100 44.38000
H  22.51000 -0.80500 45.51200
H  21.46500 -0.09900 44.33000
H  23.49300 -2.26500 41.15800
H  24.91500 -3.11200 41.63000
H  26.38900 -1.50700 40.51500
H  25.14200 -0.33900 40.45600
H  18.90200 -4.42900 44.48800
H  18.25300 -5.91500 45.10400
H  19.07700 -5.95400 43.66200
H  21.04700 -9.55100 47.60000
H  19.47100 -9.29300 48.23200
H  20.65900 -8.13800 48.74500
H  25.33700 -9.26200 47.74100
H  27.15100 -7.58500 49.56200
H  23.69600 -8.25600 49.88900
H  25.24600 -8.45100 50.52100
H  24.50100 -9.83000 49.78000
H  28.41900 -8.04700 46.88500
H  27.52000 -9.47100 47.24000
H  28.61900 -10.20000 48.82400
H  28.99500 -8.53000 49.41400
H  29.82400 -9.28300 47.96700
H  30.78800 -3.15000 47.73100
H  31.21100 -3.64700 46.10900
H  30.53500 -4.86700 47.19400
H  27.76000 -1.52300 42.60600
H  26.92400 2.41400 42.86300
H  27.51000 2.25000 41.15600
H  28.62300 2.56800 42.41600
Mg -11.28300 38.97200 41.17900
C  -9.79100 35.85500 40.59300
C  -8.66800 40.59200 39.66600
C  -13.27900 41.65400 40.76900
C  -14.09400 37.11200 42.31300
N  -9.49900 38.29200 40.25000
C  -9.12000 36.97900 40.13400
C  -7.77300 36.94700 39.42200
C  -7.28300 38.43500 39.33800
C  -8.55300 39.19900 39.79500
C  -6.01000 38.72400 40.09900
C  -8.06000 36.31400 37.98200
C  -7.03400 35.12600 37.63800
H  -6.26100 35.34800 36.30400
N  -10.97400 40.93700 40.38200
C  -9.79200 41.42600 39.86000
C  -9.95100 42.78700 39.55000
C  -11.25000 43.13700 39.98800
C  -11.95000 41.85900 40.37600
C  -8.82800 43.64100 38.88400
C  -11.78700 44.56200 39.90700
O  -10.98800 45.43400 39.55600
C  -13.24700 44.91100 40.34100
N  -13.38600 39.36400 41.42900
C  -13.93900 40.57900 41.27800
C  -15.45500 40.55900 41.57500
C  -15.61800 39.16600 42.37500
C  -14.29500 38.47100 42.01100
C  -16.04400 41.78500 42.28500
C  -16.86400 38.44600 41.79400
C  -17.86300 37.80400 42.77700
N  -11.83200 36.87300 41.58800
C  -12.95800 36.31500 42.06900
C  -12.82400 34.91500 42.21600
C  -11.55000 34.67200 41.61600
C  -11.01000 35.91000 41.21500
C  -13.76700 33.92700 42.78400
C  -10.55100 33.65500 41.33200
O  -10.52200 32.44300 41.61700
C  -9.36800 34.38900 40.50700
C  -8.06000 34.19600 41.19200
O  -7.12500 33.56000 40.73700
O  -8.01200 34.84800 42.40200
C  -6.80700 34.68700 43.17900
H  -7.75700 40.98700 39.21100
H  -13.84600 42.58600 40.70900
H  -14.87600 36.48000 42.74000
H  -7.09400 36.36400 40.04400
H  -7.20500 38.81300 38.31900
H  -5.18800 38.80500 39.38800
H  -5.77900 38.00500 40.88500
H  -6.26200 39.65400 40.61000
H  -7.96900 37.10700 37.24000
H  -9.02700 35.81300 37.93200
H  -7.51600 34.14800 37.64000
H  -6.38900 35.01200 38.50900
H  -9.28900 44.22100 38.08400
H  -7.99700 43.06900 38.47100
H  -8.48700 44.41000 39.57600
H  -13.89200 44.34200 39.67000
H  -13.40900 45.98500 40.25000
H  -13.31000 44.55500 41.36900
H  -15.96500 40.55500 40.61100
H  -15.78500 39.30500 43.44300
H  -15.17900 42.40500 42.52300
H  -16.63000 41.61300 43.18800
H  -16.64600 42.27800 41.52300
H  -16.55700 37.86100 40.92700
H  -17.42900 39.25800 41.33600
H  -18.72900 38.43900 42.58700
H  -17.54000 37.88000 43.81600
H  -18.06300 36.76800 42.50300
H  -13.31000 33.05500 43.25200
H  -14.51500 33.66600 42.03600
H  -14.34900 34.45000 43.54400
H  -9.27600 33.99800 39.49400
H  -5.94500 34.67900 42.51200
H  -6.86200 33.79500 43.80400
H  -6.83300 35.57300 43.81300

