158

Mg -12.02800 37.89400 43.10800
C  -10.10600 35.19700 42.21800
C  -10.09100 39.76800 40.97000
C  -14.30300 40.40500 43.13000
C  -14.19400 35.76900 44.63000
N  -10.28900 37.50800 41.68300
C  -9.65100 36.32900 41.60600
C  -8.36400 36.52500 40.82500
C  -8.42200 37.94400 40.25100
C  -9.67700 38.45900 41.00500
C  -7.12600 38.87400 40.41400
C  -8.11700 35.47200 39.67200
C  -6.64100 35.05200 39.49800
H  -5.83500 35.57500 38.27600
N  -12.12100 39.88700 42.28200
C  -11.15700 40.48000 41.51400
C  -11.49400 41.88700 41.30900
C  -12.67200 42.11800 42.00000
C  -13.13100 40.77500 42.49800
C  -10.68300 42.76600 40.41400
C  -13.33000 43.42500 42.11800
O  -12.73200 44.42000 41.73800
C  -14.69000 43.65000 42.67200
N  -13.90200 38.02900 43.71400
C  -14.63700 39.19100 43.74100
C  -16.07600 38.99700 44.27500
C  -16.07500 37.45400 44.56800
C  -14.59100 37.03800 44.35600
C  -16.35300 40.00500 45.42500
C  -17.15300 36.67600 43.71900
C  -17.77500 35.45500 44.39600
N  -12.12400 35.85900 43.48300
C  -13.06700 35.15300 44.17000
C  -12.60100 33.77000 44.30300
C  -11.35900 33.75200 43.58000
C  -11.25300 35.02900 43.00800
C  -13.27900 32.63400 45.05100
C  -10.21900 32.93300 43.20500
O  -9.92300 31.78300 43.44000
C  -9.42400 33.77600 42.28100
C  -8.06500 33.84300 42.85900
O  -7.14200 33.23400 42.43600
O  -7.99600 34.72500 43.88800
C  -6.57000 34.90400 44.41700
H  -9.51100 40.49200 40.39500
H  -14.95800 41.25600 43.32900
H  -14.94400 35.13900 45.11200
H  -7.51000 36.32700 41.47300
H  -8.61500 38.00600 39.18000
H  -7.34600 39.72300 41.06200
H  -6.80700 39.21900 39.43000
H  -6.24800 38.31100 40.73200
H  -8.40000 35.96100 38.74000
H  -8.88500 34.70500 39.77100
H  -6.60000 33.97900 39.30800
H  -6.13300 35.05200 40.46200
H  -11.37500 43.39800 39.85700
H  -9.97000 42.40700 39.67200
H  -10.03700 43.47900 40.92500
H  -15.33900 43.07100 42.01500
H  -14.96800 44.67300 42.42000
H  -14.74500 43.38700 43.72800
H  -16.76100 39.10100 43.43300
H  -16.41000 37.41100 45.60400
H  -15.44200 40.33000 45.92700
H  -16.98300 39.53200 46.17800
H  -16.90200 40.90500 45.14800
H  -16.52300 36.38300 42.87900
H  -17.92300 37.38000 43.40600
H  -18.82100 35.68100 44.60400
H  -17.23700 35.10900 45.27900
H  -17.77300 34.63400 43.67900
H  -14.35100 32.60700 44.85800
H  -13.05100 32.71400 46.11400
H  -12.76600 31.77900 44.61100
H  -9.46200 33.31500 41.29400
H  -6.39300 35.70800 45.13200
H  -5.84400 35.10800 43.63000
H  -6.24300 33.97400 44.88100
Mg -1.85400 33.65000 27.75100
C  -3.59400 32.02700 30.42400
C  -0.55200 35.88400 30.29800
C  -0.25600 35.27400 25.40500
C  -3.51700 31.69900 25.40600
N  -2.15200 33.99700 30.04100
C  -2.82700 33.09600 30.89400
C  -2.82900 33.63800 32.36800
C  -1.85300 34.89300 32.31300
C  -1.46700 34.88100 30.78600
C  -2.57300 36.28300 32.60800
C  -2.37400 32.49000 33.37300
C  -3.37600 32.18400 34.55100
H  -2.83300 32.23700 35.97900
N  -0.68600 35.36500 27.80400
C  -0.15800 36.12500 28.94300
C  0.83400 37.00400 28.40200
C  0.94700 36.81900 27.02300
C  -0.07000 35.79900 26.70600
C  1.64700 37.88100 29.33500
C  1.87300 37.46400 26.03100
O  1.87700 37.17800 24.89300
C  3.01400 38.22400 26.56000
N  -2.13400 33.56000 25.64500
C  -1.20400 34.30000 24.92300
C  -1.49400 34.05900 23.42800
C  -2.47900 32.83900 23.38200
C  -2.83400 32.71500 24.86100
C  -1.99300 35.24100 22.68000
C  -1.91500 31.50600 22.82900
C  -0.69900 30.95000 23.63900
N  -3.14300 32.10000 27.84600
C  -3.67400 31.38900 26.77300
C  -4.47800 30.36600 27.31700
C  -4.49700 30.55200 28.75200
C  -3.65500 31.62400 29.01300
C  -5.40700 29.46700 26.55600
C  -4.97900 30.02800 30.02900
O  -5.61200 29.02400 30.33900
C  -4.39200 30.96200 31.14300
C  -5.51900 31.58600 31.87000
O  -6.06100 32.63900 31.53500
O  -5.85000 30.77700 32.96600
C  -6.88500 31.35200 33.77900
H  -0.03600 36.50400 31.03500
H  0.30200 35.50600 24.49500
H  -4.18700 31.28900 24.64600
H  -3.84600 34.00400 32.51400
H  -1.06200 34.86700 33.06200
H  -3.41500 36.12800 33.28300
H  -3.04400 36.80300 31.77400
H  -1.83400 36.88900 33.13200
H  -1.39400 32.78300 33.75000
H  -2.27000 31.56800 32.80000
H  -3.56200 31.11200 34.49600
H  -4.26900 32.80600 34.49200
H  2.57800 37.32100 29.42900
H  1.24800 37.99500 30.34300
H  1.87800 38.91100 29.06600
H  3.72900 38.43400 25.76600
H  3.55700 37.62500 27.29200
H  2.68500 39.10400 27.11500
H  -0.59700 33.71600 22.91200
H  -3.32300 33.17600 22.77900
H  -1.67300 36.07600 23.30300
H  -3.07300 35.28800 22.54400
H  -1.62300 35.22500 21.65500
H  -1.61300 31.62500 21.78800
H  -2.68700 30.73900 22.88900
H  0.27200 31.08100 23.16100
H  -0.85100 29.87000 23.62900
H  -0.50200 31.28700 24.65600
H  -5.15400 29.17900 25.53600
H  -6.36300 29.98600 26.63300
H  -5.53000 28.58400 27.18300
H  -3.73400 30.33600 31.74600
H  -7.84600 30.88200 33.57100
H  -7.08000 32.40300 33.56000
H  -6.57900 31.38300 34.82400

