158

Mg 55.27300 23.23100 45.41700
C  53.00800 25.62500 44.53100
C  52.92500 20.88100 44.27900
C  57.68300 20.91500 45.17900
C  57.62900 25.66300 46.17700
N  53.15000 23.27500 44.70100
C  52.35100 24.38800 44.34800
C  51.04000 24.03800 43.70300
C  51.08700 22.55100 44.04000
C  52.46600 22.19100 44.32000
C  50.13300 22.00900 45.12300
C  50.92500 24.33400 42.19300
C  49.62800 24.83800 41.68900
H  48.90600 24.09700 40.52000
N  55.34300 21.14800 44.82900
C  54.27400 20.41500 44.42400
C  54.68600 19.02000 44.14500
C  56.12900 19.03900 44.34600
C  56.42100 20.37000 44.79300
C  53.72600 18.00200 43.61300
C  56.99600 17.92700 43.92400
O  56.53100 16.89800 43.49000
C  58.51700 17.90700 44.02500
N  57.40300 23.31100 45.45600
C  58.12200 22.20900 45.40600
C  59.57200 22.40000 45.88200
C  59.63600 23.92400 46.00100
C  58.11000 24.35800 45.86700
C  59.87900 21.69200 47.23800
C  60.34400 24.69300 44.78800
C  60.92100 26.08300 45.23100
N  55.34900 25.27100 45.54000
C  56.29800 26.15100 45.85500
C  55.71300 27.57500 45.86700
C  54.48100 27.30300 45.35800
C  54.31600 25.93000 45.10400
C  56.39600 28.83200 46.15000
C  53.28300 28.06400 44.89500
O  53.04600 29.22600 44.81200
C  52.39500 27.04300 44.23800
C  52.47100 27.58900 42.87900
O  53.51900 27.58400 42.23500
O  51.20300 27.96000 42.42900
C  51.23800 28.25900 41.00300
H  52.15100 20.19000 43.93900
H  58.41400 20.10300 45.17100
H  58.30300 26.45700 46.50500
H  50.25600 24.56600 44.24500
H  50.72600 21.99100 43.17800
H  49.30600 22.68100 45.35200
H  50.58400 21.91200 46.11000
H  49.78400 21.06300 44.70900
H  51.32600 23.41800 41.75800
H  51.60300 25.09700 41.81000
H  49.80000 25.87900 41.41700
H  48.87400 24.91500 42.47200
H  53.68200 18.12100 42.53100
H  52.77100 18.24500 44.07900
H  53.98700 16.99800 43.95000
H  58.97200 18.63700 43.35500
H  58.77300 16.93200 43.61100
H  58.94000 17.94500 45.02900
H  60.12600 22.01300 45.02700
H  60.06400 24.24500 46.95000
H  59.08100 20.99600 47.49600
H  60.02700 22.23000 48.17400
H  60.83600 21.17600 47.15300
H  59.55100 24.82300 44.05200
H  61.15700 24.08600 44.39000
H  61.01100 26.14900 46.31500
H  60.31500 26.86700 44.77800
H  61.97100 26.13300 44.94200
H  56.80100 29.17400 45.19700
H  57.15900 28.77300 46.92600
H  55.60500 29.49200 46.50600
H  51.40100 27.23700 44.64000
H  51.92200 29.07800 40.78100
H  50.24500 28.67600 40.83800
H  51.46700 27.28800 40.56300
Mg 42.01900 41.18400 27.16700
C  41.29200 43.41900 29.56200
C  43.18300 38.99300 29.48400
C  42.55700 38.82900 24.71000
C  41.29700 43.47000 24.74300
N  42.17200 41.22500 29.32500
C  41.75300 42.24800 30.14400
C  42.00000 41.95600 31.63500
C  42.70700 40.49200 31.53800
C  42.67000 40.18800 30.00300
C  44.09400 40.54300 32.15500
C  40.66400 42.02800 32.51000
C  40.69500 42.94300 33.70700
H  39.63300 42.49900 34.82000
N  42.85600 39.24400 27.08200
C  43.26000 38.51600 28.17300
C  43.73100 37.18400 27.75300
C  43.45200 37.10400 26.37100
C  42.85800 38.40300 26.00800
C  44.48600 36.15900 28.61500
C  43.73900 35.96900 25.41600
O  43.39800 35.96400 24.23800
C  44.34300 34.66800 25.92600
N  42.11600 41.20500 25.05400
C  42.32600 40.14000 24.20500
C  42.27900 40.48700 22.78000
C  41.75400 41.90300 22.78400
C  41.73300 42.21900 24.29000
C  43.66700 40.26000 21.90300
C  40.34500 42.19100 22.05800
C  39.01700 42.03400 22.83400
N  41.38000 43.08300 27.11700
C  41.10900 43.87200 26.05400
C  40.62500 45.19000 26.51000
C  40.66700 45.06300 27.95600
C  41.13000 43.77400 28.18400
C  40.44800 46.46200 25.69000
C  40.48900 45.72400 29.24500
O  40.18300 46.88000 29.45700
C  40.96100 44.74700 30.28700
C  42.11800 45.33700 30.96400
O  43.21600 45.46800 30.47200
O  41.71900 45.66500 32.21600
C  42.73000 46.08100 33.13800
H  43.63400 38.28500 30.18200
H  42.75700 38.12800 23.89700
H  41.02700 44.08900 23.88500
H  42.65000 42.75200 32.00000
H  42.10500 39.73000 32.03400
H  44.13500 39.75600 32.90800
H  44.23300 41.52000 32.61900
H  44.79700 40.39600 31.33500
H  40.58000 41.07200 33.02600
H  39.78000 42.36300 31.96800
H  40.40400 43.94300 33.38600
H  41.70800 43.08800 34.08400
H  43.96400 35.20300 28.65300
H  44.65200 36.47500 29.64500
H  45.48100 35.93800 28.22900
H  45.37000 34.83300 26.24900
H  44.18200 33.88300 25.18700
H  43.70500 34.42900 26.77700
H  41.42300 39.91700 22.41800
H  42.54000 42.55900 22.40900
H  43.96600 41.19100 21.42000
H  43.33900 39.49500 21.20000
H  44.45300 39.91600 22.57600
H  40.32000 41.37100 21.34000
H  40.39900 43.16800 21.57700
H  38.41900 42.94200 22.75600
H  39.22400 42.00500 23.90400
H  38.40900 41.18600 22.52000
H  39.40700 46.77500 25.60700
H  40.83100 46.36000 24.67500
H  41.01800 47.24000 26.19700
H  40.21700 44.60800 31.07100
H  42.62600 45.47400 34.03700
H  42.66300 47.13100 33.42200
H  43.74400 45.95500 32.75600

