158

Mg 16.56500 -2.59300 27.81000
C  15.49100 -0.35500 30.44500
C  18.65500 -4.03800 30.00500
C  18.25900 -3.94900 25.06200
C  14.62400 -0.69700 25.65400
N  16.99300 -2.19300 29.95800
C  16.41500 -1.35600 30.83700
C  16.98700 -1.51200 32.23800
C  18.18800 -2.55100 31.98000
C  17.91800 -2.97700 30.55700
C  19.63000 -2.11800 32.32400
C  15.93100 -1.98800 33.25100
C  16.17900 -1.70300 34.73100
H  17.51500 -1.20500 35.26200
N  18.17200 -3.93600 27.55400
C  18.84500 -4.45600 28.65200
C  19.66600 -5.58200 28.20200
C  19.59300 -5.49500 26.78800
C  18.59900 -4.47100 26.39500
C  20.33500 -6.57900 29.15800
C  20.45100 -6.24700 25.76600
O  20.42300 -6.04600 24.51400
C  21.29000 -7.52500 26.30500
N  16.47500 -2.34800 25.75900
C  17.27600 -2.98200 24.77100
C  16.92600 -2.56200 23.31800
C  15.66000 -1.58700 23.54000
C  15.56000 -1.54900 25.08700
C  18.04500 -1.89100 22.53700
C  14.31800 -2.01200 22.81000
C  13.68000 -0.96500 21.82700
N  15.30500 -0.90700 27.95700
C  14.56800 -0.27100 26.95800
C  13.77000 0.89200 27.56200
C  14.02700 0.82000 28.88400
C  14.98700 -0.21600 29.08300
C  13.01500 1.88100 26.85500
C  13.75200 1.47900 30.14300
O  13.00400 2.41900 30.45800
C  14.67500 0.73900 31.22100
C  15.67100 1.68900 31.81600
O  16.18100 2.62600 31.23100
O  15.90400 1.41000 33.18500
C  16.72600 2.48200 33.81000
H  19.12900 -4.61900 30.79900
H  18.62900 -4.31000 24.10000
H  13.89100 -0.16000 25.04800
H  17.42800 -0.55100 32.50200
H  18.01000 -3.46600 32.54500
H  19.73300 -1.03400 32.27200
H  20.33800 -2.67200 31.70800
H  19.96500 -2.40500 33.32100
H  15.89800 -3.07100 33.12900
H  14.96400 -1.56500 32.97900
H  15.97100 -2.68800 35.15000
H  15.28900 -1.19700 35.10700
H  21.40200 -6.36000 29.12000
H  20.27900 -7.60100 28.78300
H  20.02900 -6.53700 30.20300
H  20.54600 -8.19100 26.74300
H  22.12000 -7.20400 26.93300
H  21.71400 -8.15600 25.52400
H  16.58700 -3.48100 22.84200
H  15.96800 -0.54600 23.44300
H  18.27300 -2.54600 21.69600
H  18.92000 -1.76900 23.17600
H  17.80700 -0.87000 22.23800
H  13.58700 -2.15600 23.60600
H  14.39300 -3.02100 22.40300
H  13.64400 -1.48900 20.87200
H  14.42700 -0.19300 21.63900
H  12.71100 -0.54200 22.09100
H  13.41900 2.11200 25.86900
H  12.92200 2.80000 27.43500
H  12.03200 1.41200 26.81200
H  14.11100 0.29100 32.03900
H  16.59600 3.47600 33.38200
H  17.81200 2.39900 33.77500
H  16.47100 2.69200 34.84800
Mg -8.36600 39.70800 42.20800
C  -7.40100 36.44100 41.15600
C  -5.90300 40.95400 40.36900
C  -9.87000 42.67300 42.42900
C  -11.42100 38.20700 43.61400
N  -6.94000 38.80900 40.88300
C  -6.61600 37.46500 40.67500
C  -5.29000 37.26500 39.92800
C  -4.79300 38.76100 39.71700
C  -5.93900 39.56200 40.31400
C  -3.30300 39.03900 40.15000
C  -5.49100 36.48300 38.62900
C  -4.51600 35.33400 38.45900
H  -3.66400 35.39000 37.20900
N  -7.73800 41.60400 41.80700
C  -6.72800 41.88600 41.06800
C  -6.58500 43.31700 41.01800
C  -7.65400 43.82600 41.73800
C  -8.48200 42.70700 42.09100
C  -5.35600 43.97000 40.36900
C  -7.93900 45.38400 42.07300
O  -7.14800 46.25400 41.75700
C  -9.02600 45.80300 42.98100
N  -10.30300 40.29900 43.00400
C  -10.64500 41.61600 42.90800
C  -12.15600 41.76600 43.19100
C  -12.56300 40.39500 43.82800
C  -11.28600 39.54400 43.54400
C  -12.47600 43.00400 43.99600
C  -13.98200 39.64100 43.45900
C  -15.23400 40.62800 43.55600
N  -9.26700 37.70400 42.39700
C  -10.46500 37.30400 43.01000
C  -10.51300 35.91600 42.83100
C  -9.33700 35.52100 42.23400
C  -8.63800 36.62900 41.89600
C  -11.58100 34.98800 43.37000
C  -8.52400 34.36800 41.65100
O  -8.77600 33.15100 41.61100
C  -7.23700 34.93700 41.09000
C  -6.05200 34.54600 41.97400
O  -5.64700 34.99300 43.03300
O  -5.30300 33.63700 41.20100
C  -3.96800 33.29400 41.70500
H  -5.09100 41.38600 39.78100
H  -10.45000 43.59300 42.33700
H  -12.40900 37.82300 43.87800
H  -4.61100 36.66000 40.52900
H  -4.75200 38.90800 38.63800
H  -2.56200 38.98100 39.35200
H  -3.00000 38.22900 40.81300
H  -3.25700 39.99600 40.66800
H  -5.23900 37.09200 37.76100
H  -6.49200 36.06200 38.52600
H  -5.01700 34.36600 38.47400
H  -3.79500 35.29100 39.27500
H  -5.05100 44.89200 40.86200
H  -5.60800 44.34400 39.37600
H  -4.58900 43.20000 40.44500
H  -8.86500 46.60000 43.70700
H  -9.21500 45.04300 43.73900
H  -9.91700 46.08000 42.41800
H  -12.72900 41.88200 42.27100
H  -12.72200 40.55700 44.89400
H  -12.97000 43.61200 43.23800
H  -11.60100 43.52300 44.38800
H  -13.28200 42.74900 44.68300
H  -14.12200 38.80800 44.14700
H  -13.91300 39.27100 42.43600
H  -15.38500 41.06700 42.57000
H  -15.05200 41.51700 44.16000
H  -16.12600 40.08900 43.87400
H  -12.54100 35.09700 42.86500
H  -11.69600 35.10200 44.44800
H  -11.19400 33.96900 43.39300
H  -7.03300 34.51200 40.10700
H  -3.42600 34.23900 41.67200
H  -3.48600 32.60200 41.01400
H  -4.01900 32.84100 42.69500

