158

Mg 46.28200 16.09400 28.95800
C  44.40100 15.57200 31.87300
C  48.22400 18.14800 30.78500
C  47.75200 16.97300 26.10300
C  43.66700 14.59500 27.15000
N  46.15400 16.87900 31.10900
C  45.51700 16.34400 32.16400
C  46.06600 16.79500 33.50800
C  47.10500 17.84400 33.08500
C  47.15400 17.66300 31.52300
C  46.93700 19.34900 33.54400
C  46.43800 15.64600 34.45300
C  46.37700 15.89600 35.99000
H  46.44000 17.29900 36.54500
N  47.86100 17.27000 28.53900
C  48.53300 17.99400 29.40900
C  49.69700 18.55800 28.72900
C  49.60100 18.22900 27.41400
C  48.40300 17.43900 27.29800
C  50.73600 19.19700 29.59900
C  50.65400 18.53800 26.29600
O  50.47700 18.13900 25.15400
C  51.90000 19.33000 26.62400
N  45.81600 15.74800 26.94500
C  46.59600 16.21300 25.95600
C  46.01300 15.78800 24.60100
C  44.88300 14.81200 24.97200
C  44.71600 15.14300 26.42200
C  45.61400 17.07900 23.82200
C  45.13300 13.37800 24.57400
C  46.01800 12.55300 25.48300
N  44.44200 15.17200 29.40300
C  43.45700 14.58200 28.50000
C  42.37600 14.11500 29.30800
C  42.71600 14.40800 30.65700
C  43.91300 15.13300 30.61800
C  41.03200 13.56400 28.77400
C  42.23900 14.37900 32.02600
O  41.23500 13.97600 32.59100
C  43.29400 15.22800 32.81300
C  42.72900 16.43300 33.48200
O  42.30000 17.37100 32.84200
O  42.74000 16.27900 34.84500
C  42.07500 17.37400 35.49900
H  49.03600 18.56100 31.38800
H  48.25100 17.12400 25.14400
H  42.86400 14.05600 26.64200
H  45.23600 17.30100 34.00200
H  48.07200 17.56700 33.50700
H  47.88100 19.70600 33.95600
H  46.11000 19.48000 34.24100
H  46.68300 19.98400 32.69500
H  47.47700 15.32500 34.38100
H  45.84200 14.82400 34.05500
H  47.02400 15.24800 36.58200
H  45.38500 15.51800 36.23700
H  50.28900 19.67900 30.46900
H  51.37300 19.95300 29.13800
H  51.38600 18.37500 29.89900
H  52.67300 19.20100 25.86600
H  52.45200 18.72500 27.34300
H  51.65200 20.29500 27.06600
H  46.86900 15.41300 24.04000
H  43.94000 15.12600 24.52400
H  44.66300 17.41900 24.23200
H  45.47600 16.97500 22.74600
H  46.34200 17.86900 24.00600
H  45.49800 13.24500 23.55500
H  44.10200 13.02600 24.53400
H  46.60600 13.18900 26.14400
H  46.66200 11.77900 25.06700
H  45.28300 12.08300 26.13700
H  40.32900 13.98500 29.49200
H  41.04500 12.47500 28.72700
H  40.74700 13.97200 27.80500
H  43.62900 14.60500 33.64200
H  41.88700 17.30700 36.57000
H  41.07100 17.45400 35.08100
H  42.67100 18.27300 35.34300
Mg 9.31700 48.29300 25.62900
C  7.41000 48.17700 28.56500
C  11.85600 49.71700 27.53200
C  11.18700 48.18000 22.92600
C  6.56600 47.26700 23.86800
N  9.54700 48.92700 27.82100
C  8.68000 48.72700 28.82000
C  9.17200 49.20500 30.13700
C  10.61100 49.79900 29.83800
C  10.67800 49.52400 28.27400
C  10.94000 51.17000 30.23300
C  9.08400 48.21900 31.29800
C  9.84200 48.68300 32.49200
H  9.23200 48.28700 33.89000
N  11.28100 48.95700 25.21200
C  12.18800 49.51900 26.09900
C  13.41700 49.70200 25.41800
C  13.28500 49.16600 24.12400
C  11.87100 48.79400 24.01700
C  14.58400 50.41700 26.02300
C  14.42300 48.85900 23.04600
O  14.11200 48.60900 21.92300
C  15.73200 48.90800 23.47800
N  8.84100 47.98600 23.68000
C  9.89100 47.72700 22.82200
C  9.41000 46.91600 21.52100
C  7.93000 46.67000 21.81300
C  7.76700 47.33300 23.20500
C  9.60700 47.55400 20.08800
C  7.56500 45.19400 21.75500
C  7.91700 44.38100 23.02200
N  7.37600 47.76900 26.05200
C  6.35100 47.46100 25.20300
C  5.06000 47.40300 25.94800
C  5.44400 47.67100 27.32500
C  6.80700 47.88900 27.30100
C  3.68000 47.37600 25.33000
C  4.95800 47.96300 28.62400
O  3.85800 48.07200 29.06200
C  6.21300 47.91600 29.45900
C  6.26900 46.63000 30.22000
O  6.64300 45.51200 29.77200
O  5.96400 46.78100 31.54600
C  6.13200 45.65700 32.44700
H  12.61800 50.09600 28.21700
H  11.83700 47.76300 22.15300
H  5.70400 46.87600 23.32400
H  8.55000 50.08300 30.30900
H  11.37300 49.07100 30.11700
H  10.05900 51.66300 30.64300
H  11.24900 51.75600 29.36700
H  11.66600 51.06500 31.04000
H  9.31000 47.20900 30.95800
H  8.02500 48.26100 31.55000
H  9.76600 49.76800 32.56400
H  10.87700 48.35700 32.59100
H  14.37100 50.70900 27.05200
H  14.84900 51.14500 25.25600
H  15.38000 49.67700 26.11300
H  15.93900 49.97300 23.58800
H  16.33900 48.52500 22.65700
H  15.89900 48.37800 24.41500
H  9.79700 45.90100 21.43400
H  7.35400 47.21400 21.06500
H  10.58900 47.28400 19.69800
H  9.51100 48.62900 20.23900
H  8.85500 47.29400 19.34200
H  8.13500 44.76600 20.93000
H  6.52500 45.06600 21.45300
H  8.34000 44.99200 23.81900
H  8.61400 43.61200 22.69000
H  7.00600 43.98200 23.46900
H  3.72100 47.29700 24.24400
H  3.23500 48.31900 25.64800
H  3.09500 46.53700 25.70500
H  6.06600 48.83500 30.02600
H  5.14500 45.20600 32.53900
H  6.32500 46.14200 33.40400
H  6.89100 44.93600 32.14400

