158

Mg 47.98200 15.35600 28.79200
C  46.00200 15.17100 31.59400
C  50.23500 17.24600 30.72400
C  50.03300 15.60600 26.07000
C  45.50500 14.27300 26.77800
N  48.18800 16.07600 31.04200
C  47.23400 15.79300 31.95700
C  47.66600 16.26600 33.31700
C  48.93800 17.17900 33.01700
C  49.20700 16.77500 31.53800
C  48.54200 18.68900 33.16400
C  48.07900 15.02100 34.17900
C  48.38300 15.24900 35.65700
H  48.23100 16.66300 36.40900
N  49.89600 16.17400 28.45400
C  50.61000 16.93700 29.36500
C  51.92400 17.27200 28.80100
C  51.86200 16.72800 27.45700
C  50.54900 16.08500 27.26200
C  53.08700 17.97300 29.56800
C  52.97300 16.78400 26.45400
O  52.80500 16.27200 25.33900
C  54.35000 17.40600 26.68400
N  47.80400 15.02800 26.71300
C  48.75300 15.20900 25.73200
C  48.30500 14.75300 24.33600
C  46.82000 14.26800 24.65400
C  46.66300 14.55400 26.12300
C  48.47000 15.87000 23.35200
C  46.54200 12.84500 24.27000
C  47.37800 11.69800 24.88000
N  46.18300 14.76200 29.08600
C  45.29600 14.14400 28.16600
C  44.14900 13.71400 28.92100
C  44.36700 14.12300 30.26600
C  45.61000 14.77400 30.29300
C  42.93800 13.03200 28.39300
C  43.83800 14.20700 31.60500
O  42.79000 13.77200 31.94200
C  44.90900 14.91400 32.49900
C  44.30400 16.01500 33.30400
O  43.70100 16.96400 32.84400
O  44.45500 15.78400 34.64700
C  43.84800 16.78000 35.53200
H  50.99500 17.84200 31.23300
H  50.66000 15.75200 25.18900
H  44.67800 13.97000 26.13300
H  46.84100 16.79700 33.79100
H  49.78500 16.99500 33.67700
H  47.60500 18.81900 33.70600
H  48.37300 19.23100 32.23300
H  49.38400 19.27900 33.52600
H  49.02300 14.64600 33.78400
H  47.25900 14.30400 34.22500
H  49.45200 15.04300 35.71700
H  48.05200 14.37500 36.21900
H  53.90900 17.26400 29.65600
H  52.82100 18.42800 30.52200
H  53.47900 18.83400 29.02700
H  54.84400 16.97900 27.55700
H  54.21600 18.47600 26.84000
H  54.98100 17.25200 25.80900
H  48.90000 13.87500 24.08300
H  46.07800 14.89400 24.15800
H  49.52000 16.11900 23.19800
H  47.94700 16.69400 23.83700
H  47.99400 15.68100 22.39000
H  46.79200 12.72600 23.21500
H  45.49400 12.54500 24.29100
H  48.05900 11.23600 24.16500
H  46.75900 10.83200 25.11500
H  47.86000 12.02900 25.80000
H  43.18100 12.03500 28.02500
H  42.53900 13.50600 27.49700
H  42.15800 13.03900 29.15500
H  45.23800 14.15800 33.21200
H  44.28100 17.77400 35.42200
H  44.06200 16.41300 36.53600
H  42.77100 16.86100 35.38100
Mg 26.09700 50.27600 27.03600
C  23.92800 51.68500 29.43500
C  28.29400 49.44700 29.65100
C  28.20900 49.13800 24.73100
C  23.92500 51.45400 24.58100
N  26.11500 50.57200 29.29800
C  25.08300 51.11000 30.00900
C  25.31000 50.76300 31.52500
C  26.76800 50.30500 31.59900
C  27.07500 50.11100 30.10000
C  27.83000 51.25900 32.30700
C  24.29000 49.64400 32.05900
C  23.70100 49.86600 33.46800
H  24.62500 50.55700 34.53400
N  28.01900 49.39100 27.13900
C  28.75000 49.15200 28.30900
C  30.04800 48.49500 27.94400
C  29.97500 48.29300 26.51900
C  28.70200 48.95600 26.06500
C  31.14200 48.08500 29.02200
C  30.89000 47.50300 25.61400
O  30.62500 47.30200 24.46400
C  32.27800 46.96000 26.13600
N  26.05400 50.23000 24.94000
C  27.00300 49.65000 24.24500
C  26.71400 49.80500 22.69300
C  25.22000 50.29800 22.66500
C  25.04800 50.72500 24.11600
C  27.81100 50.62000 21.93900
C  24.03400 49.28300 22.38200
C  22.98500 49.84200 21.45600
N  24.30900 51.46700 26.98700
C  23.59900 51.87100 25.88700
C  22.39700 52.50100 26.30800
C  22.49100 52.48000 27.75700
C  23.68200 51.83800 28.06600
C  21.31800 53.11300 25.39700
C  21.78800 52.82800 29.00900
O  20.65500 53.31600 29.21400
C  22.72500 52.22100 30.14900
C  23.03700 53.26600 31.16900
O  23.68400 54.22500 30.88000
O  22.46400 53.08900 32.36300
C  22.71500 54.00700 33.43300
H  29.02000 49.12700 30.40200
H  28.95100 48.94100 23.95500
H  23.33000 51.66900 23.69100
H  25.24900 51.67500 32.12000
H  26.78900 49.30800 32.03900
H  28.45100 51.69300 31.52300
H  28.35700 50.72000 33.09400
H  27.29400 52.04200 32.84400
H  24.62200 48.61200 32.17100
H  23.45900 49.62900 31.35500
H  23.44200 48.90000 33.90000
H  22.78400 50.45500 33.44000
H  31.33500 47.03100 28.82300
H  30.80100 48.00300 30.05500
H  31.99700 48.73000 28.81900
H  32.97400 46.53200 25.41500
H  32.04300 46.04000 26.67200
H  32.81600 47.59600 26.83800
H  26.75400 48.79100 22.29600
H  25.05000 51.21600 22.10200
H  27.35600 51.54900 21.59400
H  28.21000 50.03400 21.11100
H  28.59500 50.91800 22.63500
H  23.61100 48.90000 23.31100
H  24.47500 48.42000 21.88300
H  21.96700 49.53000 21.68900
H  23.13100 49.46300 20.44400
H  22.97800 50.93200 21.43200
H  20.50100 52.49600 25.77200
H  21.50300 52.83500 24.36000
H  21.14700 54.17000 25.60100
H  22.33400 51.36700 30.70100
H  22.69900 55.03700 33.07600
H  23.73700 53.99900 33.81200
H  21.90300 53.86800 34.14700

