158

Mg 6.61500 53.10800 40.88500
C  6.54700 49.59900 40.52100
C  9.89500 53.02300 40.28600
C  6.50700 56.46400 40.71500
C  2.97500 53.00300 41.00000
N  7.99500 51.48000 40.32000
C  7.82700 50.10000 40.27800
C  9.09500 49.36900 39.82900
C  10.19800 50.51000 40.01700
C  9.29700 51.77500 40.25200
C  11.20700 50.27600 41.18400
C  9.21000 48.80900 38.34900
C  8.89100 49.74900 37.19800
H  7.52100 49.52600 36.45300
N  8.13500 54.65700 40.63700
C  9.41100 54.39500 40.34000
C  10.12900 55.55600 40.10100
C  9.08900 56.66500 40.25500
C  7.83600 55.98000 40.59500
C  11.60000 55.56300 39.93000
C  9.35900 58.17400 40.11400
O  10.52600 58.46400 39.91900
C  8.31200 59.16800 40.25100
N  4.95100 54.49800 40.82600
C  5.25400 55.88000 40.82100
C  4.01900 56.67300 41.04800
C  2.94100 55.59900 40.98800
C  3.64700 54.29200 40.92100
C  4.10100 57.47800 42.40500
C  1.94900 55.67400 39.73900
C  1.46800 57.07300 39.28000
N  4.96500 51.63100 40.77400
C  3.60300 51.70800 40.95300
C  3.21000 50.40200 41.10000
C  4.28500 49.56800 40.97500
C  5.35300 50.29600 40.75100
C  1.71000 50.05700 41.45900
C  4.69700 48.20400 41.06800
O  4.05300 47.23500 41.29000
C  6.17500 48.18400 40.66200
C  6.14400 47.36000 39.43400
O  6.10300 47.79600 38.27600
O  6.05300 46.02600 39.80400
C  5.89100 45.14600 38.56900
H  10.98400 52.97500 40.22600
H  6.31000 57.53200 40.60200
H  1.88800 53.00900 41.10100
H  9.16900 48.52600 40.51700
H  10.78900 50.72900 39.12800
H  12.17300 50.38600 40.69200
H  11.07200 49.28900 41.62500
H  11.10100 51.14100 41.83900
H  8.68500 47.85800 38.26100
H  10.28400 48.70000 38.19400
H  9.60900 49.82400 36.38100
H  8.71200 50.78500 37.48800
H  12.08700 56.32500 40.53800
H  11.69700 55.91600 38.90300
H  12.13000 54.61500 39.83800
H  8.78800 60.12900 40.05800
H  7.74500 59.06900 41.17700
H  7.59400 59.12400 39.43200
H  3.82000 57.42500 40.28500
H  2.35900 55.58400 41.91000
H  3.45500 57.02900 43.16000
H  3.79300 58.50600 42.21500
H  5.12900 57.52600 42.76500
H  1.03800 55.09700 39.89800
H  2.60800 55.35100 38.93300
H  1.92400 57.25400 38.30700
H  1.55900 57.98700 39.86800
H  0.38000 57.01100 39.25400
H  1.23400 50.95700 41.84900
H  1.66200 49.21300 42.14700
H  1.21700 49.80400 40.52000
H  6.72800 47.69400 41.46300
H  6.53300 45.47900 37.75400
H  4.83100 45.12700 38.31600
H  6.28000 44.17500 38.87500
Mg -12.61300 15.99400 42.05700
C  -9.66600 14.07200 41.66100
C  -10.98500 18.40100 40.06300
C  -15.48100 17.64000 41.50600
C  -14.34900 13.19900 42.99900
N  -10.46600 16.24000 40.92700
C  -9.48000 15.24900 40.91900
C  -8.24800 15.73400 40.02900
C  -8.80300 17.13200 39.51400
C  -10.22400 17.28400 40.18800
C  -7.87200 18.33000 39.96500
C  -7.77500 14.76600 38.89100
C  -6.22100 14.54800 38.76300
H  -5.52500 15.26100 37.59800
N  -13.11500 17.86000 41.14700
C  -12.29700 18.75400 40.47800
C  -12.92800 20.04900 40.33000
C  -14.26600 19.85900 40.78300
C  -14.29800 18.42200 41.18300
C  -12.22400 21.28400 40.00600
C  -15.39800 20.84900 40.95800
O  -15.24200 22.00800 40.62900
C  -16.72700 20.51900 41.71400
N  -14.65200 15.46000 42.16600
C  -15.68100 16.33400 41.96000
C  -16.98600 15.74300 42.47600
C  -16.54300 14.36800 43.09500
C  -15.13800 14.33400 42.66900
C  -17.92800 16.64500 43.34100
C  -17.40300 13.11000 42.77700
C  -18.94000 13.22300 42.89300
N  -12.17500 14.06400 42.29300
C  -12.98100 13.03100 42.78200
C  -12.11400 11.89600 43.04900
C  -10.80500 12.31700 42.62200
C  -10.91100 13.55500 42.10500
C  -12.45200 10.51100 43.66400
C  -9.41300 11.82600 42.45900
O  -8.83900 10.78900 42.78500
C  -8.60200 12.95000 41.68100
C  -7.52400 13.40600 42.56300
O  -7.59200 13.55100 43.79000
O  -6.33600 13.55100 41.85200
C  -5.16500 14.15300 42.56000
H  -10.46500 19.24100 39.59800
H  -16.42200 18.18000 41.37400
H  -14.90100 12.31900 43.33600
H  -7.54500 15.80300 40.86000
H  -8.88400 17.14700 38.42800
H  -6.94400 17.98500 40.42100
H  -8.37200 19.09900 40.55500
H  -7.61000 18.95800 39.11400
H  -8.20900 15.05700 37.93500
H  -8.27000 13.79600 38.94300
H  -5.97100 13.49400 38.88700
H  -5.67500 14.91200 39.63300
H  -12.92000 21.73400 39.29800
H  -11.18700 21.18500 39.68500
H  -12.20300 21.90600 40.90100
H  -17.20700 19.92700 40.93400
H  -17.22300 21.47700 41.86800
H  -16.50900 19.96500 42.62700
H  -17.55800 15.38300 41.62100
H  -16.57100 14.56400 44.16700
H  -17.52700 17.65700 43.39800
H  -17.98200 16.25300 44.35700
H  -18.91800 16.72600 42.89200
H  -17.04100 12.43600 43.55300
H  -17.15100 12.59100 41.85200
H  -19.41000 12.28100 42.61300
H  -19.30100 13.93800 42.15300
H  -19.22700 13.47500 43.91300
H  -12.25300 9.72900 42.93100
H  -13.46100 10.43000 44.06800
H  -11.79400 10.44600 44.52900
H  -8.24400 12.39100 40.81700
H  -4.35100 13.48600 42.27700
H  -5.35800 14.19000 43.63300
H  -5.02600 15.14800 42.13800

