158

Mg 43.97500 6.11300 47.97200
C  41.94300 8.74200 47.41800
C  41.37400 3.93200 47.45800
C  46.26100 3.42200 47.95500
C  46.67400 8.34400 47.95000
N  41.90500 6.26300 47.56900
C  41.30800 7.50200 47.30800
C  39.79200 7.25000 46.94600
C  39.65600 5.68800 47.25800
C  41.04200 5.21500 47.52600
C  38.68800 5.39500 48.42800
C  39.36200 7.74100 45.46900
C  40.45400 7.76500 44.33100
H  39.96300 8.21300 42.86600
N  43.83100 3.98400 47.72900
C  42.63900 3.30100 47.56000
C  42.91500 1.93000 47.27800
C  44.32300 1.68800 47.43000
C  44.87700 3.07000 47.71000
C  41.83600 0.88800 47.00600
C  44.93300 0.38200 47.23400
O  44.31600 -0.66000 46.85300
C  46.30400 0.16000 47.60200
N  46.20900 5.93900 47.80100
C  46.87900 4.73200 48.02900
C  48.35200 4.94900 48.31000
C  48.47900 6.53500 48.19900
C  47.01100 6.99900 47.94000
C  48.72100 4.39800 49.70200
C  49.46000 6.93100 47.02200
C  50.76400 7.62700 47.41700
N  44.32000 8.13500 47.69700
C  45.42600 8.89900 47.72500
C  45.20700 10.29600 47.48300
C  43.75400 10.29100 47.36400
C  43.32100 8.96400 47.56600
C  46.25500 11.37800 47.44500
C  42.57700 11.12900 47.15600
O  42.46500 12.30200 47.02400
C  41.32800 10.14000 47.21600
C  40.39200 10.35900 48.32200
O  40.53500 10.06200 49.47400
O  39.26200 11.02300 47.86700
C  38.11700 11.29200 48.78700
H  40.59900 3.21800 47.17000
H  47.05800 2.67900 48.03000
H  47.54400 8.95500 48.19800
H  39.17800 7.78500 47.67000
H  39.30200 5.18000 46.36100
H  38.10600 6.29500 48.62800
H  39.14600 4.99200 49.33100
H  37.86200 4.72700 48.18300
H  38.99800 8.76800 45.50700
H  38.54200 7.09600 45.15200
H  40.91800 6.79100 44.17400
H  41.31700 8.40000 44.53200
H  41.96200 0.52600 45.98600
H  40.82400 1.27700 47.11300
H  41.91600 0.05500 47.70400
H  46.96100 0.70800 46.92500
H  46.66900 -0.85300 47.43400
H  46.49400 0.58300 48.58800
H  48.93400 4.36400 47.59700
H  48.87200 7.00400 49.10100
H  48.01700 4.48400 50.52900
H  49.63500 4.84000 50.09900
H  49.00000 3.35700 49.53700
H  48.89100 7.63200 46.41200
H  49.42800 6.12600 46.28900
H  51.43800 7.35200 46.60500
H  51.02200 7.25200 48.40700
H  50.59700 8.70400 47.46000
H  46.69100 11.53900 48.43100
H  45.78700 12.26300 47.01500
H  46.99400 11.07700 46.70200
H  40.84400 10.20000 46.24100
H  37.34500 10.72900 48.26200
H  37.85000 12.34500 48.69000
H  38.22600 11.10300 49.85500
Mg 55.29700 24.28600 44.51700
C  52.90600 26.55200 43.39700
C  53.43400 21.75000 43.11100
C  58.09100 22.24700 44.64700
C  57.35400 26.90400 45.25100
N  53.47200 24.18200 43.25400
C  52.62700 25.26100 42.98600
C  51.29200 24.72300 42.44900
C  51.36600 23.12500 42.61500
C  52.84000 22.99000 43.07000
C  50.29300 22.37300 43.49600
C  50.94300 25.05900 41.00100
C  49.49500 25.10700 40.49300
H  49.14800 24.96800 39.01500
N  55.68000 22.19800 44.03300
C  54.74300 21.37400 43.42000
C  55.37600 20.01400 43.26300
C  56.74100 20.11200 43.75500
C  56.92900 21.53200 44.17000
C  54.64200 18.85500 42.59400
C  57.81300 18.94800 43.81900
O  57.53000 17.82200 43.42100
C  59.15900 19.17600 44.41800
N  57.33400 24.50500 44.95000
C  58.26200 23.53700 45.05700
C  59.67100 24.08300 45.30500
C  59.41800 25.61000 45.37100
C  57.94100 25.70300 45.18100
C  60.54800 23.38500 46.32800
C  60.11800 26.37900 44.21900
C  61.07100 27.50200 44.67600
N  55.10900 26.29100 44.62500
C  56.00700 27.24800 44.99000
C  55.38700 28.54600 45.09800
C  54.16200 28.30500 44.38900
C  54.02400 26.93000 44.15600
C  56.09400 29.78900 45.59700
C  52.97600 28.97000 43.94800
O  52.63000 30.15000 44.09500
C  52.13800 27.90600 43.12500
C  52.35000 28.30100 41.72700
O  53.34700 28.18100 41.08400
O  51.16600 28.70500 41.15900
C  51.23000 28.73700 39.66900
H  52.81600 20.96400 42.67200
H  59.00700 21.68200 44.83300
H  58.00600 27.69600 45.62500
H  50.57100 25.08100 43.18300
H  51.21800 22.82200 41.57800
H  50.71000 21.86000 44.36200
H  49.62000 21.73800 42.92000
H  49.65200 23.06500 44.04300
H  51.50800 24.39600 40.34600
H  51.37900 26.04200 40.82100
H  49.04600 26.08200 40.68300
H  48.82700 24.46000 41.06200
H  54.78200 17.87100 43.04100
H  55.19300 18.54500 41.70600
H  53.57600 19.06400 42.50000
H  59.66300 19.82600 43.70300
H  59.71400 18.24100 44.50800
H  58.98300 19.62300 45.39600
H  60.19600 23.84700 44.37900
H  59.68200 25.88900 46.39100
H  60.29300 22.35900 46.59500
H  60.53100 24.04700 47.19400
H  61.59100 23.30200 46.02300
H  59.34700 26.91600 43.66700
H  60.68600 25.76100 43.52300
H  61.41200 27.37600 45.70400
H  60.73700 28.50800 44.42400
H  61.92900 27.36000 44.01900
H  55.40800 30.63100 45.50700
H  57.03900 29.99700 45.09500
H  56.33800 29.64100 46.64900
H  51.10300 27.94300 43.46500
H  51.79000 29.58200 39.26900
H  50.20800 28.77000 39.29200
H  51.59100 27.81900 39.20400

