158

Mg 6.98100 53.63600 41.58400
C  6.74400 50.14600 41.52900
C  10.26700 53.19500 40.16700
C  7.15700 56.86200 40.61600
C  3.77800 53.85000 42.50100
N  8.32900 51.89100 41.12100
C  7.96500 50.61700 41.08200
C  9.15800 49.70000 40.74300
C  10.39700 50.71700 40.81100
C  9.64100 52.05700 40.73700
C  11.31200 50.44700 42.13400
C  9.17100 48.84700 39.44100
C  8.96500 49.66600 38.20400
H  7.76600 49.27600 37.24000
N  8.49700 54.82200 40.54700
C  9.73000 54.45200 40.02600
C  10.47700 55.65500 39.69400
C  9.66800 56.79600 39.92400
C  8.37500 56.18000 40.37800
C  11.93500 55.63200 39.28100
C  10.09300 58.24600 39.80900
O  11.15600 58.65300 39.36500
C  9.22600 59.33700 40.32900
N  5.64700 55.02900 41.55000
C  5.99000 56.28900 41.13500
C  4.72200 57.13100 41.17300
C  3.65200 56.27800 41.95500
C  4.41300 54.92400 42.03800
C  4.64100 58.56100 41.81200
C  2.30500 56.14800 41.29100
C  1.10800 56.07100 42.28200
N  5.52200 52.31200 42.12400
C  4.26900 52.52800 42.60800
C  3.68300 51.24800 42.93700
C  4.57800 50.25100 42.57100
C  5.68800 51.01100 41.99300
C  2.36000 50.98500 43.55000
C  4.75500 48.87900 42.52400
O  4.03700 47.94500 42.77700
C  6.18000 48.76500 41.68200
C  5.72800 48.14100 40.34300
O  4.97000 48.66500 39.49300
O  6.04800 46.79100 40.36500
C  5.43400 45.94700 39.38200
H  11.29200 52.99100 39.85200
H  7.05400 57.92800 40.40300
H  2.75300 53.85100 42.87800
H  9.19200 48.92000 41.50400
H  11.06800 50.59000 39.96100
H  12.36400 50.57500 41.87900
H  11.18900 49.41800 42.47400
H  11.13600 51.20200 42.90000
H  8.43600 48.04200 39.46400
H  10.18400 48.47500 39.28800
H  9.83800 49.48700 37.57600
H  8.88000 50.73400 38.40100
H  12.13600 54.66700 38.81600
H  12.63500 55.81500 40.09600
H  12.13100 56.39700 38.53000
H  8.45700 59.63200 39.61500
H  9.78800 60.25700 40.48800
H  8.88900 58.99600 41.30800
H  4.49800 57.25600 40.11400
H  3.59000 56.54000 43.01100
H  5.66500 58.81800 42.08700
H  3.96400 58.89200 42.60000
H  4.36900 59.15900 40.94200
H  2.37800 55.21000 40.74100
H  2.14700 56.88900 40.50700
H  0.54600 57.00400 42.26000
H  1.51600 55.95800 43.28700
H  0.40200 55.26500 42.08200
H  1.57200 51.72600 43.41000
H  2.39000 50.69200 44.60000
H  1.99200 50.13600 42.97500
H  6.85100 48.06400 42.18000
H  6.22000 45.54100 38.74500
H  4.66700 46.30700 38.69600
H  4.99300 45.03600 39.78600
Mg -6.20600 25.71000 26.15100
C  -4.35200 27.09400 28.63800
C  -7.56800 23.41300 28.35400
C  -7.66000 24.11300 23.52500
C  -4.24000 27.52100 23.78800
N  -5.87900 25.25100 28.23900
C  -5.22700 26.07400 29.09800
C  -5.65400 25.84500 30.59500
C  -6.25400 24.44000 30.40500
C  -6.62200 24.36300 28.92100
C  -5.48900 23.17500 30.87400
C  -6.63100 26.99600 31.30200
C  -7.63000 26.59300 32.42200
H  -7.13900 25.56200 33.47200
N  -7.67600 24.15400 26.02200
C  -8.07500 23.31000 27.05100
C  -9.10200 22.40800 26.54900
C  -9.22700 22.68700 25.15400
C  -8.14400 23.66400 24.83500
C  -9.81700 21.39800 27.52300
C  -10.21300 22.07300 24.14200
O  -10.16400 22.45800 22.97400
C  -11.28800 20.98700 24.55200
N  -5.89500 25.71600 23.93200
C  -6.61500 24.94800 23.09800
C  -6.14000 25.14100 21.66100
C  -5.01700 26.29900 21.73300
C  -5.02600 26.51100 23.22500
C  -5.65400 23.88000 20.91400
C  -5.46000 27.62300 20.98500
C  -4.34500 28.24200 20.15700
N  -4.64700 27.05100 26.19100
C  -4.04900 27.77300 25.12600
C  -3.12300 28.75700 25.74200
C  -3.31900 28.53300 27.10900
C  -4.13300 27.42900 27.31600
C  -2.22000 29.78200 25.13400
C  -3.08800 29.11500 28.44200
O  -2.47300 30.11000 28.79700
C  -3.74800 28.23500 29.50800
C  -2.75400 27.77600 30.50200
O  -1.71900 27.09600 30.35500
O  -3.20700 28.15100 31.67100
C  -2.44500 27.60400 32.84800
H  -8.01000 22.79100 29.13500
H  -8.22500 23.78200 22.65100
H  -3.59000 28.01600 23.06400
H  -4.84300 25.85700 31.32300
H  -7.19300 24.37800 30.95500
H  -5.93500 22.75000 31.77300
H  -4.51700 23.57000 31.17100
H  -5.47100 22.48100 30.03300
H  -7.19900 27.31500 30.42800
H  -6.05400 27.75600 31.82900
H  -8.39100 26.03600 31.87500
H  -8.11400 27.47200 32.84900
H  -10.83800 21.63200 27.82600
H  -9.25300 21.20400 28.43500
H  -9.91600 20.41800 27.05700
H  -10.95000 19.98700 24.82400
H  -11.89100 20.82600 23.65900
H  -11.88300 21.51500 25.29700
H  -6.99100 25.48000 21.07000
H  -4.05400 25.90400 21.40900
H  -4.73500 24.07600 20.36300
H  -6.36700 23.50100 20.18200
H  -5.39500 23.05100 21.57300
H  -5.58600 28.45800 21.67300
H  -6.39200 27.46100 20.44200
H  -4.74800 28.28600 19.14500
H  -3.41500 27.67600 20.20400
H  -4.05600 29.21600 20.55300
H  -1.20900 29.37800 25.18500
H  -2.33700 30.69300 25.72100
H  -2.48400 29.86000 24.07900
H  -4.51800 28.85000 29.97500
H  -2.17900 26.55000 32.76000
H  -3.22100 27.56600 33.61300
H  -1.74000 28.29900 33.30200

