158

Mg 47.76600 25.04300 28.44100
C  49.01300 27.21300 30.99200
C  46.96500 22.83500 30.81600
C  47.65400 22.86000 26.09500
C  49.04700 27.51900 26.12800
N  47.88200 25.16200 30.63100
C  48.21400 26.19000 31.47300
C  47.90000 25.88700 32.89800
C  47.44500 24.37700 32.79000
C  47.39400 24.06500 31.33300
C  48.21400 23.45300 33.73800
C  46.99800 27.02400 33.55000
C  46.09500 26.72100 34.74700
H  46.04500 27.74800 35.90900
N  47.32100 23.07800 28.44000
C  46.95900 22.31300 29.53600
C  46.54800 20.97600 29.19900
C  46.86200 20.93400 27.80000
C  47.28600 22.28600 27.37300
C  45.98000 19.87800 30.12200
C  46.77100 19.73000 26.81900
O  47.17100 19.87100 25.65300
C  46.20200 18.33300 27.35100
N  48.24700 25.13200 26.38900
C  48.08700 24.09300 25.62000
C  48.31900 24.47200 24.13500
C  48.49800 25.98500 24.15300
C  48.55500 26.26900 25.63000
C  49.66500 23.78400 23.57500
C  47.33900 26.76600 23.30700
C  47.74200 27.35100 22.00200
N  48.81500 26.98300 28.49000
C  49.19700 27.85800 27.50600
C  49.96300 28.96700 28.05200
C  49.86600 28.85900 29.41700
C  49.23600 27.54300 29.61700
C  50.43400 30.12100 27.22600
C  50.07100 29.47700 30.77400
O  50.68500 30.47800 31.14300
C  49.47400 28.42700 31.78900
C  50.54400 28.17100 32.75100
O  51.42600 27.38500 32.48000
O  50.30600 28.72700 34.00400
C  51.27700 28.33000 35.05400
H  46.63800 22.12500 31.57900
H  47.56500 22.17500 25.24900
H  49.33800 28.30200 25.42600
H  48.86100 26.05700 33.38300
H  46.39300 24.42500 33.07000
H  48.93500 23.98700 34.35600
H  48.76700 22.69200 33.18700
H  47.47600 22.94100 34.35600
H  46.27200 27.16200 32.74800
H  47.66500 27.84900 33.80100
H  46.43500 25.73600 35.06900
H  45.08100 26.50200 34.41000
H  44.98400 19.67800 29.72700
H  45.83200 20.34200 31.09700
H  46.58600 18.97500 30.19300
H  45.26500 18.42700 27.89900
H  46.97600 18.03700 28.05900
H  46.13300 17.62100 26.52900
H  47.52100 24.04700 23.52600
H  49.48100 26.25400 23.76500
H  50.53200 24.44200 23.63200
H  49.64400 23.46500 22.53300
H  49.85900 22.91800 24.20700
H  47.11900 27.62600 23.93900
H  46.44800 26.13900 23.31900
H  47.13100 26.95600 21.19100
H  48.75200 27.05700 21.71600
H  47.69400 28.43900 21.97100
H  50.83600 29.77000 26.27500
H  51.09500 30.77400 27.79500
H  49.62900 30.83300 27.04600
H  48.65000 28.95300 32.27100
H  52.26100 28.79800 35.07100
H  51.37400 27.24900 34.95800
H  50.88700 28.73400 35.98900
Mg 49.68100 45.82300 41.31500
C  46.38300 45.90300 40.19800
C  49.89600 42.57600 40.32400
C  53.05200 46.04100 41.48000
C  49.47500 49.30200 41.87200
N  48.32800 44.50800 40.06500
C  47.04800 44.71700 39.87100
C  46.33700 43.48000 39.23800
C  47.42200 42.32200 39.62700
C  48.64500 43.15500 40.06900
C  46.98400 41.22800 40.67500
C  46.04600 43.70400 37.72200
C  44.64600 43.34100 37.23000
H  44.20200 43.92000 35.86300
N  51.21800 44.41000 41.26000
C  51.13600 43.08200 40.83500
C  52.40200 42.49900 40.83800
C  53.31700 43.58000 41.06200
C  52.52100 44.76400 41.28200
C  52.50400 40.96000 40.66000
C  54.86800 43.30900 41.11200
O  55.36600 42.23200 40.83100
C  55.82400 44.40700 41.48100
N  51.03800 47.43400 41.79800
C  52.37000 47.26200 41.79000
C  53.10700 48.56600 42.15300
C  51.93400 49.51900 42.57700
C  50.75300 48.73900 42.01700
C  54.29000 48.40500 43.07100
C  51.99500 50.95100 41.95400
C  52.54700 52.10300 42.83600
N  48.20500 47.32500 41.13900
C  48.31300 48.63600 41.41600
C  47.03500 49.24300 41.02000
C  46.19300 48.24000 40.63800
C  47.00400 47.08400 40.63800
C  46.68300 50.72700 41.30500
C  44.94000 47.92600 40.03800
O  44.01900 48.60400 39.72900
C  44.94500 46.35500 39.87400
C  43.99200 45.84600 40.84700
O  44.37800 45.40000 41.94000
O  42.66400 46.03200 40.47200
C  41.66200 45.45100 41.35900
H  49.84400 41.51900 40.05200
H  54.13500 46.17600 41.52500
H  49.34500 50.36600 42.08400
H  45.37400 43.31300 39.72200
H  47.60100 41.74800 38.71800
H  47.71200 40.95100 41.43800
H  46.72200 40.34600 40.09200
H  46.07800 41.49200 41.22000
H  46.71800 43.00700 37.22200
H  46.29100 44.71300 37.39000
H  43.93700 43.64900 37.99900
H  44.56000 42.25500 37.19800
H  53.29200 40.54200 41.28600
H  52.77000 40.72800 39.62900
H  51.63700 40.41600 41.03500
H  56.03200 45.12600 40.68900
H  56.77000 43.86900 41.54100
H  55.43100 44.83100 42.40500
H  53.55700 48.92400 41.22700
H  51.91800 49.45200 43.66500
H  54.17600 49.05600 43.93800
H  55.25000 48.67500 42.63100
H  54.39500 47.37900 43.42200
H  51.04400 51.24400 41.51000
H  52.71100 50.82500 41.14200
H  52.79400 51.62800 43.78500
H  51.86300 52.94400 42.95900
H  53.36400 52.55100 42.27100
H  46.88600 50.83900 42.36900
H  45.67900 50.98800 40.97000
H  47.42000 51.33900 40.78500
H  44.71800 46.06200 38.84900
H  41.00700 44.84000 40.73700
H  41.22100 46.32700 41.83500
H  42.05000 44.83700 42.17200

