158

Mg 17.50800 -2.83200 28.19900
C  16.31400 -0.73800 30.91700
C  19.33400 -4.59000 30.51400
C  18.80600 -4.33800 25.70400
C  15.66100 -0.76100 25.99600
N  17.69700 -2.73000 30.45300
C  17.08600 -1.78000 31.33500
C  17.57500 -2.11400 32.79300
C  18.65600 -3.15700 32.60600
C  18.65300 -3.49800 31.07900
C  20.02900 -2.66200 33.07000
C  16.36700 -2.43600 33.72000
C  16.28000 -1.68400 35.08800
H  17.52100 -1.18900 35.79600
N  18.79100 -4.39200 28.07600
C  19.38200 -5.01200 29.11000
C  20.13600 -6.14800 28.55200
C  20.05100 -6.07100 27.10200
C  19.18100 -4.85900 26.91300
C  21.16000 -7.01600 29.36400
C  20.71100 -6.94400 26.07500
O  20.66000 -6.72700 24.88600
C  21.42200 -8.21600 26.41200
N  17.48400 -2.39200 26.18700
C  18.03000 -3.27700 25.31100
C  17.74500 -2.89500 23.84800
C  16.53400 -2.04800 24.02400
C  16.56200 -1.68500 25.46900
C  18.96400 -2.19900 23.22300
C  15.23100 -2.78100 23.57100
C  14.08600 -1.97900 23.06100
N  16.30000 -1.01900 28.37500
C  15.53600 -0.36200 27.39800
C  14.63600 0.58100 27.99100
C  15.00100 0.56600 29.36700
C  15.97200 -0.45300 29.54600
C  13.69000 1.35700 27.22900
C  14.66600 1.14400 30.64600
O  13.77200 1.97300 30.97600
C  15.51700 0.27600 31.78200
C  16.48900 1.27100 32.44400
O  17.63900 1.55400 32.09800
O  15.81400 1.82100 33.50200
C  16.44300 2.74900 34.43400
H  19.94700 -5.27700 31.10100
H  19.12600 -4.91600 24.83500
H  15.20100 -0.15100 25.21600
H  18.00400 -1.17500 33.14200
H  18.33400 -4.12600 32.98700
H  20.76700 -3.39600 32.74800
H  20.10800 -2.53500 34.14900
H  20.17600 -1.70400 32.56900
H  16.46300 -3.48200 34.01200
H  15.41000 -2.24400 33.23500
H  15.77900 -2.40400 35.73400
H  15.49400 -0.97500 34.82500
H  22.00900 -7.25400 28.72300
H  20.81600 -7.93800 29.83200
H  21.52300 -6.45400 30.22400
H  21.00300 -8.61900 27.33400
H  22.45200 -7.93200 26.63100
H  21.48500 -8.95200 25.61100
H  17.64900 -3.89800 23.43100
H  16.67400 -1.11600 23.47700
H  19.90400 -2.05400 23.75500
H  18.65500 -1.18700 22.96200
H  19.23800 -2.78000 22.34200
H  14.93100 -3.26400 24.50100
H  15.34900 -3.39900 22.68000
H  14.14700 -1.01900 23.57400
H  13.20700 -2.55300 23.35500
H  14.17500 -1.88100 21.97900
H  13.11900 0.74800 26.52700
H  14.25100 1.99300 26.54500
H  13.07200 1.95100 27.90200
H  14.81600 -0.11800 32.51700
H  17.21900 3.33800 33.94500
H  16.74300 2.30700 35.38400
H  15.67200 3.46600 34.71800
Mg 6.91600 56.55600 41.62700
C  5.95400 53.11700 41.49400
C  10.02600 55.66200 40.46000
C  7.37700 59.67200 41.10400
C  3.46600 57.31700 42.65800
N  7.85700 54.54800 41.09900
C  7.23000 53.30300 41.01000
C  8.28700 52.30100 40.42300
C  9.66400 53.06400 40.64900
C  9.17100 54.54400 40.77600
C  10.57300 52.68900 41.93600
C  7.84200 51.86700 38.98800
C  8.57900 50.71700 38.38100
H  8.59400 50.65400 36.87300
N  8.55800 57.56900 41.00800
C  9.72900 57.04200 40.50700
C  10.55700 58.15500 40.21700
C  9.81500 59.38100 40.34100
C  8.51200 58.90100 40.83200
C  11.95700 57.91500 39.78700
C  10.30000 60.73300 39.98800
O  11.42800 60.85700 39.44500
C  9.49800 62.00600 40.10600
N  5.48300 58.22500 41.68000
C  6.09900 59.44800 41.52600
C  5.20100 60.56100 42.10100
C  3.87400 59.83300 42.44900
C  4.31700 58.35900 42.26300
C  5.78600 61.35200 43.25000
C  2.71300 60.27900 41.57500
C  1.48200 60.95600 42.32800
N  5.07600 55.54300 41.92100
C  3.81800 55.96000 42.39000
C  3.04100 54.78100 42.76400
C  3.84500 53.70400 42.41500
C  5.01500 54.20900 41.85000
C  1.75700 54.71000 43.43700
C  3.92100 52.25000 42.52900
O  3.18500 51.42500 43.02400
C  5.29200 51.83800 41.89200
C  5.05700 50.85600 40.79500
O  4.35900 51.11000 39.81500
O  5.66100 49.66900 41.05300
C  5.50300 48.81700 39.87300
H  11.06800 55.40700 40.25900
H  7.55600 60.71000 40.81600
H  2.50300 57.71800 42.98000
H  8.35700 51.42200 41.06400
H  10.22600 52.92500 39.72500
H  10.01800 51.86000 42.37400
H  10.54700 53.48800 42.67600
H  11.59500 52.61600 41.56500
H  7.88400 52.71700 38.30600
H  6.83900 51.44700 39.06400
H  8.25300 49.78600 38.84400
H  9.58500 50.98500 38.70400
H  12.39700 57.22500 40.50800
H  12.64700 58.75600 39.85900
H  11.85800 57.52600 38.77400
H  9.14700 62.14200 41.12900
H  8.65500 62.08100 39.41900
H  10.19100 62.78300 39.78200
H  5.01800 61.28100 41.30300
H  3.56400 59.99000 43.48300
H  6.71400 60.82600 43.47500
H  5.29500 61.20900 44.21300
H  5.84500 62.42000 43.03900
H  2.31200 59.47700 40.95400
H  3.02400 61.12300 40.96000
H  0.49700 60.91500 41.86400
H  1.88200 61.96500 42.43200
H  1.38700 60.56400 43.34100
H  0.94100 55.09500 42.82500
H  1.86100 55.34500 44.31700
H  1.58500 53.70800 43.83100
H  5.77200 51.30400 42.71100
H  4.45500 48.55500 39.73000
H  6.06300 47.93600 40.18800
H  5.89400 49.28700 38.97000

