158

Mg 40.46100 9.89600 30.25800
C  42.12000 11.15700 33.00400
C  37.97900 8.85200 32.37200
C  39.01400 8.36200 27.63900
C  43.07300 10.85600 28.16400
N  40.16900 9.98200 32.56100
C  40.87400 10.67200 33.41200
C  40.26900 10.79000 34.79400
C  38.97600 9.89100 34.60400
C  38.97900 9.57600 33.07300
C  38.98800 8.58900 35.43100
C  39.97300 12.25400 35.25200
C  40.85600 12.78100 36.49400
H  40.12700 13.47100 37.66000
N  38.65000 8.89000 30.00100
C  37.76000 8.56900 30.99900
C  36.53100 7.97300 30.40400
C  36.85400 7.85000 28.99400
C  38.27600 8.27700 28.80100
C  35.38300 7.45700 31.26900
C  36.01800 7.31800 27.89000
O  36.39100 7.16100 26.72800
C  34.55000 7.00000 28.17000
N  40.90400 9.74400 28.11800
C  40.18300 8.98200 27.30800
C  40.68100 9.15100 25.80800
C  42.12700 9.80600 25.99100
C  42.06300 10.18000 27.51000
C  40.61800 7.89800 24.94000
C  42.36200 10.96700 25.08400
C  41.61600 12.31200 25.48000
N  42.22600 10.84400 30.46600
C  43.23100 11.14000 29.52700
C  44.23900 11.84400 30.25200
C  43.89000 11.84900 31.57000
C  42.65600 11.18900 31.66500
C  45.46000 12.49500 29.58600
C  44.28100 12.33200 32.94000
O  45.22900 13.05700 33.23200
C  43.15200 11.81300 33.87700
C  43.69700 10.82600 34.89800
O  43.73400 9.58900 34.79900
O  44.19500 11.58900 35.95600
C  44.94700 10.96200 36.99300
H  37.22400 8.54600 33.09900
H  38.53400 7.93000 26.75800
H  43.89600 11.13500 27.50300
H  40.96700 10.33000 35.49300
H  38.06000 10.42400 34.85700
H  39.67500 8.70200 36.27000
H  39.32100 7.68300 34.92500
H  37.97300 8.47400 35.81200
H  38.90400 12.37600 35.42800
H  40.23800 12.82900 34.36500
H  41.51700 13.55200 36.09700
H  41.36600 11.87400 36.81900
H  35.46200 7.54500 32.35300
H  35.31900 6.39400 31.03700
H  34.44900 7.93300 30.97100
H  34.00700 6.69800 27.27400
H  34.12900 7.94800 28.50200
H  34.54900 6.17700 28.88600
H  39.94400 9.87100 25.45300
H  42.97200 9.11700 25.97900
H  40.57400 7.04000 25.61100
H  41.47000 7.78100 24.27100
H  39.70900 7.82700 24.34200
H  42.10900 10.94800 24.02400
H  43.43400 11.16200 25.07400
H  41.44200 13.08000 24.72700
H  42.22200 12.75800 26.26900
H  40.72400 12.07900 26.06100
H  46.32100 11.82800 29.62400
H  45.42000 13.46300 30.08600
H  45.33100 12.63400 28.51300
H  42.74200 12.71600 34.33000
H  44.28000 10.18400 37.36500
H  45.18900 11.58900 37.85100
H  45.87000 10.50600 36.63700
Mg 17.51100 50.69800 26.57500
C  19.65600 49.42300 29.07600
C  15.23300 51.52900 28.93700
C  15.81800 51.98000 24.09500
C  19.99700 49.59100 24.19800
N  17.35600 50.20500 28.71000
C  18.35700 49.87500 29.56300
C  18.04600 50.16700 31.07400
C  16.53800 50.55500 30.90800
C  16.39500 50.85400 29.40200
C  15.50600 49.54400 31.50500
C  18.87200 51.39300 31.65600
C  19.04600 51.49700 33.18600
H  18.11800 50.77200 34.10500
N  15.70800 51.53700 26.53800
C  14.95200 51.85600 27.59400
C  13.88600 52.64000 27.09600
C  14.09700 52.93800 25.76800
C  15.31000 52.13700 25.41800
C  12.79000 53.08800 27.96600
C  13.35800 53.85300 24.83100
O  13.72300 54.02300 23.67700
C  12.14200 54.53900 25.29800
N  17.92400 50.72400 24.39200
C  16.93400 51.27100 23.61100
C  17.28000 51.08500 22.14300
C  18.59700 50.27800 22.14200
C  18.84900 50.16600 23.67700
C  16.14500 50.50100 21.25700
C  19.82900 50.92600 21.44900
C  20.51600 50.15800 20.26200
N  19.35200 49.60100 26.59900
C  20.28500 49.31500 25.58500
C  21.55800 48.87400 26.13200
C  21.31600 48.88200 27.53400
C  20.01400 49.34600 27.75600
C  22.74000 48.62700 25.34800
C  21.90700 48.46100 28.80500
O  23.00600 47.93100 28.99200
C  20.87500 48.88400 29.94700
C  20.55300 47.62100 30.60100
O  19.85500 46.72100 30.09500
O  21.02300 47.62100 31.89800
C  20.23600 46.79200 32.80200
H  14.59600 51.90100 29.74300
H  15.21200 52.34100 23.26100
H  20.69000 49.29300 23.40800
H  18.20600 49.29100 31.70300
H  16.31200 51.47600 31.44500
H  15.97000 48.82000 32.17400
H  14.97200 49.12200 30.65300
H  14.77700 50.08200 32.11100
H  18.37500 52.30800 31.33700
H  19.88600 51.31700 31.26400
H  19.06400 52.50900 33.58900
H  19.98600 51.03500 33.49000
H  11.82400 52.72200 27.61900
H  12.99700 54.15000 28.09300
H  12.84200 52.61100 28.94500
H  11.51700 53.75900 25.73200
H  11.63500 55.01600 24.45900
H  12.28700 55.29500 26.07000
H  17.45000 52.09400 21.76900
H  18.47700 49.32200 21.63200
H  16.00200 51.18500 20.42000
H  15.17100 50.54400 21.74400
H  16.44200 49.52800 20.86500
H  20.58500 51.20200 22.18500
H  19.52200 51.89200 21.04800
H  20.83800 49.14400 20.49900
H  21.37800 50.72500 19.91100
H  19.85900 50.24200 19.39600
H  22.69000 49.35400 24.53700
H  22.62400 47.66300 24.85200
H  23.66100 48.66900 25.93000
H  21.33500 49.61200 30.61500
H  20.72400 45.84900 33.04800
H  19.28300 46.47500 32.37800
H  20.11900 47.43200 33.67600

