158

Mg 27.91200 56.66200 39.46400
C  25.38300 54.23000 39.04600
C  30.15100 54.25000 38.60300
C  30.27600 58.96700 39.08900
C  25.48600 59.15100 39.81300
N  27.67500 54.50800 38.56300
C  26.63400 53.67900 38.63900
C  27.04100 52.27900 38.13900
C  28.56800 52.30200 38.22400
C  28.82300 53.79000 38.50100
C  29.19900 51.42300 39.40900
C  26.51300 52.02800 36.64000
C  26.65400 53.23300 35.66400
H  27.03900 53.06500 34.20200
N  29.98900 56.62200 39.00300
C  30.70900 55.49400 38.82300
C  32.08800 55.88400 38.82600
C  32.14500 57.29000 38.91900
C  30.78700 57.69300 38.99900
C  33.33700 54.90200 38.79300
C  33.43800 58.11900 39.00300
O  34.56000 57.62300 38.95800
C  33.51300 59.62000 39.21000
N  27.78900 58.78700 39.26100
C  28.97100 59.46500 39.26200
C  28.76700 61.00000 39.28900
C  27.19300 61.03200 39.66400
C  26.78000 59.58100 39.47400
C  29.63400 61.64500 40.40300
C  26.36700 62.14900 38.93300
C  26.00200 63.42800 39.82200
N  25.87000 56.72800 39.47900
C  24.96600 57.75600 39.66800
C  23.67600 57.24200 39.85300
C  23.83900 55.87500 39.67900
C  25.18700 55.56300 39.40500
C  22.38900 57.98900 40.16600
C  23.05300 54.62300 39.70600
O  21.84300 54.38000 39.79300
C  24.03000 53.52000 39.09300
C  23.83300 52.21200 39.85900
O  23.19400 51.24400 39.45800
O  24.46700 52.39500 40.99900
C  24.76300 51.14900 41.79800
H  30.87900 53.44200 38.51800
H  30.97400 59.78500 38.89800
H  24.84200 60.00400 40.03700
H  26.70800 51.43300 38.74000
H  28.90300 52.07800 37.21200
H  30.21200 51.12800 39.13600
H  28.50500 50.58600 39.49200
H  29.23400 52.02400 40.31700
H  25.46300 51.74900 36.72700
H  26.96500 51.08700 36.32300
H  27.35400 53.92900 36.12700
H  25.70300 53.76500 35.69500
H  33.84600 54.88200 37.82900
H  33.01000 53.87100 38.93300
H  33.95700 55.14300 39.65700
H  32.94100 59.95900 40.07400
H  33.09700 60.15700 38.35800
H  34.50700 60.01900 39.41600
H  28.99300 61.31200 38.27000
H  27.20500 61.26500 40.72800
H  29.86800 60.94100 41.20100
H  29.00300 62.45400 40.77400
H  30.54900 62.08300 40.00300
H  25.45600 61.78200 38.45900
H  26.90000 62.53200 38.06300
H  26.45000 63.34900 40.81200
H  24.94400 63.56900 40.04200
H  26.33400 64.29300 39.24700
H  21.61100 57.26000 40.39700
H  22.32000 58.58400 39.25500
H  22.60700 58.71500 40.94800
H  23.65000 53.42100 38.07600
H  25.75200 51.05600 42.24500
H  24.63100 50.22600 41.23300
H  24.06600 51.12900 42.63600
Mg 16.95500 51.74300 25.72400
C  18.92000 50.60100 28.41400
C  14.59300 52.53400 28.09400
C  15.16700 53.04600 23.28300
C  19.31500 50.28400 23.53900
N  16.80900 51.63800 27.93900
C  17.77500 51.25300 28.86200
C  17.46200 51.62900 30.29800
C  15.94700 52.01700 30.21000
C  15.74100 52.01700 28.64300
C  15.00100 50.91900 30.95400
C  18.40800 52.73200 30.91000
C  18.84500 52.41700 32.31500
H  17.81100 51.89200 33.25400
N  15.03900 52.68700 25.68400
C  14.24300 52.90200 26.75700
C  13.03900 53.57300 26.24600
C  13.17100 53.76500 24.81400
C  14.51700 53.21400 24.53500
C  11.98200 53.89000 27.23100
C  12.26100 54.32900 23.72500
O  12.47300 54.28800 22.51700
C  10.99700 55.09600 24.12500
N  17.24300 51.62000 23.58700
C  16.31900 52.30100 22.79600
C  16.86600 52.27300 21.29100
C  18.24700 51.53400 21.41800
C  18.28800 51.07600 22.83800
C  15.88700 51.61600 20.32700
C  19.53000 52.32600 21.19900
C  20.22100 51.93700 19.92000
N  18.66500 50.62100 25.85100
C  19.53600 50.06700 24.91300
C  20.62300 49.36400 25.57200
C  20.40800 49.58500 26.93700
C  19.26300 50.37100 27.04100
C  21.76000 48.65800 24.96900
C  20.93900 49.21000 28.22400
O  21.84900 48.48700 28.61800
C  20.07000 49.98100 29.24800
C  19.64400 48.91100 30.22100
O  18.81000 48.00300 29.93800
O  20.13000 49.18400 31.51600
C  19.48300 48.26700 32.43300
H  13.84200 52.78700 28.84500
H  14.61600 53.45200 22.43200
H  20.06600 49.76400 22.94100
H  17.56900 50.74800 30.93100
H  15.78500 52.96500 30.72200
H  15.47700 50.46000 31.82000
H  14.66100 50.21900 30.19000
H  14.11500 51.44300 31.31300
H  17.82600 53.64600 31.03300
H  19.20600 53.06700 30.24800
H  19.18400 53.27000 32.90300
H  19.68600 51.72800 32.23600
H  11.30100 54.68200 26.92000
H  12.31500 54.19900 28.22200
H  11.41300 52.97900 27.41800
H  10.34700 54.63100 24.86500
H  10.45200 55.22600 23.19000
H  11.32700 56.03900 24.56300
H  16.88700 53.34300 21.08500
H  18.15000 50.76800 20.64900
H  16.26500 51.39300 19.32900
H  14.97700 52.18700 20.14400
H  15.57000 50.63200 20.67300
H  20.30000 52.04400 21.91600
H  19.40600 53.40800 21.23000
H  20.97100 51.20000 20.20600
H  20.92300 52.68200 19.54600
H  19.54400 51.70100 19.09900
H  21.46700 48.27100 23.99400
H  21.95500 47.82700 25.64700
H  22.73000 49.15700 24.94400
H  20.68000 50.68900 29.81000
H  18.40300 48.39500 32.49500
H  19.72600 48.74800 33.38000
H  19.74600 47.21100 32.37100

