158

Mg 16.53300 -2.77300 28.00600
C  15.35100 -0.75000 30.80100
C  18.74100 -4.26400 30.40000
C  17.76100 -4.52200 25.58700
C  14.41500 -0.92500 25.94100
N  16.95700 -2.54500 30.37800
C  16.29100 -1.66200 31.24600
C  16.72700 -2.02600 32.72200
C  17.85800 -3.04300 32.60200
C  17.87800 -3.32000 31.08400
C  19.24900 -2.75900 33.19400
C  15.56100 -2.52200 33.59100
C  15.31000 -1.77000 34.87100
H  16.47000 -1.17200 35.77600
N  18.04600 -4.19700 28.00700
C  18.78500 -4.64900 29.03200
C  19.65800 -5.72100 28.59400
C  19.30700 -5.95700 27.23300
C  18.37700 -4.81300 26.83700
C  20.83400 -6.38700 29.39400
C  19.88900 -7.03600 26.32500
O  19.70200 -6.99000 25.07700
C  20.50600 -8.27400 26.93200
N  16.13500 -2.70100 26.04300
C  16.71600 -3.63800 25.24800
C  16.33600 -3.38800 23.75200
C  14.98700 -2.48500 23.99200
C  15.23900 -1.91900 25.37000
C  17.39100 -2.69200 23.01300
C  13.59500 -3.20100 23.87700
C  12.36200 -2.54200 23.22200
N  15.16200 -1.18200 28.24500
C  14.32500 -0.49700 27.29900
C  13.53000 0.44300 27.94800
C  13.92200 0.35400 29.33300
C  14.93300 -0.56300 29.44800
C  12.49700 1.38800 27.38200
C  13.64800 0.95700 30.59400
O  13.00200 1.90100 31.00000
C  14.61300 0.25800 31.64100
C  15.50400 1.22800 32.28100
O  16.60800 1.56400 31.90800
O  14.91300 1.86500 33.42400
C  15.55300 3.00000 34.07100
H  19.44900 -4.79500 31.03900
H  18.11400 -5.08200 24.71900
H  13.55000 -0.53800 25.39900
H  17.14400 -1.08000 33.06600
H  17.57200 -4.05500 32.88800
H  19.34400 -1.73600 33.55600
H  19.93600 -2.92100 32.36300
H  19.53900 -3.52400 33.91500
H  15.55200 -3.58700 33.82200
H  14.67000 -2.50600 32.96300
H  14.64300 -2.44400 35.40800
H  14.78100 -0.84800 34.63100
H  21.13700 -5.68000 30.16600
H  21.75400 -6.57900 28.84100
H  20.49300 -7.25100 29.96300
H  20.13400 -8.54900 27.91900
H  21.56600 -8.08600 27.10200
H  20.46700 -9.18000 26.32700
H  16.21200 -4.29700 23.16400
H  14.95300 -1.69200 23.24600
H  18.01500 -3.42500 22.50200
H  18.05300 -2.19100 23.72000
H  17.09200 -1.86900 22.36400
H  13.19300 -3.46200 24.85600
H  13.82500 -4.17000 23.43400
H  11.73300 -3.24700 22.67800
H  12.65500 -1.79100 22.48900
H  11.82800 -2.00800 24.00900
H  12.94300 2.36900 27.21300
H  11.57900 1.55100 27.94600
H  12.07300 1.04800 26.43700
H  14.03600 -0.35200 32.33700
H  16.43600 3.39300 33.56700
H  15.84100 2.75600 35.09300
H  14.82700 3.81300 34.09300
Mg 27.88900 51.40900 26.26800
C  25.79400 52.49700 28.98200
C  30.31300 50.72200 28.60500
C  29.92600 50.74400 23.72000
C  25.58100 52.83500 24.08500
N  27.94100 51.43400 28.42000
C  26.98900 51.89800 29.32600
C  27.54600 51.80600 30.83600
C  28.98300 51.30000 30.70200
C  29.10600 51.12700 29.13600
C  30.01100 52.34100 31.34800
C  26.49800 50.91900 31.67600
C  27.07300 50.27200 32.90200
H  26.69200 50.72800 34.33900
N  29.74200 50.61400 26.18900
C  30.58100 50.44400 27.25300
C  31.79200 49.87100 26.80200
C  31.65500 49.66200 25.38100
C  30.46100 50.42200 25.00500
C  32.91900 49.51000 27.79600
C  32.60600 49.00700 24.43400
O  32.52900 48.97900 23.19500
C  33.86200 48.37400 24.94200
N  27.78900 51.82900 24.19500
C  28.78400 51.44800 23.31600
C  28.51200 51.87800 21.90100
C  27.11100 52.53300 22.08300
C  26.77200 52.41000 23.53700
C  29.66300 52.82600 21.32300
C  25.99000 52.02400 21.13000
C  25.79600 52.84400 19.84100
N  26.01900 52.35100 26.43800
C  25.20900 52.83700 25.49300
C  23.90900 53.33200 26.05800
C  24.12800 53.18000 27.44600
C  25.41300 52.63900 27.62300
C  22.76300 53.96700 25.28100
C  23.52500 53.39200 28.77400
O  22.45200 53.90500 29.12600
C  24.57300 52.90300 29.76600
C  24.86800 53.95100 30.63900
O  25.86900 54.67500 30.52600
O  24.06700 53.87200 31.76500
C  24.53600 54.49300 32.98900
H  31.02900 50.56700 29.41400
H  30.67500 50.48700 22.96800
H  24.80400 53.25200 23.44000
H  27.39700 52.76300 31.33600
H  29.26200 50.33300 31.12200
H  30.54800 51.81900 32.14000
H  29.47900 53.14700 31.85400
H  30.77000 52.68200 30.64500
H  26.01600 50.29800 30.92000
H  25.75300 51.61800 32.05500
H  28.10200 50.63200 32.92100
H  27.01400 49.18400 32.92500
H  32.85000 48.45800 28.07300
H  33.03600 50.12500 28.68800
H  33.80400 49.75100 27.20800
H  33.57600 47.65900 25.71400
H  34.47600 49.18900 25.32500
H  34.47400 47.92500 24.16000
H  28.37000 50.99300 21.28100
H  27.20800 53.60500 21.91300
H  29.45500 53.85200 21.01900
H  30.01700 52.30300 20.43500
H  30.44000 52.81500 22.08700
H  24.98100 52.02900 21.54300
H  26.27800 51.05500 20.72400
H  24.74400 52.79900 19.55800
H  26.23800 52.33700 18.98400
H  26.19100 53.86000 19.84900
H  21.79300 53.83000 25.75700
H  22.85700 53.67600 24.23500
H  22.92300 55.04500 25.30400
H  24.17200 52.07200 30.34700
H  25.19300 55.32400 32.73300
H  24.94300 53.78600 33.71200
H  23.68000 54.92700 33.50500

