158

Mg 42.19500 41.53800 27.37400
C  41.40700 43.95100 29.84300
C  42.86100 39.23900 29.91200
C  42.94100 39.31200 25.06100
C  41.80300 44.09300 25.00500
N  42.26100 41.66700 29.57400
C  41.70900 42.66200 30.35400
C  41.74300 42.26900 31.78900
C  42.43800 40.93300 31.82700
C  42.50100 40.56200 30.35100
C  43.85000 40.85400 32.48300
C  40.27900 42.24800 32.33800
C  40.03100 43.04400 33.61400
H  39.48500 42.37000 34.95600
N  42.76100 39.54300 27.48700
C  42.98700 38.79100 28.58900
C  43.31800 37.44400 28.15900
C  43.29900 37.38000 26.74700
C  42.95800 38.74700 26.37800
C  43.59400 36.31500 29.13000
C  43.51100 36.24900 25.87300
O  43.58700 36.43100 24.70600
C  43.82100 34.87200 26.35800
N  42.32400 41.72200 25.43900
C  42.68100 40.62600 24.62600
C  42.66500 40.96000 23.12900
C  42.08800 42.41600 23.05700
C  42.14200 42.81800 24.60000
C  43.96500 40.67200 22.30600
C  40.67700 42.61300 22.55100
C  39.54800 41.90300 23.36400
N  41.66400 43.64500 27.38900
C  41.55000 44.49200 26.31900
C  41.05600 45.77000 26.80000
C  40.92400 45.60700 28.23800
C  41.37400 44.31300 28.45600
C  40.77300 46.95800 25.88700
C  40.53300 46.24000 29.48600
O  40.15700 47.35900 29.82600
C  40.87600 45.15900 30.61900
C  41.98200 45.66500 31.54500
O  43.18400 45.43900 31.43300
O  41.40200 46.31100 32.56100
C  42.29400 46.77800 33.69400
H  43.16700 38.55300 30.70400
H  43.19200 38.66100 24.22100
H  41.48600 44.80600 24.24000
H  42.30000 42.96300 32.41800
H  41.77400 40.19700 32.28100
H  43.70200 39.90000 32.98900
H  43.89700 41.73400 33.12400
H  44.63300 40.69200 31.74100
H  40.07900 41.22700 32.66500
H  39.54100 42.46400 31.56600
H  39.22700 43.75100 33.40900
H  40.82700 43.76300 33.81300
H  44.65000 36.16900 29.35600
H  43.13400 35.34200 28.95400
H  43.07200 36.58900 30.04700
H  43.81300 34.16900 25.52400
H  42.91300 34.61900 26.90600
H  44.71300 34.93000 26.98200
H  41.97000 40.30700 22.59900
H  42.81200 43.04300 22.53600
H  44.37200 41.59400 21.89200
H  43.68800 40.01700 21.47900
H  44.70600 40.21000 22.95800
H  40.64600 42.11300 21.58300
H  40.43300 43.67300 22.62400
H  39.82100 41.78300 24.41200
H  39.23800 40.95700 22.91900
H  38.65000 42.51100 23.25800
H  40.41700 46.57100 24.93200
H  41.75400 47.40400 25.72800
H  39.97200 47.60800 26.23700
H  40.00600 44.98700 31.25300
H  42.62200 45.95300 34.32600
H  41.77600 47.46500 34.36300
H  43.10100 47.36300 33.25300
Mg -1.29100 34.40900 26.62300
C  -3.54100 32.78500 28.96600
C  -0.32000 36.53800 29.19400
C  0.61300 36.01200 24.46700
C  -2.61700 32.34900 24.06700
N  -1.89700 34.65200 28.81500
C  -2.69700 33.77700 29.51800
C  -2.72400 34.14400 31.01400
C  -1.76900 35.44800 31.08400
C  -1.33900 35.61100 29.61300
C  -2.46700 36.69000 31.68500
C  -2.36800 32.96200 31.95200
C  -1.62500 33.25300 33.26500
H  -2.20500 32.80700 34.62500
N  0.12900 36.00300 26.80400
C  0.39700 36.71300 27.93500
C  1.25900 37.85000 27.58200
C  1.40300 37.80000 26.19800
C  0.76500 36.54300 25.75500
C  1.58300 38.91500 28.60400
C  2.04200 38.79000 25.34100
O  2.14500 38.60400 24.11200
C  2.64200 40.02700 25.89000
N  -1.01600 34.20000 24.61300
C  -0.12200 34.96000 23.95000
C  -0.13400 34.49600 22.44200
C  -0.96000 33.12900 22.47900
C  -1.58100 33.23800 23.80600
C  -0.77800 35.61400 21.45100
C  -0.14600 31.84900 22.30100
C  -0.85800 30.63300 21.80900
N  -2.82100 32.90100 26.46300
C  -3.28800 32.22500 25.35000
C  -4.29700 31.27500 25.73200
C  -4.45700 31.51600 27.09700
C  -3.54000 32.49200 27.50400
C  -5.10900 30.27800 24.80500
C  -5.23100 31.15300 28.21000
O  -6.22400 30.46900 28.33100
C  -4.65600 31.89200 29.48400
C  -5.67800 32.75600 30.19400
O  -6.32000 33.74700 29.76200
O  -6.00100 32.27000 31.42300
C  -7.21100 32.65300 32.17200
H  -0.08200 37.32200 29.91600
H  1.09100 36.42100 23.57400
H  -2.91400 31.61900 23.31100
H  -3.77000 34.38600 31.20400
H  -0.80900 35.23300 31.55400
H  -3.55000 36.58200 31.75000
H  -2.38500 37.47000 30.92800
H  -2.15900 37.01700 32.67800
H  -1.91700 32.12500 31.41900
H  -3.35100 32.64200 32.29800
H  -1.60300 34.33900 33.35600
H  -0.62400 32.82900 33.19600
H  1.53600 38.55900 29.63300
H  0.92400 39.76900 28.45100
H  2.65600 39.09400 28.52700
H  1.96300 40.58500 26.53500
H  2.90500 40.68200 25.05900
H  3.57200 39.80800 26.41400
H  0.86500 34.33200 22.03800
H  -1.69100 33.11600 21.67000
H  -1.33100 36.46200 21.85500
H  -1.37800 35.20700 20.63700
H  0.11500 36.09400 21.05200
H  0.44500 31.69700 23.20400
H  0.66200 32.07100 21.60400
H  -0.20300 30.36900 20.97800
H  -1.78300 30.87800 21.28800
H  -0.98400 29.88500 22.59100
H  -4.57400 30.09100 23.87400
H  -6.14200 30.58800 24.64600
H  -5.16800 29.36200 25.39200
H  -4.26700 31.15400 30.18500
H  -7.98900 33.05700 31.52400
H  -6.89400 33.33000 32.96600
H  -7.55800 31.72600 32.62800

