158

Mg 24.70100 -7.14900 47.32400
C  27.34900 -5.26100 46.29500
C  22.95700 -6.18200 44.66000
C  22.67900 -9.84300 47.75900
C  27.05600 -8.89200 49.50600
N  25.20100 -5.96000 45.66500
C  26.28300 -5.17100 45.41100
C  26.09300 -4.30800 44.18200
C  24.67800 -4.66900 43.69400
C  24.20700 -5.60400 44.78100
C  23.71700 -3.51000 43.39700
C  27.23500 -4.41200 43.09800
C  27.87200 -3.11400 42.61100
H  27.81600 -2.71200 41.19800
N  22.89200 -7.71000 46.59300
C  22.32300 -7.16600 45.44700
C  21.03500 -7.80300 45.20000
C  20.88500 -8.75900 46.24200
C  22.15800 -8.83500 46.96600
C  20.08300 -7.22800 44.11800
C  19.65800 -9.57600 46.44300
O  18.69900 -9.46500 45.75000
C  19.60400 -10.51600 47.56200
N  24.81900 -9.09100 48.47000
C  23.81000 -9.92600 48.46500
C  24.03700 -11.12400 49.38300
C  25.34000 -10.70500 50.10900
C  25.83400 -9.60800 49.19400
C  22.92800 -11.48900 50.36200
C  26.39600 -11.80900 50.24900
C  26.72700 -12.26100 51.65900
N  26.71900 -7.01600 47.98600
C  27.55400 -7.69600 48.83600
C  28.82000 -7.07400 48.91200
C  28.77000 -6.02700 47.98900
C  27.47800 -6.05800 47.41200
C  30.08200 -7.50000 49.66900
C  29.54600 -4.94900 47.38100
O  30.69200 -4.54800 47.57800
C  28.54600 -4.38200 46.31500
C  28.25100 -2.98700 46.76200
O  28.12000 -2.51700 47.92600
O  28.16500 -2.21400 45.64000
C  27.86700 -0.80400 45.86700
H  22.28200 -5.87000 43.86000
H  22.03800 -10.72500 47.69800
H  27.72500 -9.36500 50.22700
H  26.10600 -3.27300 44.52500
H  24.69500 -5.28100 42.79200
H  23.22600 -3.61600 42.43000
H  24.24600 -2.56100 43.31100
H  22.94800 -3.53300 44.16900
H  26.81600 -4.83600 42.18500
H  27.86600 -5.20700 43.49400
H  28.93100 -3.09500 42.87200
H  27.30000 -2.29300 43.04300
H  19.14700 -7.78600 44.07600
H  20.57500 -7.21500 43.14600
H  19.75600 -6.21800 44.36600
H  20.03500 -9.95000 48.38800
H  20.10100 -11.47000 47.38600
H  18.57500 -10.61700 47.90400
H  24.20300 -11.92900 48.66700
H  24.96600 -10.25400 51.02800
H  22.45300 -10.53900 50.61000
H  23.24700 -12.08000 51.22100
H  22.21700 -12.06000 49.76500
H  27.28100 -11.48800 49.69900
H  25.93700 -12.70800 49.83600
H  26.07900 -11.78800 52.39700
H  27.78800 -12.02100 51.72700
H  26.62900 -13.34600 51.63700
H  30.04100 -8.23300 50.47500
H  30.38200 -6.65400 50.28700
H  30.89600 -7.66500 48.96400
H  29.04400 -4.29000 45.35000
H  28.41000 -0.44700 46.74100
H  26.80800 -0.62500 46.05700
H  28.20800 -0.21900 45.01200
Mg 30.31200 58.13900 40.37200
C  27.26700 56.47400 39.36700
C  32.12500 55.46500 39.21700
C  33.19600 60.03300 40.62500
C  28.40400 61.03300 40.80700
N  29.74000 56.15000 39.56000
C  28.48700 55.74300 39.21400
C  28.57900 54.46400 38.42800
C  30.12700 53.95500 38.77700
C  30.71900 55.24800 39.27700
C  30.14900 52.81800 39.82900
C  28.37000 54.76600 36.95500
C  27.32300 53.77300 36.37200
H  26.53200 54.22500 35.20400
N  32.34200 57.84200 39.91600
C  32.88400 56.67600 39.45500
C  34.29600 56.71600 39.49800
C  34.66500 58.04000 39.90000
C  33.39600 58.71400 40.12200
C  35.17300 55.63700 39.13500
C  36.08200 58.59800 40.01300
O  37.06400 57.87400 39.80000
C  36.30700 59.97800 40.40700
N  30.72400 60.29000 40.48100
C  32.01100 60.76200 40.78200
C  31.87800 62.33500 41.07400
C  30.37300 62.59300 41.22200
C  29.78700 61.23800 40.74000
C  32.71600 62.88100 42.29300
C  29.84600 63.76200 40.42700
C  29.56500 63.63200 38.89700
N  28.30800 58.65600 40.17600
C  27.68900 59.86400 40.44900
C  26.28100 59.76700 40.25900
C  26.05300 58.47900 39.78600
C  27.29000 57.78600 39.80300
C  25.34200 60.95100 40.39200
C  25.08900 57.54500 39.35000
O  23.87400 57.74200 39.17800
C  25.80600 56.19100 39.03000
C  25.14100 55.06200 39.89300
O  24.71900 55.16600 41.02600
O  25.23200 53.88200 39.14500
C  24.61700 52.82100 39.89000
H  32.61700 54.56300 38.84800
H  34.06300 60.61600 40.94400
H  27.79200 61.91800 40.99300
H  27.91300 53.70000 38.82900
H  30.72000 53.69600 37.90000
H  30.97100 52.13500 39.61300
H  29.23700 52.22100 39.86000
H  30.34100 53.27000 40.80200
H  29.34100 54.50200 36.53800
H  28.16100 55.77900 36.61000
H  26.60500 53.33800 37.06600
H  27.87400 52.87900 36.08200
H  35.61700 55.05300 39.94200
H  35.87500 56.15600 38.48200
H  34.69600 54.88800 38.50300
H  35.97400 60.12400 41.43400
H  35.80600 60.61600 39.67900
H  37.38900 60.07400 40.49700
H  32.29000 62.90700 40.24300
H  30.18100 62.69100 42.29100
H  33.18800 62.06200 42.83500
H  32.05700 63.19400 43.10300
H  33.34900 63.70600 41.96500
H  30.57700 64.56800 40.36100
H  28.95000 64.24300 40.81800
H  29.65400 62.60700 38.53900
H  30.38700 64.17200 38.42700
H  28.66000 64.06700 38.47300
H  25.78400 61.81200 40.89300
H  24.52200 60.49500 40.94700
H  24.87600 61.21700 39.44300
H  25.59000 55.83800 38.02200
H  25.00000 52.69600 40.90300
H  24.82000 51.85800 39.42100
H  23.53200 52.88400 39.96800

