158

Mg -0.85500 33.66500 27.25800
C  -2.76200 32.14600 29.86800
C  0.60500 35.65700 29.64200
C  0.63600 35.42300 24.69700
C  -2.86700 31.97300 24.99600
N  -1.29700 33.99400 29.53800
C  -1.89300 33.16300 30.38900
C  -1.53100 33.54400 31.86100
C  -0.76400 34.87400 31.71500
C  -0.42800 34.91600 30.19000
C  -1.47200 36.19600 32.11300
C  -0.82800 32.41700 32.62800
C  -0.38400 32.69700 34.08800
H  -1.25100 31.97100 35.21100
N  0.49800 35.24300 27.22400
C  1.06100 35.89100 28.31400
C  2.07400 36.88900 27.86900
C  1.98400 36.87100 26.43400
C  1.01600 35.79400 26.02100
C  2.89300 37.75500 28.74100
C  2.61100 37.81200 25.43300
O  2.37700 37.72100 24.21700
C  3.52200 38.96800 25.88100
N  -1.15900 33.70800 25.15500
C  -0.34900 34.49700 24.29500
C  -0.71700 34.17100 22.82100
C  -1.74400 33.00100 22.98400
C  -2.01000 32.94500 24.48100
C  -1.22400 35.39400 22.07900
C  -1.23000 31.68400 22.41500
C  -0.00300 31.00600 22.90100
N  -2.38200 32.23300 27.35700
C  -3.20400 31.75000 26.36300
C  -4.13700 30.84300 26.88000
C  -3.95300 30.93400 28.28900
C  -2.95100 31.87500 28.53000
C  -5.16700 30.04700 26.09000
C  -4.31200 30.34500 29.58200
O  -5.07400 29.41300 29.79900
C  -3.59800 31.15200 30.69000
C  -4.66200 31.74500 31.54400
O  -5.56100 32.41200 31.10600
O  -4.42100 31.53300 32.88600
C  -5.37800 32.14700 33.78900
H  1.17100 36.25100 30.36300
H  1.15400 35.85100 23.83600
H  -3.56300 31.51500 24.29100
H  -2.46800 33.77400 32.36900
H  0.16000 34.81600 32.29000
H  -1.91500 36.64100 31.22200
H  -0.75100 36.91000 32.51300
H  -2.24400 36.00200 32.85800
H  0.11900 32.17100 32.14700
H  -1.45700 31.53100 32.54600
H  -0.49200 33.75800 34.31700
H  0.62700 32.38700 34.35500
H  3.92600 37.83300 28.40500
H  2.89100 37.38300 29.76600
H  2.49900 38.76800 28.66300
H  3.66700 39.65900 25.05100
H  4.47300 38.61700 26.28200
H  3.12600 39.53400 26.72400
H  0.11300 33.66900 22.32500
H  -2.71100 33.16800 22.51100
H  -0.92200 36.35800 22.48900
H  -2.30800 35.49200 22.14100
H  -0.86900 35.38600 21.04800
H  -1.02800 31.90500 21.36700
H  -2.09100 31.01700 22.45100
H  0.18200 31.47500 23.86700
H  0.87800 30.95200 22.26200
H  -0.48700 30.07600 23.19600
H  -4.63800 29.33500 25.45700
H  -5.59900 30.92200 25.60600
H  -5.80800 29.63100 26.86700
H  -3.02100 30.38400 31.20600
H  -4.85500 32.88900 34.39200
H  -5.71300 31.52800 34.62100
H  -6.26400 32.63100 33.37700
Mg -5.12800 25.07400 26.30600
C  -3.59600 26.28000 29.23700
C  -7.13400 23.10400 28.31200
C  -6.23000 23.51000 23.53900
C  -2.87700 26.90700 24.41800
N  -5.35100 24.76000 28.55800
C  -4.63600 25.45300 29.54300
C  -5.17400 25.00300 30.91200
C  -6.23500 23.90000 30.56600
C  -6.25500 23.91100 29.07000
C  -5.90300 22.40200 31.07700
C  -5.82700 26.15400 31.71800
C  -5.95900 26.12700 33.23000
H  -5.19600 24.92800 33.96000
N  -6.48800 23.54700 25.96300
C  -7.28400 22.85700 26.89500
C  -8.05400 21.84000 26.22300
C  -7.77500 21.89900 24.86200
C  -6.76800 23.01800 24.71700
C  -8.93100 20.90700 26.95600
C  -8.35600 21.09400 23.76700
O  -8.15100 21.27300 22.58200
C  -9.27700 19.96900 24.15000
N  -4.61800 25.15900 24.28800
C  -5.28900 24.46800 23.28800
C  -4.62400 24.78800 21.89900
C  -3.83500 26.07500 22.25900
C  -3.73900 26.04700 23.75000
C  -3.79200 23.57700 21.36400
C  -4.50500 27.37100 21.75200
C  -3.40100 28.29500 21.07100
N  -3.64200 26.30000 26.68700
C  -2.76600 26.99000 25.83800
C  -1.82300 27.81500 26.53200
C  -2.16100 27.56400 27.85000
C  -3.21600 26.64000 27.94900
C  -0.75000 28.64200 25.72000
C  -1.78300 28.02700 29.15900
O  -0.94200 28.82600 29.51700
C  -2.71700 27.16100 30.16000
C  -1.89100 26.43200 31.15000
O  -1.23000 25.40900 30.99100
O  -1.97600 27.09900 32.35600
C  -1.27800 26.36000 33.46200
H  -7.68000 22.39600 28.94000
H  -6.44100 22.94200 22.63100
H  -2.20000 27.55800 23.86100
H  -4.30600 24.56500 31.40500
H  -7.20800 24.17000 30.97600
H  -5.26100 22.35900 31.95700
H  -5.37400 21.81600 30.32500
H  -6.82600 21.83900 31.21300
H  -6.86000 26.23200 31.37800
H  -5.34000 27.08400 31.42500
H  -6.99200 25.99200 33.55000
H  -5.62000 27.09600 33.59700
H  -8.55900 19.89000 26.83000
H  -9.94900 21.01700 26.58100
H  -8.83100 21.10800 28.02300
H  -8.76500 19.22000 24.75300
H  -9.44300 19.39400 23.23900
H  -10.26200 20.21100 24.55000
H  -5.39800 25.01900 21.16700
H  -2.82600 26.00000 21.85200
H  -2.79000 23.78200 20.98700
H  -4.27700 23.09500 20.51500
H  -3.66000 22.81400 22.13100
H  -5.00300 27.92700 22.54700
H  -5.29900 27.22300 21.02100
H  -2.79700 27.75400 20.34300
H  -2.65800 28.65900 21.78000
H  -3.87000 29.11000 20.51900
H  -0.18200 27.93200 25.12000
H  -0.02800 29.11300 26.38800
H  -1.12800 29.53200 25.21600
H  -3.25300 27.95800 30.67500
H  -0.81000 25.38700 33.31300
H  -1.87200 26.22300 34.36600
H  -0.50300 27.06400 33.76400

