158

Mg -1.52500 18.40200 26.82100
C  -1.87200 16.10300 29.61900
C  -1.94600 20.97300 29.10800
C  -1.19600 20.50800 24.29600
C  -0.92400 15.70100 24.81500
N  -1.90000 18.52400 29.22300
C  -2.02900 17.43900 30.09200
C  -2.25500 18.02200 31.45200
C  -2.58600 19.48400 31.16200
C  -2.08600 19.70900 29.75700
C  -4.09500 19.86100 31.32800
C  -1.13900 17.88900 32.61500
C  -1.76500 17.57100 33.95600
H  -0.94800 17.70300 35.19500
N  -1.45100 20.48200 26.69500
C  -1.65400 21.36600 27.79900
C  -1.73500 22.69700 27.27300
C  -1.41100 22.56200 25.87200
C  -1.31100 21.14700 25.57500
C  -2.12400 23.80000 28.27200
C  -1.12300 23.72400 24.84600
O  -0.70300 23.54800 23.70000
C  -1.27100 25.07800 25.38000
N  -1.09400 18.14700 24.78300
C  -1.04000 19.16900 23.91200
C  -0.73400 18.68300 22.54300
C  -0.53600 17.13600 22.68000
C  -0.89400 16.93500 24.19200
C  -1.82600 19.09200 21.57200
C  0.87000 16.66800 22.23400
C  2.05100 17.16400 23.07800
N  -1.56100 16.37500 27.04900
C  -1.24500 15.41300 26.12800
C  -1.42900 14.16100 26.73300
C  -1.62700 14.32200 28.06100
C  -1.68200 15.69900 28.24900
C  -1.33400 12.88500 25.96400
C  -1.83500 13.73100 29.35100
O  -1.91400 12.51300 29.62100
C  -2.11100 14.87100 30.35500
C  -1.17600 14.46800 31.46000
O  0.01800 14.68600 31.61300
O  -2.00800 13.84200 32.35700
C  -1.36900 13.48600 33.59500
H  -2.04800 21.81000 29.80200
H  -1.08800 21.21000 23.46700
H  -0.80900 14.92000 24.06100
H  -3.12400 17.43900 31.75600
H  -2.12000 20.21500 31.82400
H  -4.67800 18.94100 31.37400
H  -4.53300 20.49400 30.55600
H  -4.26700 20.48400 32.20500
H  -0.62900 18.84000 32.76800
H  -0.40700 17.11000 32.40200
H  -2.06900 16.52400 33.94000
H  -2.64600 18.17700 34.16900
H  -3.08900 23.58400 28.72900
H  -2.23400 24.76400 27.77600
H  -1.34400 23.95500 29.01800
H  -0.56300 25.31600 26.17400
H  -2.27600 25.25000 25.76600
H  -1.24700 25.77800 24.54500
H  0.24800 19.09800 22.31800
H  -1.37100 16.79200 22.07000
H  -2.01400 18.32900 20.81800
H  -1.56400 19.98200 20.99900
H  -2.79700 19.17500 22.06000
H  0.82500 17.23000 21.30100
H  0.94100 15.60000 22.03100
H  1.86900 17.61100 24.05600
H  2.60000 17.84700 22.43000
H  2.67900 16.31900 23.35800
H  -0.56600 13.00000 25.19900
H  -2.33400 12.82900 25.53400
H  -1.14800 12.12400 26.72300
H  -3.16700 14.80100 30.61400
H  -0.32100 13.18900 33.64100
H  -1.96300 12.70900 34.07600
H  -1.46000 14.26800 34.34900
Mg 41.51200 8.70400 29.67800
C  43.42600 10.04200 32.05300
C  39.33600 7.47100 31.97700
C  39.54400 7.64200 27.08400
C  43.99700 9.56400 27.30300
N  41.43700 8.80100 31.79500
C  42.31800 9.43800 32.63500
C  41.82200 9.36500 34.07600
C  40.74000 8.21500 33.97400
C  40.46500 8.15300 32.45800
C  41.10800 6.80600 34.59200
C  41.36100 10.73700 34.62700
C  40.75300 10.93700 36.06400
H  41.42200 11.82700 37.11800
N  39.63300 7.80600 29.58100
C  38.87300 7.35800 30.63600
C  37.60100 6.84600 30.15300
C  37.59900 7.03400 28.73200
C  38.97500 7.50700 28.42900
C  36.72600 6.03800 31.00700
C  36.47300 6.74600 27.72800
O  36.48200 6.79900 26.49100
C  35.17800 6.24500 28.29300
N  41.70900 8.68700 27.46300
C  40.81500 8.11700 26.64900
C  41.34900 8.05000 25.16700
C  42.60100 9.00500 25.22500
C  42.82100 9.12700 26.76600
C  41.44700 6.61200 24.68200
C  42.48500 10.43600 24.55500
C  43.68700 10.89300 23.67100
N  43.36600 9.57200 29.67000
C  44.24900 9.84200 28.62200
C  45.40300 10.52200 29.16700
C  45.10000 10.66400 30.51600
C  43.87200 10.05400 30.70900
C  46.57500 11.13400 28.47000
C  45.57700 11.19100 31.82100
O  46.57300 11.79600 32.19800
C  44.42000 10.89200 32.80300
C  45.08100 10.14800 33.96400
O  45.71900 9.11500 33.87300
O  44.97500 10.89400 35.08100
C  45.51100 10.26400 36.29700
H  38.78800 7.01200 32.80200
H  38.82700 7.30300 26.33300
H  44.71300 9.71300 26.49200
H  42.66200 8.96200 34.64200
H  39.85500 8.64200 34.44500
H  42.11800 6.84100 35.00000
H  40.93900 6.00700 33.87000
H  40.49100 6.67200 35.48100
H  40.79700 11.22800 33.83500
H  42.34500 11.20300 34.57100
H  40.63700 9.98500 36.58300
H  39.79500 11.43500 35.91400
H  37.00400 6.03000 32.06100
H  36.66400 5.02800 30.60400
H  35.78800 6.59100 30.95900
H  34.37200 6.29500 27.56100
H  34.90500 6.93900 29.08800
H  35.26300 5.21000 28.62100
H  40.57400 8.53000 24.56900
H  43.50800 8.46700 24.94900
H  41.04800 5.94200 25.44400
H  42.51200 6.40900 24.56500
H  40.84300 6.50600 23.78100
H  42.39900 11.21400 25.31400
H  41.56700 10.54600 23.97800
H  43.39800 11.35000 22.72400
H  44.32200 10.00800 23.65300
H  44.21900 11.69400 24.18500
H  47.00900 10.58300 27.63500
H  47.33400 11.41800 29.19900
H  46.22200 12.08800 28.07700
H  44.00700 11.84500 33.13400
H  44.64400 9.96200 36.88400
H  45.91700 11.12600 36.82600
H  46.34600 9.56600 36.25100

