158

Mg 46.67500 24.81800 28.22600
C  47.23900 27.27800 30.59300
C  45.90400 22.59800 30.87900
C  46.19600 22.58800 25.87400
C  47.49700 27.15700 25.69000
N  46.48400 25.02800 30.56600
C  46.78300 26.10000 31.23000
C  46.64000 25.86600 32.72100
C  46.42600 24.27600 32.86100
C  46.24100 23.91700 31.35700
C  47.55600 23.49100 33.58600
C  45.46700 26.70000 33.34700
C  44.81700 26.27100 34.68800
H  44.83700 27.08200 35.99500
N  46.17600 22.88400 28.29600
C  45.84000 22.15000 29.51700
C  45.54700 20.77900 29.05000
C  45.52400 20.78600 27.62600
C  46.03000 22.10400 27.22400
C  45.27300 19.64400 30.01900
C  45.12400 19.75500 26.67900
O  45.47300 19.75900 25.48600
C  44.45300 18.42000 27.13000
N  46.84600 24.91900 26.08100
C  46.56100 23.78000 25.35700
C  46.67700 24.07500 23.84100
C  46.82200 25.61100 23.79100
C  47.00400 25.94600 25.25000
C  47.85700 23.34800 23.21800
C  45.54200 26.38000 23.24400
C  45.67800 27.07400 21.90500
N  47.24900 26.75600 28.12300
C  47.65800 27.54100 27.01500
C  48.32800 28.77200 27.52700
C  48.05800 28.75700 28.91400
C  47.46900 27.48400 29.21700
C  48.92100 29.89400 26.80700
C  48.26900 29.53000 30.13100
O  48.75700 30.60500 30.42400
C  47.75000 28.54000 31.32500
C  48.91200 28.14400 32.29400
O  50.01900 27.83000 32.00800
O  48.60300 28.56400 33.50500
C  49.59700 28.52600 34.56100
H  45.58800 21.95000 31.69900
H  45.86900 21.96500 25.03800
H  47.64800 27.89700 24.90200
H  47.51600 26.22100 33.26400
H  45.48700 24.03400 33.36100
H  47.79100 22.61100 32.98800
H  47.20000 23.14200 34.55600
H  48.41000 24.15700 33.70100
H  44.60800 26.73900 32.67800
H  45.89200 27.64800 33.67700
H  45.43300 25.40300 34.92200
H  43.81000 25.90700 34.48400
H  44.20000 19.45100 30.02500
H  45.68700 19.95900 30.97700
H  45.82700 18.73200 29.80000
H  44.02700 17.96000 26.23800
H  43.77500 18.51700 27.97800
H  45.31000 17.84800 27.48600
H  45.73000 23.77900 23.39100
H  47.75500 25.91900 23.31900
H  48.03600 22.41600 23.75400
H  48.83100 23.82100 23.33600
H  47.71800 23.13600 22.15800
H  45.31500 27.20500 23.91900
H  44.71400 25.67400 23.30200
H  45.41000 28.12400 22.01700
H  44.97300 26.60600 21.21800
H  46.71400 27.07800 21.56600
H  49.16900 29.61400 25.78300
H  49.86100 30.18900 27.27500
H  48.23600 30.72300 26.98500
H  46.98800 29.12800 31.83600
H  49.19700 28.71700 35.55700
H  50.30200 29.32200 34.31900
H  50.13100 27.57600 34.55000
Mg 6.93400 55.18800 40.33800
C  6.07700 51.78400 40.26200
C  10.19500 54.44900 39.63100
C  7.57800 58.46100 39.65700
C  3.48300 55.96600 40.46400
N  7.94000 53.37200 39.89600
C  7.40300 52.10500 39.91200
C  8.55100 51.07200 39.70300
C  9.78700 51.91300 39.93500
C  9.32500 53.36800 39.90800
C  10.67300 51.59500 41.20000
C  8.48600 50.40100 38.27900
C  8.14400 51.35900 37.08500
H  6.78200 51.10300 36.35000
N  8.61100 56.32000 39.83900
C  9.86000 55.81900 39.55000
C  10.75400 56.84100 39.16400
C  10.01200 58.04900 39.09800
C  8.67100 57.65100 39.60800
C  12.19700 56.60700 38.90900
C  10.63600 59.40100 38.69400
O  11.72300 59.55600 38.13700
C  9.86900 60.77700 38.88200
N  5.70100 56.96100 40.01700
C  6.16400 58.23500 39.85900
C  5.01000 59.21200 39.56000
C  3.80000 58.37300 39.80700
C  4.34400 57.00700 40.06100
C  5.02800 60.49800 40.51600
C  2.85200 58.35900 38.58100
C  1.64300 59.37600 38.56000
N  5.11500 54.15200 40.47300
C  3.77200 54.57300 40.68900
C  2.96600 53.44100 40.93500
C  3.84100 52.24500 40.79500
C  5.13700 52.73700 40.51400
C  1.51900 53.47200 41.37700
C  3.97900 50.85000 40.88400
O  3.13500 49.99100 41.22100
C  5.40400 50.44400 40.64300
C  5.49300 49.40600 39.51900
O  5.15800 49.54500 38.39000
O  5.94300 48.19000 40.09600
C  5.80700 46.98800 39.32500
H  11.20600 54.20200 39.30000
H  7.75000 59.49700 39.35700
H  2.41900 56.20000 40.37900
H  8.33500 50.30100 40.44300
H  10.43200 51.72100 39.07700
H  10.12000 50.87400 41.80200
H  10.88900 52.46900 41.81300
H  11.63900 51.14000 40.98100
H  7.77900 49.58200 38.41300
H  9.42000 49.89800 38.02800
H  8.91400 51.21900 36.32600
H  8.20700 52.40200 37.39400
H  12.33800 56.88800 37.86600
H  12.55500 55.60100 39.12900
H  12.87500 57.28900 39.42200
H  10.53100 61.61700 38.67300
H  9.43400 60.86700 39.87700
H  9.04600 60.87900 38.17500
H  5.09300 59.49600 38.51200
H  3.30700 58.71700 40.71600
H  4.04300 60.67300 40.94600
H  5.36400 61.41500 40.03100
H  5.72200 60.48100 41.35600
H  2.31000 57.41300 38.58800
H  3.40200 58.50400 37.65100
H  1.95700 60.22300 37.95100
H  1.32100 59.78100 39.52000
H  0.89000 58.85800 37.96600
H  1.08600 52.47200 41.40700
H  1.04100 54.20400 40.72700
H  1.58600 53.69900 42.44100
H  5.82300 50.04700 41.56700
H  6.41400 46.84700 38.43100
H  4.73900 46.85100 39.15500
H  6.15200 46.18600 39.97800

