158

Mg 25.80700 0.92600 29.52300
C  27.77000 0.69200 32.50400
C  23.02400 0.88000 31.39600
C  24.20300 0.89400 26.70000
C  28.79200 0.18600 27.71300
N  25.48900 0.58100 31.71300
C  26.36800 0.79700 32.74700
C  25.58600 0.93100 34.07700
C  24.10200 0.68800 33.62600
C  24.21500 0.74900 32.12900
C  23.44500 -0.62700 34.16500
C  25.98100 2.28800 34.72200
C  25.17200 2.68800 35.91600
H  25.92900 2.58000 37.26100
N  23.84200 0.90900 29.07900
C  22.83700 0.90900 29.98300
C  21.58900 1.18000 29.31100
C  21.85600 1.09600 27.89200
C  23.32200 0.91200 27.85300
C  20.19600 1.42800 30.02900
C  20.98600 1.00700 26.72000
O  21.41100 0.68900 25.62200
C  19.52600 1.23500 26.86200
N  26.42600 0.73800 27.55500
C  25.59700 0.97500 26.53200
C  26.16300 0.69600 25.16000
C  27.64400 0.42400 25.47900
C  27.63900 0.42700 27.02000
C  25.50500 -0.39400 24.24200
C  28.64400 1.46300 24.85700
C  29.99700 0.83900 24.52000
N  27.88000 0.49400 29.97000
C  28.95200 0.30200 29.12600
C  30.11800 0.09600 29.96500
C  29.74000 0.31100 31.32400
C  28.32800 0.49700 31.23000
C  31.39900 -0.28300 29.50600
C  30.20400 0.40000 32.67600
O  31.31400 0.42500 33.16300
C  28.88300 0.72900 33.51600
C  28.67100 -0.20300 34.61800
O  28.42900 -1.35200 34.49300
O  29.07800 0.42500 35.82100
C  28.93300 -0.26100 37.12900
H  22.10200 0.88100 31.98000
H  23.63900 0.95100 25.76600
H  29.60600 -0.24100 27.12400
H  26.00700 0.22200 34.79000
H  23.56600 1.56800 33.98200
H  23.17700 -1.43100 33.47900
H  22.59300 -0.33600 34.78000
H  24.13100 -1.05000 34.89900
H  25.92900 3.06100 33.95500
H  27.02100 2.19900 35.03600
H  24.24500 2.12300 36.01100
H  24.82000 3.70400 35.73700
H  19.61400 0.51300 29.91300
H  19.65300 2.20200 29.48700
H  20.22400 1.65400 31.09500
H  19.04700 1.05700 25.89900
H  19.24700 2.22300 27.22900
H  19.18000 0.46300 27.55000
H  26.09400 1.64600 24.62900
H  27.94400 -0.60400 25.27800
H  24.63700 -0.90900 24.65400
H  26.26800 -1.09000 23.89400
H  25.11600 0.22900 23.43700
H  28.66700 2.29100 25.56600
H  28.18100 1.87300 23.95900
H  30.28400 0.97900 23.47800
H  30.11400 -0.14000 24.98400
H  30.79000 1.40100 25.01500
H  31.55700 0.20800 28.54600
H  31.47100 -1.34800 29.28400
H  32.13700 -0.01100 30.26100
H  29.00900 1.72700 33.93600
H  28.47100 0.28500 37.95100
H  29.94000 -0.46600 37.49400
H  28.43600 -1.23100 37.10000
Mg 47.71500 16.43400 28.63100
C  45.76500 15.98700 31.47300
C  49.74300 18.64700 30.49300
C  49.32100 17.07900 25.92200
C  45.04700 15.09400 26.74500
N  47.79900 17.19000 30.73500
C  46.94200 16.74700 31.74200
C  47.48200 17.23800 33.11100
C  48.56800 18.23200 32.67300
C  48.71800 18.02800 31.16500
C  48.19700 19.74100 32.96600
C  48.05200 16.02300 33.86500
C  48.06200 16.10100 35.38100
H  47.88800 17.38600 36.11900
N  49.43600 17.53400 28.32500
C  50.11000 18.45700 29.14200
C  51.21600 19.02700 28.45000
C  51.13900 18.43700 27.12900
C  49.94600 17.65200 27.09300
C  52.33400 19.73100 29.15900
C  51.96500 18.79600 25.96000
O  51.92600 18.24400 24.86800
C  52.86200 19.88500 25.93700
N  47.12400 16.26800 26.58100
C  48.11200 16.50700 25.67400
C  47.64900 16.15500 24.25000
C  46.40700 15.20600 24.50400
C  46.12200 15.62000 26.02600
C  47.30200 17.36700 23.32900
C  46.65000 13.69300 24.48600
C  45.89800 12.92200 23.35700
N  45.82000 15.68600 28.99400
C  44.88400 15.10500 28.11300
C  43.79600 14.58900 28.88300
C  44.12400 14.97700 30.21500
C  45.31200 15.59700 30.20600
C  42.58800 13.75900 28.33600
C  43.65100 14.95800 31.57600
O  42.60900 14.54500 32.08400
C  44.69200 15.64600 32.44300
C  43.97200 16.76900 33.10500
O  43.34300 17.65700 32.54100
O  44.06700 16.59300 34.48300
C  43.31100 17.46800 35.36500
H  50.44500 19.22800 31.09500
H  49.94900 17.23500 25.04200
H  44.26600 14.72900 26.07400
H  46.74700 17.82700 33.65800
H  49.53200 18.09000 33.16200
H  47.12600 19.83600 33.14300
H  48.47500 20.32800 32.09100
H  48.74800 20.12100 33.82700
H  49.09300 15.90400 33.56200
H  47.60400 15.08300 33.54100
H  48.95900 15.59600 35.74100
H  47.24900 15.48400 35.76300
H  53.33800 19.60400 28.75200
H  52.55200 19.24500 30.11000
H  52.13400 20.79400 29.29000
H  52.85700 20.48100 26.85000
H  52.75200 20.48400 25.03300
H  53.88900 19.53200 25.85000
H  48.39600 15.49900 23.80200
H  45.71800 15.47300 23.70300
H  46.47300 16.99400 22.72700
H  48.19300 17.51400 22.71800
H  47.11800 18.30100 23.85900
H  46.39100 13.31500 25.47500
H  47.72500 13.52600 24.41500
H  46.42800 11.99700 23.13100
H  45.89000 13.50700 22.43700
H  44.88700 12.74800 23.72600
H  42.64000 12.71200 28.63400
H  42.66000 13.97900 27.27100
H  41.63600 14.24300 28.55600
H  44.98100 14.89300 33.17600
H  43.22500 16.97900 36.33500
H  42.30000 17.42700 34.95800
H  43.58400 18.50900 35.53900

