158

Mg 41.03700 7.34200 29.37900
C  42.56400 8.61000 32.21600
C  38.43400 6.13600 31.51600
C  39.61900 6.00100 26.82500
C  43.88500 8.06900 27.42200
N  40.62200 7.29000 31.66400
C  41.39500 8.00900 32.56500
C  40.76200 8.04100 33.96000
C  39.46500 7.13100 33.75200
C  39.44700 6.83400 32.21000
C  39.50700 5.77000 34.59600
C  40.39300 9.56600 34.36000
C  41.04000 10.27700 35.59700
H  40.08900 10.60300 36.76900
N  39.40800 6.10800 29.20800
C  38.45800 5.70800 30.17500
C  37.44400 5.02700 29.53700
C  37.75000 4.89500 28.13400
C  38.98400 5.64500 27.98700
C  36.18900 4.48700 30.25200
C  37.04000 4.12000 27.07400
O  37.34300 4.08100 25.89400
C  35.84500 3.35500 27.35500
N  41.76900 7.02200 27.34300
C  40.84100 6.58600 26.44900
C  41.36500 6.68200 25.04000
C  42.85700 7.26700 25.25600
C  42.83000 7.51000 26.71400
C  41.38900 5.24100 24.46400
C  43.12700 8.48400 24.35200
C  42.51600 9.80000 24.80300
N  42.85800 8.27200 29.67600
C  43.91300 8.40600 28.77100
C  44.96500 8.98300 29.58400
C  44.45700 9.25300 30.86600
C  43.17600 8.66200 30.91100
C  46.28300 9.52700 28.99600
C  44.74700 9.82000 32.10700
O  45.70900 10.53400 32.44900
C  43.53900 9.46200 33.06900
C  44.12900 8.71400 34.16500
O  44.36700 7.52400 34.12700
O  44.43500 9.58000 35.18500
C  44.82100 8.92400 36.39000
H  37.52900 5.95300 32.09900
H  39.12000 5.62700 25.92900
H  44.65200 8.29700 26.68000
H  41.45500 7.50400 34.60800
H  38.62600 7.80000 33.94200
H  38.64500 5.88100 35.25400
H  40.37700 5.73900 35.25200
H  39.58000 4.88500 33.96400
H  39.31800 9.65000 34.51800
H  40.55300 10.27900 33.55100
H  41.47600 11.20500 35.22600
H  41.85100 9.59200 35.84300
H  36.27400 3.42100 30.03800
H  35.28200 4.81800 29.74600
H  36.08500 4.69100 31.31700
H  35.95300 2.52900 28.05800
H  35.41600 3.06500 26.39600
H  35.10200 4.01400 27.80600
H  40.69700 7.30700 24.44800
H  43.61400 6.48600 25.18600
H  40.90700 4.58900 25.19300
H  42.38200 4.88300 24.19100
H  40.73600 5.23700 23.59200
H  42.73200 8.34400 23.34600
H  44.21200 8.58500 24.31600
H  41.98800 9.78500 25.75700
H  41.76600 10.16400 24.10200
H  43.34900 10.49300 24.92200
H  46.60500 10.46900 29.43800
H  46.28800 9.40800 27.91200
H  46.94700 8.72200 29.31000
H  43.06500 10.40800 33.32800
H  44.27000 8.02200 36.65900
H  44.78500 9.61500 37.23200
H  45.85800 8.61800 36.25200
Mg -1.11600 43.88800 26.29800
C  1.48700 43.54100 28.68000
C  -3.33100 42.89700 28.71100
C  -3.45000 43.28100 23.94700
C  1.35400 44.03700 23.76600
N  -0.92500 43.34000 28.43900
C  0.19000 43.33500 29.22000
C  -0.14000 43.23100 30.77800
C  -1.56300 42.55700 30.59900
C  -1.99900 42.84500 29.15100
C  -1.62300 41.10300 31.02800
C  -0.05800 44.66900 31.37500
C  -0.03700 44.84800 32.93800
H  -0.17000 43.59600 33.75200
N  -3.21300 43.52400 26.34100
C  -3.92400 43.07100 27.43500
C  -5.34200 42.86700 27.07000
C  -5.34300 42.86800 25.57800
C  -3.95700 43.22100 25.22600
C  -6.38900 42.46700 28.08500
C  -6.45900 42.36800 24.58100
O  -6.42200 42.41400 23.39000
C  -7.74200 41.75900 25.11900
N  -1.03900 43.73100 24.14100
C  -2.14800 43.46700 23.41600
C  -1.81600 43.62700 21.88800
C  -0.35400 44.15500 21.92200
C  -0.01500 43.96700 23.34700
C  -1.89700 42.31300 21.06300
C  -0.09200 45.65800 21.61500
C  0.69900 45.98800 20.33800
N  1.01300 43.88500 26.20300
C  1.85400 43.97500 25.12300
C  3.22900 43.98200 25.55800
C  3.13000 43.82000 26.97800
C  1.79600 43.83000 27.33500
C  4.51500 44.05400 24.79700
C  3.90800 43.61300 28.15900
O  5.15700 43.50600 28.35400
C  2.83300 43.54700 29.33500
C  3.20800 42.44600 30.18700
O  2.51300 41.48600 30.36900
O  4.37600 42.78900 30.90300
C  4.52500 42.00200 32.12800
H  -3.94300 42.33300 29.41800
H  -4.20400 43.08400 23.18200
H  2.17300 44.28700 23.08800
H  0.54600 42.55600 31.28900
H  -2.30900 42.91200 31.30900
H  -2.02800 40.57200 30.16600
H  -2.42100 41.04700 31.76800
H  -0.69800 40.61800 31.34100
H  -0.86100 45.33600 31.06200
H  0.90100 45.04000 31.01400
H  -0.86700 45.51900 33.15700
H  0.83700 45.43600 33.21700
H  -6.27200 43.24500 28.83900
H  -6.16200 41.45000 28.40400
H  -7.41100 42.53000 27.71000
H  -7.34200 40.99300 25.78300
H  -8.40100 41.18100 24.47100
H  -8.31700 42.52500 25.64000
H  -2.38500 44.45800 21.46900
H  0.32200 43.54400 21.32400
H  -0.95100 41.77500 20.99600
H  -2.27000 42.45900 20.04900
H  -2.55300 41.63400 21.60700
H  0.30800 46.20600 22.46800
H  -1.03800 46.16600 21.42400
H  1.54400 46.62900 20.58800
H  -0.09200 46.44600 19.74300
H  1.02100 45.12400 19.75700
H  4.61700 45.05800 24.38500
H  4.31200 43.38600 23.96000
H  5.32400 43.60700 25.37500
H  2.92400 44.46400 29.91700
H  4.54000 42.78800 32.88300
H  5.47700 41.48900 31.98800
H  3.80200 41.21500 32.34000

