158

Mg -12.60000 16.35900 42.54800
C  -9.57900 14.70000 41.95700
C  -11.35600 19.02200 41.00700
C  -15.79900 17.66500 42.79300
C  -14.03600 13.16100 43.53800
N  -10.75400 16.71200 41.37200
C  -9.60500 15.94500 41.48500
C  -8.38000 16.69700 40.93200
C  -8.95500 18.14900 40.89100
C  -10.45300 17.95600 41.14900
C  -8.33500 19.20900 41.98800
C  -7.88700 16.15000 39.56300
C  -6.43500 15.80700 39.37700
H  -6.03000 14.75400 38.34500
N  -13.48800 18.07700 42.02400
C  -12.71700 19.07300 41.34100
C  -13.62500 20.15700 41.05700
C  -14.88800 19.85600 41.58300
C  -14.82300 18.46800 42.17400
C  -13.19900 21.46800 40.38100
C  -16.06800 20.75300 41.42100
O  -15.99100 21.91400 40.94100
C  -17.46600 20.32300 41.88600
N  -14.72200 15.44700 42.84300
C  -15.79600 16.32700 43.03900
C  -17.02900 15.47800 43.66100
C  -16.30700 14.15000 44.10400
C  -14.94700 14.24500 43.44900
C  -17.72800 16.26900 44.86100
C  -17.06300 12.83700 43.93600
C  -16.98500 11.90200 45.10500
N  -12.01800 14.32000 42.69100
C  -12.70700 13.20100 43.21300
C  -11.72100 12.11300 43.30300
C  -10.51800 12.66200 42.87800
C  -10.69000 14.00100 42.48100
C  -11.96200 10.74800 43.80200
C  -9.14000 12.34600 42.55600
O  -8.38100 11.31900 42.72700
C  -8.48200 13.72800 42.02000
C  -7.38600 14.07900 43.01200
O  -7.62500 14.57100 44.13700
O  -6.15600 13.89700 42.45900
C  -5.07800 14.54200 43.19500
H  -10.87200 19.86100 40.50200
H  -16.70300 18.17400 43.13300
H  -14.38200 12.23700 44.00600
H  -7.61200 16.62700 41.70300
H  -8.83200 18.58600 39.90000
H  -8.93200 19.76200 42.71200
H  -7.76000 19.92900 41.40600
H  -7.57100 18.67800 42.55600
H  -8.10100 16.90800 38.81000
H  -8.48900 15.25800 39.39400
H  -6.08300 15.47300 40.35200
H  -5.96900 16.72600 39.02100
H  -12.20400 21.42200 39.93900
H  -13.27100 22.38200 40.97000
H  -13.82100 21.63300 39.50200
H  -17.76300 20.31400 42.93500
H  -17.53100 19.28000 41.57800
H  -18.21600 20.90000 41.34500
H  -17.70000 15.26300 42.82900
H  -16.12900 14.39600 45.15100
H  -16.97200 16.94000 45.26800
H  -17.91800 15.51800 45.62900
H  -18.64800 16.73200 44.50400
H  -16.58100 12.34900 43.09000
H  -18.08100 13.08100 43.63100
H  -17.94200 11.65700 45.56400
H  -16.27900 12.27900 45.84600
H  -16.57300 10.98500 44.68300
H  -11.00000 10.27900 44.00800
H  -12.47400 10.13000 43.06500
H  -12.54000 10.79500 44.72500
H  -8.03600 13.63900 41.03000
H  -5.24100 15.61600 43.11500
H  -4.10000 14.37100 42.74500
H  -4.99300 14.10800 44.19200
Mg -5.26200 25.12400 26.24500
C  -3.64100 26.39300 29.01200
C  -7.04500 23.00500 28.15600
C  -6.33800 23.55700 23.42400
C  -3.19000 27.03600 24.32800
N  -5.13500 24.54300 28.31700
C  -4.52700 25.32900 29.35300
C  -5.10000 24.86300 30.69900
C  -5.98500 23.60700 30.34900
C  -6.18700 23.76300 28.83300
C  -5.30400 22.22500 30.66200
C  -5.88300 25.96600 31.50800
C  -5.82900 25.94100 33.05200
H  -5.30400 24.67300 33.80900
N  -6.67500 23.63700 25.82700
C  -7.34800 23.01100 26.80400
C  -8.27300 22.03500 26.17700
C  -8.07500 22.13900 24.72100
C  -6.98500 23.08400 24.57600
C  -9.22800 21.11300 26.86200
C  -8.74500 21.41800 23.53100
O  -8.37400 21.68800 22.40200
C  -9.90400 20.35100 23.73200
N  -4.99200 25.39800 24.20800
C  -5.43100 24.57900 23.23200
C  -4.73800 24.89100 21.86500
C  -3.95600 26.21200 22.15900
C  -4.08400 26.29500 23.65200
C  -3.80600 23.69800 21.50500
C  -4.27700 27.59400 21.30800
C  -3.10400 28.60300 20.91300
N  -3.74600 26.50800 26.54100
C  -3.06100 27.26800 25.70800
C  -2.18100 28.15800 26.41000
C  -2.39300 27.87100 27.77200
C  -3.37500 26.89600 27.78700
C  -1.16300 29.12800 25.79900
C  -2.00700 28.21100 29.10100
O  -1.38300 29.20100 29.48800
C  -2.86500 27.28800 30.06400
C  -1.92700 26.59100 30.99200
O  -0.78800 26.25000 30.74500
O  -2.50000 26.53800 32.28400
C  -1.64700 26.23500 33.40500
H  -7.58400 22.25200 28.73400
H  -6.56200 23.01400 22.50300
H  -2.53500 27.54700 23.61900
H  -4.18600 24.56000 31.20900
H  -7.00200 23.60600 30.74100
H  -4.86800 21.84700 29.73700
H  -6.03300 21.61500 31.19500
H  -4.53500 22.28900 31.43200
H  -6.91900 25.86600 31.18500
H  -5.62200 26.96300 31.15300
H  -6.84300 26.14900 33.39500
H  -5.17500 26.76800 33.32900
H  -10.24000 21.50800 26.94200
H  -8.85300 20.90700 27.86500
H  -9.24100 20.19500 26.27300
H  -9.59400 19.52800 24.37600
H  -10.08700 19.96800 22.72800
H  -10.77500 20.80400 24.20600
H  -5.50900 25.09000 21.12100
H  -2.89100 26.03600 22.01100
H  -2.76300 23.99000 21.38300
H  -4.11200 23.30700 20.53500
H  -3.90800 22.84000 22.16900
H  -4.84600 28.25200 21.96500
H  -4.95900 27.28300 20.51700
H  -3.43100 29.63100 21.06800
H  -2.76000 28.52600 19.88200
H  -2.17300 28.34100 21.41700
H  -1.42400 29.45000 24.79100
H  -0.16000 28.70300 25.80300
H  -1.22400 30.00500 26.44200
H  -3.64700 27.78700 30.63600
H  -0.86100 26.98700 33.46700
H  -1.21000 25.24800 33.25300
H  -2.20300 26.11700 34.33600

