158

Mg 42.76900 3.91000 46.63500
C  40.89000 6.90400 46.61300
C  39.78400 2.12200 46.72200
C  44.53900 1.28200 45.83200
C  45.61200 5.97100 46.15000
N  40.67600 4.45000 46.77800
C  40.14200 5.75200 46.78700
C  38.62900 5.68500 47.04500
C  38.29100 4.16400 47.08100
C  39.65600 3.52700 46.90500
C  37.69100 3.69700 48.44300
C  37.59200 6.51100 46.20200
C  37.40900 6.09600 44.73800
H  37.86600 7.00300 43.67200
N  42.26900 1.93100 46.42600
C  40.99100 1.38800 46.42400
C  41.07600 -0.02700 46.09400
C  42.45100 -0.28700 45.89100
C  43.12200 1.00600 45.95200
C  39.88900 -0.99800 46.04100
C  42.98500 -1.65000 45.62400
O  42.24100 -2.61500 45.87900
C  44.48200 -1.97500 45.27400
N  44.82200 3.71500 46.08100
C  45.29400 2.43300 46.00200
C  46.82000 2.47700 45.84800
C  47.14900 4.00800 45.94400
C  45.79900 4.60900 46.10200
C  47.51000 1.60600 46.96600
C  48.09100 4.58700 44.90100
C  49.26900 5.48000 45.43500
N  43.24500 6.02300 46.49800
C  44.41700 6.68500 46.24100
C  44.27100 8.15000 46.24000
C  42.84500 8.23900 46.34400
C  42.26800 6.91600 46.50000
C  45.22600 9.29900 45.98600
C  41.71300 9.20900 46.27700
O  41.71800 10.43100 46.12400
C  40.45600 8.32200 46.61000
C  39.87500 8.72400 47.96200
O  40.44100 8.50700 48.99900
O  38.76200 9.50200 47.78600
C  38.17000 9.77200 49.10400
H  38.87400 1.52600 46.81800
H  45.26400 0.46900 45.75400
H  46.51200 6.50800 45.84500
H  38.59500 6.14000 48.03500
H  37.66200 3.70300 46.32000
H  37.17100 4.51100 48.94900
H  38.37100 3.15900 49.10300
H  36.84400 3.08400 48.13600
H  37.67500 7.59300 46.30600
H  36.63100 6.34200 46.68700
H  36.35900 5.88200 44.54100
H  37.98200 5.18000 44.59100
H  38.94300 -0.45900 45.99200
H  39.85400 -1.65000 46.91400
H  40.08000 -1.54300 45.11600
H  45.20800 -1.67800 46.03100
H  44.72000 -1.47800 44.33400
H  44.46300 -3.03900 45.03900
H  47.14200 1.92400 44.96600
H  47.63400 4.16400 46.90800
H  46.83800 1.29800 47.76600
H  48.27800 2.20900 47.45100
H  47.92700 0.70400 46.52000
H  47.61000 5.12700 44.08500
H  48.57000 3.67300 44.55200
H  50.20200 5.23400 44.93000
H  49.45600 5.32700 46.49800
H  49.04700 6.54100 45.31600
H  45.86700 9.55300 46.83000
H  44.73500 10.18700 45.58700
H  45.89600 9.10100 45.14900
H  39.66900 8.53700 45.88700
H  37.16800 10.15600 48.91700
H  38.74500 10.57900 49.55600
H  38.12500 8.90300 49.76100
Mg 47.58900 33.85300 27.02700
C  46.17300 32.62600 29.88400
C  48.19400 36.94000 28.69500
C  48.86000 35.24900 24.06400
C  46.61500 31.09100 25.27300
N  47.29600 34.67900 29.07200
C  46.71400 33.93100 30.13200
C  47.02600 34.64500 31.47400
C  47.28600 36.05500 30.99000
C  47.71700 35.87300 29.53700
C  46.17100 37.12200 31.21500
C  48.16300 33.89100 32.14700
C  48.17800 33.92900 33.71600
H  47.23700 34.93300 34.35700
N  48.35700 35.75600 26.45800
C  48.49000 36.88800 27.28500
C  49.01000 37.98700 26.52800
C  49.20400 37.55000 25.23000
C  48.82200 36.13100 25.18000
C  49.44800 39.30900 27.17200
C  49.91700 38.24000 24.12400
O  50.26800 37.76500 23.05800
C  50.21100 39.69600 24.31400
N  47.74900 33.26300 24.97600
C  48.41500 33.93900 23.99400
C  48.37600 33.14600 22.65500
C  47.78700 31.72200 23.08500
C  47.26900 32.04200 24.51700
C  47.67600 33.87500 21.50900
C  48.80600 30.52000 23.02900
C  50.10000 30.63900 23.89400
N  46.59200 32.10100 27.45200
C  46.28900 31.02400 26.69700
C  45.58300 30.06700 27.47100
C  45.39700 30.68600 28.69800
C  46.10300 31.88300 28.69100
C  44.99800 28.78400 27.04300
C  44.83300 30.58400 30.02200
O  44.14000 29.67700 30.48700
C  45.20900 31.86900 30.76500
C  45.69900 31.57900 32.09400
O  46.58600 30.81800 32.43100
O  44.86800 32.15500 32.98300
C  44.90000 31.69100 34.38900
H  48.28300 37.83000 29.32200
H  49.39100 35.56100 23.16200
H  46.33200 30.27600 24.60400
H  46.16800 34.59800 32.14500
H  48.23500 36.44400 31.35900
H  45.27200 36.59000 31.52500
H  45.84100 37.58500 30.28500
H  46.44100 37.81500 32.01200
H  49.10000 34.32800 31.80100
H  48.18500 32.83400 31.87900
H  49.18600 34.15900 34.06200
H  48.05300 32.92700 34.12600
H  48.68000 40.08100 27.13600
H  50.42800 39.62800 26.81800
H  49.62700 39.15400 28.23600
H  49.38500 40.21200 24.80200
H  50.43000 40.09300 23.32300
H  51.16800 39.67400 24.83400
H  49.37800 32.96500 22.26900
H  46.90800 31.52000 22.47300
H  47.52000 34.95300 21.55400
H  46.67000 33.48800 21.34700
H  48.29800 33.67100 20.63800
H  49.08300 30.45300 21.97700
H  48.31900 29.56100 23.20300
H  50.33000 29.76000 24.49600
H  50.17500 31.59600 24.41000
H  50.92300 30.74300 23.18800
H  43.96700 28.73800 27.39500
H  45.54300 27.88900 27.34400
H  44.95900 28.60200 25.96900
H  44.32000 32.49500 30.84300
H  44.27300 32.31300 35.02800
H  45.94900 31.69500 34.68400
H  44.57800 30.65300 34.47100

