158

Mg 1.39400 -0.30500 44.31100
C  4.78000 0.15700 43.65600
C  0.80100 2.52800 42.55800
C  -1.80100 -1.20900 44.31800
C  2.17900 -3.45000 45.69300
N  2.71300 1.13400 43.18100
C  4.02200 1.17500 43.11300
C  4.49600 2.52200 42.41700
C  3.17300 3.38500 42.41400
C  2.16600 2.28600 42.71400
C  3.16800 4.54800 43.40400
C  4.98400 2.19000 40.90900
C  6.44100 2.62400 40.57000
H  6.47600 3.53200 39.30200
N  -0.28800 0.49800 43.44000
C  -0.37300 1.73500 42.82300
C  -1.77700 2.00500 42.57200
C  -2.47400 0.79800 42.87700
C  -1.48900 -0.10700 43.56100
C  -2.30900 3.29800 42.05000
C  -3.89000 0.48500 42.48800
O  -4.65500 1.34100 42.04500
C  -4.33000 -0.92200 42.42700
N  0.29600 -1.99800 45.21200
C  -1.04200 -2.13600 45.04100
C  -1.59600 -3.53000 45.53000
C  -0.22400 -4.22200 45.92000
C  0.82800 -3.14600 45.67500
C  -2.66600 -3.35600 46.64900
C  0.13100 -5.60400 45.15100
C  0.34600 -6.75200 46.16600
N  3.11600 -1.37400 44.76800
C  3.30600 -2.66900 45.22700
C  4.72400 -2.99200 45.26400
C  5.34200 -1.87300 44.71600
C  4.32500 -0.97500 44.33800
C  5.22900 -4.28500 45.84500
C  6.65000 -1.38500 44.38200
O  7.80500 -1.85400 44.49200
C  6.32000 0.05600 43.79900
C  6.93800 1.12100 44.63600
O  6.32100 1.83100 45.41500
O  8.32200 1.14600 44.43000
C  8.98300 2.24900 45.16600
H  0.69900 3.54100 42.16400
H  -2.83600 -1.52400 44.47000
H  2.39100 -4.47500 46.00400
H  5.35200 2.94800 42.94000
H  2.94700 3.81800 41.44000
H  2.93400 5.45600 42.84900
H  4.13100 4.70600 43.89000
H  2.54500 4.53200 44.29800
H  4.33800 2.68900 40.18700
H  4.98200 1.13300 40.64500
H  7.03300 1.71800 40.43700
H  7.01300 3.15200 41.33400
H  -1.56100 4.05800 42.27500
H  -3.20100 3.50200 42.64300
H  -2.48400 3.23500 40.97600
H  -5.25400 -0.93300 41.84900
H  -4.50400 -1.17300 43.47400
H  -3.52200 -1.51400 41.99800
H  -2.17900 -4.03700 44.76100
H  -0.11500 -4.37800 46.99300
H  -2.34800 -3.91800 47.52700
H  -3.67400 -3.72200 46.45200
H  -2.78300 -2.36400 47.08500
H  1.04200 -5.64000 44.55400
H  -0.64400 -5.85200 44.42600
H  -0.34500 -6.60600 46.99600
H  1.39100 -6.84400 46.46200
H  -0.09200 -7.67700 45.79100
H  6.31400 -4.29700 45.94100
H  4.78400 -5.06600 45.22800
H  4.85800 -4.26400 46.87000
H  6.80700 0.12800 42.82600
H  8.85200 2.13100 46.24100
H  8.67100 3.23400 44.81700
H  10.04600 2.05900 45.01600
Mg 16.94200 -2.24000 28.32700
C  15.99300 -0.39600 31.01300
C  18.90400 -4.27100 30.50400
C  18.55500 -3.67700 25.68600
C  15.66600 0.06700 26.08700
N  17.35500 -2.34000 30.54900
C  16.87100 -1.43000 31.45000
C  17.36900 -1.73600 32.88700
C  18.39600 -2.91700 32.67100
C  18.23000 -3.22200 31.13600
C  19.92400 -2.55400 33.00800
C  16.13300 -2.19500 33.80400
C  16.35400 -2.18200 35.27700
H  17.62100 -1.52700 35.90800
N  18.30500 -3.85100 28.13100
C  18.97800 -4.52000 29.13100
C  19.61300 -5.68200 28.59800
C  19.58400 -5.53000 27.15400
C  18.84400 -4.30300 26.97000
C  20.30400 -6.86200 29.40300
C  20.11800 -6.42400 26.02500
O  19.96000 -6.25000 24.82800
C  20.65900 -7.75700 26.42800
N  17.15300 -1.81300 26.08700
C  17.78400 -2.56800 25.27000
C  17.52000 -2.25600 23.80600
C  16.38700 -1.17800 23.97400
C  16.36500 -0.96800 25.50400
C  18.78200 -1.72700 23.12000
C  15.05000 -1.62100 23.16800
C  13.71000 -1.76900 23.97100
N  15.87200 -0.64300 28.43600
C  15.45900 0.25000 27.45400
C  14.73000 1.24700 28.12800
C  14.94800 1.06500 29.54300
C  15.65000 -0.15900 29.66800
C  13.94600 2.45400 27.39100
C  14.71100 1.65500 30.81600
O  14.18500 2.70200 31.08800
C  15.35500 0.72300 31.81900
C  16.34200 1.52600 32.55900
O  17.47100 1.77100 32.22000
O  15.79900 1.90900 33.74500
C  16.65400 2.74500 34.51400
H  19.43900 -4.95000 31.17000
H  18.96700 -4.11300 24.77400
H  15.09400 0.61300 25.33300
H  17.79900 -0.78700 33.20700
H  18.01100 -3.75200 33.25600
H  20.36000 -3.17100 33.79400
H  20.03900 -1.56700 33.45600
H  20.50900 -2.55400 32.08800
H  15.84100 -3.16400 33.39900
H  15.29700 -1.51100 33.65500
H  16.27900 -3.18300 35.70300
H  15.43900 -1.69700 35.61500
H  19.75300 -7.74300 29.07500
H  20.10000 -6.79300 30.47200
H  21.35400 -7.06200 29.18700
H  21.51300 -7.51300 27.06100
H  21.03600 -8.43800 25.66500
H  19.93200 -8.39000 26.93600
H  17.19100 -3.10400 23.20500
H  16.70600 -0.28700 23.43200
H  18.60900 -0.91900 22.40900
H  19.23400 -2.57500 22.60600
H  19.54700 -1.39600 23.82200
H  15.33400 -2.52100 22.62300
H  14.82200 -0.82300 22.46200
H  13.92500 -1.72300 25.03800
H  13.25400 -2.74000 23.77900
H  13.14200 -0.91100 23.61200
H  13.49500 3.09100 28.15200
H  13.13300 2.01900 26.80900
H  14.49800 2.94200 26.58800
H  14.58400 0.46600 32.54500
H  16.33100 2.98300 35.52700
H  16.67600 3.70400 33.99600
H  17.65600 2.31800 34.56200

