158

Mg 45.29200 4.35800 47.64400
C  43.27200 7.11300 47.24400
C  42.48200 2.40100 46.89100
C  47.25500 1.71700 47.71400
C  48.12200 6.41600 47.42100
N  43.05100 4.75400 47.34600
C  42.50000 5.98400 47.15100
C  40.99200 5.79000 46.56100
C  40.81300 4.23500 46.69800
C  42.16000 3.74600 46.99700
C  39.73100 3.84900 47.82800
C  40.87500 6.40100 45.14700
C  39.69200 7.38500 44.92100
H  38.83700 7.07500 43.71500
N  44.92000 2.31700 47.36500
C  43.74200 1.73300 47.03300
C  44.00800 0.25200 46.88900
C  45.39800 0.02000 47.18300
C  45.90900 1.36600 47.48000
C  42.98800 -0.76900 46.42300
C  46.18200 -1.39200 47.08900
O  45.55200 -2.38300 46.78600
C  47.68200 -1.51600 47.37700
N  47.41100 4.05500 47.43800
C  47.93700 2.88800 47.72400
C  49.47300 2.89300 48.07700
C  49.63300 4.49900 48.23400
C  48.31800 5.05400 47.56800
C  49.82700 2.14000 49.33300
C  50.91800 4.99700 47.47600
C  52.26300 4.24100 47.53100
N  45.68600 6.30800 47.46000
C  46.86600 7.03500 47.39400
C  46.52500 8.50300 47.37100
C  45.16600 8.54500 47.30200
C  44.70500 7.21800 47.43200
C  47.39100 9.68200 47.10700
C  44.00100 9.46800 47.24000
O  43.94900 10.69600 47.11500
C  42.74500 8.55400 47.08500
C  41.64900 8.89700 48.00600
O  41.47700 8.45300 49.18300
O  40.61600 9.66100 47.45400
C  39.42900 9.83800 48.32200
H  41.62500 1.74400 46.72400
H  47.92600 0.85700 47.75400
H  48.99100 7.04000 47.63900
H  40.31600 6.23900 47.28800
H  40.36200 3.79000 45.81100
H  38.99800 4.65000 47.92200
H  40.20700 3.75800 48.80400
H  39.32300 2.91700 47.43700
H  40.87600 5.52600 44.49600
H  41.80800 6.92800 44.94700
H  40.01800 8.42400 44.97500
H  38.97700 7.31600 45.74100
H  43.49800 -1.11700 45.52500
H  42.07000 -0.35600 46.00600
H  42.87500 -1.63900 47.06900
H  47.97600 -2.55600 47.23100
H  47.99200 -1.29800 48.39900
H  48.13600 -0.90000 46.60100
H  49.95800 2.47100 47.19700
H  49.59500 4.72000 49.30100
H  50.11400 2.76700 50.17700
H  50.71700 1.56000 49.09200
H  49.05400 1.47100 49.71200
H  51.00400 5.99000 47.91800
H  50.70000 5.14600 46.41800
H  53.13100 4.89400 47.44100
H  52.33500 3.57500 46.67200
H  52.37600 3.71000 48.47600
H  47.83100 9.61700 46.11200
H  48.23200 9.70200 47.80000
H  46.82300 10.60800 47.20200
H  42.41800 8.68400 46.05300
H  38.85200 10.61200 47.81700
H  39.77500 10.16200 49.30400
H  38.83700 8.92800 48.41600
Mg 40.54200 41.09000 27.18300
C  40.10000 43.53700 29.77100
C  41.96800 39.05300 29.66800
C  41.31300 38.88100 24.82500
C  39.89100 43.44600 24.81100
N  40.78000 41.20900 29.52000
C  40.40100 42.26900 30.25700
C  40.64200 41.90300 31.78600
C  41.33700 40.44400 31.76600
C  41.35200 40.19600 30.25400
C  42.67700 40.38900 32.54200
C  39.34700 41.99300 32.61600
C  39.27700 41.16200 33.95200
H  38.53800 41.75800 35.21500
N  41.55200 39.26700 27.24000
C  41.97400 38.57100 28.33000
C  42.47300 37.25200 27.93300
C  42.15000 37.12100 26.57700
C  41.60200 38.45400 26.16300
C  43.18800 36.33300 28.80800
C  42.25300 35.93500 25.65000
O  41.93800 36.01300 24.47500
C  42.88800 34.67500 26.13300
N  40.85600 41.23300 25.06300
C  40.93000 40.09900 24.32200
C  40.71400 40.41400 22.76400
C  40.18400 41.89800 22.81600
C  40.34800 42.20200 24.28400
C  41.93200 40.23700 21.82000
C  38.78000 42.14400 22.24700
C  37.64800 41.61600 23.09400
N  40.10700 43.14900 27.23800
C  39.84000 43.91300 26.17900
C  39.39800 45.21100 26.67000
C  39.54900 45.12300 28.07200
C  39.96500 43.85200 28.37700
C  38.97300 46.34100 25.76500
C  39.45700 45.86100 29.25500
O  38.99100 46.99000 29.46800
C  39.86100 44.87100 30.43000
C  41.04700 45.31000 31.10300
O  42.05700 45.67200 30.59100
O  40.85800 45.22600 32.44100
C  41.96500 45.57200 33.35100
H  42.54100 38.32500 30.24500
H  41.39300 38.16300 24.00500
H  39.67300 44.19100 24.04300
H  41.35100 42.63400 32.17400
H  40.66100 39.69300 32.17500
H  43.51700 39.99000 31.97500
H  42.41300 39.67100 33.31800
H  43.02900 41.29000 33.04600
H  38.61700 41.64300 31.88600
H  39.06600 43.02900 32.80700
H  40.25600 40.83500 34.30300
H  38.64500 40.28700 33.80200
H  42.42300 35.66000 29.19500
H  43.80600 36.85200 29.54100
H  43.96700 35.77500 28.28700
H  42.84600 33.90500 25.36200
H  42.39600 34.29900 27.03000
H  43.96800 34.81100 26.19400
H  39.97400 39.63000 22.60200
H  40.84200 42.65000 22.38000
H  42.04000 41.11800 21.18600
H  41.69700 39.37000 21.20200
H  42.82700 40.21400 22.44200
H  38.80800 41.72100 21.24300
H  38.73900 43.22100 22.08400
H  37.36000 42.37100 23.82500
H  37.95600 40.78000 23.72200
H  36.82500 41.26300 22.47200
H  39.03800 46.01500 24.72700
H  39.60300 47.21200 25.94800
H  37.97500 46.66600 26.05800
H  39.06900 44.92900 31.17600
H  41.99100 46.63800 33.57700
H  42.89600 45.34200 32.83300
H  41.79300 45.01600 34.27300

