158

Mg 0.12000 7.39400 27.23600
C  0.77100 9.36900 30.07400
C  0.69700 4.58200 29.13200
C  -0.12200 5.60000 24.38400
C  0.08200 10.37700 25.38600
N  0.62400 7.06400 29.41100
C  0.66000 8.02100 30.36400
C  0.71600 7.36300 31.77500
C  0.97300 5.80800 31.36300
C  0.77400 5.81000 29.87000
C  2.48300 5.35900 31.49800
C  -0.65300 7.57600 32.52500
C  -0.53200 8.15400 33.86800
H  0.69500 7.88600 34.71600
N  0.16100 5.34700 26.82500
C  0.36100 4.32200 27.77000
C  0.22800 3.09300 27.06800
C  -0.00900 3.37600 25.67800
C  0.04300 4.80900 25.59000
C  0.32900 1.70400 27.87300
C  -0.03300 2.36700 24.63200
O  -0.03500 2.74800 23.47900
C  -0.23600 0.90700 24.93400
N  -0.24100 7.89800 25.15200
C  -0.21700 6.96700 24.14300
C  -0.19900 7.59700 22.75000
C  -0.40200 9.13200 23.10100
C  -0.22100 9.15600 24.65600
C  1.05500 7.41100 21.85400
C  -1.78300 9.73400 22.72700
C  -1.87500 10.22900 21.32200
N  0.32400 9.40300 27.57000
C  0.40300 10.51700 26.75000
C  0.71900 11.71400 27.42200
C  0.83600 11.30700 28.73800
C  0.60800 9.91700 28.80800
C  0.76400 13.02200 26.76500
C  1.10200 11.75900 30.07000
O  1.30300 12.91200 30.42700
C  0.95900 10.48200 31.04300
C  2.22000 10.48700 31.81100
O  3.30200 9.96700 31.51200
O  1.91000 11.15400 32.95700
C  3.06500 11.56600 33.80300
H  0.77500 3.63100 29.66300
H  -0.13200 5.09500 23.41500
H  0.18400 11.22400 24.70400
H  1.60100 7.75500 32.27700
H  0.30500 5.10100 31.85600
H  2.62000 4.27900 31.54200
H  2.92800 5.83000 32.37500
H  3.18200 5.55800 30.68600
H  -1.23200 6.65900 32.62600
H  -1.25700 8.29200 31.96700
H  -1.21200 7.56800 34.48500
H  -0.91300 9.17500 33.84600
H  -0.40100 0.95200 27.57400
H  0.15600 1.83500 28.94200
H  1.32900 1.30600 27.69700
H  0.42100 0.34800 25.60000
H  -0.19400 0.42400 23.95800
H  -1.25500 0.77100 25.29800
H  -1.09600 7.31400 22.19900
H  0.39200 9.74200 22.67000
H  0.69100 6.81700 21.01500
H  1.81400 6.89800 22.44400
H  1.43100 8.38800 21.55000
H  -1.96800 10.51300 23.46600
H  -2.55200 8.96900 22.83200
H  -0.93400 10.02600 20.81000
H  -2.14700 11.27900 21.22100
H  -2.68800 9.72600 20.79800
H  1.33800 13.69900 27.39700
H  -0.25500 13.36800 26.58600
H  1.25400 12.91600 25.79700
H  0.11700 10.75700 31.67800
H  2.64300 11.89700 34.75100
H  3.59300 12.36200 33.27700
H  3.81700 10.81200 34.03400
Mg 54.03000 24.73500 44.11300
C  51.38300 26.97500 44.01700
C  51.86700 22.29700 42.81900
C  56.61600 22.67300 43.75300
C  56.16600 27.47600 44.75600
N  51.94800 24.71400 43.44400
C  51.03200 25.72300 43.49500
C  49.57500 25.25900 43.11300
C  49.71500 23.68900 43.31200
C  51.24200 23.54700 43.19400
C  49.26300 23.10100 44.72700
C  48.99800 25.64800 41.72300
C  49.91400 26.17900 40.61400
H  50.26700 25.14400 39.49500
N  54.22000 22.76200 43.35100
C  53.22100 21.92800 42.93600
C  53.77700 20.59200 42.72300
C  55.14700 20.55000 43.07100
C  55.38800 21.98200 43.48000
C  52.88100 19.36700 42.27400
C  56.16100 19.43000 42.97100
O  55.82200 18.30200 42.64000
C  57.60600 19.65000 43.18000
N  56.21800 25.11200 43.96200
C  57.02400 24.05100 43.94400
C  58.48000 24.57800 44.16200
C  58.35300 26.06900 44.35200
C  56.80600 26.27900 44.40900
C  59.35300 23.77400 45.19900
C  59.04300 27.11000 43.33800
C  59.99800 28.24700 43.84900
N  53.87700 26.80300 44.40300
C  54.77700 27.72900 44.84600
C  54.14900 28.95300 45.18400
C  52.79800 28.70200 44.91300
C  52.69100 27.39800 44.32200
C  54.87200 30.16900 45.77300
C  51.39300 29.25000 44.91400
O  51.05100 30.43700 45.14100
C  50.46000 28.15600 44.19400
C  50.08800 28.85200 42.96600
O  50.87400 29.40900 42.23400
O  48.68800 28.97300 42.76500
C  48.43000 29.60800 41.44900
H  51.21600 21.44600 42.60800
H  57.48300 22.08600 44.06500
H  56.76700 28.34200 45.04200
H  48.86800 25.67000 43.83300
H  49.27800 23.14700 42.47400
H  50.13400 22.83400 45.32500
H  48.68900 22.21100 44.47000
H  48.58800 23.75200 45.28300
H  48.24600 26.42500 41.85900
H  48.53900 24.81100 41.19700
H  50.77400 26.66600 41.07300
H  49.38700 26.99500 40.12000
H  53.11600 18.56000 42.96700
H  52.90300 19.14100 41.20700
H  51.84100 19.67800 42.37200
H  58.06700 18.77200 42.72700
H  57.84200 19.65800 44.24400
H  57.96500 20.59800 42.77900
H  58.87900 24.43300 43.15800
H  58.78100 26.32400 45.32200
H  58.65200 23.52500 45.99600
H  60.16300 24.39300 45.58400
H  59.67000 22.83900 44.73800
H  58.21300 27.52900 42.77000
H  59.57300 26.51000 42.59800
H  60.93000 28.10100 43.30200
H  60.21700 28.24400 44.91700
H  59.62800 29.22000 43.52700
H  55.27300 29.80500 46.71900
H  54.16200 30.93300 46.08900
H  55.75900 30.44200 45.20100
H  49.63000 28.03600 44.89000
H  48.59700 29.11300 40.49300
H  48.77900 30.62600 41.27500
H  47.36600 29.84100 41.49100

