158

Mg -2.25900 17.36900 25.86400
C  -2.80200 15.17900 28.65000
C  -2.61100 20.00800 28.12800
C  -2.04700 19.41900 23.32700
C  -2.81400 14.61100 23.70600
N  -2.83500 17.53600 28.21300
C  -2.83300 16.50800 29.13500
C  -2.94500 17.03900 30.55200
C  -3.08000 18.61400 30.31100
C  -2.80200 18.76500 28.81800
C  -4.47100 19.11200 30.74000
C  -1.72600 16.54800 31.41300
C  -1.02500 17.37500 32.47000
H  -0.64500 16.58100 33.74800
N  -2.23500 19.40700 25.72800
C  -2.34500 20.33200 26.79200
C  -2.22400 21.70200 26.19400
C  -1.98300 21.60800 24.78400
C  -2.09800 20.05600 24.53800
C  -2.30700 22.94800 27.00800
C  -1.80600 22.62800 23.72700
O  -1.90100 22.39700 22.55500
C  -1.77200 24.03600 24.02200
N  -2.40500 17.08700 23.80400
C  -2.17100 18.11000 22.94000
C  -2.11500 17.65000 21.50300
C  -2.58200 16.14500 21.64700
C  -2.54500 15.87200 23.15000
C  -3.04200 18.47100 20.55700
C  -1.75300 15.10700 20.81000
C  -1.40100 15.45600 19.43700
N  -2.51600 15.26800 26.09800
C  -2.77400 14.32200 25.08600
C  -2.91100 12.98200 25.80900
C  -2.90700 13.30900 27.13400
C  -2.76900 14.70300 27.30800
C  -2.95800 11.67300 25.26100
C  -2.96100 12.75500 28.45500
O  -3.11600 11.57500 28.80100
C  -2.83900 13.92900 29.45500
C  -1.54300 13.71500 30.11700
O  -0.48400 14.15900 29.74100
O  -1.63100 12.97200 31.26300
C  -0.56100 12.73800 32.19700
H  -2.71300 20.88500 28.77000
H  -1.78100 20.13700 22.54900
H  -2.97100 13.70700 23.11400
H  -3.84800 16.56400 30.93700
H  -2.43000 19.28600 30.87100
H  -5.03500 18.33200 31.25000
H  -4.94800 19.29000 29.77600
H  -4.45700 20.00500 31.36500
H  -0.92000 16.42300 30.69000
H  -1.99600 15.58600 31.84700
H  -1.60200 18.26100 32.73400
H  -0.05300 17.79600 32.21000
H  -2.65300 22.72000 28.01700
H  -3.05300 23.64400 26.62400
H  -1.27700 23.30400 26.99200
H  -1.74100 24.72200 23.17600
H  -0.84800 24.14100 24.59000
H  -2.61300 24.29300 24.66600
H  -1.10100 17.63100 21.10300
H  -3.63700 15.98200 21.42300
H  -3.49500 19.38000 20.95400
H  -3.75100 17.81700 20.04800
H  -2.37700 18.84200 19.77700
H  -2.34100 14.19900 20.67700
H  -0.81300 14.86800 21.30800
H  -2.24400 15.95500 18.96000
H  -1.05300 14.64200 18.80100
H  -0.68100 16.27400 19.47500
H  -2.17500 11.08100 25.73300
H  -2.54800 11.65000 24.25100
H  -3.90500 11.13400 25.28700
H  -3.55900 13.89700 30.27300
H  -0.76000 13.16600 33.17900
H  0.39500 13.03200 31.76400
H  -0.58700 11.68000 32.45700
Mg 17.32900 -1.12200 28.33400
C  16.21300 1.17600 30.85300
C  19.12900 -2.80200 30.72500
C  18.90600 -2.91400 25.90500
C  15.81300 0.79000 25.95000
N  17.64500 -0.74900 30.49300
C  17.06500 0.13400 31.37700
C  17.54400 -0.07900 32.82800
C  18.69200 -1.22700 32.60800
C  18.45800 -1.63800 31.15200
C  20.12800 -0.80400 33.05100
C  16.35000 -0.52400 33.69900
C  16.18900 0.10900 35.08200
H  17.47700 0.36400 35.84500
N  18.73800 -2.72200 28.33000
C  19.31800 -3.31200 29.44400
C  20.00100 -4.51700 29.01500
C  19.96200 -4.55900 27.62900
C  19.21100 -3.36500 27.20400
C  20.73300 -5.42100 29.95100
C  20.57400 -5.61000 26.68400
O  20.27000 -5.59400 25.51200
C  21.47500 -6.71300 27.14400
N  17.40400 -1.04100 26.21000
C  18.14300 -1.87300 25.42700
C  18.00500 -1.49900 23.93700
C  16.89500 -0.46200 23.95000
C  16.63100 -0.19000 25.46800
C  19.37000 -1.08200 23.25100
C  15.67400 -0.92000 23.06600
C  14.33300 -1.17800 23.76400
N  16.15100 0.57200 28.36100
C  15.57900 1.18100 27.32100
C  14.70400 2.23800 27.82200
C  14.96900 2.36000 29.22300
C  15.81200 1.29800 29.48400
C  13.78200 3.03000 26.85800
C  14.74000 3.15900 30.43800
O  14.06500 4.17400 30.68100
C  15.53500 2.35500 31.58300
C  16.39700 3.23800 32.35400
O  17.49400 3.67600 32.01800
O  15.88700 3.58500 33.54100
C  16.55800 4.55500 34.34400
H  19.51800 -3.37200 31.57100
H  19.39600 -3.38000 25.04800
H  15.42900 1.37100 25.11000
H  17.95000 0.88400 33.13600
H  18.40000 -2.05000 33.26100
H  19.98600 0.07100 33.68400
H  20.62800 -0.47400 32.14000
H  20.70300 -1.58600 33.54700
H  16.41600 -1.58100 33.95600
H  15.38100 -0.33800 33.23600
H  15.51100 -0.51000 35.67000
H  15.70600 1.06900 34.89900
H  21.82000 -5.46600 29.87500
H  20.25400 -6.39400 30.06400
H  20.56500 -4.98800 30.93700
H  22.32000 -6.46700 27.78800
H  21.91800 -7.15700 26.25300
H  20.71900 -7.34300 27.61200
H  17.56400 -2.36600 23.44700
H  17.15000 0.52000 23.55300
H  20.07400 -0.93200 24.06900
H  19.29900 -0.08200 22.82300
H  19.71700 -1.85200 22.56200
H  15.83700 -1.79300 22.43400
H  15.38800 -0.12700 22.37500
H  13.75200 -0.25900 23.68500
H  14.52200 -1.44300 24.80400
H  13.77600 -2.05100 23.42600
H  13.31900 2.31000 26.18300
H  14.39900 3.67800 26.23400
H  13.08600 3.56300 27.50400
H  14.79300 1.94100 32.26600
H  16.54100 4.04200 35.30600
H  15.94900 5.45900 34.35700
H  17.58000 4.85900 34.11500

