158

Mg 24.28000 -5.18200 46.52000
C  26.20200 -2.83100 44.71500
C  21.67600 -4.67700 44.33800
C  22.73700 -7.96000 47.79200
C  27.07400 -5.95600 48.48400
N  24.11800 -4.00100 44.64600
C  24.93100 -2.96400 44.23400
C  24.29900 -2.15000 43.07600
C  22.83100 -2.60400 43.20200
C  22.84600 -3.86400 44.08900
C  21.87900 -1.40900 43.76200
C  25.00600 -2.38700 41.71400
C  25.49600 -1.09500 41.11700
H  24.98700 -0.94200 39.66100
N  22.45800 -6.14600 46.20600
C  21.48100 -5.75600 45.26500
C  20.26300 -6.55800 45.37100
C  20.54800 -7.49100 46.39700
C  22.01700 -7.27300 46.83300
C  19.07100 -6.43700 44.48400
C  19.59400 -8.58900 46.86600
O  18.45600 -8.77900 46.41200
C  19.94600 -9.45500 47.98700
N  24.77800 -6.73900 47.95200
C  23.93200 -7.78300 48.29400
C  24.72300 -8.84700 49.07000
C  26.12800 -8.13900 49.42700
C  26.01800 -6.90100 48.53400
C  24.05200 -9.54300 50.27800
C  27.37300 -9.00800 49.28100
C  28.50500 -8.88200 50.25900
N  26.24500 -4.53600 46.71300
C  27.27400 -4.86100 47.57800
C  28.37100 -4.04300 47.36800
C  28.02500 -3.28600 46.21000
C  26.71000 -3.61000 45.82900
C  29.58400 -3.80600 48.23400
C  28.53400 -2.24100 45.33900
O  29.63700 -1.66800 45.39200
C  27.44300 -2.02600 44.21000
C  27.08700 -0.58100 44.33500
O  26.45100 -0.03300 45.24700
O  27.68500 0.07400 43.30400
C  27.80200 1.52900 43.40400
H  20.85100 -4.28200 43.74300
H  22.23200 -8.91000 47.98200
H  27.93800 -6.22100 49.09800
H  24.21900 -1.09300 43.33100
H  22.55100 -2.94300 42.20500
H  20.92200 -1.31500 43.24800
H  22.26600 -0.39100 43.77600
H  21.57100 -1.60600 44.78900
H  24.31100 -2.95300 41.09300
H  25.83200 -3.08000 41.87400
H  26.58600 -1.09200 41.09900
H  25.20200 -0.19800 41.66200
H  19.17500 -7.28500 43.80700
H  19.08100 -5.48800 43.94700
H  18.16500 -6.55400 45.07900
H  20.42200 -8.89400 48.79100
H  20.67800 -10.17100 47.61200
H  19.18400 -10.13900 48.36000
H  24.87800 -9.60500 48.30200
H  26.07600 -7.78600 50.45700
H  23.72900 -10.50900 49.89100
H  23.26300 -8.90500 50.67600
H  24.80600 -9.64800 51.05800
H  27.75500 -8.86800 48.26900
H  27.03600 -10.04500 49.29100
H  28.78900 -9.74600 50.86000
H  28.21600 -8.03000 50.87400
H  29.46000 -8.67300 49.77700
H  29.96200 -4.81000 48.42800
H  29.31000 -3.34300 49.18200
H  30.52100 -3.50500 47.76600
H  27.83500 -2.25100 43.21800
H  28.76700 1.71900 43.87500
H  26.95400 1.95500 43.94000
H  27.85800 1.87500 42.37100
Mg 47.78700 15.63000 27.62800
C  46.08500 15.79400 30.67200
C  50.17900 17.64300 28.89700
C  49.12300 15.79300 24.54400
C  44.92900 14.02300 26.33900
N  48.11800 16.57500 29.61800
C  47.33500 16.46600 30.71300
C  47.99500 17.06300 31.88600
C  49.26600 17.80700 31.30100
C  49.12600 17.39500 29.79600
C  49.33200 19.31200 31.63100
C  48.38600 15.98800 33.01800
C  47.94700 16.38800 34.45800
H  47.76600 17.86200 34.88600
N  49.47100 16.54600 26.81500
C  50.36900 17.32100 27.53700
C  51.48300 17.84000 26.66000
C  51.19600 17.23000 25.39800
C  49.91600 16.52300 25.50900
C  52.62700 18.62000 27.13700
C  52.03000 17.19200 24.14200
O  51.74400 16.56000 23.10800
C  53.31000 17.89900 24.10200
N  47.23300 14.86000 25.74100
C  47.93200 15.12400 24.62400
C  47.14600 14.70100 23.37800
C  45.82900 14.11700 23.98700
C  45.99100 14.37300 25.45800
C  46.99000 15.91200 22.39400
C  45.46300 12.64000 23.60500
C  46.17100 11.59100 24.40700
N  45.86800 14.92100 28.42000
C  44.84200 14.30300 27.69000
C  43.71200 14.00100 28.63600
C  44.17800 14.52300 29.87700
C  45.50400 15.10000 29.68000
C  42.48700 13.22900 28.30900
C  43.91600 14.79300 31.32100
O  42.92500 14.52700 31.99000
C  45.13900 15.46900 31.89300
C  44.65100 16.74100 32.58000
O  44.58600 17.90600 32.25600
O  44.15700 16.30200 33.77300
C  43.40000 17.21800 34.63500
H  50.95500 18.26500 29.34800
H  49.49500 16.03500 23.54600
H  43.99900 13.65100 25.90500
H  47.33700 17.81200 32.32600
H  50.18300 17.27000 31.54100
H  49.23600 19.86500 30.69600
H  50.28700 19.67000 32.01700
H  48.47300 19.67600 32.19400
H  49.47100 15.93000 32.93500
H  48.05500 14.97800 32.77700
H  48.72800 15.93000 35.06500
H  47.09600 15.76800 34.73800
H  52.89100 19.56400 26.66000
H  53.50700 17.98000 27.08100
H  52.42700 18.92500 28.16400
H  53.06900 18.94000 24.31400
H  53.87700 17.73100 23.18700
H  53.92700 17.49000 24.90200
H  47.73100 13.84800 23.03300
H  45.02300 14.79900 23.71800
H  47.57200 15.65200 21.51000
H  47.51100 16.76100 22.83600
H  45.96400 16.04900 22.05400
H  45.78300 12.64900 22.56300
H  44.38700 12.47600 23.54900
H  46.73100 11.96900 25.26200
H  46.65500 10.95900 23.66300
H  45.44700 10.89600 24.83200
H  42.16700 13.36200 27.27600
H  41.60000 13.52200 28.87000
H  42.47500 12.15600 28.50400
H  45.63600 14.87900 32.66200
H  42.66100 17.82100 34.10800
H  44.11000 17.78700 35.23500
H  42.77100 16.58200 35.25700

