158

Mg 27.02000 49.78200 26.70100
C  24.75500 51.00800 29.28200
C  29.27600 49.28700 29.16600
C  29.08000 49.16900 24.28300
C  24.65900 51.30300 24.39900
N  26.90000 50.07000 28.99100
C  25.89200 50.42200 29.88200
C  26.34000 50.29400 31.31600
C  27.93100 50.09700 31.14100
C  28.05700 49.75400 29.63900
C  28.74600 51.41000 31.60000
C  25.61000 49.06600 32.01400
C  24.88600 49.37200 33.29800
H  25.76200 49.92200 34.47400
N  28.88300 49.25600 26.75100
C  29.67600 49.00700 27.86500
C  30.99300 48.52400 27.41600
C  30.96400 48.55600 25.96200
C  29.58400 49.02000 25.60100
C  32.08300 48.17200 28.35800
C  32.05800 48.17400 24.95300
O  31.89500 48.02400 23.75300
C  33.50500 47.88200 25.39200
N  26.90200 50.19500 24.69500
C  27.88500 49.70600 23.87400
C  27.50100 49.75000 22.35100
C  25.96600 50.20000 22.53500
C  25.82700 50.63300 23.92100
C  28.36200 50.68700 21.48300
C  24.92200 49.14700 21.97000
C  24.57700 47.97800 22.83900
N  25.07900 50.89400 26.77100
C  24.26300 51.43600 25.75800
C  23.15600 52.16000 26.35100
C  23.24200 51.93300 27.73000
C  24.44000 51.21700 27.93300
C  22.15300 52.93200 25.56400
C  22.57300 52.18800 28.95400
O  21.49700 52.64500 29.17000
C  23.58700 51.68500 30.08400
C  23.93600 52.71900 31.07800
O  24.53800 53.75900 30.98100
O  23.46300 52.22600 32.27900
C  23.56000 53.16200 33.39400
H  29.96400 49.07800 29.98800
H  29.86000 49.11400 23.52100
H  24.03700 51.70400 23.59600
H  26.13800 51.17000 31.93300
H  28.32600 49.26900 31.73000
H  29.64300 51.15500 32.16600
H  28.15500 52.06300 32.24200
H  29.05900 51.98600 30.73000
H  26.33900 48.28100 32.21200
H  24.75600 48.74400 31.41900
H  24.23900 48.57000 33.65400
H  24.30200 50.27600 33.12600
H  33.06600 48.58100 28.12200
H  32.21300 47.09000 28.32600
H  31.93300 48.50800 29.38300
H  34.13900 47.46200 24.61200
H  33.55000 47.22600 26.26200
H  33.93300 48.84300 25.67900
H  27.59700 48.72400 21.99800
H  25.88400 51.07300 21.88800
H  27.65700 51.20500 20.83300
H  29.00700 50.18000 20.76500
H  28.96400 51.35700 22.09700
H  25.28000 48.67800 21.05400
H  24.03800 49.70200 21.65800
H  24.52400 48.29000 23.88200
H  25.33900 47.20600 22.73300
H  23.58100 47.60500 22.60100
H  22.45600 53.08200 24.52700
H  21.93700 53.90500 26.00500
H  21.31200 52.25400 25.70800
H  23.05600 50.87700 30.58700
H  24.32700 52.84500 34.10100
H  22.67100 53.19200 34.02400
H  23.74300 54.20500 33.13500
Mg 4.03900 53.96300 41.45200
C  4.37600 50.66800 40.57500
C  7.18900 54.63600 40.11100
C  3.47800 57.27700 42.02700
C  0.70200 53.23400 42.65800
N  5.50500 52.78100 40.40900
C  5.51900 51.41600 40.23600
C  6.88900 50.88500 39.75100
C  7.70900 52.18400 39.75800
C  6.74200 53.27700 40.16300
C  9.12000 52.13500 40.38400
C  6.87300 50.21900 38.45900
C  5.89200 50.62000 37.31400
H  6.44500 51.32000 36.05000
N  5.13300 55.75500 40.94900
C  6.44300 55.79900 40.51900
C  6.84700 57.16800 40.43200
C  5.79000 57.97600 40.95200
C  4.75500 57.01700 41.35500
C  8.11400 57.63800 39.81800
C  5.81800 59.46800 41.05800
O  6.82900 60.13100 40.71800
C  4.56800 60.18600 41.34300
N  2.33900 55.07800 42.17600
C  2.42000 56.40400 42.41600
C  1.04800 56.91700 42.98800
C  0.10500 55.67500 42.94200
C  1.09100 54.59000 42.59000
C  1.25800 57.45300 44.49900
C  -1.10700 55.71700 41.99800
C  -2.33500 54.98400 42.61800
N  2.83200 52.30100 41.77700
C  1.51000 52.11400 42.27800
C  1.27600 50.68900 42.40800
C  2.39500 50.05500 41.72500
C  3.24500 51.10400 41.29900
C  -0.02000 50.06100 42.97100
C  2.95800 48.81400 41.46100
O  2.47100 47.74600 41.64100
C  4.24100 49.12600 40.62400
C  3.97800 48.50700 39.30200
O  3.06900 48.84100 38.50100
O  4.90300 47.53400 39.11400
C  4.75700 46.52800 38.05600
H  8.27800 54.71500 40.08500
H  3.25100 58.30900 42.30300
H  -0.29600 53.02400 43.05000
H  7.30900 50.14300 40.43000
H  7.85400 52.41600 38.70300
H  9.76700 51.43900 39.85100
H  9.01700 51.86600 41.43500
H  9.64300 53.08200 40.24800
H  6.78200 49.14300 38.60900
H  7.92700 50.29000 38.19000
H  5.05100 51.17900 37.72500
H  5.44600 49.66800 37.02500
H  8.48900 56.78300 39.25400
H  8.81800 57.83600 40.62500
H  8.00200 58.59700 39.31300
H  4.27700 60.12100 42.39200
H  3.78900 59.72100 40.73900
H  4.61700 61.26300 41.18800
H  0.57400 57.64300 42.32700
H  -0.18800 55.41500 43.95900
H  2.24700 57.89200 44.63000
H  1.03100 56.66800 45.22100
H  0.46000 58.16200 44.71500
H  -0.85500 55.45800 40.97000
H  -1.43400 56.75500 41.93600
H  -3.18900 55.65800 42.68300
H  -2.18300 54.60400 43.62800
H  -2.55500 54.12200 41.98700
H  0.11500 48.98100 43.04400
H  -0.85700 50.16600 42.28000
H  -0.14700 50.57200 43.92500
H  5.19000 48.72800 40.98300
H  5.03800 46.85800 37.05600
H  3.79200 46.03700 38.18200
H  5.46200 45.73700 38.31400

