158

Mg 1.87300 -1.96500 44.66900
C  5.33500 -1.23400 44.22300
C  1.31100 0.97300 42.87500
C  -1.26800 -2.81300 44.53400
C  2.83900 -5.22700 45.52200
N  3.17800 -0.35100 43.75600
C  4.50800 -0.29800 43.62100
C  4.97900 0.89600 42.76000
C  3.73100 1.79700 42.80600
C  2.64300 0.78600 43.20700
C  3.83800 3.05100 43.70500
C  5.51500 0.49200 41.35700
C  6.59600 1.26600 40.72800
H  6.36900 1.89200 39.33700
N  0.23400 -0.94100 43.92100
C  0.20000 0.20400 43.13100
C  -1.13900 0.45500 42.69500
C  -1.90000 -0.62400 43.17900
C  -0.99200 -1.54400 43.95800
C  -1.51900 1.64900 41.89800
C  -3.40400 -0.60100 43.23800
O  -3.97300 0.19000 42.54700
C  -4.25500 -1.47900 44.05900
N  0.96700 -3.84300 44.80500
C  -0.39800 -3.84400 44.88200
C  -0.85900 -5.21500 45.52500
C  0.46500 -6.01700 45.81500
C  1.50300 -5.02100 45.35200
C  -1.78400 -5.10000 46.76200
C  0.55900 -7.43100 45.02100
C  0.37000 -8.65900 45.90000
N  3.63100 -3.05400 44.93500
C  3.90000 -4.31300 45.31700
C  5.28500 -4.47500 45.61200
C  5.88400 -3.23800 45.24400
C  4.83700 -2.42700 44.81100
C  5.96400 -5.76100 46.12400
C  7.15100 -2.48900 45.22300
O  8.27000 -2.80600 45.65300
C  6.78900 -1.18000 44.47100
C  7.33800 0.07300 45.17000
O  7.19900 0.41000 46.35000
O  7.91400 0.76100 44.18500
C  8.47200 2.07700 44.43300
H  1.27500 1.85500 42.23300
H  -2.31700 -3.08400 44.67100
H  3.16500 -6.13100 46.04000
H  5.80500 1.44400 43.21200
H  3.64900 2.26000 41.82300
H  2.82100 3.24100 44.04900
H  4.11500 3.96700 43.18300
H  4.59200 2.95600 44.48700
H  4.68300 0.60200 40.66200
H  5.93900 -0.51000 41.43100
H  7.35200 0.50500 40.53500
H  6.90700 2.04400 41.42600
H  -0.71900 2.37300 41.74000
H  -2.28200 2.09300 42.53900
H  -1.76400 1.36300 40.87600
H  -4.27900 -2.50400 43.69000
H  -5.26300 -1.10000 44.22500
H  -3.95600 -1.50700 45.10600
H  -1.37500 -5.68800 44.69000
H  0.53700 -6.11400 46.89900
H  -2.76300 -5.39500 46.38500
H  -1.83400 -4.07900 47.14200
H  -1.46700 -5.75500 47.57400
H  1.54300 -7.58500 44.57800
H  -0.14600 -7.45600 44.19000
H  1.26700 -9.27300 45.98300
H  -0.59600 -9.13200 45.72600
H  0.16800 -8.31000 46.91200
H  6.49200 -5.48800 47.03800
H  6.54800 -6.19900 45.31500
H  5.15500 -6.44600 46.37800
H  7.32100 -1.29800 43.52700
H  7.59300 2.70700 44.56600
H  8.98600 2.39800 43.52700
H  9.19200 2.16100 45.24700
Mg 49.52900 46.03100 42.52000
C  46.14700 46.95200 41.47400
C  48.86500 42.85600 40.93300
C  52.78900 45.54500 42.28100
C  50.09100 49.45800 42.96300
N  47.64500 45.00100 41.50800
C  46.43000 45.62700 41.15100
C  45.62000 44.82500 40.12700
C  46.49900 43.49700 39.99600
C  47.72000 43.76000 40.82600
C  45.74700 42.21300 40.37700
C  45.36400 45.62900 38.78900
C  43.91300 45.74700 38.20700
H  43.67600 45.44800 36.73300
N  50.64000 44.36300 42.01900
C  50.16500 43.15500 41.41700
C  51.34000 42.26800 41.36400
C  52.49200 42.96100 41.79800
C  52.04500 44.33500 42.09600
C  51.33100 40.88900 40.74900
C  53.94900 42.40300 41.76200
O  54.21700 41.26400 41.32800
C  55.18900 43.22300 42.25300
N  51.21300 47.24800 42.42300
C  52.43200 46.84100 42.47800
C  53.45300 47.84400 43.00100
C  52.52600 49.10800 43.24000
C  51.18200 48.58300 42.88300
C  54.43100 47.49800 44.16100
C  52.86800 50.49800 42.53300
C  53.10800 51.79000 43.44900
N  48.33500 47.87200 42.45100
C  48.72200 49.20200 42.62800
C  47.54800 50.01100 42.70700
C  46.50800 49.19700 42.23300
C  47.04200 47.88300 42.08600
C  47.53500 51.48000 43.14800
C  45.05900 49.05100 42.06300
O  44.22100 49.83200 42.39300
C  44.82800 47.68100 41.41500
C  43.72200 46.96300 42.04700
O  43.71500 46.51400 43.20500
O  42.70400 46.69600 41.11000
C  41.70800 45.64800 41.46400
H  48.80400 41.89200 40.42400
H  53.87600 45.44100 42.26400
H  50.34500 50.39300 43.46700
H  44.64100 44.61100 40.55700
H  47.03800 43.34200 39.06100
H  46.20800 41.70400 41.22300
H  45.78500 41.61000 39.46900
H  44.67000 42.35300 40.46300
H  46.09100 45.21900 38.08800
H  45.69000 46.66700 38.85100
H  43.64900 46.78200 38.42600
H  43.10600 45.23000 38.72600
H  52.15900 40.82300 40.04300
H  50.44400 40.64200 40.16500
H  51.19300 40.18600 41.57100
H  55.64400 43.75900 41.42000
H  55.96400 42.52800 42.57500
H  54.80100 43.88500 43.02700
H  54.03800 47.89600 42.08200
H  52.50700 49.20600 44.32600
H  55.44500 47.87800 44.04200
H  54.47700 46.41000 44.21800
H  54.02100 47.76400 45.13500
H  52.07000 50.63100 41.80200
H  53.82900 50.38700 42.03000
H  54.16400 51.97700 43.25200
H  52.88600 51.49300 44.47400
H  52.57800 52.71500 43.22300
H  48.22900 51.67700 43.96600
H  46.51900 51.79400 43.38500
H  47.76400 52.18600 42.35000
H  44.66500 47.91300 40.36300
H  40.76200 46.13800 41.69400
H  42.04900 45.10700 42.34600
H  41.62900 44.86900 40.70600

