158

Mg 16.83300 51.84700 26.45600
C  18.70400 50.68200 29.13200
C  14.51600 52.89500 28.94200
C  14.93200 52.83500 24.08100
C  19.13200 50.55300 24.23000
N  16.72100 51.94700 28.75500
C  17.58800 51.37100 29.60900
C  17.28700 51.71500 31.10300
C  15.75800 52.17000 31.01600
C  15.62500 52.31700 29.49600
C  14.68600 51.07900 31.47300
C  18.27200 52.80100 31.69900
C  18.65300 52.62000 33.24800
H  17.69800 51.77500 34.13200
N  15.05000 52.81900 26.45100
C  14.28900 53.23200 27.56400
C  13.11900 53.99600 26.99700
C  13.14600 53.90300 25.56600
C  14.40600 53.18100 25.29000
C  12.10000 54.61000 27.96400
C  12.09600 54.23600 24.54200
O  12.19200 53.91400 23.37000
C  10.89000 54.97300 25.01000
N  16.97000 51.67000 24.38400
C  16.11100 52.32300 23.58400
C  16.48000 52.10600 22.12100
C  17.94900 51.62500 22.24900
C  18.07700 51.36100 23.69700
C  15.63700 50.98300 21.43700
C  18.97500 52.64100 21.72500
C  20.25600 52.06300 21.13400
N  18.54800 50.87500 26.64300
C  19.38200 50.38900 25.64300
C  20.56100 49.82400 26.24400
C  20.25300 49.88500 27.61200
C  19.07700 50.57100 27.78200
C  21.79200 49.35900 25.56800
C  20.89800 49.51700 28.86100
O  21.98700 49.00900 29.09400
C  19.74800 50.05400 29.89200
C  19.20200 48.96900 30.77900
O  18.17100 48.31600 30.53400
O  19.90600 48.95400 32.01400
C  19.36100 48.02900 33.01700
H  13.76000 53.23300 29.65400
H  14.31000 53.26500 23.29300
H  19.95800 50.32100 23.55400
H  17.51800 50.83600 31.70500
H  15.46700 53.13600 31.42800
H  14.07300 51.48900 32.27600
H  15.12500 50.18300 31.91100
H  13.98500 50.90600 30.65700
H  17.83200 53.79400 31.60900
H  19.11800 52.95400 31.02900
H  18.50200 53.63600 33.61200
H  19.71100 52.37900 33.35000
H  11.73500 55.62000 27.77400
H  12.62900 54.70600 28.91200
H  11.25200 53.94800 28.14200
H  11.12700 55.89000 25.54900
H  10.36800 54.32400 25.71400
H  10.20800 55.18900 24.18700
H  16.43100 53.08700 21.64800
H  18.05600 50.62700 21.82500
H  15.18700 50.42500 22.25800
H  16.14900 50.31400 20.74600
H  14.83500 51.41300 20.83800
H  19.29400 53.27600 22.55200
H  18.35600 53.22800 21.04700
H  21.12400 52.32300 21.74000
H  20.39700 52.47500 20.13500
H  20.17500 50.97600 21.15200
H  22.05800 50.17500 24.89600
H  21.42400 48.64000 24.83600
H  22.63800 49.13500 26.21800
H  20.30200 50.72800 30.54600
H  18.30900 47.90000 32.76100
H  19.36000 48.32600 34.06600
H  19.84600 47.05900 32.90700
Mg -2.65000 35.33900 26.87700
C  -3.99200 33.33000 29.37200
C  -1.02200 37.24300 29.19400
C  -1.39900 37.20900 24.36900
C  -4.57800 33.63800 24.57200
N  -2.55200 35.29100 28.99800
C  -3.21100 34.40900 29.86100
C  -2.83500 34.72800 31.34300
C  -1.93500 35.95600 31.22100
C  -1.81300 36.25400 29.70000
C  -2.41300 37.19000 32.07900
C  -2.20300 33.56600 32.20700
C  -2.97600 33.08100 33.42100
H  -2.26800 32.84700 34.79400
N  -1.35800 36.96200 26.79700
C  -0.77600 37.64500 27.86000
C  0.31500 38.41300 27.32100
C  0.27900 38.41100 25.92000
C  -0.85800 37.48100 25.64000
C  1.31100 39.13800 28.22900
C  1.18600 39.06500 24.89600
O  1.06100 38.98800 23.70600
C  2.43200 39.77300 25.37500
N  -3.17400 35.52700 24.73700
C  -2.44400 36.31000 23.90700
C  -3.01400 36.30700 22.48600
C  -3.82100 35.01800 22.49200
C  -3.90200 34.66400 23.98000
C  -3.87000 37.57500 22.14500
C  -3.09300 33.90200 21.76500
C  -3.21700 33.91700 20.26200
N  -4.04900 33.81800 26.91800
C  -4.69300 33.12500 25.89600
C  -5.39300 32.01900 26.41600
C  -5.16300 32.06100 27.75700
C  -4.30800 33.15400 28.03900
C  -6.15800 31.06500 25.66800
C  -5.53700 31.44000 28.91200
O  -6.27000 30.46200 29.07000
C  -4.73900 32.22100 30.11900
C  -5.77400 32.84200 31.02100
O  -6.29300 33.87400 30.84500
O  -5.89800 32.09500 32.22000
C  -6.89700 32.68800 33.19700
H  -0.37700 37.61400 29.99300
H  -0.92000 37.81700 23.59900
H  -5.13000 33.13100 23.77800
H  -3.81200 34.98600 31.75100
H  -0.89600 35.77100 31.49300
H  -3.11500 36.94500 32.87600
H  -2.79800 37.90400 31.35100
H  -1.48600 37.53300 32.53900
H  -1.20000 33.71100 32.60900
H  -2.07200 32.74900 31.49700
H  -3.34200 32.06400 33.27400
H  -3.89200 33.66500 33.51700
H  0.95900 40.13900 27.97800
H  2.35500 39.13000 27.91500
H  1.23000 38.93800 29.29800
H  2.01400 40.64000 25.88700
H  3.06800 40.09700 24.55100
H  3.00800 39.06700 25.97300
H  -2.21200 36.29200 21.74800
H  -4.78400 35.08100 21.98600
H  -4.90700 37.50500 22.47400
H  -3.65100 37.70300 21.08400
H  -3.56200 38.44700 22.72200
H  -3.62300 33.00300 22.07800
H  -2.06700 33.79700 22.12100
H  -3.56800 34.88100 19.89500
H  -3.87900 33.10000 19.97700
H  -2.18600 33.72700 19.96400
H  -6.23600 31.13000 24.58300
H  -7.09700 30.94200 26.20700
H  -5.58000 30.14600 25.76200
H  -3.95800 31.65900 30.63200
H  -7.82200 32.86200 32.64800
H  -6.56300 33.58500 33.71900
H  -7.11800 32.04900 34.05100

