158

Mg -2.34800 16.60300 25.91700
C  -2.90400 14.60600 28.81800
C  -3.34900 19.38100 27.84500
C  -2.53300 18.50300 23.14700
C  -2.08400 13.77400 24.04900
N  -3.01800 16.92500 28.12800
C  -3.16400 15.97900 29.09200
C  -3.60000 16.62600 30.41200
C  -4.11800 18.04500 29.92000
C  -3.48900 18.13600 28.49100
C  -5.64600 18.10900 29.90600
C  -2.43700 16.74400 31.45400
C  -2.89800 17.17800 32.82600
H  -2.77300 16.00400 33.86700
N  -2.67100 18.64800 25.56300
C  -2.79100 19.66200 26.53600
C  -2.56000 20.93000 25.93400
C  -2.41400 20.69700 24.49800
C  -2.57000 19.22500 24.30400
C  -2.52800 22.24300 26.80000
C  -2.08400 21.66600 23.38500
O  -2.08400 21.44000 22.21400
C  -1.96100 23.10100 23.77700
N  -2.50200 16.17300 23.91300
C  -2.48800 17.12500 22.90000
C  -2.35500 16.50200 21.47800
C  -1.90800 14.98800 21.84500
C  -2.19900 14.93700 23.36100
C  -3.64300 16.65700 20.60400
C  -0.51300 14.55700 21.56000
C  0.57000 15.12200 22.45300
N  -2.38900 14.61600 26.34300
C  -2.24000 13.51200 25.43000
C  -2.35400 12.33900 26.06500
C  -2.54000 12.67000 27.43200
C  -2.55800 14.08600 27.51600
C  -2.14500 10.99400 25.45200
C  -2.69700 12.07500 28.74200
O  -2.53100 10.93200 29.14800
C  -3.05300 13.35800 29.68200
C  -2.11400 13.38600 30.82900
O  -0.96400 13.83700 30.87100
O  -2.61000 12.56900 31.83000
C  -1.91900 12.21400 33.08400
H  -3.74700 20.23200 28.40100
H  -2.34300 18.99500 22.19000
H  -1.98400 12.87400 23.44000
H  -4.38200 16.01600 30.86600
H  -3.69700 18.90300 30.44500
H  -5.90100 18.44800 28.90200
H  -6.04200 18.81800 30.63300
H  -6.12500 17.14100 30.05400
H  -1.71300 17.46000 31.06700
H  -1.96700 15.76200 31.50700
H  -3.94300 17.48200 32.77000
H  -2.31700 18.04900 33.13100
H  -2.59500 22.09700 27.87800
H  -3.43400 22.75700 26.47700
H  -1.66200 22.82200 26.47800
H  -1.90400 23.70300 22.87000
H  -0.99800 23.20700 24.27800
H  -2.75400 23.50600 24.40500
H  -1.55600 16.93300 20.87600
H  -2.61700 14.30700 21.37500
H  -4.27700 15.78500 20.76200
H  -3.39600 16.73800 19.54600
H  -4.14100 17.61500 20.75600
H  -0.41000 14.84600 20.51400
H  -0.54800 13.49500 21.31700
H  0.15600 15.63500 23.32100
H  1.12600 15.85600 21.87000
H  1.21500 14.32600 22.82700
H  -2.06600 10.21800 26.21300
H  -1.21700 10.96200 24.88100
H  -2.94700 10.72500 24.76400
H  -4.03000 13.37200 30.16300
H  -1.13500 12.97000 33.11000
H  -1.41900 11.24800 33.01100
H  -2.67800 12.36800 33.85200
Mg 47.32500 45.17000 43.14500
C  43.89400 44.74800 42.65500
C  47.81000 41.90300 42.21700
C  50.54900 45.88400 43.36000
C  46.67400 48.69400 43.54200
N  45.94300 43.60300 42.26400
C  44.59700 43.58800 42.34700
C  44.01100 42.17800 42.10300
C  45.29000 41.26800 42.09700
C  46.42400 42.30700 42.24800
C  45.19500 40.05100 43.07400
C  43.20400 42.06800 40.83100
C  43.71800 42.80500 39.59300
H  43.52100 42.11200 38.24400
N  49.02500 43.95900 42.85900
C  49.04800 42.58900 42.46200
C  50.43900 42.13000 42.57000
C  51.28500 43.30300 42.84400
C  50.34200 44.50800 42.96400
C  50.72900 40.65100 42.29600
C  52.78100 43.29600 42.94800
O  53.38900 42.25400 42.65800
C  53.47100 44.57000 43.28400
N  48.45200 46.99900 43.51200
C  49.76000 46.98000 43.63500
C  50.31000 48.41500 43.94100
C  48.97300 49.28800 44.03700
C  47.95900 48.25800 43.66300
C  51.24700 48.49100 45.23000
C  49.00800 50.58100 43.10800
C  48.27800 51.82600 43.77200
N  45.66900 46.58100 42.95800
C  45.53500 47.87000 43.29900
C  44.15100 48.27900 43.35000
C  43.47600 47.08400 43.11700
C  44.42000 46.06800 42.90300
C  43.62800 49.61600 43.78700
C  42.17000 46.40400 43.03000
O  41.05900 46.79100 43.17000
C  42.34600 44.86000 42.76100
C  41.73200 44.14100 43.89400
O  40.69400 43.56700 43.75900
O  42.51900 44.19800 45.03800
C  41.99500 43.61600 46.20300
H  47.92700 40.83000 42.05200
H  51.55900 46.17800 43.65600
H  46.40900 49.74300 43.69000
H  43.38800 41.93300 42.96400
H  45.42900 40.71300 41.16900
H  44.18300 39.67900 42.91100
H  45.46600 40.33600 44.09000
H  45.82800 39.29400 42.61200
H  42.15300 42.23500 41.06500
H  43.25400 41.01900 40.54100
H  44.74700 43.16000 39.65100
H  43.10000 43.70200 39.63600
H  50.29600 40.21600 43.19700
H  51.79800 40.44300 42.34200
H  50.25800 40.30200 41.37800
H  53.25000 45.26000 42.47000
H  54.53100 44.46900 43.51600
H  52.98500 44.84000 44.22200
H  50.83100 48.70400 43.02800
H  48.70200 49.55700 45.05800
H  52.27700 48.75600 44.99400
H  51.38800 47.59100 45.82800
H  50.91100 49.16100 46.02100
H  48.55800 50.33200 42.14700
H  50.07400 50.73400 42.93800
H  48.94100 52.68900 43.83400
H  47.85200 51.53400 44.73200
H  47.49900 52.04400 43.04000
H  43.19500 49.41300 44.76600
H  42.85500 49.95700 43.09800
H  44.32300 50.45300 43.84600
H  41.89600 44.66200 41.78800
H  42.60500 43.98500 47.02800
H  41.99100 42.52600 46.19300
H  40.96500 43.93300 46.37000

