158

Mg 24.99600 -6.27200 47.51300
C  26.51900 -3.62400 45.76200
C  22.34500 -6.19800 45.34000
C  24.17900 -9.26300 48.60800
C  28.14400 -6.54400 49.29300
N  24.65300 -5.18400 45.60700
C  25.34100 -4.04600 45.18500
C  24.67300 -3.45600 43.90300
C  23.21400 -4.07300 44.04200
C  23.35000 -5.25500 45.07000
C  22.12200 -2.96200 44.44700
C  25.45900 -3.88700 42.62600
C  25.93700 -2.75400 41.77400
H  25.21000 -2.38300 40.44000
N  23.36200 -7.54300 47.16600
C  22.37300 -7.31000 46.24300
C  21.49700 -8.46600 46.23200
C  22.04500 -9.46600 47.10500
C  23.24400 -8.78400 47.71300
C  20.29800 -8.49200 45.28300
C  21.50400 -10.84400 47.42500
O  20.50900 -11.21200 46.74800
C  21.92600 -11.77200 48.52300
N  26.01300 -7.64600 48.82900
C  25.39300 -8.78900 49.12100
C  26.29300 -9.78600 49.88500
C  27.64200 -8.96100 49.95500
C  27.30500 -7.65200 49.35400
C  25.86600 -10.37100 51.28400
C  28.82800 -9.60000 49.26200
C  29.84400 -10.29200 50.17300
N  26.91300 -5.22200 47.67800
C  28.03500 -5.40100 48.47300
C  29.00000 -4.27200 48.32500
C  28.39700 -3.50600 47.29100
C  27.25800 -4.23400 46.85700
C  30.18800 -4.03300 49.25100
C  28.52100 -2.32500 46.40900
O  29.37900 -1.47900 46.40700
C  27.38600 -2.42400 45.34800
C  26.68500 -1.02500 45.50200
O  27.21500 0.02400 45.13600
O  25.49400 -1.19900 46.25200
C  24.79100 0.00500 46.68700
H  21.48200 -5.95600 44.71600
H  23.96300 -10.25000 49.02200
H  29.05200 -6.65900 49.88800
H  24.55200 -2.38300 44.05600
H  22.89400 -4.40000 43.05300
H  21.68500 -3.15100 45.42800
H  21.39000 -3.02400 43.64200
H  22.56100 -1.96700 44.37000
H  24.80400 -4.51000 42.01700
H  26.33600 -4.48700 42.86800
H  27.00700 -2.89900 41.62600
H  25.93400 -1.79900 42.30000
H  20.20500 -9.40600 44.69600
H  20.28900 -7.74200 44.49200
H  19.48200 -8.42300 46.00300
H  22.85400 -12.23200 48.18500
H  21.22900 -12.60600 48.61500
H  21.98600 -11.23900 49.47200
H  26.23000 -10.70300 49.29800
H  28.01800 -8.81800 50.96800
H  26.61600 -10.19700 52.05600
H  25.48500 -11.38600 51.17400
H  25.12400 -9.65300 51.63500
H  29.39000 -8.79400 48.79000
H  28.51400 -10.28900 48.47800
H  30.12600 -11.30600 49.89100
H  29.29300 -10.47200 51.09600
H  30.66400 -9.58100 50.27100
H  30.18500 -2.95200 49.38800
H  31.03500 -4.33900 48.63600
H  30.12300 -4.58700 50.18800
H  27.87200 -2.60500 44.39000
H  23.98400 -0.38000 47.31000
H  24.39200 0.46500 45.78200
H  25.42200 0.67400 47.27300
Mg 0.49100 43.59800 26.29700
C  2.51500 42.78300 29.00000
C  -2.27400 43.04300 28.32100
C  -1.50400 43.64800 23.54000
C  3.27400 43.71000 24.30400
N  0.15800 42.88500 28.34400
C  1.11800 42.66800 29.30800
C  0.55400 42.57700 30.67300
C  -0.95300 42.41200 30.36300
C  -1.04900 42.82300 28.86700
C  -1.48900 40.96400 30.74600
C  0.87000 43.88400 31.47000
C  1.62300 43.76300 32.80200
H  1.38500 42.52700 33.64200
N  -1.61400 43.41400 25.95000
C  -2.56800 43.26000 26.92200
C  -3.86300 43.34300 26.27800
C  -3.67300 43.58600 24.87900
C  -2.23700 43.54600 24.75200
C  -5.14700 43.00900 26.97900
C  -4.64500 43.91400 23.79500
O  -4.41000 44.09500 22.59400
C  -6.08900 43.97800 24.10000
N  0.78800 43.77400 24.27200
C  -0.15400 43.72400 23.29500
C  0.52000 43.89200 21.87900
C  2.03500 44.18500 22.21900
C  2.06700 43.87000 23.72200
C  0.32600 42.81500 20.82000
C  2.61000 45.59500 21.90300
C  4.16200 45.69100 21.80900
N  2.57800 43.34600 26.57400
C  3.55600 43.42100 25.64400
C  4.80800 43.29200 26.37800
C  4.46000 42.97400 27.67600
C  3.10600 43.07300 27.74200
C  6.15300 43.41400 25.74300
C  4.95700 42.55300 28.94500
O  6.07400 42.27100 29.31200
C  3.69600 42.54900 29.86900
C  3.78800 41.29300 30.69600
O  3.13000 40.26600 30.59500
O  4.67100 41.39600 31.75500
C  4.85200 40.15500 32.54100
H  -3.11200 42.90300 29.00800
H  -2.06400 43.79000 22.61400
H  4.15200 43.66800 23.65600
H  0.92700 41.69100 31.18900
H  -1.49900 43.18800 30.89900
H  -2.57600 40.91800 30.81900
H  -1.00400 40.61500 31.65800
H  -1.23900 40.26000 29.95200
H  -0.00200 44.53400 31.53800
H  1.63000 44.43500 30.91600
H  1.24500 44.53200 33.47600
H  2.67500 43.93300 32.57600
H  -5.43500 42.08700 26.47500
H  -5.94400 43.74500 26.87300
H  -5.08900 42.71800 28.02800
H  -6.42100 42.94200 24.16000
H  -6.63200 44.45000 23.28000
H  -6.41200 44.40600 25.04900
H  0.14800 44.80400 21.41200
H  2.76600 43.47900 21.82800
H  -0.54200 42.21600 21.09600
H  1.15800 42.11800 20.72200
H  0.04700 43.30600 19.88800
H  2.31800 46.31200 22.67000
H  2.26400 45.99500 20.95000
H  4.68300 44.74400 21.66700
H  4.56600 46.19600 22.68700
H  4.49000 46.25300 20.93400
H  6.05100 43.24200 24.67200
H  6.70800 42.60500 26.21800
H  6.64700 44.37100 25.91400
H  3.90100 43.43500 30.47000
H  5.08800 39.24800 31.98400
H  4.18400 40.03900 33.39500
H  5.75000 40.25300 33.15000

