158

Mg -1.95500 17.22400 25.33300
C  -2.59800 15.10400 28.15200
C  -3.04000 19.83200 27.19200
C  -2.30700 19.00200 22.46000
C  -1.37100 14.41200 23.35600
N  -2.77600 17.33400 27.41500
C  -2.84100 16.46300 28.42800
C  -3.19100 17.19000 29.74300
C  -3.66700 18.62300 29.28700
C  -3.11000 18.60500 27.86000
C  -5.19500 18.89100 29.34300
C  -2.10900 17.29900 30.92400
C  -2.77500 17.35000 32.30900
H  -2.42800 16.22200 33.31500
N  -2.29000 19.13200 24.86500
C  -2.66500 20.09500 25.80200
C  -2.51300 21.41400 25.18400
C  -2.36200 21.16200 23.84600
C  -2.34500 19.71700 23.66000
C  -2.59900 22.66300 26.00700
C  -2.18100 22.18900 22.68500
O  -2.17600 21.87000 21.50500
C  -2.06300 23.64400 23.03500
N  -1.93400 16.73800 23.21100
C  -2.22400 17.60600 22.23700
C  -2.04800 16.97200 20.85300
C  -1.33600 15.63400 21.18200
C  -1.46200 15.57200 22.70700
C  -3.39200 16.96500 20.06900
C  0.12100 15.32400 20.72800
C  1.26300 15.46600 21.75300
N  -2.03400 15.22200 25.63400
C  -1.62200 14.19200 24.75400
C  -1.57500 12.96000 25.52400
C  -1.97700 13.30400 26.75300
C  -2.21100 14.67900 26.86200
C  -1.37000 11.59100 25.05000
C  -2.21400 12.71400 28.02300
O  -2.18500 11.54300 28.38800
C  -2.74300 13.85600 28.94900
C  -1.82200 13.65600 30.13900
O  -0.61500 14.04800 30.24700
O  -2.47400 12.93400 31.08000
C  -1.77200 12.67400 32.37300
H  -3.46600 20.69200 27.71300
H  -2.24800 19.43000 21.45700
H  -1.16300 13.67600 22.57700
H  -4.07400 16.66700 30.10800
H  -3.24000 19.32800 30.00000
H  -5.32800 19.63900 30.12400
H  -5.62600 17.94800 29.68000
H  -5.57900 19.23400 28.38200
H  -1.57300 18.24600 30.98700
H  -1.41000 16.46300 30.89400
H  -3.85900 17.33800 32.19500
H  -2.47100 18.28500 32.77800
H  -2.64300 22.49200 27.08300
H  -3.40200 23.28600 25.61400
H  -1.64600 23.16200 25.82800
H  -1.13700 23.71900 23.60500
H  -2.86400 23.98500 23.69100
H  -1.85200 24.33700 22.22000
H  -1.35200 17.59100 20.28700
H  -1.93600 14.81200 20.79100
H  -4.01200 17.72400 20.54600
H  -3.85600 15.97900 20.04400
H  -3.13100 17.24800 19.04900
H  0.35200 16.07000 19.96700
H  0.20500 14.31300 20.33100
H  0.93300 16.12900 22.55300
H  2.11900 16.00000 21.34200
H  1.42900 14.52400 22.27600
H  -1.41400 11.66700 23.96400
H  -2.27000 11.15400 25.48400
H  -0.41900 11.14500 25.34100
H  -3.72800 13.45800 29.19200
H  -1.27500 11.71700 32.20900
H  -2.54600 12.63300 33.13900
H  -0.92200 13.29000 32.66600
Mg 8.61300 47.78200 25.80000
C  6.39500 47.65200 28.49100
C  11.08600 48.90200 27.94900
C  10.71300 47.83700 23.23200
C  5.89600 47.36900 23.69100
N  8.63500 48.37500 27.90300
C  7.68600 48.07500 28.86200
C  8.16800 48.38600 30.25600
C  9.51200 49.16100 29.96800
C  9.77000 48.81800 28.56000
C  9.50500 50.70300 30.17100
C  8.11100 47.18700 31.26500
C  9.11000 47.18300 32.43000
H  8.69100 46.56000 33.77500
N  10.65600 48.01800 25.68000
C  11.53000 48.48800 26.64200
C  12.83100 48.41700 26.05500
C  12.77300 48.02200 24.73200
C  11.35100 47.96000 24.47100
C  14.04200 48.73300 26.89400
C  13.86600 47.79100 23.62000
O  13.68400 47.51900 22.45200
C  15.34100 47.81900 24.02300
N  8.30100 47.76700 23.75700
C  9.36100 47.75500 22.88200
C  8.89200 47.70100 21.43000
C  7.33800 47.58700 21.56400
C  7.14100 47.55100 23.10100
C  9.38900 48.87800 20.60500
C  6.66900 46.37100 20.86700
C  5.75700 46.61300 19.64600
N  6.57200 47.58400 25.95700
C  5.58700 47.38100 25.02800
C  4.28800 47.14100 25.66900
C  4.62500 47.21900 27.03500
C  6.00600 47.52100 27.16900
C  2.93300 46.97300 25.08400
C  3.94500 47.14700 28.34400
O  2.74800 46.93400 28.53000
C  5.11000 47.42500 29.35500
C  5.05100 46.36000 30.37700
O  5.62500 45.32200 30.38800
O  4.17700 46.75800 31.39000
C  4.42300 46.28300 32.75400
H  11.85100 49.15300 28.68700
H  11.39100 47.97700 22.38700
H  5.08100 47.25800 22.97300
H  7.49000 49.17600 30.57900
H  10.39400 48.75900 30.46500
H  9.20700 51.05600 29.18400
H  10.42800 51.13400 30.56100
H  8.83600 50.95400 30.99400
H  8.05300 46.24400 30.72200
H  7.17000 47.41000 31.76800
H  9.42600 48.22300 32.50900
H  9.96400 46.57700 32.12700
H  14.68700 49.39500 26.31600
H  14.64000 47.85100 27.12400
H  13.76900 49.17800 27.85100
H  15.47800 46.93500 24.64600
H  15.62100 48.72100 24.56600
H  16.08800 47.64900 23.24800
H  9.34300 46.81100 20.99200
H  6.73900 48.47600 21.36600
H  9.71800 48.40600 19.68000
H  10.10300 49.52100 21.12000
H  8.49000 49.42500 20.32000
H  6.17300 45.81100 21.66000
H  7.49800 45.71400 20.60200
H  6.05500 45.89100 18.88500
H  5.84500 47.62300 19.24600
H  4.73100 46.44200 19.97300
H  3.08000 46.53400 24.09800
H  2.54600 47.98700 24.98000
H  2.43700 46.23300 25.71200
H  4.92300 48.38500 29.83700
H  3.65900 45.59100 33.11000
H  4.57300 47.06900 33.49500
H  5.36500 45.73900 32.82700

