158

Mg 36.48500 49.27900 24.91900
C  36.15200 47.45500 27.79000
C  35.30300 52.09000 26.40200
C  36.32600 50.73500 21.86400
C  37.35200 46.20000 23.26600
N  35.61100 49.66400 26.88800
C  35.86700 48.83700 27.99300
C  35.41800 49.54200 29.26200
C  35.18800 51.06300 28.78000
C  35.45200 50.95200 27.23000
C  33.73500 51.77800 29.13400
C  36.36900 49.38800 30.56300
C  35.77700 48.87400 31.93500
H  34.26400 49.03700 32.18000
N  35.83600 51.12900 24.23800
C  35.46500 52.16500 24.99900
C  35.17400 53.31200 24.25200
C  35.36200 52.97100 22.85900
C  35.86800 51.62200 22.94200
C  34.60400 54.59700 24.92400
C  35.25100 53.80300 21.67000
O  35.40900 53.38400 20.51600
C  34.95800 55.26300 21.75200
N  37.03600 48.62000 22.83400
C  36.70800 49.41100 21.83800
C  37.08500 48.74900 20.52400
C  37.75400 47.41000 21.01300
C  37.40400 47.34300 22.45800
C  35.89900 48.58100 19.62100
C  39.30900 47.36900 20.73200
C  40.27500 48.01600 21.68900
N  36.79400 47.29100 25.41000
C  37.17200 46.15700 24.65100
C  37.28400 44.96600 25.54800
C  36.76000 45.41100 26.78700
C  36.56800 46.85400 26.63700
C  37.63800 43.53100 25.13400
C  36.41800 45.08600 28.15100
O  36.51000 44.03000 28.79100
C  36.08900 46.42300 28.88900
C  34.85200 46.27400 29.75500
O  33.75700 46.66600 29.55200
O  35.18800 45.46400 30.79300
C  34.07700 45.05900 31.61900
H  35.14900 53.02600 26.94400
H  36.11700 51.16500 20.88200
H  37.72100 45.29300 22.78200
H  34.45100 49.15000 29.58000
H  35.98000 51.71500 29.14800
H  33.12800 51.84700 28.23100
H  33.78900 52.71900 29.68300
H  33.32500 51.03000 29.81300
H  36.88400 50.30400 30.85400
H  37.15500 48.72100 30.20700
H  36.33800 49.28600 32.77400
H  35.97700 47.80400 31.88900
H  33.97000 55.22400 24.29700
H  35.36100 55.21100 25.41200
H  33.86400 54.32500 25.67700
H  33.90500 55.19100 22.02500
H  35.05900 55.78000 20.79800
H  35.52600 55.79900 22.51100
H  37.85900 49.37600 20.08100
H  37.45700 46.47000 20.54700
H  35.05900 49.24400 19.82900
H  35.48600 47.57200 19.61800
H  36.10600 48.83100 18.58000
H  39.40000 47.70400 19.69900
H  39.48900 46.29500 20.76700
H  39.83700 48.72100 22.39600
H  41.11600 48.48100 21.17400
H  40.64600 47.13000 22.20500
H  38.69200 43.27400 25.03400
H  37.19300 43.28600 24.17000
H  37.21800 42.86100 25.88400
H  36.84800 46.71100 29.61600
H  33.09500 44.98700 31.15200
H  34.09400 45.73000 32.47800
H  34.33300 44.06500 31.98500
Mg 16.46500 52.33100 25.83900
C  18.23200 50.89300 28.57600
C  13.92500 53.18700 28.12300
C  14.74100 53.63500 23.31900
C  18.87100 51.11300 23.76900
N  16.10700 52.00200 28.07900
C  17.08700 51.57400 28.96300
C  16.65400 51.91500 30.50400
C  15.12200 52.28600 30.30000
C  15.02200 52.51800 28.76200
C  14.10800 51.34000 30.83400
C  17.50700 53.04200 31.16800
C  17.99600 52.81300 32.56900
H  17.02400 51.94200 33.37400
N  14.57500 53.24600 25.70600
C  13.71000 53.61700 26.74900
C  12.65500 54.50200 26.18000
C  12.95500 54.61100 24.76100
C  14.12700 53.78200 24.57300
C  11.57800 55.07900 27.03300
C  12.21200 55.38600 23.73500
O  12.56900 55.54300 22.56000
C  10.95900 56.10900 24.13900
N  16.67600 52.25300 23.83500
C  15.84100 52.92200 22.96100
C  16.36800 52.96400 21.52800
C  17.66800 52.05000 21.66200
C  17.73800 51.78400 23.21000
C  15.39800 52.52300 20.45900
C  18.95400 52.64600 21.15100
C  19.84000 51.60600 20.44900
N  18.19900 51.28800 26.00900
C  19.04600 50.78300 25.09300
C  20.15000 50.09900 25.70100
C  19.81100 50.15600 27.09400
C  18.58300 50.81900 27.25000
C  21.29500 49.43500 25.06100
C  20.27600 49.63400 28.29200
O  21.17700 48.91800 28.64600
C  19.29500 50.17400 29.33000
C  18.67300 49.14400 30.14500
O  17.65400 48.49800 29.90700
O  19.38400 48.97700 31.28200
C  18.63500 48.18400 32.31600
H  13.05700 53.44100 28.73600
H  14.41500 54.18800 22.43500
H  19.58500 50.68600 23.06200
H  16.74800 51.02000 31.11900
H  15.00600 53.27600 30.74000
H  13.35300 52.02300 31.22200
H  14.66500 50.82800 31.61900
H  13.76500 50.62600 30.08400
H  16.96300 53.98400 31.23400
H  18.39400 53.16600 30.54700
H  18.15500 53.77100 33.06300
H  18.99600 52.38400 32.49600
H  11.70100 56.16200 27.04800
H  11.59300 54.74000 28.06900
H  10.55600 54.88600 26.70800
H  10.95100 56.79900 24.98300
H  10.35600 55.21500 24.30000
H  10.46000 56.64500 23.33200
H  16.61100 54.02500 21.47100
H  17.39500 51.05800 21.30000
H  15.09300 53.35400 19.82300
H  14.55000 52.06300 20.96700
H  15.82800 51.70500 19.88100
H  19.55600 53.03700 21.97200
H  18.62300 53.49800 20.55700
H  19.85100 51.91900 19.40500
H  19.39800 50.61100 20.49600
H  20.74700 51.60700 21.05200
H  21.77800 50.18700 24.43800
H  20.89300 48.65500 24.41400
H  21.96000 49.11900 25.86500
H  19.85000 50.91400 29.90700
H  17.60800 48.52400 32.44800
H  19.19200 48.25700 33.25000
H  18.59200 47.17400 31.90900

