158

Mg 51.40600 45.73500 41.88700
C  48.68500 47.02600 40.29200
C  50.48000 42.47800 41.06500
C  54.72000 44.67800 42.41000
C  52.64600 48.97700 42.47500
N  49.73600 44.84900 40.79700
C  48.68900 45.62600 40.35900
C  47.61300 44.67200 39.91600
C  48.10900 43.19900 40.28600
C  49.52900 43.46900 40.81800
C  47.28500 42.36300 41.27400
C  47.26100 44.91800 38.37600
C  45.78800 44.68000 38.11200
H  45.31700 43.40400 37.35200
N  52.47300 43.74800 41.85400
C  51.88700 42.61900 41.43700
C  52.85800 41.56600 41.40900
C  54.11900 42.14600 41.82700
C  53.83800 43.54300 42.08100
C  52.48700 40.05700 41.07400
C  55.34400 41.33900 42.02400
O  55.30200 40.13100 41.71400
C  56.52400 41.98600 42.62700
N  53.40100 46.71100 42.17600
C  54.46500 46.05300 42.59900
C  55.59400 46.97400 43.02200
C  54.93900 48.30000 43.23800
C  53.56700 48.00100 42.57800
C  56.47800 46.50100 44.17900
C  55.66000 49.57800 42.62600
C  56.10100 50.65600 43.70400
N  50.78300 47.60800 41.47500
C  51.39900 48.79400 41.84600
C  50.54000 49.87400 41.39000
C  49.42000 49.21900 40.84400
C  49.64900 47.85100 40.89400
C  50.85700 51.35700 41.38100
C  48.17700 49.40900 40.14100
O  47.60500 50.44100 39.74300
C  47.64900 47.95800 39.69600
C  46.22200 47.87500 40.16700
O  45.77700 47.69200 41.26700
O  45.45400 47.89500 39.08600
C  44.03700 47.76400 39.32600
H  50.18900 41.43900 40.89600
H  55.79200 44.47300 42.35600
H  52.92200 49.97400 42.82300
H  46.79600 44.99000 40.56300
H  48.13400 42.71500 39.31000
H  46.40000 42.93300 41.55800
H  47.86100 42.23700 42.19100
H  46.95000 41.43500 40.81100
H  47.78900 44.14600 37.81600
H  47.52300 45.88500 37.94700
H  45.45100 45.55200 37.55200
H  45.26600 44.76100 39.06500
H  52.84400 39.48000 41.92700
H  52.94400 39.63900 40.17800
H  51.42800 39.90000 40.86900
H  56.25400 42.66000 43.43900
H  56.94400 42.54800 41.79300
H  57.33400 41.29400 42.86000
H  56.28000 46.90000 42.17800
H  54.70700 48.47900 44.28800
H  56.46500 47.29500 44.92500
H  57.48900 46.32200 43.81300
H  56.05000 45.55000 44.49700
H  55.02200 50.11000 41.91900
H  56.55200 49.20900 42.12000
H  55.60900 51.58400 43.41100
H  57.18400 50.69400 43.82100
H  55.69800 50.31600 44.65800
H  50.25900 51.89200 40.64300
H  51.92100 51.47600 41.17400
H  50.66300 51.75800 42.37600
H  47.73900 47.91200 38.61000
H  43.47800 47.36000 38.48200
H  43.62500 48.76800 39.43100
H  43.66100 47.14500 40.14100
Mg 30.90100 59.23900 39.30200
C  28.26500 57.08800 38.27300
C  33.03500 56.66200 38.56100
C  33.40700 61.40600 39.82200
C  28.62300 61.73300 39.59400
N  30.60700 57.14900 38.55400
C  29.51500 56.49600 38.18200
C  29.71400 54.99600 37.91000
C  31.28200 54.83300 38.26100
C  31.69100 56.32600 38.44100
C  31.50100 54.11800 39.64800
C  29.34500 54.67800 36.38200
C  29.71400 55.63100 35.15600
H  28.60000 55.90100 34.12100
N  32.90100 59.05800 39.22400
C  33.61700 57.91100 38.93400
C  35.07500 58.14300 38.98200
C  35.23100 59.50300 39.45300
C  33.83600 60.09200 39.50200
C  36.05300 57.13300 38.45100
C  36.59200 60.13900 39.77800
O  37.54300 59.47400 40.02400
C  36.72600 61.64300 40.05400
N  31.01800 61.29400 39.65900
C  32.15000 62.01200 39.87400
C  31.89000 63.51600 39.95100
C  30.37000 63.54000 39.95000
C  29.95200 62.11500 39.65400
C  32.47600 64.11600 41.24100
C  29.86200 64.48000 38.83100
C  28.41600 65.03100 39.14700
N  28.84600 59.43800 39.09400
C  28.05000 60.50500 39.29400
C  26.64600 60.18900 39.08700
C  26.70400 58.84700 38.71900
C  28.06400 58.41400 38.71200
C  25.55200 61.09300 39.29900
C  25.89000 57.69900 38.32500
O  24.66700 57.66600 38.16800
C  26.88400 56.52000 38.06100
C  26.46000 55.27600 38.85200
O  26.95200 54.95500 39.98700
O  25.36400 54.67300 38.29700
C  24.58200 53.77000 39.07300
H  33.74600 55.83500 38.50600
H  34.11600 62.19400 40.08300
H  27.79400 62.43600 39.69400
H  29.13100 54.36300 38.58000
H  31.78600 54.30700 37.44900
H  31.98400 54.80700 40.34100
H  32.25600 53.34400 39.51200
H  30.53600 53.73800 39.98200
H  28.26100 54.56600 36.34300
H  29.66700 53.66500 36.13900
H  30.54200 55.10200 34.68500
H  30.12400 56.61700 35.37400
H  36.54900 57.59400 37.59700
H  35.62400 56.23100 38.01600
H  36.79000 56.93500 39.23000
H  37.74900 61.94900 40.27000
H  36.13800 61.74400 40.96600
H  36.33300 62.08300 39.13700
H  32.44500 64.00200 39.14800
H  29.89600 63.76700 40.90500
H  33.17300 64.93800 41.07800
H  32.92000 63.40400 41.93600
H  31.72500 64.71600 41.75500
H  29.79200 63.92700 37.89400
H  30.54900 65.31600 38.70100
H  28.03300 64.67700 40.10400
H  27.73000 64.77200 38.34000
H  28.41500 66.10400 39.34000
H  24.59200 60.61100 39.11600
H  25.71200 61.75800 38.45000
H  25.62100 61.53700 40.29200
H  26.68900 56.45000 36.99100
H  25.10500 52.84600 39.32100
H  23.69700 53.58800 38.46300
H  24.25400 54.38400 39.91300

