158

Mg 57.21400 23.31500 45.16700
C  55.34100 25.96600 44.20600
C  54.98500 21.09400 43.66300
C  59.60000 20.74500 45.47400
C  59.74900 25.53200 46.22800
N  55.49400 23.52100 43.97000
C  54.85600 24.74100 43.71200
C  53.47700 24.51500 43.05600
C  53.21800 22.97500 43.34100
C  54.66300 22.48000 43.68500
C  52.16800 22.55500 44.38000
C  53.66700 24.91400 41.60800
C  52.65800 25.85500 40.98300
H  51.64600 25.36200 39.94200
N  57.28600 21.21700 44.71300
C  56.21500 20.55000 44.09000
C  56.58200 19.22600 44.04500
C  57.79600 19.06800 44.70400
C  58.28900 20.36000 45.03500
C  55.52900 18.20500 43.47700
C  58.42200 17.66500 44.95800
O  57.97400 16.73600 44.30400
C  59.66000 17.47500 45.81800
N  59.37300 23.13800 45.58900
C  60.07600 22.03800 45.78800
C  61.47500 22.19100 46.34900
C  61.59600 23.77500 46.33200
C  60.13800 24.20700 46.04700
C  61.68700 21.47800 47.65300
C  62.57100 24.37000 45.23400
C  64.08300 24.28500 45.60700
N  57.43900 25.34400 45.34800
C  58.47600 26.15200 45.83700
C  58.02500 27.50300 45.93900
C  56.78100 27.51100 45.27200
C  56.55100 26.16900 44.89700
C  58.72700 28.72200 46.61200
C  55.65700 28.31100 44.89300
O  55.52000 29.51800 45.04700
C  54.76000 27.34900 44.07100
C  54.63400 27.95500 42.73800
O  55.46400 27.89400 41.88800
O  53.42500 28.65700 42.61500
C  53.22800 29.33300 41.31300
H  54.15800 20.49400 43.27700
H  60.34000 19.97700 45.70900
H  60.46500 26.29200 46.54800
H  52.61800 25.03700 43.47700
H  52.91600 22.52000 42.39700
H  51.49200 21.80300 43.97300
H  51.57900 23.40500 44.72600
H  52.69200 22.16700 45.25400
H  53.65300 24.06700 40.92300
H  54.68200 25.27900 41.45200
H  53.32000 26.61300 40.56500
H  52.05400 26.40900 41.70100
H  55.45000 18.43600 42.41500
H  54.54600 18.33300 43.93200
H  55.76700 17.14200 43.46400
H  60.57100 17.76500 45.29500
H  59.77100 16.42800 46.09800
H  59.45500 18.09300 46.69200
H  61.99400 21.60700 45.58900
H  61.91500 24.18200 47.29200
H  62.74100 21.20100 47.69300
H  61.00100 20.63300 47.69800
H  61.47500 22.13900 48.49300
H  62.37600 25.40900 44.96700
H  62.45200 23.86700 44.27500
H  64.58400 23.34300 45.38500
H  64.14900 24.48300 46.67700
H  64.63900 25.02600 45.03300
H  59.78800 28.50600 46.73400
H  58.31400 28.78000 47.62000
H  58.61500 29.66000 46.06700
H  53.77600 27.36300 44.54000
H  54.20300 29.53600 40.87100
H  52.64400 30.25100 41.37800
H  52.63000 28.73900 40.62200
Mg 42.42500 40.91100 26.36500
C  41.68000 43.06100 29.03200
C  43.62700 38.60000 28.58100
C  43.15000 38.90900 23.76800
C  41.61300 43.44000 24.13300
N  42.77000 40.97800 28.53100
C  42.31600 41.88400 29.42200
C  42.47500 41.42400 30.96400
C  43.17300 40.07600 30.73900
C  43.15300 39.84700 29.12800
C  44.57100 39.88700 31.43300
C  41.14200 41.33200 31.73800
C  41.16700 41.94100 33.13900
H  40.54200 41.12100 34.21100
N  43.21300 38.95100 26.21900
C  43.68000 38.17800 27.20100
C  44.06800 36.91100 26.73100
C  43.81200 36.87800 25.32300
C  43.44200 38.25700 25.03500
C  44.56700 35.84300 27.66800
C  44.08600 35.84300 24.29300
O  43.88100 35.95600 23.09300
C  44.58900 34.61500 24.85700
N  42.41100 41.08000 24.26900
C  42.74500 40.18900 23.40400
C  42.62800 40.64400 21.94700
C  42.00700 42.06700 21.97800
C  41.98600 42.21500 23.56100
C  43.95400 40.70300 21.20300
C  40.64300 42.18800 21.30700
C  40.48600 43.43500 20.45200
N  41.86400 42.91000 26.47900
C  41.49700 43.82700 25.50500
C  41.05900 45.02300 26.07500
C  40.94000 44.66700 27.46100
C  41.59200 43.44600 27.66000
C  40.73500 46.30300 25.37000
C  40.47300 45.17700 28.75600
O  39.91200 46.23600 29.00100
C  41.15700 44.20400 29.81300
C  42.23400 44.97200 30.50100
O  43.35900 45.07000 30.15000
O  41.74800 45.12400 31.75900
C  42.77100 45.62300 32.72800
H  43.74100 37.83400 29.35200
H  43.30100 38.25800 22.90400
H  41.33700 44.21500 23.41400
H  43.05600 42.22900 31.41400
H  42.54200 39.27100 31.11700
H  45.37300 40.27700 30.80700
H  44.67400 38.84900 31.74800
H  44.44500 40.43500 32.36700
H  40.90600 40.27200 31.83000
H  40.40600 41.83400 31.10900
H  40.76300 42.95100 33.06200
H  42.20000 42.09900 33.44900
H  44.01700 34.91700 27.50000
H  44.58200 36.10600 28.72600
H  45.60600 35.63000 27.41800
H  43.82400 34.32800 25.57900
H  45.58300 34.85500 25.23500
H  44.78800 33.94100 24.02400
H  41.95500 39.98900 21.39400
H  42.71500 42.73400 21.48700
H  44.77500 40.59700 21.91100
H  44.08100 41.63800 20.65700
H  43.90400 39.86500 20.50700
H  39.88800 42.30500 22.08500
H  40.56100 41.26600 20.73100
H  39.41400 43.61900 20.38800
H  40.82200 43.29800 19.42400
H  41.01100 44.28900 20.88000
H  41.26200 46.26000 24.41700
H  40.97700 47.19000 25.95500
H  39.68200 46.10700 25.16500
H  40.35300 43.86100 30.46400
H  42.74400 46.70000 32.56200
H  43.75600 45.23800 32.46300
H  42.53900 45.50400 33.78600

