158

Mg 54.56100 24.44500 44.37900
C  51.49300 26.16800 44.09900
C  52.67000 21.45600 44.14900
C  57.23900 22.87700 43.17300
C  56.18000 27.53100 43.84900
N  52.32700 23.89200 44.05700
C  51.29900 24.76600 44.01700
C  50.03000 24.00100 44.30500
C  50.43300 22.55400 44.59200
C  51.89700 22.60000 44.16800
C  50.26600 22.06200 46.06400
C  48.96100 24.10400 43.07400
C  49.38900 23.46400 41.74800
H  49.82300 24.36700 40.55600
N  54.96000 22.42700 43.84300
C  54.04700 21.38700 43.90500
C  54.82200 20.21700 43.55400
C  56.12000 20.63500 43.02100
C  56.15100 22.01400 43.32700
C  54.23200 18.81000 43.52600
C  57.16300 19.77800 42.37700
O  57.02000 18.56900 42.47000
C  58.35000 20.24700 41.55600
N  56.35900 25.05400 43.44300
C  57.36000 24.23500 43.33800
C  58.65200 24.98600 42.84700
C  58.33400 26.48600 43.08000
C  56.84600 26.38000 43.49800
C  59.88200 24.42300 43.54900
C  58.47100 27.27400 41.77300
C  59.61200 28.31900 41.76700
N  54.01400 26.48600 44.21600
C  54.79700 27.58200 44.13200
C  53.95500 28.71900 44.43400
C  52.68600 28.18900 44.46800
C  52.75600 26.84000 44.22100
C  54.47100 30.15200 44.67300
C  51.31000 28.48900 44.66900
O  50.76300 29.53600 45.01200
C  50.52600 27.33400 44.23200
C  49.83800 27.76100 42.94800
O  50.39800 27.94400 41.88700
O  48.46100 27.75200 43.02700
C  47.54300 28.00500 41.88000
H  52.10000 20.53000 44.25200
H  58.18100 22.41200 42.87400
H  56.66600 28.50900 43.87100
H  49.58600 24.45700 45.19000
H  49.87900 21.84300 43.98100
H  49.75100 21.10300 46.00800
H  49.74600 22.88000 46.56300
H  51.17600 21.94300 46.65300
H  48.93100 25.16900 42.84300
H  47.91500 23.90900 43.31400
H  48.57200 22.82700 41.41000
H  50.22500 22.80700 41.98800
H  54.50500 18.21600 42.65400
H  53.14400 18.79800 43.46200
H  54.55100 18.20000 44.37100
H  57.91400 21.12400 41.07700
H  58.74800 19.39100 41.01000
H  59.01600 20.60800 42.34000
H  58.75000 24.79100 41.77900
H  58.83600 26.97200 43.91600
H  60.68100 24.45800 42.80900
H  59.70700 23.46000 44.02800
H  60.18000 25.10800 44.34300
H  57.60000 27.88700 41.53900
H  58.71100 26.65700 40.90700
H  59.12900 29.27400 41.56200
H  60.40000 28.14300 41.03600
H  60.03700 28.38500 42.76900
H  55.23800 30.18300 45.44600
H  53.68100 30.75700 45.11700
H  54.91900 30.66500 43.82200
H  49.84300 27.01800 45.02100
H  46.67300 28.45600 42.35800
H  47.25900 27.01200 41.53100
H  47.91400 28.58500 41.03500
Mg -10.69800 16.95900 40.17400
C  -7.27700 16.85400 39.91300
C  -10.59800 20.32900 39.64700
C  -14.10600 16.87100 40.03200
C  -10.72100 13.34200 40.00100
N  -9.12300 18.35400 39.65100
C  -7.79000 18.06600 39.60500
C  -7.01600 19.28200 39.14000
C  -8.00300 20.45400 39.50300
C  -9.36700 19.71400 39.66200
C  -7.56900 21.21300 40.77800
C  -6.69000 19.26500 37.66800
C  -5.17900 19.33800 37.24000
H  -4.66500 17.92900 36.71000
N  -12.14400 18.43700 39.80900
C  -11.92900 19.77400 39.53400
C  -13.21700 20.46300 39.39200
C  -14.24700 19.54000 39.63500
C  -13.49300 18.18600 39.77500
C  -13.18700 21.92100 39.13400
C  -15.81400 19.78200 39.78000
O  -16.22900 20.94800 39.76800
C  -16.78700 18.62200 39.76600
N  -12.21800 15.32700 40.02200
C  -13.53100 15.57700 40.13500
C  -14.38800 14.32600 40.18200
C  -13.38000 13.23300 39.87100
C  -12.01400 13.95200 39.94900
C  -15.17900 14.12900 41.44400
C  -13.43600 12.53500 38.38600
C  -13.26700 11.04700 38.41700
N  -9.35300 15.38900 40.12900
C  -9.42800 14.02200 40.10400
C  -8.10200 13.43500 40.22600
C  -7.19700 14.54000 40.20800
C  -8.04600 15.70500 40.09000
C  -7.68400 11.98600 40.01800
C  -5.81800 14.94800 40.18900
O  -4.81100 14.29900 40.38200
C  -5.76300 16.49200 40.04600
C  -5.21300 17.21200 41.23700
O  -5.72900 17.17900 42.32100
O  -4.09400 17.88600 40.88600
C  -3.32000 18.66500 41.92200
H  -10.51400 21.39200 39.41200
H  -15.18500 16.94700 40.18400
H  -10.72200 12.25000 39.99200
H  -6.10600 19.19600 39.73400
H  -8.20200 21.14100 38.68100
H  -7.09000 20.62600 41.56200
H  -8.46400 21.64800 41.22100
H  -6.98100 22.04900 40.39900
H  -7.11500 20.15500 37.20500
H  -7.07500 18.30900 37.31300
H  -4.46500 19.63800 38.00800
H  -4.99100 20.11200 36.49600
H  -14.13000 22.41200 39.36900
H  -12.88700 22.02600 38.09100
H  -12.54200 22.54400 39.75400
H  -16.44100 17.99800 38.94200
H  -17.74600 19.05100 39.47500
H  -17.02500 18.23400 40.75600
H  -15.07000 14.38600 39.33400
H  -13.27400 12.47100 40.64300
H  -16.24500 14.03400 41.23700
H  -15.26000 15.06800 41.99200
H  -14.79900 13.22400 41.91800
H  -12.70100 12.94900 37.69700
H  -14.41600 12.81900 38.00200
H  -14.05800 10.50800 37.89500
H  -12.96900 10.80600 39.43700
H  -12.38300 10.81100 37.82400
H  -7.82900 11.52800 40.99600
H  -6.69100 12.00500 39.56900
H  -8.42300 11.52600 39.36200
H  -5.13000 16.83500 39.22800
H  -3.57500 19.71900 41.81000
H  -2.27900 18.49800 41.64700
H  -3.54900 18.29000 42.91900

