158

Mg 17.12000 -0.56900 27.21600
C  16.26100 1.23300 30.20000
C  19.02300 -2.51600 29.13200
C  18.18100 -1.92400 24.39300
C  15.36400 1.79600 25.39900
N  17.59100 -0.58600 29.48500
C  17.10700 0.16200 30.51600
C  17.75800 -0.26600 31.87000
C  18.78100 -1.42000 31.38900
C  18.36500 -1.58900 29.91600
C  20.27500 -1.25600 31.68900
C  16.78900 -0.78500 32.92800
C  16.99000 -0.12100 34.29300
H  18.42800 0.16600 34.78900
N  18.38500 -2.01600 26.83100
C  19.04000 -2.72700 27.76400
C  19.80400 -3.72200 27.08300
C  19.60300 -3.63100 25.70300
C  18.60300 -2.53900 25.57800
C  20.68500 -4.70200 27.81200
C  20.19700 -4.39600 24.52500
O  19.93800 -4.20400 23.34600
C  21.08600 -5.51900 24.72400
N  16.88800 -0.02600 25.20100
C  17.42800 -0.72900 24.16100
C  17.16000 -0.09900 22.77200
C  16.11400 0.93700 23.06000
C  16.09100 0.93000 24.64900
C  18.35000 0.63400 22.21200
C  14.67200 0.67600 22.56200
C  14.18600 1.73000 21.57000
N  15.86700 1.05800 27.65000
C  15.31500 1.98000 26.78200
C  14.76000 3.02800 27.56800
C  14.95000 2.69800 28.90800
C  15.73000 1.56400 28.90200
C  14.10000 4.23200 26.99800
C  14.66700 3.13700 30.35700
O  14.04500 4.04600 30.83100
C  15.58900 2.21500 31.17800
C  16.59300 2.93300 31.99200
O  17.77400 3.13100 31.66500
O  16.05200 3.24800 33.24300
C  16.88900 3.87800 34.28600
H  19.65000 -3.27100 29.61000
H  18.59300 -2.30300 23.45600
H  14.70400 2.54100 24.94800
H  18.26800 0.59600 32.30100
H  18.47100 -2.35100 31.86400
H  20.64700 -2.22700 32.01500
H  20.57000 -0.40600 32.30400
H  20.86400 -1.03600 30.79800
H  16.66700 -1.83200 33.20700
H  15.79600 -0.41700 32.66900
H  16.49100 -0.71000 35.06200
H  16.51100 0.85800 34.28600
H  20.36900 -5.69900 27.50600
H  20.65600 -4.78400 28.89800
H  21.73600 -4.50400 27.60100
H  22.08200 -5.32200 25.12000
H  21.21800 -6.10200 23.81200
H  20.51900 -6.23300 25.32100
H  16.87000 -0.87000 22.05800
H  16.40500 1.95900 22.81800
H  18.20400 1.59800 21.72500
H  18.87700 -0.05800 21.55500
H  19.06000 0.73700 23.03300
H  13.90900 0.46900 23.31200
H  14.83100 -0.21200 21.95000
H  13.56500 2.39500 22.17000
H  13.61000 1.29300 20.75400
H  15.07300 2.19500 21.14000
H  13.04600 3.95900 26.95200
H  14.39300 4.42700 25.96700
H  14.33800 5.15700 27.52400
H  14.98700 1.66500 31.90200
H  16.42500 4.62900 34.92500
H  17.79100 4.25500 33.80400
H  17.40600 3.17200 34.93600
Mg 41.42300 8.96400 29.20800
C  43.31900 9.91600 31.84800
C  39.05700 7.55200 31.33700
C  39.77600 7.77800 26.56200
C  44.20700 9.66100 26.98100
N  41.18600 8.77700 31.35800
C  42.01500 9.42800 32.25600
C  41.35500 9.32700 33.64700
C  40.06700 8.46600 33.50100
C  40.09600 8.28900 31.95900
C  40.11900 7.14600 34.24700
C  41.07400 10.65100 34.25600
C  41.79400 10.90900 35.55100
H  41.34800 12.09000 36.43900
N  39.63400 7.93000 29.00300
C  38.82300 7.36200 29.96600
C  37.77900 6.62700 29.36400
C  37.86600 6.82100 27.96700
C  39.16600 7.56000 27.82600
C  36.66000 5.91300 30.23700
C  36.88900 6.38500 26.83500
O  37.16700 6.51100 25.63900
C  35.61700 5.69700 27.22300
N  41.97800 8.64100 27.05100
C  41.06500 8.18000 26.16700
C  41.50900 8.15400 24.75200
C  42.83100 9.02200 24.89700
C  43.04600 9.12600 26.39600
C  41.46400 6.79700 24.01000
C  42.77200 10.38500 24.12200
C  41.79700 11.47200 24.55300
N  43.39200 9.52100 29.31700
C  44.35200 9.90500 28.35300
C  45.50200 10.44200 29.03400
C  45.20900 10.53000 30.38500
C  43.90000 9.86500 30.49600
C  46.79200 10.91500 28.34600
C  45.61600 10.86300 31.74500
O  46.63400 11.45800 32.16200
C  44.44800 10.43900 32.75600
C  45.00600 9.36900 33.62500
O  45.38600 8.31600 33.23700
O  44.98000 9.72600 34.95700
C  45.61300 8.81700 35.90300
H  38.30200 7.21600 32.05100
H  39.16400 7.54100 25.68900
H  44.93100 10.04200 26.25700
H  42.03200 8.79200 34.31200
H  39.12800 8.87700 33.87100
H  39.12800 6.94900 34.65700
H  40.85200 7.23500 35.04900
H  40.43000 6.38100 33.53600
H  40.02100 10.59900 34.53000
H  41.13800 11.44600 33.51300
H  42.77100 11.28300 35.24700
H  41.97900 10.05400 36.20100
H  35.77800 6.55200 30.26200
H  36.98000 5.74100 31.26500
H  36.35100 4.98200 29.76200
H  35.05200 5.58300 26.29700
H  35.05400 6.27500 27.95500
H  35.95400 4.77900 27.70500
H  40.83000 8.81600 24.21500
H  43.68900 8.48000 24.49900
H  42.47500 6.48300 23.74700
H  40.82900 6.84500 23.12500
H  40.95200 6.06000 24.62900
H  42.69300 10.11200 23.07000
H  43.72400 10.89200 24.27600
H  40.95600 11.51000 23.86100
H  42.36300 12.40300 24.53700
H  41.56900 11.37000 25.61400
H  46.55200 11.90500 27.95800
H  47.05200 10.23600 27.53300
H  47.61000 10.87700 29.06500
H  44.12500 11.28900 33.35700
H  44.76500 8.37300 36.42400
H  46.09900 9.51400 36.58600
H  46.29800 8.06100 35.51900

