158

Mg -1.62100 34.64200 26.06000
C  -3.23000 32.76800 28.54500
C  -0.50400 36.82300 28.52700
C  -0.18700 36.44600 23.65100
C  -3.00500 32.56800 23.70600
N  -1.85700 34.70800 28.27000
C  -2.64700 33.89600 29.08500
C  -2.46100 34.33400 30.54600
C  -1.71700 35.64400 30.48700
C  -1.34200 35.73800 28.95400
C  -2.55000 36.87700 30.98500
C  -1.74000 33.17200 31.27800
C  -2.30000 32.72200 32.66900
H  -1.29400 32.63700 33.91600
N  -0.48700 36.37000 26.13400
C  -0.07900 37.13700 27.22400
C  0.74200 38.26700 26.83500
C  0.80000 38.16900 25.39700
C  -0.01900 36.93800 24.99800
C  1.32000 39.26800 27.81400
C  1.52200 39.10000 24.42400
O  1.46200 38.97200 23.21600
C  2.09100 40.37900 24.96900
N  -1.74300 34.67100 23.96100
C  -0.93000 35.41400 23.19500
C  -1.10100 35.18000 21.74700
C  -1.95600 33.86500 21.73000
C  -2.28800 33.67400 23.23200
C  -1.83200 36.31000 20.93700
C  -1.25400 32.59100 21.17500
C  0.02300 32.23900 21.92700
N  -2.91300 33.03700 26.08000
C  -3.35900 32.29000 25.04000
C  -4.16100 31.21300 25.44600
C  -4.22500 31.35400 26.88000
C  -3.36300 32.43700 27.20800
C  -5.03600 30.36000 24.57700
C  -4.87900 30.95000 28.13600
O  -5.69900 30.03100 28.27300
C  -4.13600 31.79100 29.27500
C  -5.19800 32.50900 30.09500
O  -5.93400 33.42200 29.70300
O  -5.29100 32.05900 31.35000
C  -6.26800 32.56200 32.30400
H  -0.04600 37.37300 29.35100
H  0.45500 36.94600 22.92200
H  -3.41700 31.86400 22.98000
H  -3.49800 34.39200 30.87500
H  -0.80000 35.55700 31.06900
H  -2.67300 37.71600 30.30000
H  -2.03500 37.31800 31.83900
H  -3.54000 36.64600 31.37900
H  -0.72100 33.49600 31.48800
H  -1.50100 32.29100 30.68300
H  -2.78400 31.74600 32.61500
H  -3.05600 33.48000 32.87600
H  2.24300 39.72000 27.45100
H  1.38800 38.91700 28.84400
H  0.58800 40.07400 27.78000
H  2.29200 41.03200 24.11900
H  3.02100 40.15000 25.49000
H  1.36600 40.88900 25.60300
H  -0.15200 35.08200 21.21900
H  -2.83500 33.77800 21.09100
H  -2.35800 36.90800 21.68100
H  -2.51700 35.96400 20.16300
H  -1.07400 36.85400 20.37300
H  -0.88400 32.79700 20.17100
H  -2.04500 31.84100 21.20300
H  0.08300 31.17000 22.12800
H  0.11700 32.77800 22.87000
H  0.85300 32.47800 21.26200
H  -6.05600 30.28600 24.95400
H  -4.62500 29.39000 24.29700
H  -5.08700 30.91600 23.64100
H  -3.45800 31.17700 29.86800
H  -5.73100 33.22400 32.98300
H  -6.59200 31.72500 32.92100
H  -7.09200 33.11700 31.85400
Mg -11.54100 16.91500 42.22100
C  -8.29900 17.87000 41.86300
C  -12.59300 20.23200 41.73500
C  -14.86500 16.00500 42.54800
C  -10.39500 13.62900 42.43800
N  -10.56600 18.81100 41.68300
C  -9.20000 18.98000 41.73100
C  -8.70700 20.39600 41.58400
C  -10.13900 21.16300 41.71600
C  -11.19600 20.04600 41.76500
C  -10.24200 22.18600 42.94000
C  -8.02200 20.64600 40.21100
C  -6.75200 21.37400 40.26000
H  -5.62500 21.06400 39.26300
N  -13.48000 17.93700 41.93500
C  -13.68300 19.29500 41.76900
C  -15.08300 19.59500 41.84900
C  -15.75100 18.40000 42.08300
C  -14.73200 17.38100 42.23500
C  -15.55600 21.05000 41.70700
C  -17.25500 18.37200 42.21800
O  -17.95400 19.35700 42.08600
C  -18.00400 16.97500 42.40200
N  -12.46100 15.04400 42.09000
C  -13.81300 14.96400 42.52300
C  -14.10100 13.52500 42.90500
C  -12.76000 12.73200 42.46100
C  -11.78000 13.87100 42.39600
C  -14.48200 13.38000 44.39600
C  -12.80300 11.99800 41.14400
C  -13.70300 10.76000 41.06400
N  -9.72200 15.87200 42.17900
C  -9.37000 14.54700 42.27500
C  -7.93000 14.45400 42.40200
C  -7.44400 15.73800 42.15800
C  -8.57300 16.55700 42.08900
C  -7.21800 13.18200 42.78700
C  -6.27900 16.51500 42.06700
O  -5.13300 16.08400 42.14200
C  -6.76400 18.01300 41.87900
C  -6.33700 18.81500 43.13400
O  -6.82600 18.58300 44.18200
O  -5.29900 19.58600 42.90600
C  -4.65300 20.20600 44.04200
H  -12.88400 21.25200 41.47600
H  -15.85300 15.66900 42.86900
H  -10.10300 12.61400 42.71600
H  -8.24700 20.65600 42.53800
H  -10.23600 21.84500 40.87200
H  -10.12300 23.19800 42.55200
H  -9.55000 21.98700 43.75900
H  -11.24500 22.24300 43.36400
H  -8.59800 21.10400 39.40700
H  -7.83200 19.69400 39.71600
H  -6.38000 21.12200 41.25300
H  -6.97000 22.44100 40.21200
H  -16.53500 21.13800 41.23600
H  -14.82300 21.60600 41.12200
H  -15.57000 21.48700 42.70600
H  -19.02300 17.16800 42.06600
H  -17.98200 16.64400 43.44000
H  -17.61600 16.23400 41.70300
H  -14.88100 13.12400 42.25800
H  -12.26900 12.01000 43.11300
H  -15.46500 12.94000 44.55900
H  -14.38100 14.32700 44.92800
H  -13.77500 12.75500 44.94200
H  -11.81200 11.73500 40.77300
H  -13.18000 12.71400 40.41300
H  -14.53500 10.97500 40.39200
H  -14.02900 10.65700 42.09900
H  -13.16400 9.87300 40.73400
H  -7.36600 12.95400 43.84300
H  -6.15900 13.33100 42.58000
H  -7.67500 12.41100 42.16600
H  -6.31200 18.24300 40.91400
H  -5.24600 21.01600 44.46400
H  -3.75600 20.76200 43.76700
H  -4.26300 19.51100 44.78600

