158

Mg 45.18600 4.30100 47.84400
C  43.05600 6.95000 47.11000
C  42.59200 2.11700 47.05700
C  47.38600 1.62300 47.47600
C  47.85300 6.50500 47.93600
N  43.10700 4.53100 47.23200
C  42.48900 5.68100 46.89000
C  41.06200 5.36000 46.44600
C  40.85400 3.82500 46.77600
C  42.24600 3.44300 46.99700
C  39.75800 3.49900 47.88700
C  40.94500 5.78400 44.97100
C  40.02200 6.91000 44.53100
H  40.34800 7.77600 43.29000
N  44.99300 2.10500 47.67000
C  43.80400 1.49300 47.31800
C  44.08100 0.08300 47.12200
C  45.55200 -0.05400 47.33700
C  46.04300 1.28700 47.48300
C  43.04300 -0.99000 46.99500
C  46.29400 -1.41600 47.33300
O  45.66500 -2.44600 47.18000
C  47.75600 -1.55500 47.53500
N  47.32500 4.13900 47.71000
C  47.98800 2.89400 47.65100
C  49.54700 3.05300 47.82700
C  49.63800 4.57400 48.23300
C  48.21900 5.15200 47.96600
C  50.23100 2.12000 48.85700
C  50.83500 5.29000 47.50500
C  51.80800 6.24800 48.32100
N  45.41800 6.29400 47.72200
C  46.58800 7.09100 47.83100
C  46.21300 8.43000 47.75700
C  44.80200 8.44800 47.44400
C  44.38000 7.13900 47.41000
C  47.13100 9.60000 47.92400
C  43.63900 9.27300 47.29200
O  43.48100 10.49500 47.38700
C  42.38300 8.29900 47.07500
C  41.50800 8.43700 48.31500
O  41.66100 7.89800 49.39900
O  40.60000 9.39000 47.99800
C  39.56400 9.68000 49.01900
H  41.70800 1.48000 46.99400
H  48.07000 0.78300 47.33500
H  48.71600 7.17400 47.97100
H  40.31400 6.00300 46.91000
H  40.52700 3.29800 45.88000
H  39.08200 4.32000 48.12300
H  40.08800 3.02500 48.81100
H  39.12600 2.73000 47.44200
H  40.53600 4.86700 44.54700
H  41.94000 5.93300 44.55100
H  39.80000 7.67600 45.27500
H  39.07900 6.41800 44.29400
H  42.97900 -1.77700 47.74500
H  43.15400 -1.47600 46.02500
H  42.04500 -0.55200 46.95600
H  48.05200 -0.91700 48.36700
H  48.30400 -1.42100 46.60200
H  47.87500 -2.60400 47.80800
H  50.04800 2.88700 46.87300
H  49.78200 4.73600 49.30200
H  49.52800 1.53000 49.44500
H  50.79000 2.74200 49.55500
H  50.90400 1.47400 48.29300
H  50.43400 5.99300 46.77600
H  51.53200 4.60300 47.02600
H  52.78000 6.18800 47.83100
H  51.86600 6.06400 49.39400
H  51.45400 7.27600 48.23900
H  47.38900 9.55900 48.98200
H  46.55200 10.46300 47.59600
H  47.95200 9.38200 47.24000
H  41.81000 8.57600 46.19100
H  39.36200 8.69400 49.43800
H  38.65200 10.12100 48.61700
H  40.01800 10.33900 49.75800
Mg 29.61100 57.36100 40.97400
C  26.74000 55.42800 39.95000
C  31.51200 54.84100 39.61500
C  32.02200 59.59300 40.80000
C  27.24100 59.94900 41.68300
N  29.14700 55.34700 39.86200
C  27.92000 54.77100 39.60100
C  28.02400 53.54100 38.62200
C  29.57600 53.19300 38.89100
C  30.11600 54.51300 39.44600
C  29.92500 52.10700 39.97000
C  27.88400 53.97300 37.15800
C  26.76700 53.25300 36.34900
H  25.96400 54.14800 35.48000
N  31.54400 57.24300 40.39700
C  32.15500 56.07100 39.95300
C  33.52900 56.39700 39.74500
C  33.77800 57.75600 40.17400
C  32.38900 58.28300 40.47700
C  34.54400 55.28600 39.26500
C  35.14500 58.45900 40.29300
O  36.14600 57.90900 39.87300
C  35.27600 59.73100 40.92300
N  29.63400 59.56100 41.05000
C  30.76600 60.19900 41.04200
C  30.59600 61.68400 41.40400
C  29.02900 61.77900 41.63600
C  28.55200 60.38400 41.46600
C  31.53700 62.26000 42.49600
C  28.23900 62.69900 40.65200
C  27.42800 63.90000 41.22700
N  27.44700 57.62100 41.09800
C  26.69300 58.70700 41.39100
C  25.28400 58.36400 41.17600
C  25.22200 57.06900 40.65300
C  26.59200 56.70500 40.52100
C  24.13100 59.29400 41.26100
C  24.42300 55.98000 40.15900
O  23.23200 55.79100 40.11800
C  25.33300 54.91500 39.59300
C  25.04000 53.67900 40.26000
O  25.19900 53.32600 41.45400
O  24.48400 52.89200 39.37700
C  23.66000 51.69000 39.82600
H  32.13000 53.98400 39.34000
H  32.82900 60.31200 40.64200
H  26.60600 60.77200 42.01700
H  27.35800 52.77900 39.02800
H  30.25300 52.85100 38.10900
H  30.47600 52.61000 40.76400
H  30.49600 51.22100 39.69300
H  28.98600 51.77600 40.41300
H  28.87600 53.83100 36.73000
H  27.60000 55.02300 37.22700
H  26.05500 52.72100 36.97900
H  27.28400 52.52600 35.72200
H  34.36000 54.87200 38.27300
H  34.52300 54.41100 39.91500
H  35.56100 55.65800 39.38200
H  35.20000 60.62500 40.30400
H  36.26800 59.75800 41.37300
H  34.66600 59.86200 41.81700
H  30.77300 62.31800 40.53500
H  28.85600 62.10500 42.66100
H  31.09000 63.06300 43.08100
H  32.54600 62.47600 42.14300
H  31.72900 61.46600 43.21800
H  27.52200 62.11800 40.07200
H  28.86600 63.16900 39.89500
H  27.25800 63.60000 42.26100
H  26.41400 63.93900 40.82800
H  27.88400 64.88300 41.11200
H  24.29300 59.70100 40.26200
H  24.03400 60.01500 42.07100
H  23.21300 58.71300 41.17500
H  25.31500 54.80700 38.50800
H  22.68400 51.99700 39.45100
H  23.53000 51.47500 40.88700
H  23.94600 50.77700 39.30400

