158

Mg 0.92600 7.64700 25.74900
C  1.75200 9.46000 28.50100
C  0.62500 4.84600 27.70300
C  -0.01900 6.00000 22.95500
C  1.45600 10.52700 23.70000
N  1.29200 7.24500 27.78700
C  1.50000 8.13300 28.79300
C  1.54400 7.39900 30.19000
C  1.55400 5.92700 29.74500
C  1.11700 5.99800 28.29700
C  2.82800 5.11400 29.85800
C  0.28600 7.86800 30.95500
C  0.33500 8.02900 32.52100
H  1.52500 7.38900 33.23000
N  0.38500 5.64500 25.39000
C  0.23700 4.64600 26.38800
C  -0.44400 3.50600 25.80800
C  -0.55200 3.84400 24.38300
C  -0.09600 5.18500 24.18300
C  -0.76600 2.26700 26.61500
C  -1.20400 2.94900 23.26300
O  -1.31700 3.28000 22.09800
C  -1.57900 1.51700 23.52900
N  0.93100 8.20200 23.59600
C  0.54600 7.25100 22.64100
C  0.46600 7.94300 21.22200
C  1.07500 9.31400 21.46100
C  1.15100 9.40100 22.97700
C  1.19700 7.11800 20.16700
C  0.22800 10.50100 20.87200
C  -0.94400 11.03300 21.75700
N  1.54000 9.59000 26.00500
C  1.56200 10.65600 25.12500
C  1.83500 11.83300 25.95200
C  1.88300 11.46500 27.25300
C  1.67100 10.06100 27.24300
C  2.09300 13.23000 25.39600
C  2.10300 11.84800 28.58100
O  2.40100 12.93300 28.96700
C  1.92800 10.57600 29.44100
C  3.07900 10.65000 30.41600
O  4.20600 10.33700 30.19200
O  2.58100 11.23700 31.56300
C  3.51500 11.16500 32.63000
H  0.49700 4.04700 28.43600
H  -0.41500 5.61100 22.01500
H  1.65700 11.30000 22.95500
H  2.44800 7.85200 30.59800
H  0.70900 5.54800 30.32000
H  3.32800 4.84100 28.92800
H  2.77400 4.16400 30.39000
H  3.51100 5.66600 30.50400
H  -0.42600 7.04700 30.87100
H  0.10800 8.87000 30.56600
H  -0.61300 7.71400 32.95500
H  0.35700 9.09100 32.76600
H  -1.79500 1.97000 26.41100
H  -0.53800 2.39200 27.67400
H  -0.10900 1.42600 26.39900
H  -2.30600 1.41000 24.33400
H  -0.64800 0.97000 23.68100
H  -2.06700 1.19500 22.61000
H  -0.60000 7.93300 20.99300
H  2.10400 9.32900 21.10000
H  0.62000 6.19600 20.08900
H  2.20400 6.84900 20.48500
H  1.15800 7.69700 19.24400
H  -0.24200 10.25400 19.92000
H  0.99900 11.25500 20.71200
H  -1.87100 10.94000 21.19200
H  -0.62700 12.07200 21.84900
H  -1.13200 10.49400 22.68600
H  1.92400 13.18900 24.32000
H  3.02700 13.67500 25.74000
H  1.25000 13.85600 25.69000
H  0.97500 10.73200 29.94600
H  3.81200 10.14400 32.87300
H  3.08500 11.39800 33.60500
H  4.34100 11.83200 32.38600
Mg -2.26200 34.62400 26.80500
C  -3.57900 32.81600 29.53100
C  -1.07100 36.90700 28.94600
C  -1.44500 36.42000 24.05000
C  -3.77800 32.29800 24.73000
N  -2.35400 34.80400 29.00400
C  -2.83000 33.92800 29.92700
C  -2.40000 34.27500 31.35600
C  -1.67900 35.63700 31.12400
C  -1.66800 35.82900 29.59900
C  -2.33400 36.83600 31.89900
C  -1.59300 33.15800 32.03000
C  -2.19600 32.46200 33.26900
H  -1.16200 32.33000 34.43800
N  -1.37900 36.39000 26.56400
C  -0.95500 37.21300 27.56000
C  -0.24200 38.35700 27.00800
C  -0.01800 38.03700 25.61100
C  -0.97700 36.88900 25.38400
C  0.34400 39.43800 27.73200
C  0.80600 38.63700 24.61000
O  0.83700 38.20500 23.43400
C  1.63500 39.88100 24.92800
N  -2.71700 34.48500 24.64400
C  -2.25500 35.37200 23.72300
C  -2.55400 35.04900 22.31600
C  -2.88500 33.48600 22.55000
C  -3.11800 33.35900 24.06800
C  -3.69600 35.90800 21.81700
C  -1.78900 32.49300 21.91600
C  -0.54800 32.17800 22.68500
N  -3.47200 32.94600 27.03300
C  -3.99000 32.11800 26.08200
C  -4.83200 31.04000 26.74600
C  -4.61900 31.27000 28.06300
C  -3.82300 32.39500 28.23300
C  -5.56200 30.03200 25.96900
C  -5.02900 30.77000 29.39500
O  -5.74400 29.87700 29.72600
C  -4.29800 31.77300 30.40200
C  -5.43400 32.37500 31.17200
O  -6.24800 33.14600 30.72300
O  -5.39100 31.83700 32.44700
C  -6.57700 32.01900 33.28300
H  -0.66800 37.68200 29.60100
H  -1.07700 36.98700 23.19300
H  -4.25800 31.61700 24.02300
H  -3.33400 34.30300 31.91600
H  -0.63100 35.72200 31.41300
H  -2.87500 37.40800 31.14500
H  -1.55000 37.41700 32.38400
H  -3.05000 36.58000 32.68000
H  -0.60600 33.53000 32.30700
H  -1.43400 32.40100 31.26100
H  -2.35500 31.40800 33.04100
H  -3.17600 32.82700 33.57700
H  1.43300 39.41000 27.78400
H  -0.04900 39.40200 28.74800
H  0.09800 40.39500 27.27300
H  2.22900 39.85200 25.84100
H  0.92600 40.70700 24.87100
H  2.26600 39.94400 24.04100
H  -1.64900 35.14500 21.71600
H  -3.82000 33.20700 22.06500
H  -4.61600 35.42400 21.49100
H  -3.30000 36.63100 21.10400
H  -4.19800 36.43100 22.63100
H  -1.34900 32.91800 21.01300
H  -2.26300 31.55800 21.61700
H  -0.67300 32.56000 23.69800
H  0.40300 32.55700 22.30900
H  -0.45200 31.09200 22.66900
H  -6.51400 30.49700 25.71600
H  -5.70000 29.26200 26.72800
H  -4.90100 29.77300 25.14300
H  -3.66400 31.37500 31.19500
H  -6.81800 31.05200 33.72300
H  -7.38200 32.30800 32.60700
H  -6.35500 32.80400 34.00700

