158

Mg 23.66000 -5.54300 47.26900
C  25.79800 -3.19700 45.69900
C  21.22600 -4.51600 45.09700
C  21.75200 -8.19700 48.46300
C  26.37500 -6.70300 49.00900
N  23.55500 -4.00200 45.53200
C  24.52800 -3.12600 45.13100
C  24.06500 -2.22700 43.95100
C  22.50600 -2.63500 43.94400
C  22.39700 -3.74400 44.91700
C  21.55000 -1.44100 44.28200
C  24.76600 -2.43200 42.51400
C  25.42500 -1.22200 41.73400
H  25.19500 -1.14100 40.19800
N  21.73000 -6.19400 46.90700
C  20.89300 -5.59100 45.98500
C  19.65900 -6.38200 45.82000
C  19.73500 -7.37200 46.87900
C  21.03300 -7.30100 47.50300
C  18.54300 -6.12100 44.78700
C  18.63700 -8.36100 47.12000
O  17.62100 -8.57300 46.39300
C  18.83300 -9.25400 48.26600
N  24.01300 -7.17300 48.54900
C  23.09900 -8.17500 48.89200
C  23.67700 -9.21400 49.92800
C  25.01500 -8.50200 50.31400
C  25.16500 -7.39400 49.21600
C  22.79500 -9.51700 51.14800
C  26.26100 -9.51300 50.34000
C  26.98600 -9.58500 51.62500
N  25.69000 -5.15600 47.26500
C  26.63800 -5.66100 48.05600
C  27.85400 -4.95800 47.87800
C  27.53600 -3.96500 46.92900
C  26.23400 -4.11400 46.61600
C  29.18200 -5.18900 48.46800
C  28.09600 -2.87900 46.17000
O  29.22600 -2.51200 46.14400
C  27.00100 -2.41400 45.26800
C  26.84300 -0.95800 45.31900
O  26.07600 -0.33200 46.04700
O  27.53200 -0.40900 44.25300
C  27.27500 0.98000 43.86500
H  20.49700 -4.17800 44.35700
H  21.20300 -9.03700 48.89500
H  27.14400 -7.02200 49.71600
H  24.18600 -1.17900 44.22700
H  22.20700 -2.97900 42.95400
H  22.04000 -0.65300 44.85300
H  20.68500 -1.75700 44.86400
H  21.10400 -1.00500 43.38800
H  23.95000 -2.89200 41.95700
H  25.55700 -3.16400 42.67400
H  26.49600 -1.14300 41.91800
H  25.00600 -0.33900 42.21800
H  18.53200 -6.95500 44.08500
H  18.54600 -5.09900 44.40600
H  17.65300 -6.23000 45.40600
H  17.86500 -9.73500 48.40900
H  19.08100 -8.69200 49.16600
H  19.57000 -9.95200 47.86900
H  23.85400 -10.15100 49.40100
H  24.85200 -7.97200 51.25200
H  22.10100 -8.69100 51.30500
H  23.41600 -9.90200 51.95600
H  22.14100 -10.32600 50.82000
H  27.00600 -9.10300 49.65800
H  26.03800 -10.55100 50.09100
H  27.72800 -8.78700 51.65400
H  27.56200 -10.51000 51.61400
H  26.25800 -9.62800 52.43600
H  29.67200 -5.80100 47.71100
H  29.04200 -5.79300 49.36500
H  29.79200 -4.29000 48.55000
H  27.40600 -2.62200 44.27800
H  27.96300 1.35800 43.10900
H  27.22200 1.70300 44.67900
H  26.26600 0.93200 43.45500
Mg 54.74100 24.49400 44.03400
C  52.35400 26.96300 43.41700
C  52.62300 22.15200 43.18300
C  57.46500 22.50400 43.84400
C  57.03000 27.27500 44.43900
N  52.75400 24.56100 43.26600
C  51.93500 25.65900 43.15300
C  50.54000 25.21200 42.76300
C  50.58500 23.69500 43.19300
C  52.07800 23.39800 43.13200
C  49.90300 23.28700 44.56300
C  50.26600 25.42600 41.28500
C  48.82200 25.74000 40.88000
H  48.23300 25.27200 39.51800
N  55.01400 22.57400 43.50700
C  53.97300 21.71000 43.36300
C  54.57100 20.33700 43.35900
C  55.94600 20.42500 43.66600
C  56.18800 21.85400 43.76900
C  53.81900 19.08000 42.98000
C  56.86800 19.15800 43.82200
O  56.50800 17.97900 43.65500
C  58.30200 19.38600 43.96100
N  57.04500 24.86300 43.91100
C  57.91500 23.81000 43.88300
C  59.36900 24.29600 44.10800
C  59.14500 25.80300 44.55900
C  57.61900 26.06700 44.28400
C  60.39300 23.47400 44.91100
C  60.00000 26.92900 43.94500
C  60.68400 27.96700 44.83200
N  54.74400 26.66000 44.05300
C  55.70900 27.60500 44.36900
C  55.07300 28.91300 44.68900
C  53.78600 28.68600 44.14900
C  53.65100 27.34600 43.87800
C  55.81000 30.09600 45.02900
C  52.50700 29.31100 43.87400
O  52.14800 30.45900 43.93300
C  51.58200 28.27200 43.19800
C  51.55500 28.75200 41.83900
O  52.44300 28.86500 41.03300
O  50.31000 29.25000 41.60100
C  49.93200 29.76400 40.24000
H  51.85600 21.37500 43.19000
H  58.33400 21.84600 43.90900
H  57.71800 28.10000 44.63200
H  49.84800 25.68300 43.46100
H  50.14200 23.09500 42.39800
H  49.20200 22.47100 44.38500
H  49.45400 24.15200 45.05200
H  50.68300 23.00600 45.27000
H  50.60100 24.56300 40.70900
H  50.78600 26.32200 40.94700
H  48.60500 26.79200 41.06900
H  48.21900 25.20900 41.61700
H  52.79000 19.40300 42.82500
H  53.82900 18.58600 43.95100
H  54.18700 18.60200 42.07200
H  58.71900 19.67800 42.99700
H  58.66200 18.41600 44.30400
H  58.63300 20.11200 44.70300
H  59.66800 24.26100 43.06100
H  59.39400 25.81500 45.62000
H  61.23200 23.00400 44.39800
H  59.83700 22.68000 45.41000
H  60.86800 24.11200 45.65500
H  59.55200 27.48600 43.12100
H  60.79800 26.36600 43.46100
H  61.57700 28.20100 44.25200
H  60.93100 27.69000 45.85700
H  59.96300 28.78400 44.86600
H  56.81500 29.85300 45.37300
H  55.14900 30.38800 45.84500
H  55.75700 30.77400 44.17700
H  50.59900 28.25000 43.66800
H  50.85900 29.97800 39.70900
H  49.34200 30.67600 40.32900
H  49.24600 29.06200 39.76500

