158

Mg 0.97500 7.79300 25.22600
C  1.51500 9.68400 28.24400
C  1.40400 4.98700 27.25500
C  0.89400 5.93400 22.41100
C  1.16200 10.73600 23.43400
N  1.51600 7.41400 27.50000
C  1.57400 8.29400 28.51000
C  1.74100 7.65400 29.92000
C  1.73800 6.11000 29.57300
C  1.59700 6.12900 28.02100
C  3.07700 5.41900 29.95000
C  0.53100 7.97100 30.94300
C  1.00200 8.27300 32.46500
H  2.15500 7.50100 32.97000
N  1.05300 5.72400 24.87700
C  1.13700 4.79500 25.88800
C  0.86500 3.50700 25.27900
C  0.63300 3.72700 23.87400
C  0.84300 5.12900 23.61600
C  0.60100 2.22600 26.10400
C  0.23300 2.82200 22.77000
O  -0.03500 3.21400 21.62300
C  0.03400 1.32300 22.92500
N  1.22200 8.24300 23.18900
C  1.07700 7.31000 22.18400
C  0.82100 8.02700 20.83100
C  1.09700 9.51000 21.13900
C  1.12300 9.55100 22.66300
C  1.44500 7.40800 19.54100
C  0.10000 10.44300 20.45800
C  -1.27800 10.66400 21.24200
N  1.33600 9.81800 25.63300
C  1.28300 10.90300 24.80300
C  1.44300 12.14200 25.54600
C  1.50600 11.67300 26.90800
C  1.34700 10.26900 26.91600
C  1.76200 13.49700 24.94300
C  1.82800 12.12400 28.25000
O  2.08100 13.20900 28.66200
C  1.67700 10.81000 29.15000
C  2.78200 10.81600 30.09100
O  3.88500 10.23400 29.92100
O  2.43300 11.44200 31.25800
C  3.49900 11.48600 32.25100
H  1.50000 4.09900 27.88300
H  0.75400 5.47500 21.43000
H  1.03200 11.67500 22.89100
H  2.74200 7.95900 30.22500
H  0.83400 5.67200 29.99600
H  3.14300 5.75900 30.98300
H  3.98900 5.67900 29.41200
H  3.09700 4.33000 29.90600
H  -0.28600 7.26200 30.80900
H  0.16800 8.90500 30.51500
H  0.13800 7.93000 33.03400
H  1.10500 9.35300 32.57500
H  -0.46600 2.00200 26.11000
H  0.71900 2.48500 27.15700
H  1.14400 1.35200 25.74600
H  0.80700 0.91200 23.57500
H  0.02800 0.82100 21.95700
H  -0.87400 1.16000 23.50600
H  -0.24400 7.95700 20.61100
H  2.07100 9.81600 20.75800
H  2.15400 6.62500 19.80800
H  1.94200 8.15800 18.92500
H  0.70100 6.90200 18.92500
H  -0.18500 10.25200 19.42400
H  0.52900 11.44300 20.52400
H  -2.06900 11.12600 20.65100
H  -1.23200 11.41400 22.03200
H  -1.60600 9.75000 21.73700
H  2.71700 13.33600 24.44300
H  2.04400 14.07300 25.82500
H  0.85700 13.79900 24.41700
H  0.83600 10.93900 29.83200
H  3.95400 10.51900 32.46600
H  3.08500 11.82000 33.20300
H  4.31900 12.10900 31.89300
Mg 35.60000 48.90700 25.14800
C  35.86500 47.15300 28.35200
C  34.31400 51.48300 26.80500
C  34.80500 50.28000 22.15100
C  36.70500 45.95800 23.71200
N  35.06700 49.22200 27.31600
C  35.40500 48.50200 28.48700
C  35.09900 49.22200 29.83300
C  34.48900 50.52800 29.24800
C  34.65500 50.47500 27.68800
C  33.03400 50.98900 29.55600
C  36.33300 49.54600 30.79300
C  36.27600 49.05100 32.33500
H  34.87900 48.89000 32.98800
N  34.88200 50.67400 24.51600
C  34.40500 51.65100 25.40300
C  34.05800 52.86700 24.68700
C  34.04100 52.48800 23.25700
C  34.60200 51.08600 23.23500
C  33.62500 54.16600 25.28300
C  33.57100 53.25700 22.05200
O  33.63100 52.88800 20.86700
C  33.01500 54.69000 22.27800
N  35.67600 48.18400 23.18300
C  35.36500 48.90400 22.08900
C  35.81100 48.16300 20.79800
C  36.71500 47.00200 21.34200
C  36.30800 47.00800 22.83200
C  34.65000 47.70000 19.89700
C  38.21800 47.31300 21.13700
C  39.22400 46.19100 21.57700
N  35.99100 46.90800 25.83400
C  36.37300 45.80000 25.09400
C  36.63300 44.68800 25.99000
C  36.46000 45.17700 27.24700
C  36.03600 46.53500 27.08900
C  37.11100 43.34600 25.58200
C  36.48800 44.80100 28.65600
O  36.82300 43.71800 29.21700
C  36.03300 46.09900 29.37700
C  34.80100 45.76900 30.03800
O  33.74300 46.27800 29.84000
O  35.09200 44.98400 31.13300
C  34.00300 44.72100 32.11000
H  34.08700 52.46900 27.21500
H  34.66400 50.69700 21.15100
H  37.11300 45.13400 23.12300
H  34.27600 48.67800 30.29700
H  35.19000 51.31000 29.54000
H  33.02900 52.00700 29.94600
H  32.73500 50.38300 30.41100
H  32.32900 50.80600 28.74500
H  36.58800 50.59500 30.94300
H  37.27100 49.17600 30.37700
H  37.03100 49.56100 32.93300
H  36.62200 48.01800 32.33200
H  32.58200 54.14500 25.59700
H  33.83800 55.14200 24.84700
H  34.07400 54.28500 26.26900
H  33.65100 55.50400 22.62700
H  32.22300 54.83400 23.01300
H  32.52600 55.06100 21.37700
H  36.32300 48.93800 20.22600
H  36.50800 45.99500 20.98100
H  33.66500 47.75200 20.36000
H  34.83600 46.67200 19.58400
H  34.72700 48.31700 19.00300
H  38.43200 48.29000 21.57000
H  38.33100 47.35600 20.05400
H  39.83100 46.41100 22.45600
H  39.88300 45.91900 20.75200
H  38.71600 45.27200 21.86900
H  36.33400 42.58900 25.68800
H  38.04700 42.99000 26.01100
H  37.19300 43.30600 24.49500
H  36.82500 46.42900 30.04900
H  33.17000 44.41600 31.47700
H  33.83200 45.56000 32.78500
H  34.16000 43.81600 32.69600

