158

Mg -2.51400 17.09100 26.11200
C  -2.96500 14.90800 28.84800
C  -2.96500 19.74200 28.05700
C  -2.17400 18.88400 23.26700
C  -2.72200 14.12100 23.91200
N  -3.00500 17.29000 28.27700
C  -3.02500 16.24800 29.18900
C  -3.30400 16.85100 30.60500
C  -3.28100 18.41400 30.32700
C  -3.05600 18.50300 28.77900
C  -4.49600 19.20100 30.78200
C  -2.42300 16.30100 31.77000
C  -2.20600 17.28000 32.94200
H  -2.27000 16.70500 34.36500
N  -2.55800 19.04300 25.78300
C  -2.74300 20.02900 26.69500
C  -2.81400 21.33300 26.10600
C  -2.50300 21.04900 24.67600
C  -2.32900 19.57400 24.52500
C  -3.08800 22.67000 26.73800
C  -2.53000 22.06100 23.49300
O  -2.09400 21.79300 22.39700
C  -2.78500 23.52900 23.73700
N  -2.53800 16.53800 23.80400
C  -2.23600 17.50500 22.94600
C  -2.08700 16.98200 21.56300
C  -2.01400 15.42100 21.76900
C  -2.49200 15.30800 23.28600
C  -3.18700 17.43500 20.55100
C  -0.58300 14.86900 21.33200
C  0.62000 15.25900 22.26100
N  -2.61100 15.00100 26.33000
C  -2.77100 13.98600 25.32800
C  -3.09800 12.68800 26.01500
C  -3.08500 13.08200 27.37000
C  -2.81000 14.43500 27.50400
C  -3.40000 11.34900 25.38200
C  -3.28500 12.56300 28.73700
O  -3.53900 11.37500 29.07100
C  -3.10300 13.70300 29.71300
C  -1.97300 13.39000 30.64000
O  -0.78400 13.50900 30.44800
O  -2.53400 12.82700 31.73300
C  -1.61600 12.43700 32.81500
H  -2.97000 20.58900 28.74500
H  -1.91100 19.47400 22.38700
H  -2.71400 13.24400 23.26100
H  -4.35000 16.57600 30.73800
H  -2.41500 18.95500 30.70800
H  -4.24800 20.18300 31.18400
H  -5.06500 18.54500 31.44000
H  -5.25100 19.22500 29.99600
H  -1.43500 16.16600 31.32800
H  -2.88600 15.35300 32.04600
H  -2.93500 18.09000 32.94600
H  -1.26800 17.82500 32.82900
H  -2.18100 23.18700 27.05000
H  -3.54400 22.59400 27.72500
H  -3.64700 23.31400 26.05900
H  -3.85200 23.46400 23.94800
H  -2.63200 23.93900 22.73800
H  -2.19200 24.00700 24.51700
H  -1.07000 17.26700 21.29100
H  -2.71200 14.78800 21.22000
H  -3.76100 18.24400 21.00400
H  -3.92400 16.66900 20.30800
H  -2.80700 17.81300 19.60200
H  -0.33900 15.39500 20.40900
H  -0.56800 13.77900 21.32000
H  1.06000 14.29500 22.51600
H  0.29600 15.80700 23.14600
H  1.39500 15.69400 21.63000
H  -4.22600 10.86700 25.90600
H  -2.52400 10.72900 25.57300
H  -3.75100 11.40500 24.35200
H  -4.01300 13.78600 30.30700
H  -0.93100 13.24800 33.05900
H  -1.05600 11.56900 32.46700
H  -2.26500 12.09200 33.62000
Mg 47.47000 25.13100 28.60300
C  47.96400 27.41500 31.22200
C  46.22600 22.88000 30.87900
C  47.32200 22.95500 26.13200
C  48.76200 27.50200 26.45900
N  47.13300 25.16300 30.76800
C  47.37000 26.24100 31.60100
C  46.83600 25.98100 33.08400
C  46.71900 24.38100 33.01600
C  46.72000 24.06700 31.47700
C  47.60500 23.41200 33.82200
C  45.57200 26.81400 33.42900
C  44.90300 26.40000 34.70100
H  45.12600 27.16400 36.02300
N  46.95000 23.20000 28.58800
C  46.31700 22.46600 29.58300
C  46.02200 21.13300 29.06400
C  46.37000 21.10800 27.66500
C  46.91400 22.44100 27.38800
C  45.33700 20.08100 29.94600
C  46.31100 19.87200 26.69800
O  46.81100 19.90100 25.56500
C  45.60800 18.65400 27.12400
N  48.02800 25.17000 26.57000
C  47.82700 24.17500 25.72500
C  48.01700 24.57000 24.22300
C  48.32800 26.04300 24.33600
C  48.40800 26.23900 25.86600
C  49.09600 23.65100 23.54800
C  47.30900 27.00900 23.73400
C  45.78100 27.04900 24.07700
N  48.17600 27.06100 28.76600
C  48.70500 27.87200 27.78200
C  49.13500 29.18600 28.31800
C  48.81100 29.00600 29.71300
C  48.29000 27.70700 29.88500
C  49.77900 30.34100 27.73800
C  48.75300 29.72700 30.96700
O  49.16000 30.86000 31.25000
C  48.19700 28.72900 31.95400
C  49.03800 28.63700 33.12500
O  50.02200 27.94300 33.33900
O  48.49400 29.49100 34.09800
C  49.15400 29.53800 35.42100
H  45.86800 22.14400 31.60200
H  47.13700 22.27000 25.30200
H  49.10000 28.32200 25.82200
H  47.62600 26.31000 33.75900
H  45.74700 24.08000 33.40700
H  46.84500 22.88400 34.39700
H  48.36700 23.94700 34.38900
H  47.95500 22.68500 33.08900
H  44.85800 26.81000 32.60500
H  45.84600 27.82600 33.72700
H  45.08600 25.35200 34.93500
H  43.83600 26.51400 34.51300
H  44.44800 19.69600 29.44500
H  45.05700 20.37900 30.95600
H  45.94500 19.25300 30.31100
H  46.18900 18.11200 27.87000
H  45.64300 18.01600 26.24100
H  44.55800 18.84300 27.34400
H  47.12900 24.42600 23.60700
H  49.31300 26.32700 23.96600
H  50.08500 24.11000 23.52200
H  48.94300 23.56600 22.47200
H  49.03800 22.71000 24.09500
H  47.39500 26.72600 22.68500
H  47.79800 27.98100 23.68800
H  45.53400 26.40800 24.92300
H  45.12400 26.74100 23.26300
H  45.50900 28.05100 24.41100
H  49.40800 30.56400 26.73800
H  50.86300 30.37400 27.84600
H  49.41300 31.15000 28.37000
H  47.23800 29.20500 32.16000
H  50.22200 29.35400 35.29900
H  48.70200 28.80600 36.09000
H  48.98800 30.53500 35.82900

