158

Mg -11.40500 38.79200 41.19200
C  -9.23600 36.20000 40.37100
C  -9.51200 41.00500 39.44100
C  -13.81600 41.15800 41.67500
C  -13.65500 36.25600 42.53100
N  -9.58400 38.61800 40.03700
C  -8.91700 37.43500 39.74800
C  -7.62700 37.67700 38.82200
C  -7.81500 39.23700 38.51400
C  -8.95300 39.68000 39.38900
C  -6.58100 40.01600 38.79700
C  -7.66500 36.69600 37.67100
C  -6.39600 35.80500 37.64000
H  -5.29500 36.21000 36.62500
N  -11.56500 40.79800 40.72300
C  -10.57900 41.57400 40.12000
C  -11.01300 42.97300 40.07800
C  -12.35000 42.96100 40.52900
C  -12.60500 41.60000 41.07300
C  -10.14000 44.07300 39.42900
C  -13.19300 44.22400 40.55100
O  -12.74700 45.29800 40.17000
C  -14.53400 44.23900 41.19500
N  -13.57700 38.64200 41.72700
C  -14.26600 39.77800 41.94500
C  -15.70400 39.47600 42.61400
C  -15.62900 37.97300 42.89300
C  -14.15500 37.55700 42.38000
C  -15.92100 40.33700 43.87000
C  -16.72900 37.07600 42.22900
C  -16.66800 36.96900 40.73600
N  -11.44700 36.69400 41.52600
C  -12.36000 35.86500 42.11200
C  -11.78500 34.57300 42.28100
C  -10.60800 34.57200 41.50700
C  -10.44400 35.96800 41.10000
C  -12.37500 33.34100 43.02000
C  -9.50600 33.81700 41.05100
O  -9.26900 32.59200 41.26500
C  -8.50000 34.85800 40.29900
C  -7.29800 34.73800 41.09700
O  -6.63000 33.66800 41.25700
O  -7.00500 35.96600 41.64200
C  -5.83400 35.97000 42.53600
H  -8.98300 41.68400 38.76900
H  -14.62500 41.85500 41.90200
H  -14.33100 35.63600 43.12500
H  -6.72900 37.49900 39.41300
H  -8.19500 39.50500 37.52800
H  -5.95600 39.92700 37.90800
H  -5.99700 39.68900 39.65800
H  -6.81100 41.06400 38.99400
H  -7.62500 37.32600 36.78200
H  -8.58800 36.11900 37.62000
H  -6.66800 34.79200 37.34200
H  -5.87800 35.78600 38.59900
H  -10.51400 44.32500 38.43700
H  -9.08800 43.80100 39.52000
H  -10.44500 44.89500 40.07700
H  -15.17300 43.43500 40.82900
H  -15.05500 45.16500 40.95000
H  -14.40400 44.27800 42.27600
H  -16.59700 39.73300 42.04300
H  -15.71300 37.89500 43.97700
H  -15.01000 40.36700 44.46700
H  -16.78500 39.92700 44.39300
H  -16.25500 41.32300 43.54700
H  -17.70200 37.52100 42.43500
H  -16.62100 36.08700 42.67500
H  -17.40300 37.54100 40.17100
H  -16.59200 35.92600 40.42900
H  -15.75600 37.45300 40.38800
H  -13.36700 33.16400 42.60400
H  -12.34900 33.46800 44.10200
H  -11.84000 32.44700 42.69900
H  -8.24500 34.56800 39.27900
H  -4.96400 35.52200 42.05800
H  -6.07400 35.47100 43.47600
H  -5.47300 36.94100 42.87600
Mg -0.84400 34.34400 26.73100
C  -2.88900 32.77900 29.14200
C  0.33300 36.32100 29.11300
C  0.71700 36.02300 24.23200
C  -2.52300 32.45400 24.25000
N  -1.46100 34.72500 28.81800
C  -2.15900 33.85600 29.65700
C  -1.86200 34.13100 31.14700
C  -0.92800 35.34800 31.12600
C  -0.69400 35.55500 29.61900
C  -1.41100 36.62200 31.88900
C  -1.37500 32.87100 31.99100
C  -2.09800 32.64000 33.37200
H  -1.28400 32.62200 34.67200
N  0.32700 35.98600 26.67200
C  0.83400 36.59900 27.76300
C  1.86800 37.47500 27.34000
C  1.81900 37.57200 25.92900
C  0.93500 36.52600 25.54800
C  2.59800 38.13300 28.34200
C  2.60700 38.38100 24.95400
O  2.49600 38.27700 23.75400
C  3.59400 39.32900 25.53600
N  -0.79200 34.17600 24.47800
C  -0.08400 35.01400 23.66500
C  -0.36700 34.83700 22.15600
C  -1.28700 33.56000 22.24600
C  -1.64500 33.39100 23.71800
C  -1.06000 36.06400 21.50500
C  -0.79200 32.28600 21.54500
C  0.28700 31.45300 22.19600
N  -2.27000 32.85100 26.68100
C  -2.87000 32.18600 25.59500
C  -3.81400 31.23400 26.10200
C  -3.81700 31.39400 27.52900
C  -2.92500 32.41200 27.79000
C  -4.63900 30.44100 25.20000
C  -4.41700 30.96000 28.74700
O  -5.36300 30.20100 28.94200
C  -3.77200 31.86400 29.82400
C  -4.80200 32.45000 30.61400
O  -5.40500 33.44800 30.24800
O  -5.13600 31.64800 31.69200
C  -6.43000 32.02900 32.23200
H  0.89700 36.90100 29.84600
H  1.25100 36.51900 23.41900
H  -2.97500 31.78800 23.51200
H  -2.79500 34.41700 31.63300
H  0.04500 35.11700 31.56000
H  -1.35400 37.45500 31.18700
H  -0.81000 36.84400 32.77100
H  -2.45400 36.59100 32.20500
H  -0.32400 32.84200 32.28100
H  -1.53100 31.98800 31.37100
H  -2.56200 31.65900 33.27600
H  -2.87200 33.38500 33.55500
H  2.80600 37.50700 29.21000
H  2.14200 39.04200 28.73200
H  3.53300 38.49100 27.91100
H  3.07600 39.85100 26.34100
H  3.91800 40.03700 24.77300
H  4.48100 38.79600 25.87800
H  0.64700 34.76700 21.76200
H  -2.22800 33.70100 21.71400
H  -2.08000 35.94300 21.14200
H  -0.63800 36.33300 20.53700
H  -1.06900 36.91300 22.18900
H  -0.50900 32.56600 20.53000
H  -1.69500 31.70900 21.34500
H  1.25000 31.58500 21.70300
H  -0.03400 30.42300 22.04500
H  0.35800 31.54500 23.28000
H  -5.42500 30.01400 25.82200
H  -4.04800 29.65200 24.73400
H  -4.98500 31.04900 24.36400
H  -3.19000 31.21200 30.47500
H  -6.19300 32.20900 33.28000
H  -7.07400 31.15400 32.14600
H  -7.01100 32.86800 31.84900

