158

Mg 24.89200 -6.51500 47.94900
C  27.31700 -4.32400 46.81800
C  22.64600 -5.23600 45.60700
C  22.96500 -9.15200 48.69100
C  27.48700 -8.06300 50.12100
N  25.00800 -4.90200 46.52100
C  26.06900 -4.12400 46.17600
C  25.68700 -3.12800 45.09600
C  24.17800 -3.34900 44.85200
C  23.89500 -4.54600 45.76700
C  23.24400 -2.07700 45.05400
C  26.57900 -3.22400 43.78700
C  27.39800 -1.99400 43.31700
H  27.01500 -1.50100 41.89400
N  22.98600 -7.04600 47.24500
C  22.24800 -6.40400 46.35700
C  20.97600 -7.10000 46.29700
C  21.04500 -8.28600 47.10100
C  22.37200 -8.20200 47.73000
C  19.89500 -6.60000 45.36700
C  19.87700 -9.33300 47.29400
O  18.89200 -9.34200 46.57200
C  19.98600 -10.50500 48.31500
N  25.14700 -8.26500 49.27900
C  24.15600 -9.10900 49.41200
C  24.35000 -10.23300 50.44000
C  25.77800 -9.85600 50.94900
C  26.19500 -8.66700 50.06700
C  23.24500 -10.37400 51.49900
C  26.74000 -11.10500 50.95800
C  27.10000 -11.57400 52.36600
N  26.99000 -6.30100 48.45200
C  27.81700 -6.92100 49.35900
C  29.06800 -6.15900 49.36000
C  28.90900 -5.13600 48.41700
C  27.66500 -5.31700 47.80300
C  30.40200 -6.54800 50.18800
C  29.55500 -3.96100 47.86300
O  30.67000 -3.51300 48.07300
C  28.55700 -3.47900 46.77500
C  28.19100 -2.04700 47.18800
O  27.41600 -1.77200 48.06900
O  28.91700 -1.12700 46.38100
C  28.59300 0.28700 46.72300
H  22.02000 -4.91300 44.77300
H  22.34600 -10.01000 48.96400
H  28.24600 -8.36200 50.84700
H  25.74400 -2.17700 45.62600
H  23.96500 -3.70400 43.84400
H  23.25500 -1.54500 44.10300
H  23.70900 -1.44300 45.80900
H  22.23100 -2.26700 45.40800
H  25.85200 -3.34200 42.98400
H  27.07900 -4.19100 43.73100
H  28.46000 -2.24100 43.31100
H  27.24200 -1.15000 43.98900
H  19.93600 -5.51000 45.38800
H  18.91400 -6.91000 45.72600
H  20.16600 -6.93400 44.36600
H  20.67100 -11.19000 47.81500
H  18.95700 -10.86600 48.29800
H  20.27500 -10.11400 49.29100
H  24.34100 -11.16100 49.86900
H  25.51900 -9.42000 51.91400
H  23.66300 -10.30000 52.50200
H  22.70400 -11.32100 51.52200
H  22.48200 -9.60200 51.39200
H  27.60200 -10.88600 50.32900
H  26.18200 -11.90000 50.46400
H  26.80600 -10.97300 53.22600
H  28.18200 -11.55100 52.49300
H  26.84700 -12.62300 52.52000
H  30.26100 -6.14200 51.18900
H  31.26300 -6.24200 49.59300
H  30.45900 -7.63500 50.22700
H  28.95200 -3.42900 45.76000
H  28.84200 0.31600 47.78400
H  27.51200 0.40800 46.66000
H  29.00600 0.96300 45.97500
Mg 43.97500 3.99800 47.17300
C  41.93100 6.72500 46.71800
C  41.37300 1.84400 46.57500
C  46.16200 1.31800 47.21200
C  46.69500 6.22500 47.17100
N  41.96600 4.26500 46.76400
C  41.28300 5.46600 46.59500
C  39.82800 5.28600 46.17900
C  39.66200 3.72200 46.55000
C  41.09500 3.23200 46.64900
C  38.76900 3.52000 47.77800
C  39.59800 5.56900 44.66400
C  38.37800 6.45400 44.34600
H  37.67900 6.19800 43.03700
N  43.82100 1.88600 47.03400
C  42.64400 1.18700 46.82400
C  42.85000 -0.22600 46.90500
C  44.28200 -0.37500 46.90400
C  44.87200 0.96700 47.07300
C  41.71200 -1.25900 46.82000
C  45.03400 -1.70900 46.71500
O  44.33000 -2.77800 46.65800
C  46.40800 -1.82000 46.33600
N  46.18000 3.82200 47.25300
C  46.81100 2.60700 47.31100
C  48.31700 2.81000 47.41000
C  48.42600 4.30200 47.67700
C  47.04100 4.86300 47.22200
C  48.93400 1.90000 48.55500
C  49.75600 4.88600 47.08800
C  50.77100 5.52600 48.04600
N  44.31100 6.02400 46.95000
C  45.45500 6.79800 46.92200
C  45.12300 8.21300 46.91400
C  43.71100 8.26400 46.87900
C  43.30800 6.93100 46.83300
C  46.05300 9.42000 46.90200
C  42.56600 9.07500 46.69500
O  42.53000 10.29600 46.64500
C  41.31400 8.16900 46.68000
C  40.44500 8.53900 47.79700
O  40.48600 8.00800 48.87000
O  39.53800 9.47400 47.55500
C  38.52500 9.81700 48.57500
H  40.50600 1.19900 46.41500
H  46.93900 0.55200 47.24400
H  47.51600 6.94400 47.12400
H  39.32200 5.97500 46.85400
H  39.26400 3.10000 45.74800
H  38.13800 4.38400 47.98900
H  39.34000 3.26100 48.66900
H  38.04500 2.75300 47.50100
H  39.40100 4.56600 44.28600
H  40.45500 5.98000 44.13000
H  38.54500 7.52600 44.45200
H  37.67700 6.30600 45.16700
H  41.90400 -1.80300 45.89500
H  40.69900 -0.86300 46.74500
H  41.73100 -1.93100 47.67800
H  47.16100 -1.84800 47.12400
H  46.76000 -1.16200 45.54200
H  46.49800 -2.81300 45.89600
H  48.77300 2.49800 46.47100
H  48.56000 4.43000 48.75100
H  48.24300 1.38100 49.21900
H  49.58800 2.44200 49.23900
H  49.54100 1.10600 48.12100
H  49.51600 5.65400 46.35300
H  50.24700 4.15900 46.44200
H  51.15600 6.43200 47.57800
H  51.63000 4.94800 48.38900
H  50.30900 5.65800 49.02400
H  46.75700 9.47600 46.07200
H  46.53200 9.30900 47.87400
H  45.39900 10.28100 46.76800
H  40.86500 8.23800 45.68900
H  38.86300 10.33900 49.46900
H  37.96800 8.97100 48.97600
H  37.78600 10.38600 48.01000

