158

Mg 43.30000 3.83100 47.98800
C  41.53800 6.63300 47.45700
C  40.43300 2.04600 47.34600
C  45.16200 1.01900 47.38400
C  46.32100 5.79300 47.72500
N  41.19100 4.31200 47.18800
C  40.72700 5.53300 47.24200
C  39.17500 5.53600 47.15300
C  38.74600 4.04900 47.31000
C  40.20100 3.42200 47.35500
C  38.08100 3.67700 48.65000
C  38.60900 6.17800 45.84500
C  37.01900 6.14700 45.70100
H  36.54800 6.01600 44.24600
N  42.86900 1.74200 47.68000
C  41.63300 1.30500 47.42200
C  41.76700 -0.13900 47.23500
C  43.13600 -0.54100 47.48200
C  43.83600 0.80100 47.54800
C  40.52000 -1.01300 47.00600
C  43.62700 -1.99400 47.50000
O  42.90300 -2.92100 47.30500
C  45.04200 -2.29100 47.77300
N  45.51800 3.49600 47.34100
C  45.91700 2.16600 47.41700
C  47.46000 2.13800 47.39300
C  47.81300 3.67800 47.50400
C  46.49500 4.42700 47.51500
C  48.19500 1.24600 48.46500
C  48.72500 4.22300 46.37300
C  49.91500 5.12400 46.89900
N  43.93800 5.77400 47.90800
C  45.11300 6.46600 47.80500
C  44.86200 7.83800 47.77400
C  43.47000 7.94600 47.66900
C  42.93400 6.67900 47.75200
C  45.80600 8.82700 47.70000
C  42.40300 8.95700 47.48500
O  42.54300 10.17800 47.31600
C  41.08400 8.18300 47.41100
C  40.16800 8.56100 48.53000
O  39.89000 7.78000 49.46600
O  39.63600 9.86200 48.33900
C  38.75300 10.36400 49.43000
H  39.51500 1.45500 47.34100
H  45.74000 0.10300 47.24300
H  47.26100 6.31500 47.91800
H  38.68800 6.05900 47.97600
H  38.08800 3.66500 46.53100
H  38.81400 3.17900 49.28300
H  37.27300 2.95800 48.51600
H  37.76800 4.56700 49.19600
H  39.08500 5.71900 44.97800
H  38.87400 7.23400 45.89000
H  36.57800 7.06000 46.10200
H  36.57200 5.33500 46.27300
H  40.64200 -1.85700 46.32700
H  39.76000 -0.49900 46.41700
H  40.15400 -1.41000 47.95400
H  45.62200 -2.19000 46.85600
H  45.02100 -3.21600 48.34800
H  45.36300 -1.52300 48.47800
H  47.84100 1.88300 46.40400
H  48.33200 3.92500 48.43000
H  47.50300 0.71200 49.11700
H  48.89600 1.92400 48.95200
H  48.80300 0.46100 48.01700
H  48.12600 4.77300 45.64700
H  49.28700 3.47000 45.82100
H  50.86700 4.81500 46.46800
H  49.98000 5.07200 47.98600
H  49.71400 6.16300 46.63600
H  46.16200 8.84200 46.67000
H  46.68500 8.55400 48.28500
H  45.37300 9.80600 47.90400
H  40.45100 8.36500 46.54200
H  38.86100 9.77600 50.34200
H  37.71400 10.48900 49.12600
H  39.14200 11.35400 49.66900
Mg 48.05600 34.02400 26.77700
C  46.21500 32.76700 29.40000
C  48.35400 37.01600 28.63100
C  49.18400 35.57900 24.07900
C  47.23600 31.24000 24.93400
N  47.29700 34.85200 28.68100
C  46.84700 33.97500 29.65500
C  46.91400 34.63100 31.06200
C  47.11700 36.05700 30.65800
C  47.64100 35.99500 29.25700
C  45.94000 37.04400 30.91000
C  48.12600 34.05300 31.86100
C  48.14300 34.03200 33.40100
H  47.41100 35.09400 34.15600
N  48.67600 36.06300 26.38900
C  48.85600 37.04600 27.32300
C  49.49000 38.12700 26.62800
C  49.66200 37.79800 25.20200
C  49.15700 36.41900 25.16100
C  49.69900 39.42800 27.23000
C  50.13600 38.63500 23.99300
O  50.09000 38.26300 22.80500
C  50.76300 39.93000 24.34500
N  48.08400 33.54800 24.69400
C  48.74400 34.32000 23.81600
C  48.79300 33.60600 22.39500
C  48.29200 32.17900 22.73600
C  47.78800 32.37400 24.18100
C  47.98100 34.46500 21.36700
C  49.41900 31.10800 22.85300
C  48.88400 29.68800 22.61800
N  47.09100 32.21000 27.10600
C  46.79600 31.20600 26.26000
C  45.92600 30.19900 26.88100
C  45.67500 30.84800 28.14400
C  46.38400 32.05500 28.17700
C  45.40800 28.89600 26.35000
C  44.95400 30.65200 29.40400
O  44.25200 29.75000 29.80400
C  45.24300 31.94000 30.25100
C  45.48900 31.67700 31.67800
O  46.25800 30.83700 32.15400
O  44.71100 32.51900 32.45500
C  44.58800 32.24800 33.87000
H  48.41300 37.88900 29.28400
H  49.56100 35.85100 23.09100
H  46.92000 30.31000 24.45700
H  45.96900 34.60300 31.60400
H  47.89700 36.46500 31.30100
H  45.96800 37.86100 30.18800
H  46.05600 37.48000 31.90200
H  44.97700 36.53400 30.91100
H  49.08600 34.54900 31.72100
H  48.15900 32.98000 31.67200
H  49.18600 34.07000 33.71600
H  47.77000 33.06200 33.73000
H  50.62100 39.86200 26.84400
H  49.84000 39.29300 28.30300
H  48.82200 40.07100 27.16200
H  51.66300 39.73700 24.92900
H  49.96100 40.50600 24.80600
H  50.93900 40.43900 23.39800
H  49.84300 33.50500 22.12100
H  47.43100 31.89100 22.13200
H  47.02100 34.61300 21.86200
H  47.83900 33.91400 20.43700
H  48.38800 35.46400 21.21300
H  49.87300 31.11400 23.84300
H  50.09600 31.44600 22.06800
H  49.45500 29.12400 21.88000
H  47.90100 29.70900 22.14700
H  48.79800 29.17700 23.57700
H  45.73800 28.50200 25.38900
H  44.33300 29.07500 26.38600
H  45.80900 28.21000 27.09700
H  44.34000 32.54800 30.18900
H  45.51000 32.60000 34.33300
H  44.49900 31.20400 34.17100
H  43.81700 32.83400 34.36900

