158

Mg 45.13100 3.70800 47.27800
C  43.15000 6.79500 46.89900
C  42.22100 2.06000 46.92400
C  47.02700 1.04900 47.10900
C  48.01300 5.86700 47.07800
N  42.92600 4.34700 46.69600
C  42.38200 5.61100 46.85500
C  40.82600 5.51100 46.92000
C  40.55900 3.97700 47.02300
C  42.00700 3.40100 46.86100
C  39.87400 3.46100 48.37500
C  40.06800 6.30000 45.80600
C  40.81900 6.57600 44.42800
H  40.07000 6.05400 43.16900
N  44.69400 1.77700 47.08100
C  43.44900 1.23700 46.96300
C  43.57000 -0.15500 46.78700
C  44.93000 -0.49000 46.92500
C  45.62200 0.75700 47.07200
C  42.40200 -1.03600 46.46700
C  45.48700 -1.93900 46.87000
O  44.68600 -2.89100 46.72400
C  46.90000 -2.27200 46.86600
N  47.16500 3.54800 46.94300
C  47.67900 2.31000 47.07900
C  49.22900 2.38900 47.11100
C  49.60700 3.90300 47.09100
C  48.16800 4.53300 46.90700
C  49.94700 1.58800 48.18200
C  50.45800 4.38400 45.89200
C  51.81800 5.12200 46.37600
N  45.53900 5.84900 47.08400
C  46.77100 6.54200 47.00500
C  46.51700 8.04600 47.05200
C  45.12900 8.07700 47.15400
C  44.54500 6.79500 47.02900
C  47.57800 9.04000 46.81700
C  43.95600 8.98000 47.25600
O  44.00800 10.24600 47.41700
C  42.63600 8.24900 47.05000
C  41.76400 8.47500 48.24200
O  41.78600 7.75000 49.26000
O  40.90100 9.48300 47.95100
C  40.03600 9.96500 49.01300
H  41.32000 1.44600 46.86100
H  47.72200 0.24400 47.35700
H  48.93800 6.42200 47.24500
H  40.57600 6.00600 47.85900
H  39.93500 3.61100 46.20800
H  39.01700 2.83600 48.12600
H  39.57800 4.33900 48.94900
H  40.59100 2.82700 48.89700
H  39.85800 7.22900 46.33600
H  39.14000 5.76700 45.59900
H  41.76000 6.02700 44.47300
H  40.91700 7.66100 44.41200
H  41.61900 -0.43000 46.01200
H  41.98600 -1.52100 47.35000
H  42.62200 -1.87000 45.80000
H  46.91300 -3.35400 46.73400
H  47.48600 -1.89200 47.70200
H  47.39100 -1.79800 46.01600
H  49.56700 1.95600 46.16900
H  49.95000 4.25100 48.06600
H  50.47800 0.73200 47.76600
H  49.14200 1.20700 48.81100
H  50.69100 2.09300 48.79700
H  49.93800 5.12700 45.28700
H  50.77400 3.57000 45.23900
H  52.72000 4.56100 46.13000
H  51.69700 5.46000 47.40500
H  51.92200 6.05700 45.82600
H  48.34200 9.01200 47.59400
H  47.18800 10.05700 46.78300
H  48.04000 8.81200 45.85600
H  42.19500 8.65900 46.14200
H  40.40700 9.57100 49.95900
H  38.99600 9.69600 48.82800
H  40.09200 11.05100 49.09400
Mg -1.15200 35.28900 26.66700
C  -3.01700 33.60600 29.14700
C  -0.01900 37.43600 28.96600
C  0.36700 36.92900 24.06400
C  -2.59900 33.11100 24.17800
N  -1.45500 35.44800 28.82700
C  -2.23000 34.62200 29.61200
C  -2.15900 35.17200 31.07500
C  -1.33900 36.46900 30.98400
C  -0.85300 36.38500 29.47600
C  -2.21100 37.67600 31.42000
C  -1.44400 33.96500 31.87600
C  -2.18600 33.47700 33.13200
H  -1.34800 33.21600 34.41600
N  -0.01700 37.00800 26.48000
C  0.42800 37.71000 27.59800
C  1.24200 38.85000 27.13600
C  1.27600 38.74200 25.69600
C  0.51700 37.52600 25.33100
C  1.86400 39.80500 28.10900
C  1.78400 39.70700 24.64700
O  1.66600 39.51400 23.46400
C  2.55000 40.97300 25.12100
N  -1.01900 34.98400 24.43000
C  -0.32800 35.83600 23.62200
C  -0.32000 35.37800 22.16700
C  -1.29300 34.13000 22.16500
C  -1.64300 34.02400 23.67200
C  -0.66600 36.50300 21.17400
C  -0.73600 32.78100 21.65800
C  0.35400 32.18200 22.48800
N  -2.46200 33.72400 26.62400
C  -3.00600 32.97800 25.57200
C  -3.94400 31.97900 26.13000
C  -3.91600 32.17700 27.47800
C  -3.04000 33.24700 27.77600
C  -4.69600 30.85500 25.40900
C  -4.42900 31.69400 28.78200
O  -5.29100 30.81900 28.99300
C  -3.83200 32.52900 29.86300
C  -4.84200 33.24300 30.65000
O  -5.32000 34.33800 30.36600
O  -5.14500 32.51500 31.79200
C  -6.40200 32.88300 32.57500
H  0.33700 38.00200 29.83000
H  1.01900 37.33400 23.28600
H  -3.06300 32.54500 23.36800
H  -3.13500 35.37200 31.51700
H  -0.44900 36.32500 31.59700
H  -3.20200 37.47800 31.82900
H  -2.35900 38.25300 30.50800
H  -1.62700 38.29100 32.10400
H  -0.44700 34.22300 32.23400
H  -1.15500 33.16200 31.19900
H  -2.45800 32.43400 32.97000
H  -3.07000 34.08100 33.33900
H  2.94100 39.73600 27.96200
H  1.65600 39.63500 29.16500
H  1.58700 40.82900 27.86100
H  1.97600 41.70300 25.69100
H  2.85100 41.52300 24.22900
H  3.41200 40.67300 25.71500
H  0.68600 35.06800 21.88600
H  -2.23800 34.31500 21.65500
H  -1.13800 37.33500 21.69700
H  -1.26700 36.14100 20.33900
H  0.23000 36.86500 20.67100
H  -0.31100 32.94300 20.66800
H  -1.57900 32.09100 21.62500
H  -0.17600 31.38200 23.00500
H  0.85500 32.84300 23.19600
H  1.11900 31.75700 21.83800
H  -5.00800 30.02300 26.04100
H  -4.09500 30.42900 24.60500
H  -5.62700 31.30900 25.07000
H  -3.24600 31.91900 30.55100
H  -6.20400 33.20900 33.59600
H  -6.91900 31.92500 32.64700
H  -7.01200 33.56300 31.98100

