158

Mg 55.50500 23.01100 44.56000
C  53.18000 25.44800 43.11100
C  53.21700 20.65300 43.49600
C  57.90700 20.85000 44.95800
C  57.75000 25.68500 45.05300
N  53.39200 23.05900 43.42900
C  52.66400 24.15200 43.02300
C  51.24500 23.72400 42.47500
C  51.09900 22.28200 42.98400
C  52.57400 21.92300 43.34400
C  50.24700 22.18400 44.15000
C  51.03300 23.81700 40.93800
C  49.71800 24.53400 40.45900
H  49.19200 24.13400 39.07700
N  55.53500 20.98000 44.41500
C  54.50300 20.18700 43.92600
C  55.01200 18.80400 43.92800
C  56.32600 18.78900 44.43900
C  56.66500 20.22500 44.62200
C  54.11800 17.72500 43.52600
C  57.26200 17.51400 44.74700
O  56.83500 16.40500 44.49800
C  58.64500 17.64300 45.24100
N  57.57400 23.21800 44.60200
C  58.38900 22.16100 45.01900
C  59.73600 22.52600 45.68300
C  59.54000 24.10000 45.78600
C  58.14000 24.34500 45.14600
C  60.09000 21.81000 47.02000
C  60.75700 24.93300 45.14600
C  61.16200 26.17500 45.96700
N  55.55100 25.16300 44.11800
C  56.50400 26.09600 44.47900
C  55.95100 27.43000 44.23700
C  54.69600 27.18500 43.60100
C  54.49400 25.81400 43.56400
C  56.55000 28.70600 44.67500
C  53.57500 27.85700 43.01400
O  53.36300 29.09200 42.88500
C  52.50200 26.77500 42.64200
C  52.48500 26.78800 41.14500
O  53.45400 26.41300 40.45800
O  51.36500 27.44100 40.65000
C  51.42000 27.49600 39.20900
H  52.54500 19.81500 43.29800
H  58.74400 20.22200 45.27100
H  58.34400 26.50700 45.45600
H  50.47800 24.34100 42.94300
H  50.66500 21.62400 42.23100
H  49.26800 21.75100 43.94400
H  50.00000 23.11800 44.65400
H  50.79700 21.51200 44.80900
H  50.93500 22.80500 40.54700
H  51.84000 24.35000 40.43500
H  49.80700 25.62100 40.48400
H  48.92200 24.28400 41.16000
H  53.80800 17.92000 42.50000
H  53.20200 17.68500 44.11500
H  54.60700 16.76100 43.38500
H  59.25400 18.24200 44.56400
H  59.17000 16.69000 45.28800
H  58.64500 18.02100 46.26300
H  60.38900 22.14800 44.89700
H  59.31400 24.42500 46.80200
H  59.24100 21.26500 47.43200
H  60.31000 22.60100 47.73700
H  60.98500 21.18700 47.02300
H  60.56900 25.27700 44.12900
H  61.59600 24.24000 45.08300
H  60.27100 26.50700 46.50000
H  61.41600 26.96300 45.25800
H  62.04900 26.05600 46.58900
H  56.71000 28.83800 45.74500
H  55.95900 29.60000 44.47300
H  57.50900 28.77900 44.16400
H  51.51400 26.99000 43.04800
H  51.94300 28.44000 39.05500
H  50.42300 27.59100 38.78000
H  51.85600 26.68400 38.62800
Mg 26.91700 50.70100 27.16200
C  24.68800 51.78300 29.74800
C  28.96600 49.48200 29.77800
C  28.93000 49.52100 24.81100
C  24.90700 52.05600 24.75700
N  26.88800 50.77500 29.58700
C  25.78800 51.13400 30.30900
C  25.96300 50.65400 31.85000
C  27.38200 49.96400 31.76500
C  27.79300 50.09000 30.27600
C  28.54400 50.69400 32.56100
C  24.80000 49.69000 32.37900
C  24.27200 50.11200 33.78400
H  25.22900 50.43800 34.96100
N  28.63800 49.73700 27.24600
C  29.35000 49.36400 28.38800
C  30.64600 48.83400 27.95100
C  30.65600 48.83500 26.58200
C  29.36700 49.37500 26.16700
C  31.68400 48.49600 28.95400
C  31.84000 48.34700 25.61900
O  31.70900 48.48400 24.39900
C  32.97800 47.62100 26.15500
N  26.96200 50.85800 25.05200
C  27.82500 50.16300 24.29400
C  27.54300 50.34800 22.81000
C  26.20100 51.03600 22.78800
C  25.97000 51.36100 24.25400
C  28.66300 51.09900 22.11800
C  25.03400 50.21400 22.22600
C  24.79300 48.79300 22.77900
N  25.19300 51.73000 27.23600
C  24.48300 52.16000 26.14900
C  23.25100 52.79700 26.63100
C  23.27400 52.57900 28.02500
C  24.51500 52.04000 28.34600
C  22.08700 53.34700 25.78400
C  22.51700 52.84300 29.27700
O  21.42500 53.36100 29.54100
C  23.41900 52.26400 30.40300
C  23.64400 53.38100 31.31100
O  24.27900 54.37500 30.94000
O  23.03700 53.14400 32.54400
C  23.08600 54.17900 33.58600
H  29.67300 49.12700 30.53000
H  29.57400 48.96700 24.12300
H  24.25700 52.56400 24.04100
H  26.12400 51.55700 32.43900
H  27.34400 48.91000 32.03800
H  28.76200 50.15500 33.48300
H  28.24200 51.71900 32.78000
H  29.49600 50.80800 32.04300
H  25.08600 48.64700 32.51400
H  23.86700 49.59900 31.82200
H  23.63500 49.28400 34.09700
H  23.51000 50.88300 33.67400
H  31.51500 48.54100 30.03000
H  32.51000 49.17600 28.74400
H  32.03400 47.46500 28.92400
H  33.58600 48.22300 26.83000
H  33.50900 47.47400 25.21400
H  32.75100 46.71500 26.71600
H  27.51000 49.33200 22.41500
H  26.25400 51.97400 22.23700
H  28.85500 50.49800 21.22900
H  29.53300 51.16700 22.77100
H  28.37000 52.05500 21.68500
H  25.03400 50.15100 21.13800
H  24.05500 50.56900 22.54900
H  25.04200 48.69300 23.83600
H  25.49200 48.17600 22.21400
H  23.80900 48.37200 22.57000
H  21.80500 52.43400 25.25900
H  22.40300 54.18200 25.15900
H  21.25900 53.64700 26.42500
H  22.87700 51.44300 30.87300
H  24.13200 54.25700 33.88200
H  22.43800 53.91700 34.42200
H  22.67900 55.14300 33.27900

