158

Mg 26.00000 50.56600 26.27300
C  23.90300 51.62000 28.76100
C  28.06000 49.27400 28.52200
C  28.23500 50.05600 23.77800
C  24.04200 52.54200 24.04400
N  26.01700 50.65600 28.36500
C  25.01200 50.98500 29.18900
C  25.30400 50.50300 30.62000
C  26.82800 50.18000 30.58900
C  27.04300 50.06800 29.06200
C  27.90600 51.11900 31.23400
C  24.36200 49.31600 31.23300
C  23.99000 49.29800 32.72600
H  24.72300 50.25900 33.80400
N  27.85000 49.64600 26.17000
C  28.50100 49.08100 27.21300
C  29.71400 48.41200 26.76200
C  29.77400 48.64300 25.30300
C  28.60400 49.49600 25.00000
C  30.55600 47.55200 27.65300
C  30.88200 48.14600 24.33300
O  30.84400 48.32200 23.11000
C  31.95400 47.27100 24.77200
N  26.20000 51.33300 24.30700
C  27.13300 50.86700 23.44100
C  27.06300 51.56200 22.11700
C  25.68700 52.22400 22.15800
C  25.18000 52.00700 23.59100
C  28.27000 52.53300 21.94000
C  24.74800 51.69200 20.97400
C  23.80200 50.52000 21.35500
N  24.23300 51.76500 26.32300
C  23.49000 52.38000 25.33900
C  22.22700 52.85300 25.87300
C  22.28600 52.62900 27.23600
C  23.58600 51.93700 27.45200
C  21.10600 53.50800 25.12000
C  21.68800 52.73700 28.57700
O  20.65800 53.27200 28.85300
C  22.66300 51.97200 29.59100
C  23.00600 52.77800 30.79400
O  23.71900 53.77900 30.74800
O  22.52600 52.30000 31.97700
C  22.73900 53.02900 33.27600
H  28.78700 48.90900 29.25000
H  28.85800 49.68900 22.95900
H  23.39700 53.06900 23.33700
H  25.10900 51.37600 31.24200
H  26.88300 49.23600 31.13100
H  28.52800 51.59300 30.47400
H  28.52600 50.42800 31.80500
H  27.46600 51.90500 31.84700
H  24.67700 48.29900 30.99900
H  23.44400 49.38700 30.64900
H  24.16400 48.28100 33.07700
H  22.90900 49.38500 32.83300
H  30.16800 47.52000 28.67100
H  31.55300 47.94200 27.86000
H  30.73000 46.55200 27.25700
H  31.56900 46.25200 24.82500
H  32.36600 47.64100 25.71100
H  32.76300 47.46000 24.06700
H  27.05500 50.72000 21.42600
H  25.72800 53.29900 21.98600
H  28.91300 52.53200 22.81900
H  28.04100 53.54400 21.60100
H  28.92400 52.01600 21.23700
H  25.45700 51.19500 20.31200
H  24.32400 52.51300 20.39600
H  23.65300 50.54000 22.43500
H  24.08500 49.49600 21.11200
H  22.80000 50.62100 20.93800
H  20.67100 54.20500 25.83500
H  20.34400 52.80600 24.78100
H  21.50100 53.89500 24.18100
H  22.30100 51.04700 30.04000
H  21.91300 53.74000 33.28000
H  23.61400 53.67900 33.25400
H  22.82200 52.29800 34.08100
Mg 6.64100 57.17200 41.87800
C  5.75600 53.65700 41.65800
C  9.53600 56.50000 40.48400
C  7.05400 60.51100 41.65000
C  3.60000 57.68600 43.55800
N  7.42900 55.22900 41.02800
C  6.92100 53.99000 40.96900
C  8.06600 53.05600 40.46900
C  9.35400 54.02200 40.40100
C  8.75100 55.36300 40.74100
C  10.54600 53.66500 41.27600
C  7.83200 52.29700 39.02300
C  8.54000 50.93600 38.93700
H  8.03600 49.84500 37.92900
N  8.09600 58.40300 41.02500
C  9.22800 57.91200 40.54200
C  10.08600 59.02300 40.19700
C  9.35500 60.25500 40.45500
C  8.10500 59.74400 41.07800
C  11.51000 58.98400 39.51000
C  9.76600 61.67300 39.98200
O  10.87900 61.80700 39.50100
C  8.81800 62.84400 39.97000
N  5.47300 58.90500 42.27700
C  5.78400 60.19500 42.18500
C  4.77700 61.15000 42.77400
C  3.65800 60.22400 43.27200
C  4.23200 58.83000 43.04700
C  5.39000 62.08500 43.86800
C  2.23300 60.44000 42.71200
C  1.16900 60.72600 43.78600
N  5.00600 55.96400 42.55700
C  3.86600 56.26900 43.30600
C  3.12500 55.15900 43.70300
C  3.79000 54.09300 43.04000
C  4.93500 54.61100 42.37900
C  1.91800 55.10000 44.60000
C  3.81300 52.69100 42.74400
O  2.94700 51.83900 42.96100
C  5.17500 52.35400 42.06500
C  4.93100 51.37900 40.98100
O  4.36300 51.61400 39.94600
O  5.37500 50.20700 41.44500
C  5.21200 49.10700 40.52400
H  10.54000 56.21100 40.16700
H  7.16900 61.59300 41.56300
H  2.75700 57.91400 44.21400
H  8.21900 52.31100 41.25000
H  9.70300 54.11800 39.37300
H  10.44500 52.74100 41.84600
H  10.67800 54.50100 41.96400
H  11.39700 53.43500 40.63500
H  8.19500 52.93500 38.21700
H  6.83100 52.21200 38.60000
H  8.60200 50.65200 39.98700
H  9.59600 51.03500 38.68400
H  11.42400 59.41700 38.51400
H  11.88200 57.96200 39.43200
H  12.22600 59.54800 40.10700
H  7.87200 62.65800 39.46100
H  9.20900 63.64900 39.34700
H  8.50500 63.21100 40.94800
H  4.35300 61.77900 41.99100
H  3.54500 60.35000 44.34900
H  4.87800 61.89500 44.81100
H  5.16200 63.07600 43.47500
H  6.47100 62.01400 43.98900
H  1.99500 59.49000 42.23400
H  2.24500 61.25600 41.98900
H  0.22600 60.42000 43.33400
H  0.99400 61.78800 43.95600
H  1.38100 60.19100 44.71200
H  2.14800 54.44900 45.44300
H  1.13400 54.53400 44.09600
H  1.59500 56.09600 44.90300
H  5.76400 51.98100 42.90400
H  4.22000 48.72100 40.75400
H  5.97800 48.37000 40.76300
H  5.19800 49.27600 39.44700

