158

Mg 40.96300 41.58700 27.13700
C  39.77500 43.78900 29.56700
C  41.41800 39.31700 29.61400
C  42.20500 39.41100 24.82400
C  40.53200 44.05400 24.72000
N  40.58100 41.59100 29.37700
C  40.05000 42.55200 30.12100
C  40.15900 42.18100 31.70500
C  40.64400 40.74400 31.58300
C  40.95300 40.53400 30.11700
C  41.74800 40.17900 32.47400
C  38.82300 42.49600 32.42300
C  38.27400 41.54000 33.45300
H  37.56900 42.31900 34.54200
N  41.76100 39.58100 27.14600
C  41.81900 38.85800 28.32000
C  42.23100 37.50500 28.00800
C  42.37600 37.44800 26.59700
C  42.15400 38.87100 26.07200
C  42.33900 36.36000 29.01800
C  42.87200 36.32300 25.63500
O  42.97500 36.42300 24.38400
C  43.17600 35.07500 26.18000
N  41.39100 41.72100 25.06300
C  41.92000 40.73500 24.36300
C  41.89100 41.03800 22.86700
C  41.32600 42.49600 22.81100
C  41.01700 42.82900 24.25100
C  43.20900 40.73700 21.99500
C  40.13900 42.58300 21.85400
C  38.87100 41.79600 22.22600
N  40.30500 43.46700 27.12900
C  40.19400 44.40800 26.04000
C  39.72100 45.67100 26.46500
C  39.46600 45.46400 27.82500
C  39.88700 44.12000 28.19700
C  39.67700 46.94600 25.67700
C  38.99800 46.10200 29.06500
O  38.58700 47.18500 29.33000
C  39.26200 45.10100 30.22600
C  40.26300 45.76500 31.15200
O  41.44800 45.96900 30.86900
O  39.61900 46.09700 32.28800
C  40.36900 46.72700 33.36900
H  41.24100 38.60100 30.41900
H  42.53700 38.79900 23.98300
H  40.39100 44.94000 24.09900
H  40.98300 42.70900 32.18600
H  39.74600 40.14800 31.74700
H  42.70800 40.18900 31.95900
H  41.39300 39.21100 32.82800
H  41.83700 40.70100 33.42600
H  38.09500 42.52900 31.61300
H  38.85600 43.52800 32.77300
H  39.01600 40.96700 34.00800
H  37.51700 40.86200 33.05800
H  41.81400 36.63600 29.93300
H  43.40400 36.12900 29.02300
H  41.84100 35.44400 28.69900
H  43.89900 35.11900 26.99400
H  43.58000 34.45100 25.38300
H  42.27400 34.58700 26.54900
H  41.11900 40.40800 22.42400
H  42.03200 43.22700 22.41800
H  43.89700 40.64500 22.83500
H  43.24100 41.55600 21.27600
H  43.14100 39.81800 21.41300
H  40.46200 42.12200 20.92100
H  39.84700 43.60700 21.61900
H  38.04400 42.37700 21.81900
H  38.74200 41.59000 23.28900
H  38.84200 40.79500 21.79700
H  40.66600 47.21800 25.31000
H  39.33200 47.71700 26.36600
H  39.00900 46.91600 24.81600
H  38.28700 44.90500 30.67300
H  41.43800 46.84800 33.19500
H  40.20400 46.14300 34.27500
H  39.98700 47.73800 33.51300
Mg -0.25500 43.28800 24.61100
C  2.02800 42.98700 27.33600
C  -2.73300 42.34800 26.84200
C  -2.33900 43.30800 22.05700
C  2.54400 43.58300 22.42200
N  -0.33500 42.83500 26.87500
C  0.71900 42.82500 27.75000
C  0.28000 42.60300 29.19400
C  -1.27300 42.15100 29.00100
C  -1.49400 42.48300 27.51500
C  -1.66100 40.67400 29.33300
C  0.55400 43.91200 30.05400
C  1.05200 43.63700 31.44100
H  0.80100 42.25400 32.04000
N  -2.27300 43.07600 24.45300
C  -3.05700 42.65400 25.48000
C  -4.38500 42.61700 24.84200
C  -4.40700 42.83200 23.51400
C  -2.92400 43.06500 23.27700
C  -5.56600 42.19500 25.64500
C  -5.54200 42.90400 22.44700
O  -5.35900 43.20800 21.27100
C  -6.92800 42.63800 22.89600
N  0.04600 43.36900 22.55200
C  -0.96400 43.42400 21.68000
C  -0.54900 43.76100 20.19600
C  1.01000 43.91400 20.43000
C  1.21100 43.65700 21.90800
C  -1.05800 42.72700 19.15800
C  1.42100 45.31100 19.90200
C  0.97200 46.51400 20.67700
N  1.85600 43.22100 24.78600
C  2.85400 43.35900 23.80300
C  4.08900 43.38400 24.44400
C  3.85000 43.13000 25.80600
C  2.43800 42.98400 25.97500
C  5.39400 43.46000 23.84400
C  4.48400 42.95700 27.13200
O  5.68100 43.00800 27.46800
C  3.26800 42.97400 28.13700
C  3.49800 41.76300 28.93800
O  2.98800 40.64100 28.71900
O  4.28100 42.17600 30.00000
C  4.65500 41.07200 30.85200
H  -3.50300 42.03500 27.55000
H  -3.03000 43.29500 21.21200
H  3.40800 43.89400 21.83200
H  0.73100 41.66600 29.51900
H  -1.85300 42.93700 29.48300
H  -2.26200 40.70800 30.24200
H  -0.85600 39.99400 29.61300
H  -2.30300 40.24400 28.56500
H  -0.39000 44.45200 30.13500
H  1.17800 44.61000 29.49500
H  0.53500 44.37600 32.05200
H  2.12800 43.78200 31.34400
H  -6.12400 41.44000 25.09200
H  -6.21100 43.06200 25.78700
H  -5.23800 41.82600 26.61700
H  -7.16500 41.57500 22.94300
H  -7.50500 43.10600 22.09900
H  -7.23600 43.23000 23.75800
H  -0.95300 44.75400 20.00400
H  1.55300 43.15700 19.86400
H  -0.22100 42.15400 18.76000
H  -1.52300 43.24900 18.32100
H  -1.75100 41.98900 19.56300
H  1.01200 45.41100 18.89600
H  2.50900 45.33900 19.83800
H  1.85100 46.98700 21.11300
H  0.43400 46.22100 21.57800
H  0.46600 47.23800 20.03900
H  6.05800 43.37600 24.70400
H  5.55500 44.36400 23.25600
H  5.58200 42.70700 23.07800
H  3.30500 43.86800 28.75900
H  5.69200 41.24900 31.13600
H  4.65900 40.03900 30.50400
H  4.05700 41.03100 31.76300

