158

Mg 0.07600 8.17200 26.72700
C  0.79000 10.40500 29.33100
C  -0.41300 5.71100 29.03000
C  0.06700 5.91500 24.14600
C  0.79600 10.70000 24.43100
N  0.36800 7.99500 28.92700
C  0.56900 9.05100 29.76300
C  0.24800 8.69000 31.27300
C  0.09100 7.14700 31.10100
C  0.04500 6.90800 29.58400
C  1.25800 6.26200 31.73400
C  -1.05200 9.40600 31.76100
C  -1.23500 9.60200 33.27200
H  -0.03600 9.30700 34.11000
N  -0.11100 6.14300 26.57600
C  -0.48500 5.35700 27.68700
C  -0.73600 4.05800 27.17800
C  -0.67800 4.05200 25.73200
C  -0.19200 5.40500 25.38900
C  -1.04400 2.88300 28.16200
C  -0.98900 2.96400 24.70300
O  -0.89700 3.03000 23.49300
C  -1.49100 1.65500 25.18900
N  0.64500 8.27300 24.61200
C  0.41400 7.23300 23.72700
C  0.67500 7.57900 22.31500
C  0.50000 9.21600 22.31600
C  0.59700 9.44900 23.87000
C  1.90000 6.99300 21.65200
C  -0.81500 9.71800 21.74200
C  -0.69400 10.88900 20.73300
N  0.71400 10.10600 26.70300
C  0.85200 11.09700 25.76800
C  1.19300 12.33300 26.36300
C  1.10200 12.10600 27.71200
C  0.80200 10.77000 27.92500
C  1.38000 13.63900 25.64600
C  1.24700 12.76100 29.01500
O  1.55300 13.87200 29.28300
C  1.11000 11.67000 30.12700
C  2.34600 11.66300 30.90000
O  3.37400 11.09000 30.53300
O  2.14500 12.30800 32.10600
C  3.28600 12.34100 33.06800
H  -0.74600 5.02700 29.81400
H  -0.09200 5.29800 23.26000
H  0.66600 11.57000 23.78300
H  1.16500 8.94900 31.80200
H  -0.80000 6.74900 31.58800
H  0.90600 5.46600 32.39100
H  1.88100 6.94800 32.30800
H  1.91200 5.83100 30.97700
H  -1.84200 8.72100 31.45400
H  -1.26100 10.36700 31.29100
H  -2.04400 8.93800 33.57600
H  -1.56600 10.61900 33.48300
H  -0.82600 3.00700 29.22300
H  -0.63400 1.95700 27.75800
H  -2.12500 2.75900 28.21500
H  -1.85500 1.15000 24.29400
H  -2.35500 1.79900 25.83800
H  -0.68200 1.26200 25.80400
H  -0.11000 7.11300 21.72000
H  1.38200 9.65600 21.84900
H  2.61800 6.78600 22.44600
H  2.26200 7.59900 20.82200
H  1.67000 6.00500 21.25400
H  -1.48400 10.11800 22.50400
H  -1.20400 8.81200 21.27900
H  0.28900 10.99600 20.27300
H  -0.92200 11.83000 21.23300
H  -1.40200 10.74200 19.91700
H  0.86000 13.70800 24.69100
H  2.41600 13.95500 25.52900
H  1.09900 14.45700 26.31000
H  0.25200 11.91800 30.75100
H  4.12800 12.51200 32.39600
H  3.37900 11.32200 33.44200
H  3.09300 12.97300 33.93500
Mg 26.02300 1.49600 29.32900
C  27.91900 1.00600 32.25300
C  23.26300 1.91100 31.40300
C  24.07200 1.57200 26.62800
C  28.81100 0.66500 27.41000
N  25.63600 1.62300 31.57300
C  26.56600 1.43100 32.51200
C  26.04200 1.65300 33.88800
C  24.46700 1.71700 33.70300
C  24.46100 1.80300 32.14300
C  23.72500 0.51400 34.19600
C  26.70200 2.80800 34.78300
C  27.12600 2.48100 36.27900
H  27.03500 3.60200 37.40700
N  23.91800 1.63000 29.07000
C  22.97100 1.86500 30.01100
C  21.67300 1.90900 29.35100
C  21.80900 1.82900 27.93900
C  23.30000 1.65900 27.85600
C  20.37000 2.02700 30.13200
C  20.89000 1.89600 26.76700
O  21.29900 1.72900 25.61200
C  19.45400 2.36000 26.85900
N  26.32900 1.05100 27.26800
C  25.38900 1.27800 26.33900
C  25.95400 1.17000 24.94000
C  27.51000 0.95200 25.15700
C  27.57500 0.85600 26.69700
C  25.34900 0.19500 23.92400
C  28.46200 2.04300 24.52800
C  28.89900 3.34300 25.32700
N  27.99900 0.81500 29.71400
C  29.00200 0.51300 28.83400
C  30.20200 0.25800 29.60400
C  29.81800 0.33100 30.92600
C  28.45100 0.74800 30.94500
C  31.57200 -0.06800 29.06000
C  30.19300 0.35200 32.29300
O  31.30000 0.20400 32.78900
C  28.99700 0.70700 33.19000
C  28.69700 -0.45400 34.11900
O  28.01400 -1.47200 33.79600
O  29.18400 -0.22400 35.35400
C  28.58500 -1.11000 36.36900
H  22.45200 2.14400 32.09500
H  23.57300 1.86100 25.70000
H  29.68300 0.51800 26.77000
H  26.23100 0.70500 34.39200
H  24.05500 2.56800 34.24500
H  23.16400 -0.00300 33.41700
H  22.97500 0.85400 34.91000
H  24.23700 -0.28800 34.72700
H  25.94300 3.59000 34.82800
H  27.57200 3.17800 34.24000
H  28.18600 2.28700 36.11500
H  26.65800 1.58400 36.68400
H  20.39000 1.74500 31.18500
H  19.60700 1.34600 29.75600
H  19.99100 3.04700 30.18300
H  19.04600 1.58200 27.50300
H  18.95500 2.33700 25.89000
H  19.39800 3.34500 27.32400
H  25.92500 2.19000 24.55700
H  27.76600 -0.01300 24.72000
H  25.97100 -0.68800 23.77600
H  25.33000 0.67400 22.94400
H  24.35200 -0.11400 24.23400
H  28.09000 2.32000 23.54200
H  29.31300 1.38800 24.33700
H  28.40700 3.37100 26.30000
H  28.69300 4.29500 24.83800
H  29.97000 3.14300 25.33400
H  31.72800 0.65800 28.26200
H  31.65400 -1.13200 28.84000
H  32.39100 0.18700 29.73300
H  29.29300 1.59600 33.74600
H  28.74500 -2.18000 36.23200
H  27.50300 -0.97900 36.40300
H  29.14300 -0.85400 37.27000

