158

Mg 46.71700 26.43500 28.98100
C  47.48400 28.57700 31.70600
C  45.55700 24.05700 31.27400
C  46.83200 24.06700 26.58600
C  48.33700 28.70700 26.80500
N  46.55900 26.34800 31.29400
C  46.81900 27.39700 32.13700
C  46.45100 27.00700 33.63900
C  46.02300 25.51000 33.48800
C  45.99000 25.30600 31.92000
C  46.83100 24.35800 34.26800
C  45.34300 27.97600 34.33500
C  45.79100 28.42500 35.75600
H  46.16400 27.40600 36.83900
N  46.11300 24.42600 28.91500
C  45.58300 23.63100 29.90800
C  45.15600 22.29400 29.34800
C  45.53300 22.28300 27.99400
C  46.16600 23.60200 27.76900
C  44.44000 21.28200 30.28400
C  45.45000 21.12400 26.96600
O  45.86500 21.21800 25.85200
C  44.81200 19.78800 27.39100
N  47.60000 26.35500 27.03300
C  47.43300 25.25200 26.24900
C  47.87200 25.51100 24.73600
C  48.16800 26.99800 24.88800
C  47.98500 27.39700 26.34300
C  49.10100 24.67600 24.35800
C  47.31500 28.02600 24.02900
C  48.14200 28.99400 23.19900
N  47.70100 28.33300 29.17400
C  48.30600 29.11100 28.18800
C  48.88200 30.29400 28.83200
C  48.53300 30.09400 30.20400
C  47.86200 28.86300 30.34800
C  49.56900 31.39200 28.15100
C  48.51000 30.71400 31.56100
O  48.88700 31.83000 31.94700
C  47.98000 29.64400 32.62000
C  49.07300 29.07900 33.48900
O  50.05300 28.45400 33.01500
O  48.95900 29.40000 34.78600
C  50.07800 29.17600 35.74100
H  45.18900 23.44100 32.09700
H  46.92100 23.28400 25.83000
H  48.75000 29.41300 26.08100
H  47.38200 27.07000 34.20300
H  44.98800 25.36800 33.79900
H  47.13400 23.57700 33.57000
H  46.10100 23.88400 34.92500
H  47.75000 24.63600 34.78300
H  44.37200 27.50000 34.47500
H  45.17200 28.85300 33.71100
H  45.11700 29.18500 36.14900
H  46.71500 29.00200 35.78700
H  43.45300 21.33900 29.82400
H  44.29400 21.63000 31.30700
H  44.91100 20.29900 30.30400
H  45.38100 19.36200 28.21700
H  44.93600 19.09000 26.56300
H  43.78000 19.98700 27.67800
H  46.97000 25.27600 24.17000
H  49.22400 27.20800 24.72200
H  49.72600 25.05100 23.54800
H  48.72200 23.70400 24.04000
H  49.73500 24.58100 25.23900
H  46.59800 28.56700 24.64700
H  46.77300 27.45900 23.27300
H  47.64700 29.12400 22.23700
H  49.20900 28.78200 23.13300
H  48.11600 29.93500 23.74800
H  49.35100 31.52000 27.09100
H  50.60900 31.10200 28.30000
H  49.37500 32.29800 28.72400
H  47.19000 30.09100 33.22400
H  50.27000 30.15000 36.19100
H  50.99300 28.72000 35.36400
H  49.76900 28.51700 36.55200
Mg 27.27200 50.55200 26.62500
C  25.01500 51.80200 29.13500
C  29.49200 50.02100 29.42200
C  29.46000 49.77900 24.51300
C  24.90100 51.50700 24.30200
N  27.35400 51.12800 28.98800
C  26.20400 51.27500 29.72200
C  26.42600 51.17300 31.24500
C  27.98300 50.84400 31.32800
C  28.32200 50.72800 29.82800
C  28.86600 51.81200 32.22500
C  25.57200 50.05400 31.92400
C  24.62100 50.61800 32.98000
H  24.47300 49.75400 34.30200
N  29.21400 49.96200 26.93000
C  29.94000 49.71500 28.10800
C  31.22200 49.23500 27.71100
C  31.32500 49.20700 26.26300
C  29.95600 49.67000 25.84200
C  32.43800 49.00200 28.70600
C  32.58800 48.75400 25.34700
O  32.53500 48.88700 24.12100
C  33.89500 48.30200 25.92600
N  27.20000 50.70300 24.68100
C  28.26400 50.33500 23.99000
C  27.85000 50.01800 22.53000
C  26.41600 50.57700 22.35500
C  26.14200 51.06500 23.84100
C  28.76600 50.59400 21.49900
C  25.30400 49.63200 21.82900
C  24.44000 50.08700 20.66600
N  25.40000 51.44400 26.64600
C  24.55700 51.74800 25.60200
C  23.22700 52.13100 26.12800
C  23.41700 52.19700 27.48800
C  24.71800 51.78800 27.78100
C  22.08400 52.61200 25.23900
C  22.71700 52.55100 28.68900
O  21.58800 52.86800 28.90800
C  23.72800 52.24300 29.89800
C  23.91600 53.41600 30.83800
O  24.59800 54.41000 30.59300
O  23.15300 53.19200 31.93600
C  23.24100 54.24900 32.89700
H  30.07700 49.66000 30.27100
H  30.16600 49.35000 23.79900
H  24.21700 51.72300 23.47800
H  26.12700 52.19000 31.49800
H  28.10700 49.86000 31.78000
H  28.30200 52.70000 32.51100
H  29.84100 52.03600 31.79200
H  29.05800 51.31300 33.17500
H  26.20200 49.26200 32.32900
H  25.11800 49.52700 31.08500
H  23.62100 50.55400 32.55000
H  24.86800 51.64200 33.26100
H  32.37800 49.56100 29.64000
H  33.35800 49.31100 28.21000
H  32.32600 47.96100 29.00900
H  34.43000 47.56600 25.32700
H  33.64800 47.69100 26.79400
H  34.57400 49.12300 26.15400
H  27.85000 48.93500 22.40700
H  26.48800 51.46400 21.72500
H  29.63500 50.87000 22.09600
H  28.43700 51.53600 21.05900
H  29.08100 49.84100 20.77700
H  24.67100 49.37500 22.67800
H  25.70600 48.66300 21.53200
H  23.40000 50.12200 20.99200
H  24.50100 49.37000 19.84800
H  24.86100 51.00600 20.25900
H  22.12300 52.40300 24.17000
H  22.09800 53.69600 25.34400
H  21.11800 52.29800 25.63600
H  23.35200 51.42100 30.50600
H  23.24600 55.27700 32.53600
H  23.90000 54.06000 33.74400
H  22.32400 54.18000 33.48300

