158

Mg 46.94600 24.97500 29.18300
C  47.72100 27.39000 31.65800
C  46.03400 22.80000 31.58900
C  46.81100 22.65300 26.79000
C  48.22200 27.27700 26.93700
N  46.83600 25.10000 31.38300
C  47.23200 26.18200 32.21400
C  46.80600 25.88200 33.69500
C  46.36900 24.37600 33.67300
C  46.34800 24.03800 32.12300
C  47.09800 23.29900 34.46100
C  45.67900 26.88600 34.22400
C  46.10100 27.74400 35.38900
H  45.06400 27.87200 36.53300
N  46.35700 23.01400 29.19300
C  46.00900 22.25500 30.26900
C  45.56000 20.96600 29.89900
C  45.79800 20.90900 28.49900
C  46.27900 22.21800 28.04400
C  44.93600 19.93900 30.94300
C  45.48000 19.79700 27.49300
O  45.69400 19.94700 26.28600
C  44.91300 18.53300 27.88500
N  47.46300 24.99400 27.11800
C  47.32600 23.90400 26.40600
C  47.72500 24.13600 24.85600
C  47.81800 25.74300 24.96800
C  47.83500 26.04800 26.40200
C  49.09600 23.39000 24.49100
C  46.61400 26.41400 24.27100
C  45.27500 26.17800 24.92900
N  47.75300 26.97900 29.23100
C  48.32400 27.71400 28.23900
C  48.86700 28.96800 28.74400
C  48.59100 28.86900 30.12400
C  47.94200 27.68600 30.33900
C  49.64600 30.05900 27.96500
C  48.70400 29.54200 31.43000
O  49.13600 30.63900 31.74700
C  48.18400 28.59500 32.49300
C  49.31900 28.30100 33.39200
O  50.23900 27.52600 33.13400
O  49.02100 28.90100 34.63400
C  50.05500 28.62200 35.68300
H  45.49600 22.22500 32.34600
H  46.89000 21.83200 26.07300
H  48.73400 27.88700 26.19000
H  47.69700 25.84600 34.32300
H  45.33500 24.23100 33.98700
H  46.56500 23.17500 35.40400
H  48.09400 23.67900 34.69100
H  47.00800 22.33100 33.96900
H  44.77900 26.32700 34.48500
H  45.41900 27.65500 33.49700
H  46.19000 28.77300 35.04100
H  47.06100 27.42000 35.79100
H  45.13000 18.90100 30.67400
H  43.87300 20.06900 31.14500
H  45.29600 20.12800 31.95500
H  45.74700 17.88600 28.15700
H  44.43500 17.98800 27.07100
H  44.15600 18.59000 28.66700
H  46.97800 23.84900 24.11500
H  48.77100 26.07400 24.55600
H  49.55400 23.05000 25.42000
H  49.86700 24.04500 24.08700
H  48.87500 22.56800 23.81000
H  46.59000 26.00100 23.26300
H  46.74200 27.49300 24.18800
H  44.47600 26.10900 24.19100
H  45.11000 27.03400 25.58400
H  45.26500 25.18800 25.38600
H  50.52000 30.35400 28.54600
H  48.93200 30.87800 27.88400
H  50.00400 29.79800 26.96900
H  47.39800 29.14900 33.00700
H  50.01700 29.43700 36.40700
H  51.07900 28.58800 35.31100
H  49.79500 27.73200 36.25600
Mg -9.22200 41.12300 42.25100
C  -8.33100 37.88200 41.70200
C  -6.43200 42.02200 40.35500
C  -10.35300 44.17900 42.20100
C  -12.12900 39.97900 43.86300
N  -7.65800 40.02100 41.05400
C  -7.49800 38.74600 41.05000
C  -6.33100 38.32800 40.25900
C  -5.61900 39.68200 39.87100
C  -6.59900 40.62100 40.47800
C  -4.15300 39.87300 40.28300
C  -6.68000 37.48500 38.91400
C  -5.50200 36.54400 38.52000
H  -4.60200 37.04300 37.39500
N  -8.50300 42.81900 41.38900
C  -7.30700 43.02200 40.70700
C  -7.17100 44.41700 40.29600
C  -8.32400 45.06900 40.81700
C  -9.10100 44.05500 41.61000
C  -5.99400 44.86500 39.42200
C  -8.62100 46.54700 40.51200
O  -7.91000 47.18700 39.73800
C  -9.78300 47.23500 41.12800
N  -11.13300 41.94400 42.69400
C  -11.31200 43.31500 42.74200
C  -12.62100 43.69100 43.45100
C  -13.17500 42.30900 43.99300
C  -12.12500 41.31200 43.46700
C  -12.40800 44.77800 44.50200
C  -14.68800 42.10900 43.51200
C  -15.72500 41.67700 44.50800
N  -10.05200 39.31200 42.88300
C  -11.19100 38.97400 43.45500
C  -11.28900 37.56200 43.69000
C  -10.12700 37.09800 42.97100
C  -9.47100 38.17500 42.41800
C  -12.39900 36.77700 44.44900
C  -9.30900 35.91400 42.80700
O  -9.48500 34.79300 43.22100
C  -8.18800 36.40700 41.83000
C  -6.89600 36.03600 42.44300
O  -6.52700 36.46200 43.56800
O  -6.25900 34.97700 41.80600
C  -5.14700 34.35400 42.57600
H  -5.57900 42.31000 39.73800
H  -10.69600 45.20700 42.33500
H  -13.00800 39.73400 44.46300
H  -5.66200 37.86800 40.98600
H  -5.74100 39.82800 38.79800
H  -4.09400 40.37600 41.24800
H  -3.59000 40.53000 39.62000
H  -3.64900 38.91000 40.20400
H  -7.02600 38.12700 38.10400
H  -7.51400 36.79800 39.05800
H  -5.98700 35.64500 38.14100
H  -4.98400 36.39400 39.46700
H  -6.15100 44.86000 38.34400
H  -5.09500 44.28600 39.63200
H  -5.72600 45.89200 39.67200
H  -9.89100 48.22300 40.68000
H  -9.70500 47.31300 42.21200
H  -10.69100 46.66300 40.93400
H  -13.14200 44.18500 42.63100
H  -13.01800 42.31500 45.07200
H  -12.90400 45.65500 44.08600
H  -11.39000 45.16900 44.49900
H  -12.68000 44.46100 45.50900
H  -14.63300 41.31000 42.77400
H  -15.01000 42.96400 42.91700
H  -15.39000 41.93000 45.51400
H  -16.05100 40.63800 44.45600
H  -16.55900 42.36700 44.38400
H  -13.37400 36.60900 43.99100
H  -12.51600 37.14800 45.46700
H  -12.04000 35.76200 44.61300
H  -8.38400 35.99300 40.84100
H  -5.48000 34.20300 43.60300
H  -4.19900 34.89100 42.54800
H  -4.95400 33.38700 42.11200

