158

Mg -3.13700 34.89100 27.03900
C  -4.82400 32.96000 29.41200
C  -2.35400 37.14900 29.62600
C  -1.49500 36.71900 24.83100
C  -4.17200 32.78200 24.58500
N  -3.53900 35.10500 29.28100
C  -4.16800 34.07600 30.00800
C  -4.11900 34.36200 31.53800
C  -3.54300 35.89600 31.55800
C  -3.11400 36.06200 30.06600
C  -4.67700 36.94900 31.87000
C  -3.07800 33.27000 32.15900
C  -3.47400 32.96500 33.59700
H  -2.81300 33.77200 34.75800
N  -1.99000 36.67200 27.25200
C  -1.75900 37.44800 28.40900
C  -0.79400 38.45700 28.02000
C  -0.63200 38.37500 26.56300
C  -1.41100 37.21200 26.15300
C  -0.25400 39.56200 29.04300
C  0.16700 39.28100 25.71800
O  0.18400 39.23800 24.47000
C  0.96700 40.33000 26.40000
N  -2.94200 34.85400 24.98200
C  -2.14700 35.59500 24.30800
C  -1.91100 35.17000 22.83800
C  -2.59000 33.81100 22.91900
C  -3.31100 33.82200 24.24000
C  -2.59000 36.06200 21.72400
C  -1.60600 32.58900 22.91600
C  -1.75200 31.67200 21.64400
N  -4.28800 33.19200 27.00200
C  -4.62200 32.46100 25.89600
C  -5.59900 31.39600 26.25000
C  -5.61000 31.47100 27.68200
C  -4.81300 32.64300 28.04200
C  -6.20000 30.39000 25.43700
C  -6.16300 30.86600 28.91900
O  -6.91800 29.90500 29.07200
C  -5.60700 31.75800 30.08800
C  -6.78000 32.19700 30.90100
O  -7.68300 32.93300 30.61000
O  -6.76500 31.52600 32.06200
C  -7.87500 31.92000 33.03900
H  -1.98900 37.80900 30.41600
H  -0.83800 37.26500 24.15200
H  -4.49400 32.15000 23.75500
H  -5.12100 34.33400 31.96600
H  -2.70400 36.08700 32.22700
H  -5.49600 36.41000 32.34700
H  -5.06100 37.52900 31.03000
H  -4.30100 37.72300 32.53900
H  -2.02100 33.52800 32.22400
H  -3.03900 32.47900 31.40900
H  -3.23400 31.91100 33.73700
H  -4.49400 33.06400 33.96900
H  -0.79800 40.46800 28.78000
H  0.81200 39.77900 28.97300
H  -0.51900 39.26300 30.05700
H  0.31200 41.04500 26.89900
H  1.50500 40.87900 25.62700
H  1.74200 39.90000 27.03300
H  -0.86700 35.04000 22.55100
H  -3.37700 33.61200 22.19100
H  -3.46800 36.47400 22.22200
H  -2.88000 35.51900 20.82500
H  -1.94300 36.86500 21.37100
H  -1.65000 31.99900 23.83100
H  -0.56900 32.92500 22.88700
H  -0.91100 31.63200 20.95200
H  -2.54300 32.06500 21.00600
H  -2.05600 30.64600 21.85200
H  -6.35700 30.93200 24.50500
H  -7.10200 29.95500 25.86800
H  -5.47700 29.58000 25.33500
H  -4.93500 31.19300 30.73400
H  -8.85400 32.03300 32.57200
H  -7.50500 32.79700 33.57200
H  -8.13600 31.19000 33.80500
Mg -5.44200 25.60600 26.31200
C  -4.54100 27.17500 29.26600
C  -7.48300 23.50200 28.17100
C  -6.17300 23.91500 23.45500
C  -3.37900 27.82400 24.52900
N  -5.89400 25.32200 28.46400
C  -5.38700 26.06400 29.46900
C  -6.01700 25.69700 30.79500
C  -6.61800 24.26500 30.43400
C  -6.76300 24.40800 28.95900
C  -5.74100 22.99600 30.78500
C  -7.08600 26.76500 31.28500
C  -6.90400 27.24800 32.76900
H  -6.45000 26.18800 33.87000
N  -6.64900 23.87000 25.92800
C  -7.47200 23.19600 26.80000
C  -8.31600 22.25900 26.05600
C  -7.79000 22.18600 24.72000
C  -6.85400 23.39000 24.66100
C  -9.40100 21.42900 26.77900
C  -8.00700 21.21800 23.70100
O  -7.49300 21.40700 22.58800
C  -8.73900 19.95700 24.02300
N  -4.84400 25.86900 24.24200
C  -5.26600 24.96500 23.32200
C  -4.63700 25.39900 21.99200
C  -3.94600 26.82200 22.29300
C  -4.03900 26.87300 23.76100
C  -3.80900 24.33300 21.18500
C  -4.66600 28.03900 21.58200
C  -4.02400 28.41400 20.27200
N  -4.20400 27.16100 26.73600
C  -3.41800 27.99200 25.89600
C  -2.67700 28.91900 26.69600
C  -3.19100 28.68500 28.00800
C  -4.02500 27.58600 27.97200
C  -1.65800 29.85800 26.13500
C  -3.07400 29.16700 29.39700
O  -2.42600 30.07900 29.92400
C  -3.95400 28.12900 30.25400
C  -3.12700 27.43500 31.30700
O  -2.13600 26.69800 31.10700
O  -3.54300 27.85300 32.57600
C  -2.78600 27.27700 33.72600
H  -8.09000 22.82000 28.77100
H  -6.31100 23.39200 22.50700
H  -2.73200 28.52500 23.99800
H  -5.20400 25.63800 31.51900
H  -7.64400 24.05600 30.73700
H  -5.62000 22.33600 29.92600
H  -6.21000 22.35500 31.53200
H  -4.76800 23.33400 31.14100
H  -8.08400 26.37300 31.09100
H  -6.96600 27.63800 30.64300
H  -7.89400 27.55800 33.10300
H  -6.20300 28.07900 32.84300
H  -10.16700 21.31800 26.01200
H  -9.86700 21.93000 27.62700
H  -9.05300 20.44300 27.08700
H  -8.48600 19.64500 25.03700
H  -8.46200 19.14900 23.34600
H  -9.80100 20.10300 23.82300
H  -5.53400 25.52600 21.38500
H  -2.90600 26.64900 22.01600
H  -3.93600 23.33200 21.59700
H  -2.73900 24.53900 21.15700
H  -4.06400 24.32500 20.12500
H  -4.47200 28.96200 22.12900
H  -5.72100 27.77100 21.52500
H  -3.29800 29.22300 20.35600
H  -4.76500 28.66600 19.51400
H  -3.42300 27.61700 19.83400
H  -1.44100 29.66000 25.08600
H  -0.69500 30.06000 26.60400
H  -2.10000 30.83900 26.31000
H  -4.83400 28.51700 30.76700
H  -2.46300 26.24800 33.57400
H  -3.49200 27.32100 34.55400
H  -1.86500 27.83800 33.88600

