158

Mg 48.43300 46.15800 42.67400
C  45.36400 44.87200 41.85000
C  49.80800 43.00400 41.72900
C  51.60200 47.28300 43.00300
C  47.14100 49.25400 43.04700
N  47.68600 44.21000 41.57500
C  46.32400 43.94700 41.51700
C  46.02400 42.53600 40.96700
C  47.46200 41.90700 41.38200
C  48.47300 43.09100 41.45100
C  47.47600 41.04800 42.70600
C  45.46700 42.48200 39.55200
C  44.42400 41.31100 39.22400
H  44.56000 40.64600 37.86500
N  50.43700 45.30400 42.41600
C  50.72700 44.02800 41.94100
C  52.12100 43.86000 41.83300
C  52.71600 45.12800 42.28000
C  51.58500 45.94900 42.54500
C  52.74900 42.54300 41.37000
C  54.23300 45.48000 42.24600
O  55.04100 44.55500 42.12700
C  54.78900 46.79700 42.47700
N  49.27300 48.05500 42.69100
C  50.60400 48.24500 43.00200
C  50.91800 49.72000 43.22100
C  49.52900 50.32100 42.89600
C  48.54700 49.12400 42.83800
C  51.57900 50.00100 44.64300
C  49.49300 51.14800 41.56500
C  49.68900 52.60900 41.79400
N  46.64600 46.87100 42.67500
C  46.19400 48.20500 42.87100
C  44.75100 48.25000 42.88800
C  44.40100 46.87800 42.57100
C  45.62100 46.19300 42.31100
C  43.92800 49.40500 43.35800
C  43.26800 45.99100 42.36600
O  42.02400 46.09500 42.41500
C  43.81900 44.61400 41.82700
C  43.39900 43.48100 42.71100
O  42.41700 42.77500 42.45800
O  44.14400 43.40500 43.80700
C  43.58600 42.46100 44.80000
H  50.21600 42.01400 41.51500
H  52.57600 47.71900 43.23100
H  46.72300 50.25900 43.13600
H  45.20700 42.10600 41.54600
H  47.87600 41.32100 40.56100
H  47.62800 41.62000 43.62100
H  48.26200 40.29400 42.75500
H  46.52300 40.51800 42.72400
H  46.20900 42.35900 38.76400
H  45.06000 43.47900 39.38000
H  43.40800 41.66200 39.40800
H  44.53100 40.54700 39.99400
H  52.45600 42.38000 40.33300
H  52.46100 41.65500 41.93300
H  53.83300 42.65600 41.37300
H  54.28700 47.59200 41.92500
H  55.84000 46.71900 42.20200
H  54.68400 46.96400 43.54900
H  51.56700 49.99000 42.38800
H  49.29500 50.86500 43.81100
H  52.28600 49.18400 44.78600
H  50.76300 49.91900 45.36100
H  52.07100 50.97200 44.58500
H  48.57800 50.94700 41.00800
H  50.35100 50.87400 40.95000
H  49.39500 52.80700 42.82500
H  49.05000 53.01800 41.01100
H  50.71100 52.96300 41.66600
H  44.44500 50.35500 43.48900
H  43.43600 49.19800 44.30800
H  43.16200 49.38800 42.58200
H  43.56700 44.42000 40.78400
H  43.55700 41.38300 44.64400
H  42.59100 42.74400 45.14400
H  44.30800 42.66200 45.59200
Mg 6.39900 54.40300 40.99100
C  6.11200 50.95900 41.10200
C  9.54900 53.96500 39.87200
C  6.64600 57.73700 40.88800
C  3.15100 54.53200 42.23700
N  7.60800 52.58300 40.25300
C  7.32100 51.25700 40.50000
C  8.48500 50.42100 40.16600
C  9.69700 51.49500 40.17200
C  8.91200 52.78100 40.05500
C  10.56600 51.32700 41.53700
C  8.20000 49.70300 38.79700
C  8.24600 50.55300 37.51300
H  6.99600 50.81600 36.61500
N  7.87100 55.66300 40.58700
C  9.14800 55.27500 40.25600
C  9.92200 56.46600 40.05500
C  9.13400 57.62900 40.39000
C  7.82400 57.05900 40.61600
C  11.39200 56.46900 39.63900
C  9.63900 59.06100 40.37300
O  10.85300 59.27800 40.22000
C  8.67800 60.20800 40.62800
N  5.02100 55.88500 41.45700
C  5.40900 57.24500 41.23800
C  4.25300 58.13000 41.46600
C  3.01400 57.12400 41.65700
C  3.77000 55.76500 41.81200
C  4.46900 59.15600 42.62000
C  1.95400 57.25200 40.56000
C  0.47600 57.28500 40.97100
N  4.85300 53.07800 41.44200
C  3.70100 53.29600 42.17700
C  3.13000 52.08100 42.74600
C  4.05700 51.10600 42.32500
C  5.11300 51.79500 41.61500
C  1.85800 51.92600 43.45100
C  4.39600 49.70500 42.40100
O  3.98200 48.74900 43.05100
C  5.71400 49.54900 41.55100
C  5.21200 48.59400 40.50200
O  4.38500 48.87800 39.62900
O  5.87700 47.35600 40.57600
C  5.47800 46.48700 39.46900
H  10.60600 53.81000 39.64600
H  6.64100 58.82900 40.92300
H  2.14600 54.56800 42.66200
H  8.58900 49.62600 40.90500
H  10.42700 51.35100 39.37500
H  10.26400 50.34000 41.88600
H  10.19700 52.06700 42.24800
H  11.63000 51.41100 41.31200
H  7.27500 49.13000 38.85900
H  8.93400 48.93600 38.54900
H  8.95300 50.13700 36.79500
H  8.57200 51.56500 37.75100
H  12.00500 56.84600 40.45700
H  11.64800 57.11800 38.80200
H  11.87700 55.53900 39.34200
H  7.91900 60.26400 39.84700
H  9.26800 61.10500 40.81700
H  8.22900 59.99800 41.59800
H  4.07100 58.70100 40.55500
H  2.57500 57.17200 42.65400
H  4.05300 58.76100 43.54600
H  4.29800 60.20200 42.36400
H  5.53600 59.14600 42.84500
H  2.07100 56.41900 39.86700
H  2.14200 58.19500 40.04600
H  -0.01000 57.69300 40.08500
H  0.17900 57.80200 41.88400
H  0.02100 56.29500 41.01200
H  1.76200 52.58800 44.31200
H  1.71500 50.93000 43.87000
H  1.06100 52.25000 42.78100
H  6.44500 49.11300 42.23200
H  6.06400 46.69700 38.57500
H  4.41700 46.53700 39.22800
H  5.73700 45.47100 39.77000

