158

Mg 0.96100 6.86400 26.20300
C  1.99000 9.37600 28.66500
C  1.00000 4.61200 28.71000
C  0.24000 4.77300 23.92400
C  1.68000 9.47400 23.76400
N  1.44700 7.04100 28.45200
C  1.75000 8.07800 29.25300
C  1.56200 7.76000 30.68500
C  1.52300 6.19000 30.66500
C  1.31600 5.91400 29.17400
C  2.79000 5.46200 31.18200
C  0.28000 8.49900 31.41000
C  0.45400 8.72700 32.97000
H  1.75500 8.36900 33.72600
N  0.63300 4.96900 26.28300
C  0.74600 4.11100 27.38300
C  0.37600 2.72100 26.99900
C  0.01500 2.78900 25.60900
C  0.38500 4.17100 25.18000
C  0.19000 1.58100 28.06000
C  -0.50200 1.66300 24.71300
O  -0.95200 1.86600 23.61500
C  -0.52700 0.23800 25.26100
N  1.32200 7.00200 23.97000
C  0.65500 6.00100 23.33300
C  0.07400 6.48300 21.95000
C  0.58400 8.00400 21.88800
C  1.17500 8.24200 23.30900
C  0.45100 5.61200 20.72800
C  -0.43400 9.08100 21.49600
C  -0.05200 10.27500 20.62200
N  1.72100 9.00700 26.14500
C  1.92200 9.88700 25.08700
C  2.42300 11.10200 25.57300
C  2.38100 10.96100 26.93700
C  2.00200 9.66100 27.24900
C  3.08100 12.22800 24.72800
C  2.64300 11.71100 28.14200
O  3.00300 12.87700 28.25700
C  2.25300 10.76700 29.33100
C  3.40100 10.61900 30.20200
O  4.45700 10.08500 29.86200
O  3.14100 11.28600 31.40700
C  4.27400 11.50900 32.29900
H  0.99200 3.84300 29.48500
H  -0.09900 4.04400 23.18600
H  1.66100 10.28200 23.02900
H  2.40500 8.19900 31.21800
H  0.64700 5.92200 31.25700
H  2.52700 4.82600 32.02700
H  3.59000 6.14800 31.45900
H  3.08900 4.77200 30.39300
H  -0.62500 7.89500 31.47000
H  0.11900 9.46100 30.92500
H  -0.35500 8.17500 33.44900
H  0.20800 9.74300 33.28100
H  0.57300 0.61600 27.72900
H  -0.87900 1.50800 28.25900
H  0.56500 2.04300 28.97300
H  -0.96100 0.05600 26.24400
H  0.52700 0.04600 25.46300
H  -0.75200 -0.54900 24.54200
H  -1.01400 6.42300 21.97800
H  1.45000 8.04100 21.22700
H  0.98500 4.69500 20.97900
H  1.21900 6.11000 20.13700
H  -0.35300 5.36500 20.03500
H  -0.71700 9.45400 22.48100
H  -1.26300 8.64600 20.93900
H  -0.91100 10.75200 20.14900
H  0.63000 10.00800 19.81500
H  0.23400 11.07700 21.30300
H  2.38400 12.71900 24.04900
H  3.77600 11.77200 24.02200
H  3.47900 13.05500 25.31600
H  1.39600 11.03400 29.94900
H  4.83100 12.39500 31.99300
H  4.91900 10.65200 32.49200
H  3.83700 11.81400 33.25000
Mg 48.10700 34.08800 26.86500
C  46.06600 32.90500 29.41100
C  48.75100 36.89200 28.78000
C  49.59600 35.59600 24.17100
C  47.26100 31.34600 24.87300
N  47.54000 34.75200 28.85300
C  46.75200 34.08600 29.75300
C  47.01400 34.76900 31.19500
C  47.35700 36.20400 30.74400
C  47.96100 35.95300 29.39400
C  46.31400 37.42600 30.84600
C  48.13100 34.06400 32.13000
C  47.99200 33.98800 33.67600
H  47.08700 35.00700 34.48200
N  49.07600 35.95900 26.51800
C  49.23500 36.90700 27.47200
C  50.08000 37.94400 26.93400
C  50.32500 37.62600 25.56400
C  49.67500 36.33900 25.33600
C  50.55700 39.19600 27.71800
C  50.97200 38.56300 24.54500
O  51.02100 38.26100 23.37700
C  51.66300 39.84600 24.90000
N  48.28800 33.59300 24.85800
C  48.92300 34.40500 23.93100
C  48.88100 33.70500 22.57200
C  48.65000 32.16700 22.90600
C  48.07100 32.30600 24.31000
C  47.79700 34.36400 21.61000
C  49.97800 31.32900 22.89300
C  50.91500 31.54800 24.08800
N  46.90900 32.42300 27.02500
C  46.70800 31.38400 26.18700
C  45.85600 30.43100 26.81000
C  45.64700 30.94800 28.12800
C  46.31000 32.17000 28.17700
C  45.40300 29.14900 26.15900
C  44.95400 30.71900 29.42500
O  44.31200 29.75800 29.86600
C  45.13700 32.13100 30.23300
C  45.51200 31.82000 31.58000
O  46.39100 31.03700 31.88200
O  44.68400 32.49500 32.42000
C  44.77800 32.02100 33.81800
H  48.96900 37.81800 29.31600
H  50.12300 36.07900 23.34600
H  47.22800 30.39300 24.34200
H  46.14900 34.76700 31.85800
H  48.19300 36.64100 31.29000
H  46.49600 38.02800 31.73600
H  45.29700 37.03500 30.79600
H  46.44200 37.98900 29.92200
H  49.08400 34.56300 31.95000
H  48.16700 33.06500 31.69700
H  48.97800 33.97800 34.13900
H  47.68200 32.96500 33.89100
H  51.62500 38.98000 27.69700
H  50.24300 39.12800 28.75900
H  50.24600 40.16700 27.33300
H  52.25100 39.66900 25.80000
H  50.87600 40.60000 24.91200
H  52.38200 40.02300 24.10000
H  49.90800 33.89800 22.26400
H  47.95600 31.63600 22.25400
H  47.27200 35.21000 22.05400
H  47.13300 33.60000 21.20600
H  48.30500 34.75400 20.72800
H  50.44700 31.58300 21.94200
H  49.71200 30.27300 22.91100
H  50.61600 31.10000 25.03600
H  51.15000 32.59900 24.25700
H  51.91600 31.16900 23.87900
H  46.02500 28.88600 25.30300
H  44.37200 29.14400 25.80600
H  45.58600 28.35700 26.88600
H  44.10500 32.47600 30.28100
H  45.76200 32.13900 34.27200
H  44.43900 30.99500 33.96200
H  44.15800 32.70000 34.40300

