158

Mg 40.62500 8.40600 29.33500
C  42.19100 9.65900 32.08900
C  38.27900 6.95900 31.26000
C  39.39000 6.77600 26.56700
C  43.37900 9.27300 27.36200
N  40.28300 8.31400 31.44400
C  40.93000 9.14200 32.36200
C  40.13500 9.15800 33.66200
C  38.89500 8.17900 33.43300
C  39.17500 7.75600 31.97400
C  38.58600 6.97900 34.37600
C  39.67800 10.55800 34.10000
C  38.78300 10.72200 35.31400
H  39.42800 11.39900 36.53200
N  39.00700 7.08600 28.99500
C  38.23900 6.55100 29.91200
C  37.27500 5.75700 29.27900
C  37.49700 5.79300 27.88900
C  38.76600 6.53200 27.78400
C  36.28800 4.74900 30.06400
C  36.74700 5.06200 26.78600
O  37.18800 4.79100 25.64800
C  35.32200 4.59400 27.08300
N  41.35000 7.95200 27.29300
C  40.56800 7.44200 26.33400
C  41.22900 7.49700 24.87700
C  42.37800 8.42600 25.14900
C  42.33500 8.58200 26.70300
C  41.67200 6.11800 24.34600
C  42.08700 9.92100 24.64700
C  40.66500 10.45100 24.45200
N  42.47200 9.17200 29.64500
C  43.41200 9.60100 28.76800
C  44.45200 10.37200 29.40400
C  44.01800 10.35700 30.74500
C  42.75800 9.65900 30.81600
C  45.67300 10.82500 28.67400
C  44.34100 10.83200 32.10600
O  45.35300 11.40600 32.57100
C  43.16200 10.45200 33.01900
C  43.60300 9.70300 34.26500
O  43.76200 8.45400 34.34000
O  43.76800 10.62300 35.29100
C  44.03600 10.10500 36.60300
H  37.44600 6.55200 31.83600
H  38.80200 6.39800 25.72700
H  44.19300 9.69100 26.76800
H  40.78400 8.67600 34.39400
H  38.00200 8.79500 33.32300
H  39.35500 6.98300 35.14800
H  38.59200 6.00800 33.88100
H  37.58100 7.22200 34.72200
H  39.07500 11.02200 33.31900
H  40.52200 11.19200 34.37500
H  38.39000 9.77000 35.67100
H  37.88000 11.30100 35.11900
H  35.39300 5.36100 30.17800
H  36.66500 4.54900 31.06600
H  36.16100 3.82600 29.49800
H  34.92400 4.30900 26.10900
H  34.81200 5.48400 27.45100
H  35.28300 3.63900 27.60700
H  40.57900 7.86600 24.08400
H  43.29500 7.96400 24.78400
H  42.76000 6.07500 24.40600
H  41.39700 6.02400 23.29500
H  41.38400 5.36000 25.07300
H  42.46000 9.92400 23.62300
H  42.65300 10.61400 25.27100
H  39.94800 9.79800 24.94900
H  40.35400 10.55600 23.41200
H  40.63700 11.44400 24.90100
H  46.00500 10.15700 27.87900
H  46.46400 10.75600 29.42000
H  45.57000 11.87200 28.38900
H  42.81200 11.43600 33.33200
H  43.27200 10.36500 37.33500
H  44.98400 10.43000 37.03100
H  43.95600 9.01800 36.59900
Mg 26.34200 51.69100 26.31700
C  23.94100 52.68400 28.79700
C  28.32000 50.43100 28.92000
C  28.60500 50.66200 24.04100
C  24.18200 52.82900 23.88600
N  26.15600 51.69500 28.62200
C  25.09400 52.13100 29.39200
C  25.29900 51.80200 30.87300
C  26.78600 51.21000 30.88900
C  27.13500 51.08000 29.39900
C  27.87100 52.03000 31.72500
C  24.29800 50.83200 31.55600
C  24.03800 51.04000 33.04400
H  24.22100 49.84300 33.93900
N  28.32000 50.77500 26.41700
C  28.91500 50.34700 27.61800
C  30.17700 49.73800 27.30500
C  30.28900 49.72900 25.83900
C  29.01700 50.44600 25.37200
C  31.08900 49.18100 28.31300
C  31.51000 49.27400 25.03400
O  31.63700 49.55900 23.85800
C  32.58200 48.43900 25.68400
N  26.47800 51.97000 24.14300
C  27.57900 51.41900 23.44500
C  27.26900 51.41900 21.99600
C  25.71900 51.83200 21.94500
C  25.38800 52.30800 23.32000
C  28.23500 52.26100 21.13000
C  24.75700 50.69600 21.35400
C  23.95300 50.92100 20.06400
N  24.51900 52.75600 26.30200
C  23.80300 53.15400 25.21500
C  22.66100 53.81400 25.65100
C  22.61900 53.66300 27.02300
C  23.78900 52.93100 27.38100
C  21.56900 54.20900 24.76900
C  21.86500 53.83000 28.29900
O  20.79500 54.38500 28.44900
C  22.68600 53.13000 29.47200
C  22.98700 54.15600 30.46200
O  23.46900 55.29800 30.30900
O  22.61200 53.67400 31.67600
C  22.54300 54.52700 32.85200
H  29.05700 50.11500 29.66200
H  29.27900 50.13200 23.36400
H  23.41300 52.98600 23.12600
H  25.25200 52.74900 31.41100
H  26.76400 50.16900 31.21000
H  28.75300 52.25000 31.12400
H  28.03300 51.45300 32.63500
H  27.37900 52.94700 32.04900
H  24.66100 49.80500 31.58200
H  23.32700 50.74800 31.06800
H  23.05400 51.50700 33.09500
H  24.65000 51.89900 33.32000
H  30.65700 49.30200 29.30700
H  32.00300 49.77300 28.34100
H  31.21300 48.12500 28.07400
H  33.33000 48.14600 24.94700
H  32.20800 47.55000 26.19200
H  32.91200 49.20600 26.38500
H  27.30400 50.38400 21.65600
H  25.66600 52.69800 21.28500
H  29.23500 51.91700 21.39600
H  28.15700 53.24900 21.58500
H  27.95700 52.33000 20.07800
H  24.20500 50.20500 22.15600
H  25.36900 49.84800 21.04800
H  24.06000 50.28400 19.18600
H  24.24900 51.87200 19.62100
H  22.94700 51.15200 20.41600
H  21.86400 55.18000 24.37200
H  20.60500 54.29700 25.27100
H  21.53000 53.41600 24.02200
H  22.05500 52.36900 29.93200
H  21.50600 54.79100 33.06200
H  23.05900 55.47800 32.72200
H  23.06500 54.10700 33.71200

