158

Mg 35.72100 2.47500 30.45400
C  33.04300 3.33700 32.61800
C  37.79400 2.64400 33.15000
C  38.21400 1.58300 28.36300
C  33.58300 2.89400 27.68900
N  35.44600 2.92800 32.60900
C  34.28100 3.14200 33.26100
C  34.43900 3.18600 34.81200
C  35.99700 3.26400 34.94800
C  36.45900 2.93000 33.51400
C  36.55100 4.56800 35.55200
C  33.63800 1.96200 35.46700
C  32.83800 2.29400 36.70500
H  33.53400 3.23500 37.72700
N  37.62900 2.12800 30.69600
C  38.32200 2.12600 31.90400
C  39.73100 1.76200 31.65700
C  39.88200 1.71700 30.27100
C  38.55100 1.82300 29.69200
C  40.66900 1.49300 32.77300
C  41.21600 1.53800 29.51400
O  41.23600 1.50900 28.31500
C  42.45300 1.34900 30.30000
N  35.93300 2.37200 28.21600
C  37.09700 1.88100 27.67500
C  36.97400 1.96600 26.12500
C  35.34400 2.16900 25.95300
C  34.93600 2.59000 27.32400
C  37.83200 3.07500 25.50900
C  34.54800 0.84300 25.43600
C  33.14200 0.96900 24.78700
N  33.75000 3.05900 30.16100
C  33.05200 3.13200 28.98000
C  31.69100 3.44700 29.32700
C  31.62600 3.55200 30.72600
C  32.95700 3.31000 31.20000
C  30.49600 3.62100 28.37600
C  30.67100 3.93500 31.83000
O  29.47100 4.15500 31.86100
C  31.63600 3.66300 33.11400
C  31.47900 4.91000 33.86100
O  32.10400 5.93600 33.49000
O  30.70300 4.80700 35.01600
C  30.72700 5.99200 35.88700
H  38.45300 2.69600 34.01900
H  39.06500 1.28900 27.74400
H  32.85600 3.05600 26.89100
H  34.07400 4.12900 35.21800
H  36.18800 2.41000 35.59800
H  36.33200 4.77500 36.60000
H  36.28200 5.38800 34.88600
H  37.62700 4.48500 35.40300
H  34.33800 1.13700 35.60000
H  32.98800 1.54100 34.69900
H  32.61000 1.33200 37.16400
H  31.86600 2.60500 36.32000
H  40.24900 1.33400 33.76600
H  41.28600 2.39200 32.76400
H  41.33200 0.63600 32.66300
H  42.55500 2.20600 30.96600
H  43.27900 1.34800 29.59000
H  42.51000 0.43400 30.88900
H  37.16400 0.98100 25.69900
H  35.10500 3.04900 25.35600
H  37.31500 3.81100 24.89200
H  38.48800 2.52300 24.83600
H  38.42900 3.53900 26.29400
H  34.50500 0.12200 26.25200
H  35.19000 0.41500 24.66600
H  33.17800 0.84800 23.70400
H  32.62400 1.86800 25.11900
H  32.49600 0.21000 25.22900
H  29.55400 3.63800 28.92400
H  30.28100 2.83300 27.65500
H  30.43000 4.61200 27.92600
H  31.08800 2.94500 33.72400
H  29.95600 6.74700 35.73100
H  31.64900 6.57300 35.85900
H  30.59300 5.67600 36.92100
Mg 48.98800 45.98200 44.28100
C  45.85800 46.32800 42.60200
C  49.36000 42.98800 42.40700
C  52.40900 46.30300 44.56700
C  48.68500 49.31100 45.36700
N  47.75600 44.93000 42.65800
C  46.53100 45.13600 42.26100
C  45.89300 44.00500 41.39700
C  46.98600 42.91000 41.55600
C  48.14200 43.58700 42.20000
C  46.48500 41.63900 42.52100
C  45.49900 44.56900 40.01800
C  44.02000 44.41900 39.40700
H  43.88300 43.44800 38.16500
N  50.55900 44.76000 43.62200
C  50.54600 43.57100 42.95900
C  51.79500 42.92200 43.03800
C  52.69100 43.80800 43.75600
C  51.89800 45.05300 43.99900
C  52.04700 41.48900 42.47200
C  54.09500 43.37300 44.19900
O  54.60200 42.30900 43.78400
C  54.85600 44.15200 45.18800
N  50.36400 47.54600 44.84800
C  51.73000 47.48800 44.84700
C  52.41200 48.82300 45.38100
C  51.19900 49.74500 45.73400
C  50.00200 48.87100 45.28600
C  53.28800 48.58600 46.57800
C  51.20600 51.11600 45.03700
C  52.27100 52.08000 45.45800
N  47.43300 47.43300 44.29800
C  47.53900 48.76400 44.73000
C  46.16000 49.36000 44.61400
C  45.48000 48.38800 43.80800
C  46.36700 47.29000 43.57300
C  45.66100 50.73100 44.90700
C  44.23800 48.13900 43.13900
O  43.28000 48.78200 42.95200
C  44.37700 46.74400 42.30200
C  43.47300 45.77400 42.97200
O  43.70100 45.06000 43.96400
O  42.26400 45.85500 42.26700
C  41.22900 44.91200 42.73300
H  49.45300 41.98100 41.99400
H  53.48800 46.36600 44.72400
H  48.49600 50.31700 45.74700
H  44.96300 43.56000 41.75100
H  47.19200 42.48000 40.57600
H  45.47500 41.79700 42.90000
H  46.96500 41.61400 43.49900
H  46.52000 40.67200 42.02000
H  46.06600 44.08200 39.22400
H  45.94400 45.55300 39.86900
H  43.67200 45.43400 39.21700
H  43.46200 43.96500 40.22600
H  53.08400 41.43100 42.14300
H  51.40600 41.36400 41.59900
H  51.78400 40.76000 43.23900
H  54.25800 44.55200 46.00700
H  55.29200 44.97400 44.62100
H  55.58100 43.44700 45.59500
H  53.02900 49.16000 44.54900
H  51.13700 49.78200 46.82200
H  53.11800 47.60500 47.02200
H  53.17400 49.30900 47.38600
H  54.33600 48.65800 46.28600
H  50.27100 51.67000 45.12200
H  51.25900 50.89400 43.97100
H  51.75900 53.02600 45.63600
H  52.99100 52.32500 44.67700
H  52.75900 51.72600 46.36500
H  45.85100 51.10200 45.91400
H  44.62300 50.78400 44.57700
H  46.12700 51.40200 44.18500
H  44.31600 46.90600 41.22500
H  40.32600 45.52000 42.79700
H  41.49700 44.33200 43.61600
H  41.01300 44.12500 42.01100

