158

Mg -0.32700 7.33400 26.24500
C  0.95900 9.26000 28.96900
C  -0.64800 4.78300 28.59600
C  -1.40300 5.38600 23.85600
C  0.27900 9.99700 24.11700
N  0.04300 7.09800 28.50600
C  0.53300 8.04200 29.43700
C  0.38500 7.63000 30.88800
C  0.07500 6.09600 30.68200
C  -0.20300 5.98800 29.14100
C  1.23800 5.21500 31.19600
C  -0.68400 8.44300 31.61600
C  -0.85600 8.24600 33.16300
H  0.21000 7.64600 34.02300
N  -0.77100 5.28600 26.17300
C  -0.88400 4.41500 27.24900
C  -1.42900 3.12800 26.75500
C  -1.80500 3.34900 25.41500
C  -1.36000 4.71500 25.10200
C  -1.55000 1.88500 27.62800
C  -2.28300 2.30100 24.41600
O  -2.49000 2.65500 23.26200
C  -2.43100 0.84700 24.76300
N  -0.52600 7.62700 24.27000
C  -1.04300 6.69700 23.45300
C  -1.49300 7.26500 22.05700
C  -1.12400 8.71000 22.22800
C  -0.43000 8.84700 23.60900
C  -0.86800 6.66500 20.75500
C  -2.35900 9.71900 22.15700
C  -2.23600 10.77600 21.11900
N  0.36000 9.21900 26.45700
C  0.69800 10.12900 25.46100
C  1.21200 11.36900 26.05600
C  1.37800 11.01400 27.40900
C  0.88800 9.71100 27.57300
C  1.50400 12.71100 25.39500
C  1.75100 11.63500 28.57500
O  2.26300 12.73300 28.85600
C  1.39600 10.58900 29.72900
C  2.57000 10.26600 30.58200
O  3.55000 9.72700 30.29200
O  2.50000 10.93100 31.77900
C  3.59100 10.79700 32.77200
H  -0.72600 4.00300 29.35600
H  -1.86300 4.93600 22.97400
H  0.57800 10.76100 23.39600
H  1.32900 7.77800 31.41300
H  -0.85000 5.85500 31.20500
H  1.65700 4.75600 30.30100
H  0.80800 4.48400 31.88100
H  1.99300 5.77900 31.74500
H  -1.66600 8.22100 31.19700
H  -0.53100 9.51500 31.49000
H  -1.77900 7.71300 33.39100
H  -0.93300 9.26500 33.54200
H  -1.30800 0.92400 27.17400
H  -2.58000 1.87000 27.98300
H  -0.86500 2.03600 28.46200
H  -2.85500 0.24500 23.95900
H  -2.98900 0.69000 25.68600
H  -1.47400 0.32500 24.78700
H  -2.55800 7.04900 22.14300
H  -0.28400 9.00000 21.59600
H  -1.41700 5.87000 20.25100
H  0.17500 6.38300 20.90500
H  -0.79100 7.51300 20.07400
H  -2.48200 10.08900 23.17500
H  -3.25900 9.18400 21.85800
H  -1.26200 10.77100 20.62900
H  -2.43200 11.71300 21.64000
H  -3.05000 10.70100 20.39800
H  0.65200 13.28000 25.02400
H  2.12200 12.45200 24.53500
H  2.04300 13.38800 26.05900
H  0.67000 11.09000 30.36900
H  4.49500 10.35900 32.34700
H  3.16000 10.21300 33.58500
H  3.76800 11.83900 33.03900
Mg -1.08400 34.01400 26.88100
C  -2.86400 32.49500 29.30600
C  0.15000 36.25100 29.28700
C  0.33400 35.92800 24.41100
C  -2.68800 32.17700 24.49400
N  -1.45200 34.33800 29.10900
C  -2.06700 33.42200 29.88400
C  -1.68500 33.63300 31.41100
C  -0.83400 34.98300 31.31900
C  -0.72300 35.25500 29.78300
C  -1.27300 36.18400 32.18000
C  -1.04500 32.30400 31.98900
C  -1.92200 31.59900 33.13600
H  -1.25600 31.41700 34.53500
N  0.09300 35.77700 26.88100
C  0.47000 36.52100 27.98800
C  1.33800 37.56000 27.54900
C  1.38500 37.52300 26.11900
C  0.59400 36.38100 25.72700
C  2.01400 38.51200 28.51300
C  2.10800 38.37900 25.09600
O  2.04700 38.23000 23.88300
C  2.93400 39.53400 25.60400
N  -1.19800 34.03900 24.72800
C  -0.37000 34.83300 23.95600
C  -0.35400 34.38600 22.49600
C  -1.42800 33.21600 22.48900
C  -1.72900 33.03100 24.01500
C  -0.62400 35.40900 21.41400
C  -1.03700 31.98600 21.57400
C  -0.37800 30.74000 22.31800
N  -2.53800 32.67700 26.85800
C  -3.13900 31.98400 25.82500
C  -4.14300 31.16100 26.34200
C  -4.06800 31.22800 27.72400
C  -3.08100 32.20000 28.00500
C  -5.03700 30.18200 25.55700
C  -4.60600 30.77200 28.98700
O  -5.47500 29.92900 29.16900
C  -3.77500 31.56400 30.09200
C  -4.83100 32.23000 30.88100
O  -5.30400 33.30400 30.53800
O  -5.19300 31.47800 32.00500
C  -6.34200 32.03500 32.77900
H  0.67900 36.81300 30.05900
H  0.70600 36.54300 23.58900
H  -3.00200 31.51400 23.68500
H  -2.60600 33.98200 31.87800
H  0.22300 35.00300 31.58800
H  -2.00100 35.83000 32.90900
H  -1.78800 36.89200 31.53000
H  -0.45900 36.76500 32.61400
H  -0.08800 32.57100 32.43600
H  -0.86000 31.51400 31.26100
H  -2.19300 30.58000 32.86100
H  -2.79500 32.18800 33.41500
H  3.06500 38.59500 28.23800
H  1.94100 38.12600 29.52900
H  1.59300 39.51800 28.51500
H  3.03600 40.37200 24.91400
H  3.90400 39.11400 25.86700
H  2.40400 39.87900 26.49200
H  0.64200 33.96500 22.35900
H  -2.42000 33.55600 22.19200
H  -1.02800 36.32300 21.84800
H  -1.27000 34.94700 20.66700
H  0.38400 35.61800 21.05600
H  -0.28500 32.30900 20.85400
H  -1.91100 31.64200 21.01900
H  0.49100 30.46300 21.72100
H  -1.05300 29.88500 22.36300
H  -0.15100 31.10500 23.32000
H  -4.55000 29.70800 24.70400
H  -5.89700 30.64400 25.07200
H  -5.23900 29.36500 26.25000
H  -3.31400 30.75100 30.65300
H  -6.95300 32.75900 32.24000
H  -5.74300 32.47300 33.57700
H  -6.94400 31.21300 33.16500

