158

Mg 47.92700 34.32200 27.06700
C  46.21700 33.07100 29.93200
C  48.26100 37.31100 28.75400
C  49.04100 35.72400 24.20900
C  47.04000 31.51500 25.33300
N  47.35000 34.98100 29.11200
C  46.67200 34.31700 30.10600
C  46.92500 35.00100 31.47400
C  47.15100 36.51200 30.99600
C  47.59600 36.34200 29.51900
C  45.97900 37.55200 31.00600
C  48.11100 34.43100 32.34400
C  47.73900 34.38500 33.84900
H  46.56100 35.22100 34.37000
N  48.61100 36.26100 26.59600
C  48.70500 37.35200 27.40200
C  49.32900 38.43100 26.77300
C  49.60100 38.00200 25.40100
C  49.10200 36.55900 25.36300
C  49.71000 39.80000 27.39400
C  50.37800 38.71100 24.23900
O  50.64000 38.13700 23.15300
C  50.85800 40.03600 24.40100
N  47.96800 33.79600 25.05700
C  48.55200 34.50600 24.10200
C  48.45300 33.73600 22.73700
C  47.90600 32.29300 23.09100
C  47.68600 32.52800 24.60700
C  47.52000 34.51100 21.74500
C  48.87000 31.02900 22.92400
C  50.40600 31.26700 23.06700
N  46.93500 32.59200 27.50500
C  46.62100 31.54000 26.64000
C  45.71400 30.63400 27.39700
C  45.52500 31.19700 28.65300
C  46.27100 32.39500 28.64300
C  45.30100 29.34300 26.82500
C  44.85800 31.06300 29.93800
O  44.06600 30.19300 30.35700
C  45.31200 32.25200 30.81800
C  45.97000 31.72700 32.05900
O  47.07500 31.28400 32.13500
O  45.04000 31.56200 33.02400
C  45.33700 30.51800 34.01200
H  48.42200 38.21700 29.34200
H  49.37100 36.27400 23.32600
H  46.72200 30.65700 24.73700
H  45.98700 34.91500 32.02100
H  47.92900 36.98900 31.59200
H  46.09900 38.20600 30.14200
H  45.99800 38.13500 31.92700
H  44.99700 37.08500 30.93800
H  48.97500 35.08000 32.20100
H  48.42900 33.49900 31.87700
H  48.58000 34.84400 34.36800
H  47.53000 33.41200 34.29400
H  49.36600 40.64800 26.80200
H  50.79600 39.71400 27.36200
H  49.30400 39.86300 28.40400
H  49.97000 40.65200 24.53900
H  51.42500 40.20000 23.48400
H  51.52200 39.99400 25.26500
H  49.45200 33.66300 22.30800
H  46.93100 32.15400 22.62300
H  46.49000 34.20900 21.92900
H  47.89500 34.21000 20.76600
H  47.76500 35.53200 22.03700
H  48.72700 30.62900 21.92100
H  48.55600 30.21500 23.57700
H  50.84200 31.21800 22.06900
H  50.86500 30.47800 23.66300
H  50.47000 32.22400 23.58400
H  44.21400 29.41500 26.87500
H  45.36100 28.53300 27.55100
H  45.66000 29.06900 25.83300
H  44.60600 32.93000 31.29800
H  45.34900 29.55200 33.50900
H  44.44100 30.62400 34.62400
H  46.30800 30.80100 34.41900
Mg -12.84000 37.94800 41.50700
C  -10.41000 35.48800 40.81700
C  -10.62700 40.41700 40.40100
C  -15.21200 40.27500 42.00200
C  -15.03200 35.38500 42.39500
N  -10.81600 38.00700 40.53700
C  -10.01900 36.86200 40.47000
C  -8.60800 37.22100 39.95900
C  -8.69600 38.78500 39.76400
C  -10.14600 39.11700 40.17700
C  -7.61800 39.53000 40.68000
C  -8.35400 36.46700 38.58800
C  -6.95200 35.91700 38.35500
H  -6.06000 36.48700 37.25100
N  -12.87700 40.09100 41.24700
C  -11.87900 40.90300 40.90700
C  -12.28100 42.25500 40.85400
C  -13.63200 42.23400 41.30000
C  -14.02500 40.83100 41.54400
C  -11.33000 43.37300 40.62100
C  -14.54900 43.47000 41.46600
O  -14.01000 44.60200 41.23500
C  -16.02000 43.38100 41.78600
N  -14.78800 37.84200 42.07700
C  -15.62100 38.89900 42.13500
C  -16.99600 38.58600 42.71700
C  -16.99300 37.01300 42.50800
C  -15.48700 36.69300 42.33900
C  -17.24300 38.98100 44.21500
C  -17.83300 36.60000 41.22500
C  -17.13200 36.22100 39.89200
N  -12.75800 35.83600 41.63500
C  -13.71300 34.94000 42.12400
C  -13.07700 33.59400 42.23500
C  -11.81800 33.73000 41.68200
C  -11.68600 35.17100 41.35900
C  -13.76200 32.30100 42.64000
C  -10.57300 33.07900 41.32600
O  -10.16100 31.93700 41.29000
C  -9.60600 34.21200 40.74100
C  -8.34400 34.26800 41.57500
O  -8.24000 34.68100 42.71400
O  -7.23800 33.73600 40.87200
C  -5.91800 33.91700 41.44800
H  -9.81900 41.10900 40.15700
H  -16.03400 40.93200 42.29500
H  -15.67800 34.55100 42.68000
H  -7.76200 36.95600 40.59300
H  -8.44100 39.04600 38.73600
H  -6.88100 38.85500 41.11500
H  -8.19000 39.85700 41.54800
H  -7.23100 40.40900 40.16500
H  -8.53200 37.21600 37.81600
H  -9.02400 35.63600 38.36700
H  -6.96100 34.84200 38.17400
H  -6.37300 36.03400 39.27100
H  -11.84300 44.02800 39.91700
H  -10.37400 43.02900 40.22500
H  -11.20400 43.89900 41.56800
H  -16.47700 42.64400 41.12600
H  -16.34800 44.36100 41.43900
H  -16.32500 43.24700 42.82400
H  -17.77800 39.06400 42.12700
H  -17.40200 36.41100 43.31900
H  -18.01500 39.74900 44.25900
H  -16.33700 39.27800 44.74300
H  -17.62900 38.06700 44.66600
H  -18.61500 37.32600 40.99900
H  -18.25700 35.66300 41.58700
H  -16.69600 35.22400 39.83100
H  -16.43000 36.99400 39.58100
H  -17.97700 36.33200 39.21100
H  -13.37300 31.52800 41.97800
H  -14.84900 32.38800 42.66000
H  -13.47700 32.02600 43.65600
H  -9.46100 33.93700 39.69600
H  -5.86900 34.06700 42.52700
H  -5.55000 34.85900 41.04000
H  -5.14600 33.20400 41.16100

