158

Mg 25.73300 0.61800 29.05600
C  27.73000 0.29300 31.80200
C  23.07900 1.56300 31.03500
C  23.80500 0.92600 26.26900
C  28.38100 -0.73700 27.11600
N  25.48900 0.96300 31.15300
C  26.45200 0.82500 32.10500
C  25.88700 1.23100 33.44300
C  24.43200 1.60700 33.19900
C  24.25800 1.24700 31.69500
C  23.37300 0.85600 34.06800
C  26.67900 2.36200 34.18100
C  27.26500 2.07800 35.58300
H  27.12400 3.25000 36.59900
N  23.77600 1.18400 28.72600
C  22.80100 1.45100 29.68200
C  21.54800 1.71200 29.00900
C  21.72700 1.53100 27.63900
C  23.13500 1.18500 27.50400
C  20.33200 2.24100 29.70300
C  20.64600 1.67700 26.44400
O  20.86900 1.49100 25.20800
C  19.23700 1.91000 26.80800
N  25.96300 0.08600 26.94900
C  25.09400 0.46200 25.94600
C  25.63900 0.23600 24.50900
C  27.07200 -0.32700 24.83900
C  27.21000 -0.26300 26.43000
C  24.72600 -0.76300 23.61900
C  28.22600 0.35600 24.12600
C  28.72300 1.67300 24.69400
N  27.58800 -0.18800 29.30600
C  28.59900 -0.68600 28.49400
C  29.74100 -0.97500 29.20200
C  29.51200 -0.61400 30.53300
C  28.13000 -0.18300 30.53700
C  30.98600 -1.59400 28.58000
C  30.02400 -0.55100 31.92200
O  31.11300 -0.84900 32.33300
C  28.92200 0.06100 32.70500
C  28.62600 -0.96100 33.73100
O  27.93000 -1.96700 33.58000
O  29.08400 -0.56100 34.96100
C  28.80600 -1.50300 36.05200
H  22.24100 1.86100 31.66800
H  23.15200 0.94600 25.39400
H  29.23500 -1.09200 26.53500
H  25.98100 0.48900 34.23600
H  24.26800 2.67200 33.36300
H  22.31300 1.05300 33.90800
H  23.70300 1.28600 35.01300
H  23.54500 -0.20700 34.24000
H  26.13500 3.30400 34.24800
H  27.54700 2.57200 33.55500
H  28.32000 1.82200 35.48900
H  26.95000 1.15300 36.06700
H  20.45600 2.45500 30.76400
H  19.53900 1.49500 29.74300
H  20.00200 3.15600 29.21100
H  19.17100 2.92700 27.19600
H  19.00200 1.11700 27.51800
H  18.55900 1.70600 25.98000
H  25.75700 1.11400 23.87500
H  27.04300 -1.40100 24.65700
H  23.75300 -0.83000 24.10600
H  25.19600 -1.74100 23.51800
H  24.49100 -0.36900 22.63000
H  27.96400 0.54300 23.08500
H  29.06600 -0.33800 24.15400
H  28.23800 1.94400 25.63200
H  28.59700 2.50200 23.99700
H  29.78100 1.56100 24.92800
H  30.69700 -2.23000 27.74300
H  31.39300 -2.30100 29.30200
H  31.77700 -0.98100 28.14700
H  29.33700 0.92200 33.22700
H  29.23600 -2.49200 35.89400
H  27.75500 -1.50100 36.34200
H  29.32200 -1.06100 36.90400
Mg -5.92000 25.83700 26.44300
C  -4.06100 27.08300 29.19900
C  -7.79400 23.99500 28.67400
C  -7.39500 24.40000 23.79100
C  -3.71800 27.60900 24.21200
N  -5.74300 25.44100 28.54800
C  -5.10400 26.20000 29.49400
C  -5.63800 25.96900 30.97000
C  -6.53400 24.74800 30.78400
C  -6.73400 24.75800 29.22500
C  -6.21800 23.37500 31.39300
C  -6.38500 27.19800 31.55800
C  -6.63400 27.34900 33.05800
H  -6.16300 26.19400 33.97300
N  -7.36100 24.39900 26.25300
C  -8.08000 23.82500 27.33600
C  -8.97400 22.82800 26.75800
C  -8.74100 22.86100 25.32500
C  -7.77600 23.97500 25.08300
C  -10.04300 22.14000 27.61800
C  -9.41600 21.94800 24.30800
O  -9.26200 22.01900 23.10900
C  -10.30800 20.88100 24.78100
N  -5.61900 25.93500 24.31300
C  -6.40800 25.33700 23.42000
C  -5.93900 25.55400 22.00900
C  -5.06400 26.80000 22.17800
C  -4.67400 26.74100 23.65700
C  -5.12700 24.32600 21.61300
C  -5.59400 28.26500 21.80100
C  -4.91900 28.81400 20.61200
N  -4.27100 27.17200 26.60600
C  -3.51000 27.82100 25.63800
C  -2.59900 28.71800 26.30500
C  -2.77500 28.37800 27.65500
C  -3.75200 27.44300 27.82200
C  -1.57800 29.62800 25.69100
C  -2.25100 28.64700 28.90500
O  -1.30900 29.37100 29.20000
C  -3.10700 27.76800 30.01100
C  -2.07800 26.84100 30.63800
O  -1.74600 25.81500 30.19100
O  -1.73000 27.39900 31.82400
C  -1.14200 26.47000 32.77400
H  -8.43200 23.56300 29.44700
H  -7.98900 23.98700 22.97300
H  -3.08900 28.10200 23.46800
H  -4.84400 25.77300 31.69200
H  -7.42500 25.03900 31.33900
H  -5.15800 23.21200 31.59200
H  -6.49400 22.62900 30.64800
H  -6.77300 23.02900 32.26500
H  -7.29900 27.35400 30.98600
H  -5.76300 28.05800 31.31100
H  -7.72300 27.33000 33.01300
H  -6.13200 28.22500 33.46900
H  -11.04000 22.51400 27.38500
H  -9.86500 22.30100 28.68100
H  -9.99500 21.08000 27.36700
H  -11.08000 21.49400 25.24500
H  -9.80500 20.14200 25.40400
H  -10.85700 20.39700 23.97400
H  -6.75400 25.71600 21.30400
H  -4.12000 26.58100 21.67900
H  -4.20900 24.20000 22.18600
H  -4.83700 24.40700 20.56500
H  -5.75000 23.44600 21.77400
H  -5.39000 29.03200 22.54800
H  -6.67000 28.25000 21.63000
H  -5.57200 28.82200 19.74000
H  -3.96600 28.29500 20.50700
H  -4.60000 29.83900 20.80100
H  -1.34800 29.29000 24.68000
H  -0.65800 29.72300 26.26800
H  -2.00800 30.62500 25.59300
H  -3.58200 28.37500 30.78100
H  -0.18500 26.85700 33.12600
H  -0.89400 25.44200 32.51100
H  -1.90300 26.33200 33.54200

