158

Mg 49.47100 34.86700 26.99300
C  47.24500 33.71900 29.52900
C  50.29000 37.46100 29.06600
C  51.04200 36.16600 24.39700
C  48.34600 32.16300 24.98300
N  48.67000 35.61100 29.06200
C  47.89100 34.93300 29.95900
C  48.03000 35.60100 31.33000
C  48.58600 37.00300 31.01000
C  49.24900 36.66700 29.63100
C  47.59000 38.17500 30.79400
C  48.98000 34.76400 32.26900
C  48.59500 34.62800 33.71700
H  49.42500 35.55100 34.69800
N  50.58600 36.57700 26.76900
C  50.86000 37.48000 27.82000
C  51.79500 38.39800 27.31500
C  51.92700 38.21900 25.88500
C  51.17700 36.95700 25.60900
C  52.44500 39.41300 28.27200
C  52.84500 38.99300 24.85500
O  52.83700 38.71500 23.62900
C  53.83900 40.06700 25.18000
N  49.75600 34.21200 25.04000
C  50.43500 34.94200 24.14100
C  50.36300 34.33100 22.68600
C  49.78300 32.94200 23.05900
C  49.23100 33.11900 24.41200
C  49.52500 35.22500 21.67700
C  50.82000 31.73900 23.08000
C  51.26200 31.16400 21.76200
N  48.05000 33.28600 27.16700
C  47.72100 32.30200 26.24900
C  46.80100 31.39400 26.85700
C  46.51000 31.96900 28.11900
C  47.27600 33.11300 28.26400
C  46.15100 30.21600 26.24900
C  45.73700 31.74900 29.36900
O  44.97500 30.87100 29.77500
C  46.18600 32.94000 30.29400
C  46.73000 32.48300 31.58900
O  47.74900 31.87800 31.73500
O  45.77400 32.73700 32.53200
C  45.90100 32.05400 33.86500
H  50.55000 38.28400 29.73500
H  51.53900 36.60200 23.52800
H  48.00700 31.38000 24.30100
H  47.04200 35.68600 31.78200
H  49.36300 37.36100 31.68600
H  47.70700 38.70400 29.84800
H  47.78000 38.93100 31.55600
H  46.56600 37.94000 31.08400
H  49.88900 35.36300 32.32100
H  49.23300 33.86000 31.71500
H  48.76600 33.58700 33.99100
H  47.53100 34.76000 33.91600
H  52.96000 38.91600 29.09400
H  51.69300 40.12700 28.61100
H  53.18600 40.05300 27.79300
H  53.99900 40.62600 24.25900
H  54.81600 39.62000 25.36800
H  53.60000 40.71300 26.02500
H  51.36700 34.29700 22.26400
H  48.87900 32.68500 22.50800
H  50.19700 35.50500 20.86700
H  49.28700 36.11000 22.26700
H  48.67700 34.69300 21.24600
H  50.39600 30.98100 23.73800
H  51.75700 32.12000 23.48700
H  51.23800 30.08900 21.93700
H  52.26200 31.38700 21.38900
H  50.42400 31.44200 21.12300
H  45.91400 30.47500 25.21700
H  45.24500 29.96400 26.80100
H  46.76300 29.31900 26.16100
H  45.29700 33.57100 30.29500
H  46.66400 32.53000 34.48200
H  46.20900 31.04000 33.61200
H  44.91100 32.05700 34.32100
Mg 35.99600 48.81000 24.27200
C  36.34400 47.09500 27.30700
C  34.75100 51.53500 25.93900
C  35.69500 50.40000 21.26600
C  37.27900 45.95400 22.58200
N  35.43900 49.18200 26.33700
C  35.69300 48.37400 27.46400
C  35.48900 49.17300 28.79000
C  34.69800 50.48100 28.29000
C  34.98100 50.40500 26.77300
C  33.25100 50.64400 28.71400
C  36.77700 49.43700 29.59000
C  36.74800 49.09100 31.13500
H  35.38400 49.00100 31.91600
N  35.43200 50.74000 23.66500
C  34.93300 51.71000 24.50300
C  34.51900 52.81400 23.70800
C  34.89100 52.55100 22.37700
C  35.36800 51.18100 22.35700
C  33.87700 54.02600 24.31600
C  34.72600 53.48300 21.17300
O  35.20700 53.13900 20.09800
C  34.01400 54.82400 21.25600
N  36.15500 48.12100 22.13100
C  36.07300 49.04400 21.21800
C  36.25400 48.30400 19.85800
C  37.07200 47.02500 20.22000
C  36.80300 47.00100 21.69800
C  34.89400 48.03200 19.20200
C  38.50100 47.08000 19.67500
C  39.74100 47.24600 20.69500
N  36.54700 46.87200 24.80300
C  37.10700 45.85600 24.00200
C  37.70100 44.87100 24.85400
C  37.41700 45.33000 26.18300
C  36.60400 46.49300 26.06200
C  38.44600 43.69400 24.34500
C  37.53300 45.02600 27.63900
O  38.09300 44.09100 28.24800
C  36.87000 46.18100 28.37300
C  35.82900 45.72100 29.38000
O  34.67600 45.50600 29.13900
O  36.45200 45.55100 30.55700
C  35.59400 44.82100 31.57000
H  34.41000 52.40200 26.50900
H  35.51100 50.81100 20.27100
H  37.70800 45.07000 22.10600
H  34.81200 48.60700 29.43000
H  35.13100 51.38000 28.72900
H  32.92800 49.92600 29.46800
H  32.58800 50.51000 27.85900
H  33.03600 51.63600 29.11100
H  37.13400 50.45600 29.44000
H  37.55500 48.72800 29.30600
H  37.32100 49.88200 31.62000
H  37.31800 48.20100 31.40100
H  34.46800 54.91300 24.54100
H  33.49500 53.82300 25.31700
H  33.02900 54.29000 23.68500
H  32.93800 54.68300 21.35500
H  34.16900 55.35800 20.31900
H  34.34100 55.52200 22.02700
H  36.77600 48.99200 19.19300
H  36.52500 46.18100 19.80000
H  34.01800 48.19300 19.83000
H  34.73700 47.04800 18.76000
H  34.81400 48.68500 18.33300
H  38.67300 47.83200 18.90600
H  38.69300 46.16800 19.10900
H  40.36900 46.35600 20.72600
H  39.37000 47.61500 21.65200
H  40.25900 48.14700 20.36700
H  38.94600 43.93500 23.40600
H  37.97700 42.71100 24.29800
H  39.17800 43.43300 25.10800
H  37.70700 46.61300 28.92200
H  35.33000 43.79000 31.33500
H  34.67800 45.36000 31.81300
H  36.15700 44.81200 32.50400

