158

Mg 25.45200 1.03100 29.24300
C  27.39600 0.94600 32.23600
C  22.67600 1.16500 31.28900
C  23.59100 0.65800 26.57100
C  28.43100 0.19000 27.47700
N  25.08600 1.04600 31.47100
C  26.03200 1.18100 32.51700
C  25.40600 1.50100 33.85600
C  23.93900 1.35300 33.46400
C  23.86200 1.08600 31.96500
C  23.18700 0.33800 34.33600
C  25.80100 2.93600 34.37500
C  26.50700 2.91900 35.77100
H  25.77900 3.82700 36.80100
N  23.42900 0.97900 28.99500
C  22.42700 1.07600 29.93100
C  21.13500 1.11200 29.23900
C  21.42600 1.00100 27.87600
C  22.83700 0.83900 27.75400
C  19.84800 1.33600 29.93600
C  20.49100 0.97600 26.63200
O  20.83400 0.93000 25.47300
C  18.90600 0.87600 26.83800
N  25.99700 0.42000 27.32300
C  24.95800 0.42400 26.36200
C  25.50600 0.18500 25.01000
C  27.03300 0.39800 25.23600
C  27.25100 0.35800 26.78500
C  25.01100 -1.19500 24.41100
C  27.81000 1.65200 24.71400
C  27.31700 3.00600 25.28400
N  27.53600 0.61900 29.72300
C  28.59300 0.29100 28.91400
C  29.72300 0.18200 29.67000
C  29.34300 0.52100 30.96300
C  27.97200 0.70500 31.00400
C  31.07000 -0.13300 29.15000
C  29.92100 0.87500 32.26800
O  31.05100 0.87000 32.69700
C  28.55700 1.07100 33.15700
C  28.62700 0.10700 34.26800
O  28.10700 -1.03600 34.25300
O  29.18600 0.68300 35.38800
C  29.34400 -0.21000 36.54600
H  21.80400 1.28700 31.93400
H  23.10800 0.52100 25.60100
H  29.33900 0.13500 26.87200
H  25.74700 0.65300 34.45000
H  23.48100 2.33000 33.62100
H  23.83100 -0.37000 34.85900
H  22.63600 -0.36600 33.71200
H  22.60000 0.79800 35.13100
H  24.89600 3.53500 34.47300
H  26.46300 3.45800 33.68400
H  27.44400 3.41200 35.51200
H  26.52100 1.88200 36.10400
H  19.45700 2.34000 29.77200
H  19.99100 1.26900 31.01500
H  19.01500 0.73000 29.58000
H  18.59000 -0.02700 27.36100
H  18.46600 0.93000 25.84300
H  18.68900 1.79300 27.38700
H  25.10000 1.01000 24.42500
H  27.51200 -0.49200 24.82500
H  24.46700 -1.66200 25.23100
H  25.84100 -1.88800 24.27300
H  24.39200 -1.14900 23.51400
H  27.87700 1.73600 23.63000
H  28.87600 1.55800 24.92100
H  26.77000 2.98200 26.22600
H  26.75000 3.47700 24.48100
H  28.19900 3.59900 25.52700
H  31.07900 -0.45900 28.11000
H  31.49800 -0.93900 29.74700
H  31.80000 0.67200 29.23600
H  28.66400 2.04200 33.63900
H  28.61100 0.06300 37.30500
H  30.26000 0.08400 37.05800
H  29.49800 -1.28300 36.43100
Mg -1.79800 34.00700 27.50200
C  -3.43600 32.22500 29.90400
C  -0.57100 36.11100 30.01400
C  -0.11600 35.82300 25.21400
C  -3.57100 32.30900 25.02800
N  -2.27100 34.35900 29.74400
C  -2.74100 33.29600 30.45900
C  -2.42400 33.54900 31.94400
C  -1.62300 34.87100 31.93100
C  -1.42000 35.07900 30.42600
C  -2.31600 36.12400 32.65000
C  -1.69300 32.31000 32.59100
C  -2.31000 31.81800 33.93900
H  -1.50900 31.73600 35.28300
N  -0.48700 35.71400 27.65200
C  -0.12800 36.37600 28.72600
C  0.84200 37.39800 28.31500
C  0.86300 37.44700 26.89100
C  0.04900 36.26900 26.55700
C  1.56800 38.26700 29.37600
C  1.48800 38.36500 25.85900
O  1.53400 38.19500 24.66900
C  2.28900 39.51200 26.35200
N  -1.97100 34.08300 25.37500
C  -1.06400 34.88600 24.66600
C  -1.27500 34.70800 23.12300
C  -2.43900 33.66200 23.03100
C  -2.72500 33.32100 24.54700
C  -1.53600 35.96700 22.25300
C  -1.93500 32.43400 22.17300
C  -1.12200 31.33000 22.85700
N  -3.14200 32.52900 27.45000
C  -3.74400 31.87100 26.37800
C  -4.43600 30.71800 26.81100
C  -4.33000 30.78700 28.19800
C  -3.61100 31.92700 28.56400
C  -5.18600 29.82100 25.85200
C  -4.72100 30.13900 29.40400
O  -5.39200 29.15000 29.65500
C  -4.19900 31.11200 30.58200
C  -5.43000 31.54300 31.26400
O  -6.38600 32.13700 30.78200
O  -5.40400 31.13000 32.56800
C  -6.35900 31.77600 33.53000
H  -0.09000 36.59700 30.86500
H  0.39600 36.29400 24.37200
H  -4.06900 31.70400 24.26700
H  -3.39400 33.74300 32.40200
H  -0.63200 34.71800 32.36000
H  -2.93800 35.71000 33.44400
H  -2.91400 36.68200 31.93000
H  -1.51200 36.69600 33.11300
H  -0.64200 32.49700 32.81200
H  -1.61200 31.47200 31.90000
H  -2.68900 30.84400 33.62800
H  -3.22000 32.38600 34.13200
H  2.57800 38.60300 29.13700
H  1.64700 37.80700 30.36000
H  0.88300 39.10300 29.51500
H  1.66800 40.08000 27.04500
H  2.59100 40.04800 25.45300
H  3.14700 39.09300 26.87900
H  -0.29500 34.33800 22.82200
H  -3.31700 34.08100 22.53900
H  -2.59100 36.21600 22.13500
H  -1.22800 35.93000 21.20800
H  -0.96700 36.82000 22.62300
H  -1.33400 32.73800 21.31500
H  -2.88200 32.12900 21.72700
H  -0.74700 31.68400 23.81800
H  -0.24900 31.09600 22.24800
H  -1.76600 30.45700 22.96000
H  -5.09800 28.78200 26.16900
H  -4.70900 29.92200 24.87800
H  -6.27200 29.91300 25.80900
H  -3.59700 30.41000 31.15900
H  -7.06600 32.40700 32.99200
H  -5.72700 32.38500 34.17600
H  -6.89200 31.05100 34.14500

