158

Mg -0.00200 7.91900 26.83800
C  1.07200 9.91800 29.47500
C  -0.16100 5.24100 29.03700
C  -0.55700 6.00400 24.14700
C  0.31400 10.72100 24.74800
N  0.50600 7.64500 28.91100
C  0.84300 8.57900 29.89200
C  0.78700 8.05200 31.38600
C  0.34500 6.61400 31.13500
C  0.26000 6.46900 29.60900
C  1.32000 5.52600 31.78800
C  -0.08000 8.80900 32.37300
C  0.38500 8.73900 33.86200
H  -0.44100 8.02400 34.88900
N  -0.23300 5.90400 26.64100
C  -0.31700 5.00800 27.64400
C  -0.71700 3.73200 26.98600
C  -0.67000 3.86700 25.57600
C  -0.45500 5.33800 25.41200
C  -1.00300 2.56100 27.83900
C  -0.96700 2.84400 24.43900
O  -0.99300 3.02200 23.23600
C  -1.15500 1.36900 24.84400
N  -0.02900 8.28700 24.77100
C  -0.33600 7.33400 23.84400
C  -0.56900 7.93200 22.46900
C  -0.61000 9.47700 22.76700
C  -0.10300 9.51900 24.15700
C  0.45500 7.42600 21.45800
C  -2.05000 10.09900 22.76600
C  -2.72600 10.34700 21.36900
N  0.43700 9.96000 27.01200
C  0.62900 10.95500 26.08200
C  1.09800 12.21700 26.71200
C  1.30700 11.76500 28.05100
C  0.96400 10.43700 28.15800
C  1.29900 13.45800 26.02200
C  1.77800 12.24700 29.30600
O  2.22500 13.31100 29.63600
C  1.52700 11.12000 30.27900
C  2.73900 10.82800 31.10100
O  3.76500 10.24400 30.76800
O  2.48300 11.39900 32.31300
C  3.67600 11.34900 33.27300
H  -0.31600 4.44700 29.77000
H  -0.77600 5.42700 23.24700
H  0.35000 11.59600 24.09600
H  1.80300 8.01400 31.78000
H  -0.68200 6.40500 31.43800
H  0.80800 4.62100 32.11500
H  1.69800 5.86400 32.75300
H  2.12000 5.08700 31.19100
H  -1.05800 8.35100 32.22400
H  -0.16600 9.86800 32.13000
H  0.67400 9.73500 34.20000
H  1.39100 8.34300 34.00100
H  -0.28700 1.75000 27.70900
H  -1.94200 2.13200 27.48900
H  -1.29800 2.71100 28.87700
H  -0.27600 1.11200 25.43500
H  -1.50100 0.52000 24.25400
H  -2.07400 1.52800 25.40900
H  -1.55300 7.63900 22.10300
H  0.03800 10.18600 22.25200
H  0.63400 8.05800 20.58900
H  0.12900 6.54600 20.90500
H  1.41200 7.15600 21.90400
H  -2.01800 11.10300 23.18900
H  -2.71000 9.60000 23.47600
H  -2.17000 9.89400 20.54800
H  -2.81100 11.43100 21.30300
H  -3.68900 9.83600 21.34900
H  0.48400 14.17700 26.10600
H  1.47600 13.46600 24.94600
H  2.14500 13.92700 26.52400
H  0.71200 11.51300 30.88700
H  4.62100 11.52000 32.75700
H  3.69400 10.37200 33.75500
H  3.60400 12.19300 33.95900
Mg 47.18400 16.71900 28.24600
C  45.27500 16.40600 31.27200
C  49.74000 18.09700 30.08600
C  48.74500 17.24600 25.33600
C  44.33000 15.50200 26.54100
N  47.36300 17.38000 30.46200
C  46.53900 17.00100 31.54400
C  47.12400 17.50000 32.89600
C  48.51400 18.11200 32.42600
C  48.56100 17.86700 30.87900
C  48.93400 19.64500 32.71000
C  47.23600 16.41200 33.97800
C  47.04600 16.72900 35.38100
H  46.92500 18.24300 35.60900
N  48.99700 17.52900 27.75500
C  49.96000 17.97700 28.65900
C  51.18900 18.31300 27.91100
C  50.82500 18.25700 26.53400
C  49.44900 17.57500 26.47300
C  52.44100 18.74200 28.63000
C  51.63400 18.66500 25.28000
O  51.25400 18.45000 24.12000
C  52.98600 19.21300 25.48500
N  46.71100 16.12300 26.22800
C  47.47200 16.71000 25.20900
C  46.71500 16.37800 23.91400
C  45.59700 15.40300 24.27900
C  45.48800 15.70500 25.71700
C  46.31300 17.66900 23.07800
C  45.95900 13.82200 24.16900
C  44.80300 12.97900 23.58500
N  45.20700 16.20500 28.75400
C  44.17700 15.75400 27.90300
C  42.93600 15.51900 28.66100
C  43.39100 15.65600 30.03400
C  44.70000 16.11200 30.01200
C  41.57400 15.14800 28.19400
C  42.95700 15.56100 31.44200
O  41.91900 15.18600 31.87900
C  44.12500 16.10300 32.26700
C  43.67900 17.33100 33.00200
O  43.54400 18.46400 32.54600
O  43.39100 16.92100 34.26500
C  42.73800 17.97100 35.02300
H  50.58500 18.45500 30.67800
H  49.25400 17.31800 24.37300
H  43.45600 15.17600 25.97200
H  46.49200 18.34200 33.18000
H  49.31500 17.46300 32.78000
H  48.12600 20.09100 33.28900
H  48.96400 20.26400 31.81300
H  49.90400 19.64600 33.20700
H  48.21100 15.93700 33.86500
H  46.55100 15.59600 33.74900
H  47.91300 16.39500 35.95100
H  46.12800 16.29700 35.78000
H  53.30700 18.34600 28.09900
H  52.53700 18.24200 29.59400
H  52.67900 19.77900 28.86200
H  53.37300 19.57000 24.53100
H  53.55900 18.40100 25.93300
H  52.95200 20.05700 26.17400
H  47.43500 15.93700 23.22400
H  44.67900 15.62400 23.73500
H  45.24200 17.84800 23.16800
H  46.70600 17.66100 22.06100
H  46.79000 18.48200 23.62500
H  46.19300 13.30400 25.10000
H  46.82200 13.67600 23.51900
H  43.90300 13.59100 23.52200
H  44.59000 12.07100 24.14900
H  45.14900 12.64100 22.60800
H  40.86900 15.71200 28.80500
H  41.50500 14.07300 28.36000
H  41.35600 15.46600 27.17400
H  44.29100 15.29300 32.97700
H  41.84700 18.41800 34.58300
H  43.39500 18.79000 35.31400
H  42.27600 17.64100 35.95300

