158

Mg -0.68400 7.64900 25.39400
C  0.49700 9.21300 28.30600
C  -0.98400 4.67400 27.05600
C  -1.21400 6.08600 22.40900
C  -0.02500 10.54400 23.66800
N  -0.17100 6.97100 27.40300
C  0.04200 7.88100 28.41300
C  -0.11500 7.17800 29.74300
C  -0.47700 5.61100 29.40500
C  -0.61800 5.76000 27.87600
C  0.65300 4.57100 29.74500
C  -1.06000 7.72900 30.83900
C  -0.32600 7.71000 32.27400
H  0.75900 6.59800 32.50400
N  -1.03300 5.64300 24.77700
C  -1.16000 4.52000 25.62700
C  -1.50800 3.30300 24.93900
C  -1.46300 3.67700 23.58000
C  -1.24600 5.17600 23.53100
C  -1.72500 1.98700 25.68800
C  -1.69000 2.86500 22.34200
O  -1.58300 3.35200 21.24900
C  -2.01500 1.43400 22.36400
N  -0.58500 8.24500 23.30100
C  -1.02000 7.47800 22.32000
C  -1.20100 8.27400 21.04100
C  -1.01200 9.75000 21.46000
C  -0.50400 9.53000 22.90600
C  -0.12600 7.85800 19.86100
C  -2.29800 10.69700 21.51600
C  -2.49000 11.59600 20.33000
N  0.12000 9.53500 25.87400
C  0.35800 10.60700 25.06800
C  0.90100 11.70600 25.85300
C  0.86500 11.15200 27.19900
C  0.41600 9.87700 27.13400
C  1.19900 13.11900 25.41900
C  1.23200 11.49200 28.53900
O  1.70500 12.51200 29.01400
C  0.93800 10.15800 29.33800
C  2.18000 9.62600 30.01600
O  3.08100 9.17300 29.36300
O  2.16400 9.89200 31.37200
C  3.43100 9.72100 32.10300
H  -0.95300 3.71100 27.57000
H  -1.51100 5.67300 21.44200
H  -0.02200 11.50400 23.14700
H  0.90600 7.09700 30.11600
H  -1.41400 5.30700 29.87300
H  1.48800 4.90400 30.36200
H  1.11400 4.30500 28.79300
H  0.12000 3.72000 30.16800
H  -1.98100 7.14500 30.83200
H  -1.16100 8.78300 30.58100
H  -1.01500 7.61100 33.11300
H  0.05900 8.71600 32.44800
H  -1.92400 2.28400 26.71800
H  -0.79800 1.43600 25.53100
H  -2.54200 1.41000 25.25600
H  -1.41900 0.91700 23.11700
H  -1.76000 0.95900 21.41700
H  -3.08400 1.36200 22.56300
H  -2.18900 8.10700 20.61200
H  -0.24600 10.27700 20.89100
H  0.75900 7.35600 20.25100
H  0.15300 8.72700 19.26600
H  -0.58700 7.15700 19.16500
H  -2.28400 11.30200 22.42200
H  -3.18300 10.06500 21.58900
H  -3.26400 11.14100 19.71100
H  -1.61100 11.62700 19.68700
H  -2.80400 12.57200 20.70100
H  0.24700 13.60500 25.20500
H  1.99400 13.13100 24.67400
H  1.59400 13.74600 26.21800
H  0.14700 10.32800 30.06800
H  3.63600 10.72000 32.48700
H  4.26000 9.41800 31.46300
H  3.46600 9.02800 32.94400
Mg 9.46100 47.63300 26.58700
C  7.35700 47.56300 29.39500
C  12.12300 48.28900 28.62500
C  11.34100 47.86900 23.85200
C  6.61700 47.44000 24.45400
N  9.64900 48.21800 28.78300
C  8.65200 47.97900 29.74500
C  9.36200 48.03000 31.23100
C  10.85200 48.38700 30.84300
C  10.90300 48.30200 29.34300
C  11.39200 49.77100 31.42300
C  9.23700 46.63600 32.01700
C  10.39000 46.29500 33.12700
H  10.15100 45.35100 34.29600
N  11.45600 47.97100 26.30000
C  12.44400 48.15000 27.23700
C  13.72500 48.18900 26.60800
C  13.51200 48.11500 25.14200
C  12.04800 48.01200 25.05500
C  14.95500 48.32200 27.47000
C  14.48100 48.29200 23.99900
O  14.12000 48.41100 22.78200
C  15.92000 48.34000 24.38800
N  9.03800 47.68200 24.44000
C  10.02100 47.70500 23.49200
C  9.48600 47.46400 22.03600
C  7.99100 47.16000 22.34100
C  7.83900 47.41000 23.84700
C  9.77600 48.55900 20.96100
C  7.53800 45.73500 21.94300
C  8.21600 44.59300 22.73500
N  7.43200 47.51700 26.83300
C  6.42400 47.34400 25.86800
C  5.16800 47.04600 26.57500
C  5.47700 47.09400 27.92600
C  6.89600 47.45200 28.03300
C  3.78300 46.82100 26.00300
C  4.94600 47.00600 29.30000
O  3.85400 46.71800 29.68800
C  6.13200 47.34700 30.33400
C  6.21700 46.10200 31.11300
O  6.78000 45.05000 30.74400
O  5.59400 46.20300 32.33300
C  5.58800 44.99400 33.10500
H  12.97200 48.33600 29.31100
H  11.88500 47.74700 22.91300
H  5.80700 47.11200 23.79900
H  8.95900 48.85200 31.82200
H  11.56700 47.62700 31.15700
H  11.98000 50.30500 30.67700
H  12.12400 49.55000 32.20000
H  10.62000 50.35200 31.92800
H  9.31200 45.83200 31.28500
H  8.23000 46.52400 32.42000
H  10.74800 47.25700 33.49300
H  11.16700 45.73900 32.60200
H  15.41200 49.30700 27.57100
H  15.77600 47.65200 27.21800
H  14.80600 47.95900 28.48700
H  16.01500 49.21300 25.03200
H  16.55900 48.25700 23.50900
H  16.00700 47.53600 25.11900
H  10.00800 46.57100 21.69100
H  7.46900 47.98700 21.85900
H  10.46100 49.29500 21.38200
H  8.92000 49.19900 20.74600
H  10.28400 48.18900 20.07100
H  7.82700 45.73800 20.89200
H  6.45000 45.67100 21.98100
H  8.73100 43.92500 22.04400
H  7.47000 43.90200 23.12500
H  9.00300 45.03000 23.35000
H  3.25600 47.67100 26.43700
H  3.32400 45.88700 26.32600
H  3.67600 46.97600 24.92900
H  5.78100 48.11900 31.01900
H  5.04800 45.28800 34.00400
H  6.58100 44.63700 33.37800
H  5.06300 44.13000 32.69800

