158

Mg -1.71300 17.90200 27.42400
C  -1.94900 15.50900 29.92800
C  -2.20300 20.32100 29.78600
C  -1.41700 20.11900 25.01600
C  -1.11100 15.20900 25.02900
N  -1.93000 17.86700 29.67100
C  -1.98400 16.78600 30.47300
C  -1.87400 17.24300 31.98700
C  -2.30400 18.79400 31.87900
C  -2.12200 19.05000 30.33600
C  -3.76100 19.14300 32.37600
C  -0.46400 16.93000 32.56100
C  0.02700 17.75100 33.81200
H  0.06400 17.13600 35.16400
N  -1.86500 19.96300 27.36300
C  -2.03500 20.81100 28.40100
C  -2.15100 22.19400 27.96400
C  -2.04800 22.06100 26.55900
C  -1.72700 20.68500 26.23600
C  -2.20800 23.40800 28.90300
C  -2.17600 23.20500 25.59400
O  -1.84000 23.10000 24.43300
C  -2.72500 24.56000 26.03500
N  -1.50700 17.61700 25.31500
C  -1.27600 18.77900 24.58900
C  -1.00400 18.47300 23.11200
C  -0.68900 16.98100 23.14000
C  -1.14000 16.54600 24.59400
C  -2.28400 18.85700 22.26800
C  0.71900 16.61000 22.73200
C  1.83500 17.40600 23.37800
N  -1.60400 15.79100 27.41100
C  -1.40000 14.86300 26.40400
C  -1.53800 13.55800 26.94800
C  -1.78600 13.77200 28.36300
C  -1.79100 15.14200 28.53400
C  -1.31700 12.19600 26.17400
C  -2.05400 13.07900 29.56900
O  -2.11300 11.89900 29.88800
C  -2.21000 14.17200 30.62500
C  -1.22400 13.75900 31.62200
O  -0.00400 13.97700 31.61700
O  -1.95600 13.16800 32.64900
C  -1.24500 12.79200 33.83300
H  -2.42200 21.14900 30.46400
H  -1.34400 20.85200 24.21000
H  -0.95300 14.39700 24.31600
H  -2.67300 16.69900 32.49000
H  -1.70400 19.54500 32.39300
H  -4.33000 19.81900 31.73900
H  -3.73800 19.64700 33.34200
H  -4.36200 18.23900 32.47300
H  0.38800 16.97600 31.88300
H  -0.50900 15.93000 32.99300
H  -0.68000 18.56500 33.97300
H  1.03500 18.08800 33.56800
H  -1.82600 23.13200 29.88600
H  -3.21500 23.82200 28.96000
H  -1.49200 24.16300 28.58000
H  -2.78600 25.23000 25.17800
H  -2.11400 25.06200 26.78500
H  -3.68900 24.40700 26.52100
H  -0.22900 19.17700 22.80700
H  -1.25600 16.44600 22.37800
H  -2.71200 18.04400 21.68200
H  -2.01100 19.70700 21.64200
H  -3.07000 19.18500 22.94800
H  0.65200 16.73800 21.65100
H  0.82700 15.53200 22.84900
H  2.50600 16.70000 23.86600
H  1.54700 18.20800 24.05700
H  2.40700 17.83400 22.55400
H  -0.98600 11.36000 26.79100
H  -0.85200 12.27700 25.19100
H  -2.34000 11.93900 25.90100
H  -3.23600 14.06400 30.97800
H  -0.59000 11.98200 33.51200
H  -1.91700 12.30800 34.54200
H  -0.56600 13.55800 34.20800
Mg 44.81700 3.47000 48.15800
C  42.59500 6.20100 47.50100
C  42.02500 1.34600 47.66800
C  46.82500 1.02500 48.16800
C  47.46000 5.73700 47.82000
N  42.55200 3.80100 47.79600
C  41.90000 4.98700 47.55400
C  40.39900 4.82000 47.13100
C  40.23200 3.27100 47.48700
C  41.71900 2.72900 47.55800
C  39.43800 3.01500 48.78600
C  40.06800 5.08600 45.65100
C  38.78200 5.78900 45.36500
H  38.90400 6.96800 44.42300
N  44.43500 1.41000 48.07600
C  43.28400 0.72700 47.84900
C  43.53200 -0.69100 47.93100
C  44.98300 -0.79000 48.15100
C  45.53100 0.56700 48.11400
C  42.42800 -1.77500 47.67900
C  45.70300 -2.16200 48.38400
O  45.00400 -3.16700 48.33800
C  47.18800 -2.30300 48.66200
N  46.86000 3.41100 47.76600
C  47.45100 2.23500 48.07200
C  48.94300 2.45900 48.35100
C  49.17600 3.88700 47.83100
C  47.72300 4.38500 47.71100
C  49.35000 2.19100 49.86300
C  49.99000 4.03200 46.48800
C  51.50200 4.09900 46.75200
N  45.03300 5.52800 47.78800
C  46.16400 6.37200 47.74100
C  45.85600 7.72100 47.45900
C  44.42700 7.72000 47.42300
C  44.00700 6.37800 47.62800
C  46.70400 8.92900 47.27700
C  43.20800 8.59300 47.23300
O  43.16800 9.77700 47.07300
C  42.00300 7.59300 47.20400
C  40.99900 7.95600 48.29000
O  41.25700 7.77700 49.49300
O  39.81700 8.52100 47.79700
C  38.81000 8.95000 48.75200
H  41.15700 0.68400 47.67400
H  47.58700 0.26400 48.34700
H  48.39900 6.28000 47.95100
H  39.89200 5.49300 47.82300
H  39.57700 2.81200 46.74700
H  38.94800 2.05500 48.94900
H  38.71500 3.82400 48.89300
H  40.17500 3.05100 49.58800
H  40.00600 4.20900 45.00600
H  40.97400 5.61400 45.35500
H  38.19400 6.06100 46.24200
H  38.15500 4.99900 44.95200
H  42.38700 -2.21700 46.68400
H  41.45200 -1.30600 47.54800
H  42.23400 -2.46900 48.49600
H  47.78800 -1.95100 47.82200
H  47.38400 -3.35500 48.87000
H  47.39600 -1.64700 49.50700
H  49.43300 1.72900 47.70600
H  49.69500 4.48700 48.57800
H  48.76600 1.47400 50.44100
H  49.27000 3.16600 50.34400
H  50.41800 1.98300 49.80700
H  49.57400 4.92200 46.01500
H  49.83800 3.20400 45.79600
H  51.78400 4.22600 47.79700
H  51.89000 4.88100 46.09900
H  51.94300 3.14600 46.46000
H  47.22200 8.79000 46.32800
H  47.41400 8.99400 48.10100
H  46.13600 9.85500 47.18900
H  41.42900 7.76800 46.29400
H  38.17400 8.09400 48.97400
H  38.30100 9.79000 48.27800
H  39.25800 9.19500 49.71500

