158

Mg 36.06500 0.32700 28.83400
C  33.97500 1.16600 31.51900
C  38.71600 0.45800 30.88700
C  37.84100 -0.60400 26.17700
C  33.11600 0.69000 26.71400
N  36.20900 0.64100 30.97400
C  35.27700 0.95300 31.89400
C  35.87400 1.06600 33.32800
C  37.37800 1.30400 33.00600
C  37.42900 0.65400 31.56400
C  37.88700 2.72700 32.97700
C  35.47800 -0.16100 34.16500
C  35.09600 0.02800 35.61900
H  35.36000 1.32600 36.48900
N  38.01800 -0.14900 28.61500
C  38.95100 -0.03600 29.52100
C  40.26200 -0.45500 28.96000
C  40.03200 -0.70000 27.58300
C  38.56100 -0.54500 27.40600
C  41.52600 -0.30100 29.79000
C  40.96300 -0.89100 26.46200
O  40.58300 -0.82200 25.31300
C  42.44300 -1.15400 26.69600
N  35.46000 -0.02600 26.70500
C  36.42300 -0.40400 25.79100
C  35.86900 -0.22600 24.38400
C  34.37500 0.09700 24.52900
C  34.27800 0.30000 26.07600
C  36.59600 0.78200 23.48600
C  33.38600 -0.93900 23.98000
C  32.26800 -0.42500 23.01100
N  33.98600 0.69700 29.02100
C  32.92400 0.76700 28.09200
C  31.73600 1.18600 28.80400
C  32.08200 1.23800 30.09500
C  33.43500 0.99400 30.19600
C  30.35500 1.56000 28.20600
C  31.53700 1.60500 31.41800
O  30.45100 1.96000 31.75000
C  32.76200 1.46300 32.37200
C  32.96800 2.72600 33.07800
O  33.57000 3.68000 32.60400
O  32.24200 2.89000 34.23600
C  32.11500 4.30500 34.81000
H  39.61100 0.73200 31.44900
H  38.37400 -0.99800 25.31000
H  32.29100 0.97000 26.05500
H  35.49000 1.94500 33.84500
H  38.05800 0.72500 33.63100
H  38.43200 2.71700 33.92000
H  37.02000 3.38700 32.99800
H  38.47700 2.95400 32.08900
H  36.10800 -1.03000 33.97400
H  34.58900 -0.47000 33.61600
H  35.51300 -0.79900 36.19400
H  34.03300 -0.20400 35.69100
H  42.00600 0.60000 29.40700
H  42.27800 -1.04900 29.53900
H  41.39100 -0.30700 30.87200
H  42.86300 -1.46700 25.74000
H  42.47900 -1.85300 27.53100
H  42.84100 -0.18500 26.99800
H  36.00100 -1.14200 23.80900
H  34.00100 1.05200 24.16100
H  36.20500 1.79300 23.61000
H  36.48000 0.50500 22.43900
H  37.65000 0.96400 23.69600
H  32.87500 -1.48600 24.77200
H  33.98500 -1.65600 23.42000
H  31.32300 -0.87500 23.31700
H  32.51700 -0.60800 21.96600
H  32.14500 0.65000 23.14400
H  30.46800 2.05600 27.24200
H  29.79900 2.26100 28.82800
H  29.88600 0.62800 27.88900
H  32.64100 0.59500 33.02000
H  32.47000 5.09600 34.14800
H  32.79900 4.37300 35.65600
H  31.15100 4.54600 35.25700
Mg 8.78700 47.86600 26.99100
C  7.28800 47.54500 30.16000
C  11.76400 48.41500 28.52700
C  9.89900 48.85200 24.09000
C  5.46800 47.64300 25.65900
N  9.43700 47.97700 29.16300
C  8.68600 47.68900 30.22800
C  9.55000 47.80200 31.52300
C  10.95900 48.35200 30.98900
C  10.72300 48.26100 29.47500
C  11.42800 49.82300 31.44300
C  9.68800 46.53100 32.43400
C  9.48300 46.90300 33.91300
H  9.64100 45.84300 34.94800
N  10.56700 48.33900 26.35400
C  11.69400 48.58600 27.16200
C  12.79700 48.75100 26.24600
C  12.32400 48.79100 24.95200
C  10.89600 48.76000 25.04400
C  14.23700 48.69000 26.74700
C  13.09700 48.82600 23.55200
O  12.51400 48.90300 22.45900
C  14.58700 48.83000 23.59100
N  7.86000 48.03200 25.10200
C  8.54700 48.60500 24.07300
C  7.63100 48.92000 22.86500
C  6.23100 48.44600 23.35300
C  6.52400 47.96400 24.79900
C  7.74700 50.39000 22.34400
C  5.63800 47.37200 22.36800
C  5.12000 47.83700 21.03700
N  6.78800 47.62900 27.68600
C  5.61300 47.53900 27.04000
C  4.55300 47.49800 28.04300
C  5.20200 47.52900 29.24100
C  6.56900 47.64400 28.97700
C  3.07800 47.33700 27.76100
C  4.90900 47.56300 30.63000
O  3.85600 47.48000 31.19800
C  6.29900 47.43900 31.27600
C  6.33400 46.11100 31.95100
O  6.64400 45.01800 31.46400
O  5.96000 46.32800 33.17900
C  6.14300 45.23100 34.12700
H  12.73700 48.60000 28.98500
H  10.27000 49.19900 23.12400
H  4.45700 47.76600 25.26500
H  9.14400 48.60200 32.14100
H  11.75300 47.61800 31.12600
H  12.48700 49.79900 31.69900
H  10.89200 50.13800 32.33700
H  11.18300 50.60600 30.72500
H  10.67600 46.08300 32.32800
H  8.91600 45.83000 32.11400
H  8.49000 47.33500 34.03800
H  10.26500 47.63100 34.12700
H  14.59800 49.64300 26.36000
H  14.83600 47.82500 26.46400
H  14.25100 48.65800 27.83600
H  14.99300 49.58000 24.27000
H  15.03500 48.98000 22.60800
H  14.86600 47.83300 23.93100
H  7.94200 48.29100 22.03100
H  5.59400 49.32600 23.45100
H  8.32100 51.06000 22.98500
H  6.76200 50.73200 22.02600
H  8.17000 50.39400 21.33900
H  4.76900 46.96900 22.88800
H  6.28600 46.51300 22.19700
H  5.39300 48.88700 20.92700
H  4.03100 47.79200 21.01100
H  5.63800 47.30000 20.24200
H  2.64300 46.71900 28.54600
H  2.90400 46.76300 26.85100
H  2.76000 48.38000 27.75600
H  6.42400 48.27800 31.96100
H  6.27500 45.64900 35.12500
H  7.02500 44.63100 33.90600
H  5.30600 44.55600 34.30800

