158

Mg 39.67900 8.39500 29.22300
C  41.77000 9.59700 31.82200
C  37.29300 7.76200 31.53600
C  37.99600 6.74100 26.82500
C  42.41600 8.81400 27.05200
N  39.59600 8.59700 31.46900
C  40.48000 9.29000 32.20600
C  39.88900 9.38800 33.63600
C  38.58500 8.57200 33.59600
C  38.42400 8.26500 32.09000
C  38.49400 7.35700 34.58700
C  39.73000 10.82500 34.31200
C  39.13900 10.81300 35.71300
H  40.02600 11.23400 36.90700
N  37.88500 7.44300 29.17900
C  37.00000 7.34600 30.22300
C  35.79200 6.72200 29.70900
C  36.08500 6.27900 28.38400
C  37.38400 6.78900 28.03800
C  34.61600 6.48400 30.65100
C  35.29100 5.47200 27.37500
O  35.57900 5.11400 26.23300
C  33.86800 5.04900 27.80300
N  40.13500 7.87700 27.27600
C  39.29800 7.20300 26.42400
C  39.82300 7.09500 25.01500
C  41.06700 7.94900 25.09100
C  41.27000 8.19400 26.55000
C  40.05300 5.69400 24.38800
C  41.10200 9.29100 24.28200
C  40.32000 10.48200 24.94300
N  41.70700 9.08300 29.30700
C  42.63300 9.22500 28.38600
C  43.84600 9.85800 28.96000
C  43.48000 9.99800 30.28500
C  42.24900 9.41300 30.53200
C  45.01000 10.23800 28.14600
C  43.83700 10.68200 31.52500
O  44.78300 11.46000 31.71700
C  42.87500 10.23000 32.64800
C  43.50300 9.24700 33.56300
O  43.38600 8.02900 33.46400
O  44.26200 9.91400 34.48200
C  44.52800 9.14000 35.72600
H  36.38100 7.69600 32.13200
H  37.45300 6.35300 25.96100
H  43.15600 8.93000 26.25700
H  40.62900 8.84400 34.22300
H  37.69800 9.15600 33.84300
H  37.83300 7.63200 35.40900
H  39.42300 7.09400 35.09400
H  38.02600 6.52700 34.05800
H  39.00400 11.24800 33.61800
H  40.63200 11.43600 34.29100
H  38.80100 9.80300 35.94100
H  38.33600 11.54900 35.66500
H  33.72400 7.00600 30.30500
H  34.82900 6.60000 31.71400
H  34.34100 5.43400 30.54700
H  34.03300 4.26700 28.54300
H  33.36200 4.78600 26.87400
H  33.31600 5.87100 28.26000
H  39.11300 7.58800 24.35100
H  41.90700 7.33800 24.76100
H  41.04400 5.63700 23.93800
H  39.34800 5.48300 23.58400
H  39.95300 4.89000 25.11600
H  40.64900 9.15000 23.30100
H  42.13500 9.61500 24.15300
H  39.62600 10.24500 25.75000
H  39.63700 10.94200 24.22900
H  41.05500 11.25300 25.17500
H  44.74500 10.18000 27.09000
H  45.83900 9.57500 28.39700
H  45.37600 11.24200 28.35800
H  42.70500 11.16500 33.18200
H  43.57600 8.89600 36.19600
H  45.07600 9.85800 36.33600
H  45.17700 8.27200 35.60700
Mg 30.14700 59.12400 40.28200
C  27.38500 57.06100 39.14200
C  32.14400 56.83300 38.72100
C  32.48600 61.31900 40.68600
C  27.65500 61.50700 41.30700
N  29.80900 57.12800 39.18600
C  28.64400 56.47700 38.88700
C  28.91300 55.33000 37.94300
C  30.47700 55.10000 38.10000
C  30.84900 56.45500 38.71100
C  30.81000 53.82100 38.88500
C  28.60700 55.74600 36.44600
C  27.69100 54.70600 35.75000
H  26.73300 55.32800 34.68000
N  32.02200 59.06100 39.85000
C  32.69700 58.03100 39.23100
C  34.08500 58.30500 39.30200
C  34.24200 59.55500 39.92400
C  32.91000 60.10400 40.13000
C  35.14700 57.33000 38.80000
C  35.60800 60.12100 40.44300
O  36.67700 59.58500 40.23800
C  35.65900 61.30200 41.37700
N  29.96500 61.17500 40.77700
C  31.18400 61.87600 40.86700
C  30.84800 63.28400 41.24700
C  29.34900 63.28100 41.67100
C  28.99500 61.93000 41.19600
C  31.75200 63.91700 42.24800
C  28.45700 64.35700 41.08400
C  27.42900 64.95100 42.08000
N  27.94500 59.18300 40.39200
C  27.15700 60.29800 40.73900
C  25.75200 59.84900 40.61400
C  25.75500 58.61600 39.96500
C  27.15900 58.26300 39.82200
C  24.56800 60.65600 40.96900
C  25.01400 57.46700 39.40000
O  23.82300 57.27400 39.47600
C  26.07300 56.42500 38.81100
C  25.83700 54.97700 39.35900
O  26.41300 54.52400 40.32500
O  24.89200 54.27000 38.59000
C  24.24100 53.18600 39.27200
H  32.84600 56.19700 38.17700
H  33.31700 61.99500 40.89800
H  27.01400 62.28600 41.72500
H  28.33000 54.45900 38.24200
H  30.93100 54.94500 37.12200
H  29.88400 53.44000 39.31500
H  31.37200 54.12500 39.76800
H  31.49800 53.09800 38.44500
H  29.49900 55.91300 35.84200
H  28.15300 56.72900 36.32000
H  27.11100 54.07800 36.42600
H  28.23800 53.93800 35.20200
H  35.14700 57.15000 37.72500
H  35.09700 56.31100 39.18400
H  36.15400 57.63200 39.08800
H  35.01900 61.02100 42.21400
H  35.47500 62.23800 40.85100
H  36.68900 61.45900 41.69900
H  30.83000 63.79300 40.28400
H  29.24800 63.35800 42.75400
H  32.54400 63.24700 42.58100
H  31.28400 64.35600 43.12900
H  32.30100 64.74600 41.80300
H  27.91700 63.93800 40.23500
H  28.88300 65.31100 40.77300
H  26.45000 64.65900 41.69800
H  27.43800 66.03800 41.99900
H  27.54000 64.54200 43.08400
H  23.77300 60.01200 41.34600
H  24.28400 61.18800 40.06100
H  24.89100 61.50800 41.56700
H  25.97300 56.45800 37.72600
H  24.82000 52.68400 40.04700
H  23.92300 52.39100 38.59600
H  23.35300 53.50100 39.82100

