158

Mg 24.39700 -5.08700 45.73500
C  26.92100 -2.92600 44.70200
C  22.24700 -3.57500 43.53700
C  22.18100 -7.65400 46.23800
C  26.85100 -6.97900 47.34100
N  24.63200 -3.65100 44.04900
C  25.76300 -2.86400 43.91700
C  25.50000 -1.85000 42.79300
C  23.99900 -1.72600 42.76200
C  23.54500 -3.03000 43.42900
C  23.55900 -0.47200 43.52300
C  26.04700 -2.32200 41.44200
C  26.21800 -1.30200 40.45600
H  25.50400 -1.50100 39.07200
N  22.41200 -5.50300 45.10800
C  21.73100 -4.72700 44.22200
C  20.39100 -5.21900 44.01800
C  20.38300 -6.49000 44.72100
C  21.65600 -6.60900 45.48800
C  19.34100 -4.45000 43.30200
C  19.24200 -7.39400 44.56200
O  18.21000 -7.13100 44.04100
C  19.30500 -8.76900 45.19700
N  24.54800 -7.09400 46.62400
C  23.48900 -7.90500 46.78800
C  23.85200 -9.25800 47.40700
C  25.32500 -9.07900 47.82800
C  25.60300 -7.61100 47.20700
C  22.87700 -9.72000 48.60300
C  26.27900 -10.14300 47.14800
C  27.51900 -10.49300 47.95700
N  26.39300 -4.87100 46.20200
C  27.26800 -5.67500 46.96700
C  28.48200 -4.95500 47.15000
C  28.41000 -3.91300 46.21600
C  27.12300 -3.88700 45.68200
C  29.51700 -5.53600 48.05300
C  29.11900 -2.74200 45.59500
O  30.24800 -2.32500 45.82400
C  28.17800 -2.12700 44.52600
C  27.90300 -0.68300 44.84700
O  27.46400 -0.22400 45.88500
O  28.34700 0.11700 43.84200
C  28.06800 1.53700 43.93600
H  21.67100 -2.83600 42.97600
H  21.47200 -8.45700 46.45000
H  27.62200 -7.57400 47.83500
H  26.03400 -0.93300 43.03900
H  23.68400 -1.60300 41.72600
H  22.81100 0.15700 43.04000
H  24.39300 0.20200 43.71900
H  23.04800 -0.75400 44.44300
H  25.36700 -3.06400 41.02400
H  26.96000 -2.85800 41.70200
H  27.26400 -1.32100 40.15300
H  26.08900 -0.28100 40.81800
H  18.84700 -5.06000 42.54600
H  19.89000 -3.76100 42.66000
H  18.64300 -3.85000 43.88700
H  19.27100 -8.66900 46.28200
H  20.25700 -9.22600 44.92700
H  18.59200 -9.51400 44.84500
H  23.70700 -10.03900 46.66100
H  25.53600 -8.94700 48.89000
H  21.98700 -9.09300 48.54200
H  23.41900 -9.66500 49.54700
H  22.75400 -10.80200 48.65600
H  26.59800 -9.76600 46.17600
H  25.80300 -11.10100 46.94000
H  28.17200 -11.10700 47.33700
H  27.17900 -11.17000 48.74100
H  27.95600 -9.70700 48.57300
H  30.32900 -4.85400 48.30700
H  29.98400 -6.41200 47.60200
H  29.10000 -5.76700 49.03300
H  28.70400 -2.18900 43.57400
H  28.94900 2.01000 44.37100
H  27.29500 1.79900 44.65700
H  27.70800 1.78800 42.93800
Mg 35.86000 2.24400 30.69900
C  33.22000 3.21700 32.79000
C  38.04800 2.50700 33.39300
C  38.35200 1.65100 28.57600
C  33.60800 2.51700 27.99100
N  35.65000 2.86400 32.79100
C  34.42900 3.03300 33.46600
C  34.67400 3.15000 34.94900
C  36.22000 3.35800 35.01300
C  36.67900 2.92400 33.64300
C  36.60000 4.81700 35.47700
C  34.16100 1.88400 35.67100
C  33.67000 2.09500 37.13000
H  34.18700 3.25100 37.93900
N  37.91800 2.08400 30.91600
C  38.63800 2.22200 32.14400
C  40.01300 1.92000 31.90700
C  40.13100 1.61900 30.50100
C  38.76000 1.73700 29.92700
C  41.01400 2.09000 33.03900
C  41.36700 1.24500 29.66000
O  41.22900 0.86500 28.50200
C  42.77200 1.16900 30.23700
N  35.97300 2.00600 28.51600
C  37.14600 1.80800 27.90500
C  36.98700 1.67100 26.36000
C  35.43000 1.86200 26.23900
C  34.96800 2.27100 27.63600
C  37.82700 2.59000 25.43500
C  34.71200 0.55500 25.85600
C  33.70500 0.60300 24.73900
N  33.80800 2.76600 30.34100
C  33.02400 2.77200 29.22100
C  31.59600 3.13600 29.55700
C  31.69400 3.33200 30.95100
C  33.03900 3.07000 31.37300
C  30.38700 3.46800 28.77700
C  30.95700 3.73800 32.13600
O  29.82200 4.10400 32.23000
C  31.85900 3.56900 33.32900
C  31.92600 4.86200 34.01000
O  32.48600 5.83300 33.56800
O  31.20900 4.82300 35.17400
C  31.05700 6.06600 35.99100
H  38.73200 2.43000 34.24100
H  39.16000 1.38200 27.89300
H  32.89900 2.68700 27.17800
H  34.13000 4.00600 35.34800
H  36.63600 2.72600 35.79800
H  37.12200 4.80700 36.43400
H  35.78300 5.51100 35.67500
H  37.30100 5.17700 34.72500
H  35.00200 1.19300 35.72700
H  33.42100 1.52300 34.95600
H  33.81500 1.15500 37.66300
H  32.58800 2.21900 37.08800
H  40.82400 1.35900 33.82600
H  40.88400 3.09900 33.43000
H  42.00700 1.95900 32.61000
H  43.42000 0.63900 29.53900
H  42.86500 0.54400 31.12600
H  43.05300 2.19600 30.46800
H  37.40200 0.68600 26.14500
H  35.10100 2.61600 25.52400
H  38.51700 1.89900 24.95100
H  38.25100 3.37600 26.06100
H  37.23800 3.14200 24.70200
H  34.24500 0.05500 26.70400
H  35.44200 -0.18600 25.53100
H  34.05400 0.14300 23.81400
H  33.36800 1.61100 24.49900
H  32.82500 0.07400 25.10600
H  30.45700 3.20100 27.72200
H  30.00100 4.47600 28.92600
H  29.62500 2.81300 29.20100
H  31.48500 2.79400 33.99800
H  31.86200 6.16100 36.72000
H  30.10700 5.99700 36.52100
H  30.88200 6.94700 35.37500

