158

Mg 49.35600 15.34100 29.21500
C  47.28900 15.57100 32.10600
C  51.73400 17.12800 31.09400
C  51.29300 15.79000 26.48200
C  46.81700 14.10500 27.43300
N  49.50100 16.15000 31.36600
C  48.55400 16.08000 32.32600
C  49.02700 16.56000 33.70100
C  50.30100 17.33900 33.23200
C  50.54100 16.86600 31.84500
C  50.16700 18.84700 33.55300
C  49.30200 15.32300 34.73300
C  48.55100 15.37400 36.14100
H  48.73600 16.65700 37.05400
N  51.29300 16.23600 28.87800
C  52.09400 16.82600 29.76000
C  53.37800 17.20400 29.18700
C  53.31500 16.80200 27.83900
C  51.95900 16.23000 27.68200
C  54.48300 17.82500 29.97500
C  54.20900 17.07800 26.66100
O  53.90800 16.94900 25.46700
C  55.60800 17.53600 26.85500
N  49.06600 15.14800 27.23200
C  49.98600 15.32200 26.32000
C  49.46400 14.93900 24.92500
C  48.25100 13.99900 25.27400
C  47.98800 14.46900 26.71600
C  49.20400 16.16900 23.98800
C  48.46800 12.47500 25.16200
C  47.31800 11.54000 24.93100
N  47.46800 14.89800 29.60100
C  46.48500 14.41900 28.66900
C  45.31000 14.10300 29.50700
C  45.62600 14.53500 30.86000
C  46.87600 15.04700 30.83000
C  44.06400 13.45900 28.93000
C  45.04000 14.59000 32.21300
O  43.92200 14.15500 32.58900
C  46.12300 15.32000 33.04600
C  45.54300 16.59700 33.52000
O  45.44300 17.67000 32.92800
O  45.05600 16.41700 34.74900
C  44.50100 17.49600 35.51000
H  52.42800 17.76500 31.64600
H  51.82000 15.75800 25.52600
H  45.99200 13.69400 26.84700
H  48.26200 17.24000 34.07700
H  51.15100 16.99500 33.82100
H  50.80900 19.47400 32.93400
H  50.66500 19.01900 34.50800
H  49.11200 19.12000 33.56300
H  50.35300 15.05100 34.83200
H  48.99100 14.35000 34.35300
H  48.87200 14.41800 36.55300
H  47.47400 15.28300 36.00300
H  54.12900 18.74800 30.43400
H  55.35400 18.03500 29.35500
H  54.76300 17.12600 30.76300
H  56.18000 17.49900 25.92900
H  56.14200 16.93500 27.59100
H  55.55900 18.55400 27.24200
H  50.10700 14.29500 24.32500
H  47.40100 14.26200 24.64400
H  49.13100 17.05600 24.61700
H  48.34300 15.99300 23.34300
H  50.05400 16.19900 23.30600
H  49.04000 12.18800 26.04400
H  49.15000 12.30700 24.32900
H  47.66300 10.63200 24.43700
H  46.60700 12.13000 24.35300
H  46.79700 11.27500 25.85100
H  43.67300 14.05100 28.10200
H  43.28800 13.40300 29.69300
H  44.21400 12.48900 28.45700
H  46.37100 14.65000 33.87000
H  45.04000 18.43400 35.37800
H  44.40300 17.22600 36.56100
H  43.44000 17.50500 35.26200
Mg 49.31700 34.55100 26.30900
C  47.30800 33.49500 28.83900
C  49.41200 37.76400 27.54600
C  51.24100 35.35300 23.69000
C  48.89100 31.23900 24.81700
N  48.43400 35.48700 27.94900
C  47.68800 34.85900 28.91500
C  47.37200 35.91700 29.98500
C  47.92800 37.23400 29.52500
C  48.58300 36.78200 28.21300
C  46.82500 38.33600 29.38300
C  47.91700 35.52900 31.44000
C  46.81200 35.43400 32.58400
H  47.04500 36.15300 33.91900
N  50.24900 36.34900 25.69000
C  50.22000 37.53500 26.41200
C  50.99500 38.46800 25.61700
C  51.50400 37.77700 24.44900
C  51.01600 36.42700 24.55900
C  51.24700 39.89400 26.02400
C  52.50200 38.29500 23.38400
O  53.07400 37.56900 22.60300
C  52.84700 39.77700 23.23500
N  49.80400 33.50600 24.39100
C  50.79800 34.06900 23.59600
C  51.06600 33.26700 22.34800
C  50.37800 31.89600 22.78400
C  49.55500 32.22700 24.06800
C  50.61700 33.90700 21.00000
C  51.29000 30.74300 22.98900
C  51.18700 29.62200 21.99300
N  48.26900 32.75900 26.66900
C  48.20800 31.50000 26.03000
C  47.30100 30.65700 26.74900
C  46.90300 31.36100 27.88900
C  47.54800 32.55900 27.83100
C  46.95900 29.19500 26.43100
C  46.08800 31.33400 29.08900
O  45.26300 30.39700 29.46800
C  46.42000 32.69000 29.86300
C  47.00100 32.16400 31.14600
O  48.15000 31.72900 31.35000
O  46.00900 32.18400 32.07300
C  46.20900 31.68700 33.44300
H  49.60300 38.74000 27.99600
H  51.77500 35.65700 22.78700
H  48.75400 30.28600 24.30400
H  46.29100 36.01700 30.08500
H  48.69500 37.52200 30.24400
H  46.29800 38.34200 30.33700
H  46.08800 38.05700 28.63000
H  47.22800 39.34100 29.25200
H  48.66200 36.21100 31.84800
H  48.37500 34.55500 31.26800
H  46.56900 34.37700 32.68800
H  45.89000 35.87900 32.21100
H  50.99300 40.10400 27.06300
H  50.83700 40.68600 25.39700
H  52.32300 40.01900 25.89900
H  53.40100 39.93800 22.31000
H  53.45000 39.97000 24.12300
H  51.95800 40.40600 23.18200
H  52.15000 33.20400 22.44200
H  49.63000 31.61100 22.04400
H  51.48600 34.43900 20.61300
H  49.83600 34.64700 21.16800
H  50.11300 33.20400 20.33700
H  51.23300 30.34000 24.00000
H  52.27500 31.20800 22.93700
H  52.14500 29.31900 21.56900
H  50.59300 29.88300 21.11800
H  50.81200 28.73500 22.50300
H  46.28500 29.14500 25.57600
H  46.38900 28.74600 27.24400
H  47.87400 28.65900 26.18300
H  45.57300 33.36800 29.96900
H  46.43000 32.47900 34.15900
H  47.05700 31.00500 33.49800
H  45.30100 31.20500 33.80700

