158

Mg 54.23500 24.67100 43.45900
C  51.66300 27.05300 43.29300
C  51.85700 22.23600 43.00600
C  56.72900 22.53900 42.87500
C  56.64400 27.35200 43.57400
N  52.02600 24.70000 43.13000
C  51.22500 25.79200 43.03800
C  49.77700 25.30300 42.91800
C  49.79800 23.76500 43.37400
C  51.28700 23.51700 43.17900
C  49.46000 23.56100 44.86900
C  49.11700 25.52300 41.47400
C  49.82400 24.95800 40.22300
H  50.40200 25.89800 39.18600
N  54.31500 22.56800 43.04600
C  53.19400 21.75900 42.96600
C  53.65100 20.39300 42.71100
C  55.09200 20.46700 42.64100
C  55.41800 21.87400 42.91500
C  52.75500 19.30400 42.37500
C  56.04000 19.28800 42.16600
O  55.58300 18.20400 41.91500
C  57.46700 19.47900 41.91500
N  56.40800 24.96100 42.95600
C  57.20500 23.86500 42.98700
C  58.64800 24.24500 42.94200
C  58.57700 25.86700 42.97800
C  57.13200 26.10000 43.17800
C  59.41300 23.69900 44.13400
C  59.11900 26.57100 41.68900
C  59.93100 27.79900 41.83800
N  54.24800 26.77900 43.43300
C  55.27000 27.74700 43.59600
C  54.67400 29.05400 43.82700
C  53.28500 28.81600 43.61900
C  53.02600 27.45400 43.39800
C  55.27500 30.35200 44.05000
C  51.95000 29.48000 43.66800
O  51.60800 30.64200 43.85500
C  50.85800 28.30800 43.21300
C  50.48600 28.78400 41.87400
O  51.17400 28.59500 40.89800
O  49.20600 29.35500 41.83900
C  48.69300 29.75600 40.55700
H  51.11000 21.51000 42.67500
H  57.51800 21.79500 43.00300
H  57.38600 28.14600 43.68300
H  49.21900 25.85800 43.67200
H  49.12200 23.16100 42.76900
H  48.60400 24.18100 45.13400
H  50.31800 23.89200 45.45400
H  49.31500 22.52000 45.15600
H  48.84800 26.56900 41.33100
H  48.17200 24.97900 41.49000
H  49.09900 24.29600 39.74900
H  50.64000 24.37200 40.64700
H  52.70900 19.20500 41.29100
H  51.79100 19.69100 42.70500
H  52.98100 18.43800 42.99700
H  57.58200 20.42000 41.37800
H  57.87400 18.63500 41.35800
H  57.89400 19.51000 42.91800
H  59.04200 23.82900 42.01400
H  59.18700 26.17600 43.82600
H  59.44100 24.44100 44.93200
H  60.38800 23.29800 43.85700
H  58.90900 22.82900 44.55400
H  58.18600 26.82300 41.18500
H  59.60500 25.78300 41.11300
H  60.28900 27.89900 42.86200
H  59.37100 28.68200 41.52700
H  60.86600 27.73200 41.28300
H  54.49700 31.05200 43.74300
H  56.14600 30.51200 43.41500
H  55.47300 30.47600 45.11500
H  50.09000 28.42200 43.97800
H  48.94300 29.08200 39.73800
H  48.91500 30.78000 40.25900
H  47.60900 29.69300 40.65400
Mg 27.06900 51.33200 26.24200
C  25.19100 52.13100 29.00800
C  29.60500 50.34400 28.43600
C  29.06800 50.65800 23.63700
C  24.80600 52.86800 24.22700
N  27.40600 51.44700 28.46000
C  26.44500 51.62400 29.40300
C  26.87900 51.26500 30.85200
C  28.39100 51.00400 30.62500
C  28.50200 50.94900 29.10100
C  29.46300 51.82200 31.37800
C  26.12600 50.07900 31.58900
C  25.13700 50.44400 32.75200
H  25.19000 49.75100 34.11300
N  29.00500 50.51300 26.03900
C  29.84100 50.15200 27.08200
C  31.09800 49.67500 26.55500
C  30.98500 49.64400 25.12000
C  29.65300 50.34500 24.84400
C  32.24300 49.20200 27.41200
C  31.89400 49.06800 24.06400
O  31.76400 49.31600 22.88100
C  33.00900 48.15300 24.50100
N  27.03300 51.80000 24.25400
C  27.83900 51.30600 23.33500
C  27.33700 51.46700 21.88900
C  25.90200 52.03400 22.11400
C  25.91100 52.29400 23.63500
C  28.18000 52.36800 20.94500
C  24.72800 51.08300 21.66500
C  23.63300 51.75600 20.88000
N  25.29800 52.19200 26.43300
C  24.44300 52.85000 25.53300
C  23.26600 53.30100 26.19100
C  23.50600 52.95000 27.53100
C  24.76200 52.34500 27.63200
C  22.13800 54.17000 25.63900
C  22.95300 53.01800 28.90200
O  21.89400 53.41900 29.33300
C  24.01700 52.56600 29.89100
C  24.29100 53.69100 30.81600
O  25.28400 54.38900 30.83100
O  23.33000 53.71500 31.81600
C  23.53300 54.71500 32.89300
H  30.31200 49.90700 29.14400
H  29.62700 50.41400 22.73200
H  24.04500 53.14800 23.49700
H  26.88200 52.17900 31.44500
H  28.59300 49.99200 30.97400
H  29.97200 51.15600 32.07500
H  28.91000 52.55600 31.96400
H  30.08800 52.39100 30.69000
H  26.76300 49.27300 31.95200
H  25.50200 49.63800 30.81100
H  24.17600 50.07400 32.39500
H  25.10300 51.53000 32.84100
H  32.07300 48.12800 27.34800
H  32.18600 49.52400 28.45200
H  33.19000 49.42100 26.91800
H  33.71100 48.73200 25.10100
H  33.38200 47.55300 23.67100
H  32.54400 47.39000 25.12500
H  27.21100 50.49900 21.40300
H  25.74900 53.02800 21.69200
H  27.61100 53.26000 20.68300
H  28.57500 51.81900 20.08900
H  29.06400 52.60400 21.53700
H  24.15700 50.76300 22.53600
H  25.08400 50.16500 21.19800
H  22.67800 51.53400 21.35700
H  23.58300 51.52600 19.81500
H  23.79700 52.82700 20.99800
H  21.21400 54.24100 26.21300
H  21.83600 53.83400 24.64800
H  22.45900 55.20000 25.48500
H  23.53400 51.70200 30.34700
H  24.20400 54.24500 33.61200
H  22.67200 54.94100 33.52300
H  23.93700 55.68300 32.59900

