158

Mg 48.10700 25.33200 29.54400
C  49.52000 27.42200 31.89600
C  46.85300 23.54400 32.00700
C  47.42900 23.04000 27.23200
C  49.79700 27.34800 27.05100
N  48.23300 25.46800 31.68800
C  48.86700 26.36700 32.49400
C  48.53300 26.27600 33.90800
C  47.72600 24.94000 33.91400
C  47.51300 24.69400 32.46500
C  48.42800 23.68400 34.53700
C  47.64000 27.46700 34.50100
C  48.23700 28.30100 35.62100
H  47.33200 28.43200 36.85900
N  47.19100 23.52500 29.57600
C  46.77700 22.96100 30.71400
C  46.07500 21.74400 30.32000
C  46.32000 21.55000 28.88500
C  47.01700 22.73500 28.50900
C  45.31100 20.88000 31.31500
C  45.78500 20.44300 28.01900
O  45.95000 20.38100 26.78700
C  44.94900 19.40800 28.58300
N  48.66400 25.14800 27.48100
C  48.16200 24.13700 26.73100
C  48.36100 24.30300 25.25200
C  48.86400 25.79000 25.17600
C  49.14600 26.14300 26.68200
C  49.27300 23.29900 24.57400
C  47.93500 26.87300 24.71100
C  48.41100 27.88100 23.54500
N  49.41100 27.02800 29.45400
C  49.97300 27.74700 28.38100
C  50.62700 28.89200 28.93500
C  50.42700 28.87100 30.26900
C  49.77500 27.65900 30.57300
C  51.18700 29.96300 28.12700
C  50.69500 29.54200 31.55200
O  51.21600 30.60600 31.89200
C  50.14600 28.56400 32.63500
C  51.24100 28.23100 33.54100
O  52.02900 27.33100 33.42000
O  51.32500 29.22500 34.51700
C  52.01400 28.93100 35.71700
H  46.42600 22.98000 32.83900
H  47.01500 22.39000 26.45800
H  50.16600 28.04500 26.29500
H  49.45300 26.20600 34.48800
H  46.77200 25.07500 34.42500
H  48.94100 23.99400 35.44700
H  48.99200 23.19500 33.74200
H  47.74400 22.88500 34.82200
H  46.73500 27.07600 34.96500
H  47.32800 28.18200 33.73900
H  48.41400 29.28400 35.18600
H  49.17500 27.95700 36.05600
H  44.25400 20.78600 31.06800
H  45.34200 21.31400 32.31500
H  45.75000 19.88300 31.28300
H  45.55700 18.67600 29.11500
H  44.43300 18.97000 27.72900
H  44.09400 19.86000 29.08600
H  47.42700 24.29400 24.69100
H  49.77800 25.76300 24.58300
H  49.71100 22.66800 25.34600
H  50.06900 23.66900 23.92700
H  48.63100 22.78300 23.86000
H  47.44900 27.40900 25.52600
H  46.99700 26.45100 24.34900
H  48.40700 28.94000 23.80200
H  47.77800 27.69600 22.67700
H  49.43700 27.70600 23.22000
H  50.46300 30.70500 27.79000
H  51.61800 29.41700 27.28800
H  52.01400 30.42900 28.66200
H  49.39100 29.12600 33.18500
H  51.34500 28.31000 36.31200
H  52.14100 29.80500 36.35500
H  53.01200 28.49300 35.67100
Mg 49.30800 35.37300 28.34600
C  47.32900 34.01300 30.82400
C  49.68400 38.21100 30.22500
C  50.80300 36.91200 25.61400
C  48.60000 32.60100 26.27500
N  48.46100 36.06100 30.26700
C  47.83600 35.24800 31.17000
C  47.91300 35.92800 32.64600
C  48.33100 37.39800 32.29800
C  48.93300 37.23500 30.87800
C  47.17600 38.40400 32.30200
C  48.89900 35.15200 33.52100
C  49.82300 35.83600 34.60100
H  49.14500 36.39600 35.87800
N  50.14200 37.28700 27.97800
C  50.24600 38.25900 28.94500
C  50.80100 39.47800 28.35600
C  51.21900 39.18400 26.99500
C  50.72600 37.75200 26.80100
C  51.00400 40.74200 29.13100
C  51.89200 39.95900 25.89200
O  52.24800 39.46500 24.85100
C  52.27500 41.40700 26.10600
N  49.55500 34.85600 26.29500
C  50.37400 35.61900 25.42500
C  50.73500 34.80100 24.19100
C  50.34100 33.34200 24.51400
C  49.42000 33.61900 25.74700
C  50.02100 35.41500 22.92300
C  51.51000 32.28100 24.79400
C  51.55600 31.17800 23.70800
N  48.29800 33.63200 28.52100
C  48.07600 32.59000 27.61600
C  47.43600 31.51200 28.22500
C  46.97100 32.07000 29.47400
C  47.55800 33.37300 29.60300
C  47.13900 30.15300 27.64700
C  46.23400 31.77600 30.62800
O  45.62800 30.78400 30.93300
C  46.32500 33.05000 31.49000
C  46.71300 32.53900 32.83100
O  47.75900 32.08100 33.16800
O  45.69200 32.91400 33.66800
C  46.05600 32.88900 35.10400
H  49.95500 39.01700 30.90900
H  51.24100 37.32700 24.70400
H  48.57100 31.69100 25.67200
H  46.94000 35.85900 33.13400
H  49.13000 37.74300 32.95400
H  46.80900 38.31100 33.32400
H  46.45000 38.19800 31.51500
H  47.56900 39.40400 32.12200
H  49.49200 34.57400 32.81300
H  48.41300 34.48500 34.23400
H  50.31600 36.65900 34.08300
H  50.64600 35.18600 34.90100
H  51.02000 40.53700 30.20200
H  50.23700 41.45900 28.83600
H  51.95500 41.23300 28.92400
H  52.43500 41.96200 25.18100
H  53.00400 41.64900 26.87900
H  51.31100 41.81600 26.40600
H  51.82400 34.82100 24.18000
H  49.72800 33.06900 23.65500
H  49.67100 36.40800 23.20800
H  49.23900 34.82400 22.44700
H  50.74300 35.65500 22.14300
H  51.50800 31.99100 25.84500
H  52.48000 32.76900 24.69900
H  50.62800 31.06100 23.14900
H  51.64500 30.18600 24.15200
H  52.38700 31.37500 23.03000
H  47.90700 29.47800 28.02300
H  47.20600 30.15800 26.55900
H  46.13900 29.91800 28.01100
H  45.29000 33.38200 31.56800
H  47.03500 33.35300 35.22100
H  45.92900 31.85800 35.43500
H  45.38300 33.52400 35.67900

