158

Mg 1.19600 -0.62600 44.56200
C  4.67100 0.30200 43.75000
C  0.29200 2.35200 42.72100
C  -1.72600 -1.86600 44.08200
C  2.55200 -3.67900 45.49800
N  2.37400 1.07100 43.30500
C  3.74600 1.15100 43.15600
C  4.12500 2.36200 42.22300
C  2.81600 3.21200 42.24000
C  1.73300 2.13800 42.72400
C  2.74700 4.54800 43.02800
C  4.53200 1.85300 40.81600
C  5.98100 2.28400 40.30700
H  6.08800 2.79300 38.85800
N  -0.46700 0.20300 43.69100
C  -0.73200 1.38800 43.08000
C  -2.10300 1.56400 42.76100
C  -2.78400 0.38000 43.09300
C  -1.65000 -0.51800 43.67200
C  -2.64700 2.82700 42.08500
C  -4.29700 0.00100 42.88000
O  -5.06800 0.84900 42.42900
C  -4.89600 -1.21900 43.47300
N  0.58300 -2.44800 44.85600
C  -0.72100 -2.75100 44.59000
C  -1.05900 -4.15400 45.06200
C  0.21600 -4.66900 45.69100
C  1.19000 -3.61600 45.28500
C  -2.41300 -4.20700 45.90700
C  0.42200 -6.12600 45.32500
C  0.78700 -7.11400 46.45400
N  3.23000 -1.54300 44.80300
C  3.58400 -2.77800 45.19900
C  4.97500 -2.90300 45.35300
C  5.53000 -1.70400 44.81100
C  4.39900 -0.97000 44.41500
C  5.69300 -4.11600 45.84400
C  6.68400 -0.91900 44.44800
O  7.90800 -1.06000 44.50600
C  6.15600 0.34300 43.71300
C  6.70900 1.58200 44.34400
O  6.43700 2.05300 45.42500
O  7.52800 2.19700 43.39800
C  8.03000 3.53000 43.76800
H  -0.06700 3.25100 42.21600
H  -2.66800 -2.40200 43.94800
H  2.89700 -4.61700 45.93900
H  4.93000 2.90300 42.72200
H  2.47400 3.40600 41.22400
H  3.75000 4.89200 43.27900
H  2.36200 4.33300 44.02500
H  2.15700 5.24700 42.43500
H  3.86600 2.19200 40.02300
H  4.57700 0.76400 40.84000
H  6.66100 1.44000 40.42700
H  6.35400 2.96800 41.06900
H  -2.49700 2.70300 41.01300
H  -2.23400 3.73200 42.53000
H  -3.72400 2.86200 42.25100
H  -5.97200 -1.12500 43.62000
H  -4.43600 -1.42600 44.44000
H  -4.70100 -2.03400 42.77500
H  -1.24300 -4.72400 44.15200
H  0.27300 -4.62500 46.77900
H  -2.26400 -4.56500 46.92500
H  -3.13200 -4.86000 45.41200
H  -2.86600 -3.21500 45.93100
H  1.28400 -6.15600 44.65800
H  -0.33500 -6.58200 44.68600
H  1.56300 -7.82300 46.16500
H  -0.08000 -7.75800 46.60300
H  0.96900 -6.59300 47.39400
H  6.58700 -3.78900 46.37600
H  5.76700 -4.66200 44.90400
H  5.07900 -4.73000 46.50200
H  6.62200 0.41100 42.73000
H  8.91000 3.82500 43.19500
H  8.32200 3.45600 44.81500
H  7.33100 4.36600 43.77100
Mg 25.48400 1.65300 29.87000
C  27.62600 1.52500 32.76900
C  22.91400 2.08700 31.95500
C  23.51900 1.61800 27.27100
C  28.23700 0.62500 27.98200
N  25.46700 1.64300 32.21400
C  26.36700 1.83100 33.16900
C  25.79600 2.21600 34.50500
C  24.24700 2.31600 34.23100
C  24.19300 1.95300 32.71100
C  23.41300 1.30600 35.16200
C  26.47700 3.54900 35.04700
C  27.30400 3.41600 36.34100
H  27.09900 4.42000 37.49100
N  23.50800 1.79900 29.66200
C  22.60600 1.97800 30.65900
C  21.26200 2.10800 30.08900
C  21.44000 2.00200 28.66500
C  22.83500 1.82900 28.46200
C  20.05300 2.36500 30.90700
C  20.34600 2.06500 27.56600
O  20.61700 2.02000 26.37000
C  18.84900 2.08800 27.84400
N  25.79900 1.20300 27.93600
C  24.88900 1.36600 27.00300
C  25.48800 1.36600 25.62700
C  26.96900 0.98000 25.79600
C  27.02400 0.96500 27.35600
C  24.74800 0.42000 24.54500
C  28.03600 1.82700 25.17000
C  28.14700 3.34100 25.51000
N  27.49800 1.19400 30.22200
C  28.52000 0.76600 29.38000
C  29.76000 0.56300 30.14200
C  29.44100 0.82500 31.45400
C  28.12900 1.29100 31.44700
C  31.00300 0.08700 29.54300
C  29.92000 0.89600 32.79400
O  31.05500 0.64400 33.18700
C  28.81200 1.40200 33.70000
C  28.67900 0.47400 34.78400
O  28.20400 -0.69100 34.76400
O  29.22000 1.08200 35.86200
C  29.37000 0.24500 37.00200
H  22.13100 2.42100 32.63800
H  22.82400 1.69600 26.43200
H  29.04900 0.16100 27.41900
H  26.08400 1.30700 35.03400
H  23.94400 3.32700 34.50100
H  22.76000 0.72700 34.51100
H  22.75100 1.92000 35.77400
H  23.99400 0.66100 35.82100
H  25.65000 4.22600 35.26600
H  27.09400 3.99700 34.26700
H  28.36700 3.44900 36.10100
H  26.98200 2.42700 36.66900
H  19.15400 1.87600 30.53300
H  19.93000 3.42800 30.70000
H  20.22300 2.20100 31.97100
H  18.72200 3.00200 28.42400
H  18.63600 1.29100 28.55600
H  18.25900 1.99000 26.93300
H  25.35500 2.38900 25.27500
H  27.12200 -0.03800 25.43900
H  23.83200 -0.05100 24.90100
H  25.28600 -0.46200 24.19500
H  24.58200 1.01200 23.64500
H  27.80300 1.89900 24.10800
H  28.99900 1.31900 25.21100
H  29.03000 3.31100 26.14800
H  27.19100 3.67400 25.91400
H  28.32800 3.90300 24.59300
H  31.09900 0.36600 28.49300
H  31.18200 -0.97800 29.69100
H  31.79500 0.57100 30.11300
H  29.07800 2.40100 34.04500
H  29.59600 -0.80600 36.82400
H  28.37600 0.29900 37.44700
H  30.13000 0.68600 37.64800

