158

Mg -2.58900 35.16100 26.79400
C  -4.51200 33.24600 29.04700
C  -1.88200 37.32300 29.21400
C  -0.73600 36.60400 24.48700
C  -4.03000 33.00100 24.26000
N  -3.11800 35.23700 28.84400
C  -3.77500 34.33900 29.62000
C  -3.67800 34.63300 31.13600
C  -3.27200 36.16700 31.08900
C  -2.79600 36.29600 29.63900
C  -4.38400 37.16500 31.58500
C  -2.75700 33.66900 31.88300
C  -3.21500 33.01300 33.22200
H  -3.51100 33.94000 34.43700
N  -1.58400 36.86100 26.82200
C  -1.24900 37.54900 27.97900
C  -0.25100 38.53700 27.65700
C  0.10000 38.35700 26.27200
C  -0.78000 37.23100 25.79200
C  0.29200 39.51300 28.70700
C  1.17100 39.11100 25.45800
O  1.41200 38.85700 24.28500
C  2.08800 40.07100 26.17300
N  -2.60700 34.98200 24.62400
C  -1.56500 35.59400 23.92100
C  -1.48200 35.09400 22.51100
C  -2.36700 33.80600 22.58500
C  -3.10400 33.95200 23.90700
C  -1.91800 36.21000 21.47700
C  -1.57800 32.44100 22.53700
C  -2.00600 31.33300 21.53300
N  -3.97400 33.43100 26.61300
C  -4.45200 32.69700 25.51900
C  -5.28900 31.60600 26.02000
C  -5.30300 31.76400 27.36900
C  -4.57300 32.87200 27.69400
C  -6.01200 30.49900 25.17800
C  -5.85100 31.27600 28.65800
O  -6.49400 30.26200 29.02800
C  -5.29400 32.19500 29.81000
C  -6.42400 32.71000 30.59300
O  -7.27100 33.50300 30.18300
O  -6.41800 32.22500 31.87200
C  -7.41100 32.89400 32.75900
H  -1.53700 37.84400 30.11000
H  0.05200 37.02500 23.85800
H  -4.33400 32.28000 23.49800
H  -4.63700 34.52800 31.64200
H  -2.43300 36.26200 31.77900
H  -4.50400 37.85800 30.75300
H  -4.05300 37.60700 32.52500
H  -5.31800 36.65100 31.81200
H  -1.78800 34.16000 31.98000
H  -2.71400 32.87000 31.14300
H  -2.43600 32.36700 33.62700
H  -4.03300 32.35700 32.92300
H  -0.24600 39.45100 29.65300
H  0.04000 40.52900 28.40200
H  1.35400 39.35000 28.89400
H  1.52000 40.91100 26.57100
H  2.76800 40.51700 25.44800
H  2.58100 39.47700 26.94300
H  -0.45000 34.79700 22.32100
H  -2.99800 33.77800 21.69700
H  -2.80400 35.93400 20.90600
H  -1.11100 36.64900 20.89000
H  -2.36100 37.08300 21.95700
H  -1.64700 31.93500 23.50100
H  -0.53700 32.68200 22.31900
H  -2.99900 31.48100 21.11000
H  -2.09900 30.45100 22.16600
H  -1.23600 31.07300 20.80700
H  -5.50700 29.55100 25.36200
H  -6.15100 30.71200 24.11800
H  -6.98200 30.45100 25.67300
H  -4.71800 31.60500 30.52300
H  -8.42500 32.61700 32.47000
H  -7.29200 33.97400 32.66900
H  -7.25400 32.57600 33.78900
Mg -9.17700 17.82600 41.57600
C  -5.74400 17.96000 42.13000
C  -9.08400 21.28700 40.97000
C  -12.42900 17.77400 40.59100
C  -9.06000 14.38800 41.71400
N  -7.63300 19.30400 41.39000
C  -6.23900 19.13100 41.69400
C  -5.48400 20.47500 41.41100
C  -6.66200 21.39900 41.75700
C  -7.92400 20.63000 41.36100
C  -6.65400 21.60800 43.31100
C  -5.11400 20.64100 39.91800
C  -3.74400 20.11700 39.54600
H  -3.65500 19.06800 38.49700
N  -10.57500 19.31500 40.84500
C  -10.32400 20.64200 40.70600
C  -11.46100 21.30200 40.13800
C  -12.47800 20.32700 39.99900
C  -11.84800 19.06200 40.51400
C  -11.49200 22.76500 39.88200
C  -13.92900 20.53700 39.44300
O  -14.32100 21.64500 39.16000
C  -14.93800 19.48000 39.25800
N  -10.54200 16.33200 41.16000
C  -11.86300 16.54400 41.02000
C  -12.61400 15.18100 41.11400
C  -11.56100 14.25600 41.59900
C  -10.24800 15.03500 41.42100
C  -13.80600 15.20400 42.02600
C  -11.53700 12.88100 40.78400
C  -12.35700 11.70300 41.39300
N  -7.68300 16.35800 41.83300
C  -7.80600 14.98400 41.80800
C  -6.55000 14.44800 42.05300
C  -5.68700 15.60200 42.22200
C  -6.42400 16.66600 42.11100
C  -6.10100 12.95500 42.17800
C  -4.34000 16.09800 42.48100
O  -3.33800 15.48200 42.74600
C  -4.33700 17.65800 42.38700
C  -3.81200 18.37300 43.60100
O  -4.09000 18.13500 44.73400
O  -2.95300 19.39300 43.25200
C  -2.50400 20.28500 44.33600
H  -9.02200 22.37600 41.01800
H  -13.48900 17.59400 40.40400
H  -8.98800 13.30700 41.85400
H  -4.59800 20.73400 41.99000
H  -6.58900 22.37100 41.26900
H  -5.76400 21.15800 43.75000
H  -7.45100 21.08000 43.83500
H  -6.81000 22.65200 43.58100
H  -5.18700 21.68300 39.60500
H  -5.76000 20.00700 39.31200
H  -3.23300 19.86000 40.47400
H  -3.17200 20.99700 39.25000
H  -11.07200 22.98700 38.90100
H  -11.00700 23.30100 40.69700
H  -12.50600 23.15200 39.98100
H  -14.45500 18.67900 38.69800
H  -15.89900 19.72100 38.80400
H  -15.13500 19.12300 40.26800
H  -13.06200 14.92500 40.15400
H  -11.69300 13.94900 42.63700
H  -14.57100 14.73700 41.40700
H  -14.25100 16.13700 42.37000
H  -13.84400 14.54400 42.89300
H  -10.52500 12.51600 40.61200
H  -12.05900 13.13900 39.86300
H  -12.34900 10.92600 40.62900
H  -13.34500 12.01300 41.73500
H  -11.87200 11.22000 42.24200
H  -5.80600 12.83000 43.22000
H  -5.33100 12.86000 41.41200
H  -6.94700 12.30200 41.96400
H  -3.67000 17.91200 41.56400
H  -3.17500 20.50400 45.16700
H  -2.07300 21.13600 43.81000
H  -1.65800 19.79600 44.81800

