158

Mg 1.36000 -2.16600 43.90100
C  4.61400 -0.86100 43.58000
C  0.19600 0.78900 42.42100
C  -1.73200 -3.44400 44.05800
C  2.84600 -5.23400 45.04500
N  2.34900 -0.34400 42.95200
C  3.68800 -0.01400 42.92600
C  3.86700 1.42800 42.32600
C  2.41200 2.01300 42.44200
C  1.59200 0.75500 42.53500
C  2.30500 3.07100 43.58800
C  4.53000 1.44400 40.93800
C  5.79600 2.36600 40.82200
H  6.95300 1.49900 40.45800
N  -0.55600 -1.38400 43.35200
C  -0.75500 -0.20100 42.72400
C  -2.17800 -0.11100 42.43500
C  -2.78800 -1.26900 42.86300
C  -1.70000 -2.12600 43.47700
C  -2.61700 1.08000 41.72700
C  -4.27100 -1.56500 42.70200
O  -4.98200 -0.80200 42.07800
C  -4.88100 -2.79000 43.49900
N  0.69200 -4.18600 44.20200
C  -0.69100 -4.32000 44.41100
C  -0.95400 -5.62200 45.09700
C  0.46600 -6.18300 45.48800
C  1.41700 -5.17500 44.85800
C  -1.75300 -5.44700 46.36600
C  0.66900 -7.65700 45.12100
C  1.23600 -8.63800 46.18600
N  3.32000 -2.92800 44.30000
C  3.69500 -4.10600 44.85700
C  5.09700 -4.07500 45.03300
C  5.53000 -2.79300 44.57800
C  4.38700 -2.14800 44.13900
C  6.02500 -5.19900 45.41100
C  6.66800 -1.89900 44.41400
O  7.81200 -2.07400 44.71600
C  6.13400 -0.60800 43.76000
C  6.33500 0.59700 44.66500
O  6.07600 0.63400 45.86700
O  6.89700 1.63200 44.01000
C  7.46000 2.73600 44.71900
H  -0.09900 1.77900 42.06800
H  -2.72200 -3.82700 44.31600
H  3.23500 -6.12500 45.54100
H  4.53100 1.95600 43.01000
H  2.13500 2.52700 41.52200
H  1.44100 2.74700 44.16700
H  1.96100 4.01500 43.16400
H  3.15600 3.23900 44.24900
H  3.77400 1.83300 40.25700
H  4.67600 0.42000 40.59200
H  6.11600 2.74900 41.79100
H  5.48500 3.10200 40.08100
H  -2.16200 1.17500 40.74100
H  -2.44600 2.08600 42.11000
H  -3.63400 0.94100 41.36100
H  -4.35700 -3.66600 43.11600
H  -5.92900 -2.83600 43.20300
H  -4.84100 -2.70900 44.58500
H  -1.46200 -6.28200 44.39500
H  0.70800 -6.09100 46.54600
H  -2.81900 -5.36200 46.15400
H  -1.46600 -4.58900 46.97300
H  -1.53300 -6.31300 46.99000
H  1.25600 -7.59200 44.20400
H  -0.23600 -8.06100 44.66900
H  0.78400 -9.61500 46.01600
H  1.02400 -8.32200 47.20800
H  2.31100 -8.78500 46.07300
H  6.85000 -4.75200 45.96600
H  6.35500 -5.68700 44.49300
H  5.52900 -5.91000 46.07000
H  6.69800 -0.42400 42.84600
H  7.71900 2.43800 45.73500
H  6.74700 3.55300 44.82600
H  8.33200 2.98300 44.11300
Mg 40.33000 9.57400 29.85500
C  42.33600 10.83400 32.39300
C  38.39700 8.26500 32.21200
C  38.47300 8.34100 27.37800
C  42.68500 10.76800 27.57200
N  40.44600 9.40300 32.02500
C  41.21400 10.10000 32.89500
C  40.90500 9.87400 34.40700
C  39.63400 8.91400 34.23000
C  39.46600 8.87400 32.70200
C  39.71800 7.54200 34.85900
C  40.58500 11.24400 35.14500
C  40.12700 11.06100 36.60500
H  40.93100 11.68800 37.74300
N  38.60200 8.51200 29.77800
C  37.95700 8.03200 30.85100
C  36.79600 7.25500 30.42700
C  36.74400 7.29600 29.03600
C  37.98100 8.06800 28.64200
C  35.78800 6.61300 31.34400
C  35.73700 6.82200 28.05900
O  35.88300 7.04800 26.85500
C  34.50400 6.11200 28.53700
N  40.57300 9.57900 27.76000
C  39.63000 9.00400 26.99700
C  39.81200 9.44600 25.52400
C  41.29700 10.17000 25.53900
C  41.54400 10.14500 27.05100
C  39.74200 8.22800 24.56400
C  41.45000 11.54800 24.82700
C  40.61600 12.74400 25.29300
N  42.16900 10.42200 29.93000
C  42.99500 10.85200 28.92600
C  44.20200 11.54900 29.52900
C  43.88600 11.61700 30.88400
C  42.71600 10.90100 31.05900
C  45.37200 12.09200 28.79000
C  44.36000 12.06700 32.19000
O  45.41200 12.64100 32.44800
C  43.39700 11.50100 33.21700
C  44.09500 10.53400 34.06100
O  44.34600 9.38100 33.80200
O  44.37800 11.03900 35.31200
C  45.22800 10.26800 36.19500
H  37.67600 7.77500 32.87000
H  37.79300 8.28000 26.52600
H  43.29500 11.19400 26.77300
H  41.66600 9.30200 34.93700
H  38.76800 9.29000 34.77500
H  40.74300 7.40500 35.20600
H  39.38600 6.80600 34.12700
H  39.20700 7.55400 35.82200
H  39.77800 11.68700 34.56200
H  41.48100 11.86600 35.16200
H  40.18300 10.01500 36.90900
H  39.11800 11.45600 36.72200
H  35.92700 6.80700 32.40700
H  36.03800 5.56300 31.19100
H  34.77000 6.74700 30.97900
H  33.93400 5.69700 27.70600
H  33.89900 6.89500 28.99500
H  34.67600 5.35000 29.29600
H  39.12400 10.25400 25.27500
H  41.97700 9.45100 25.08200
H  40.05900 7.28900 25.01700
H  40.26700 8.47200 23.64000
H  38.67900 8.12300 24.35100
H  41.10000 11.41600 23.80300
H  42.50900 11.75400 24.67100
H  41.22700 13.47400 25.82300
H  39.89300 12.31500 25.98600
H  40.12600 13.30300 24.49600
H  45.73300 11.25000 28.20000
H  46.23000 12.39400 29.39000
H  45.06900 12.90400 28.12800
H  42.98600 12.33800 33.78000
H  44.79500 9.27800 36.33700
H  45.19300 10.79100 37.15100
H  46.30400 10.14900 36.07100

