158

Mg 8.34400 2.35900 27.66800
C  9.84800 1.16900 30.59000
C  6.40000 4.38600 29.64400
C  6.84300 3.29200 24.83000
C  10.09900 -0.11700 25.82900
N  7.98600 2.52500 29.87100
C  8.82000 2.04100 30.85400
C  8.48200 2.68500 32.20300
C  7.25700 3.62900 31.86800
C  7.08200 3.44300 30.40600
C  5.89900 3.41300 32.57700
C  9.73000 3.47000 32.80000
C  9.62100 4.28300 34.11100
H  10.49700 3.71400 35.27600
N  6.83100 3.60300 27.23900
C  6.20500 4.43400 28.22600
C  5.24000 5.32900 27.47800
C  5.43000 5.08400 26.08600
C  6.35000 3.93200 26.03100
C  4.32700 6.37400 28.14200
C  4.76100 5.88900 24.84800
O  4.87700 5.48800 23.68400
C  3.80100 7.09200 25.03600
N  8.29100 1.53500 25.64800
C  7.73800 2.21100 24.64400
C  8.22600 1.74700 23.22100
C  9.26000 0.72100 23.62700
C  9.21000 0.66100 25.17200
C  7.03400 1.42500 22.25100
C  10.74900 0.98000 23.16700
C  11.37400 -0.09900 22.18400
N  9.71800 0.82900 28.07800
C  10.32200 -0.04800 27.23500
C  11.31300 -0.80000 27.99900
C  11.17000 -0.35800 29.27200
C  10.15900 0.63700 29.34100
C  12.23200 -1.86000 27.48600
C  11.69300 -0.45000 30.63600
O  12.57000 -1.18500 31.15200
C  10.85900 0.52700 31.46200
C  10.27400 -0.21700 32.61600
O  9.60400 -1.21400 32.59700
O  10.71000 0.32700 33.78700
C  10.27200 -0.28500 35.03000
H  5.99100 5.19700 30.24900
H  6.48100 3.55800 23.83500
H  10.91400 -0.66000 25.34700
H  8.12600 1.88400 32.85100
H  7.42000 4.68600 32.08100
H  5.27400 2.71300 32.02100
H  5.33100 4.32000 32.78200
H  6.09800 2.95000 33.54300
H  10.09300 4.12100 32.00400
H  10.60300 2.82100 32.87000
H  8.58800 4.19500 34.44600
H  9.89600 5.31600 33.89900
H  3.36300 6.12400 27.69800
H  4.48200 7.41100 27.84500
H  4.17900 6.29000 29.21900
H  2.80000 6.83700 25.38200
H  3.82900 7.68400 24.12100
H  4.30600 7.72600 25.76500
H  8.80000 2.63600 22.95700
H  9.02800 -0.31900 23.39900
H  6.04200 1.51600 22.69200
H  7.12700 0.40400 21.88000
H  7.22100 2.14700 21.45500
H  11.36700 1.15500 24.04800
H  10.72500 1.96200 22.69300
H  12.16800 -0.64400 22.69400
H  11.68500 0.38500 21.25800
H  10.56300 -0.82600 22.13800
H  13.04000 -1.90800 28.21600
H  12.59400 -1.66000 26.47700
H  11.65100 -2.78100 27.48400
H  11.55700 1.24500 31.89100
H  10.22500 0.56400 35.71200
H  11.03000 -0.97200 35.40600
H  9.36600 -0.88500 34.94200
Mg 17.56400 -2.00400 27.85200
C  16.22600 0.02800 30.50100
C  19.59700 -3.40500 30.11100
C  19.13600 -3.45300 25.37700
C  15.63200 0.01700 25.65100
N  17.86100 -1.65100 30.13100
C  17.21300 -0.88300 30.94300
C  17.60100 -1.18700 32.39600
C  18.96000 -1.94100 32.19300
C  18.78200 -2.39900 30.71100
C  20.19300 -0.98700 32.51500
C  16.51000 -1.71900 33.31600
C  16.23000 -0.83400 34.50700
H  17.31400 -0.34400 35.49500
N  18.96400 -3.47600 27.77800
C  19.65200 -3.97800 28.83000
C  20.59000 -5.01000 28.41600
C  20.35300 -5.09300 26.97100
C  19.47200 -3.97700 26.64300
C  21.55900 -5.71300 29.28400
C  20.94400 -6.09500 25.95000
O  20.63700 -6.00400 24.74300
C  21.92000 -7.22600 26.35600
N  17.46400 -1.67000 25.89500
C  18.25200 -2.38500 25.05900
C  18.04700 -1.92800 23.61700
C  16.89300 -0.98600 23.65700
C  16.56400 -0.86100 25.15500
C  19.23500 -1.31000 22.78500
C  15.61600 -1.28200 22.70700
C  15.21300 -0.09700 21.87800
N  16.11700 -0.37900 27.97500
C  15.38200 0.29700 27.03000
C  14.38400 1.14600 27.65900
C  14.69200 1.11100 29.03000
C  15.77400 0.19600 29.15800
C  13.26300 1.84400 26.97300
C  14.35100 1.62500 30.29100
O  13.59400 2.48300 30.67000
C  15.29900 0.88000 31.29300
C  15.89000 1.95700 32.09400
O  16.86100 2.61200 31.75900
O  15.17600 2.03600 33.23600
C  15.56700 3.13500 34.16400
H  20.40700 -3.63200 30.80700
H  19.50800 -3.82600 24.42000
H  14.99700 0.52900 24.92400
H  17.90900 -0.23900 32.83700
H  19.00800 -2.83200 32.81900
H  20.93100 -1.14700 31.72900
H  20.68000 -1.29800 33.43900
H  20.06500 0.09600 32.53200
H  16.83400 -2.72600 33.57800
H  15.52700 -1.83700 32.85900
H  15.49800 -1.32100 35.15100
H  15.63200 -0.00200 34.13400
H  21.30800 -6.77300 29.32400
H  21.66000 -5.36100 30.31100
H  22.51300 -5.40400 28.85800
H  22.87800 -6.80200 26.65700
H  22.15600 -7.88900 25.52300
H  21.43000 -7.78900 27.15100
H  17.81700 -2.79300 22.99500
H  17.22600 0.04800 23.56700
H  19.22900 -0.22100 22.76700
H  19.29200 -1.61900 21.74100
H  20.12500 -1.69000 23.28700
H  14.81800 -1.37900 23.44400
H  15.76400 -2.19500 22.12900
H  14.84800 -0.47000 20.92100
H  15.98500 0.64100 21.66200
H  14.34500 0.37900 22.33300
H  12.63100 2.23400 27.77100
H  12.60300 1.14100 26.46400
H  13.55600 2.66300 26.31600
H  14.58300 0.21600 31.77800
H  15.26000 4.09900 33.75900
H  16.64400 3.04200 34.30500
H  15.24000 2.98800 35.19300

