158

Mg 0.98500 7.13700 25.99600
C  1.86900 8.94700 28.90000
C  0.96500 4.30100 27.92100
C  0.62700 5.35200 23.13500
C  1.44500 10.06800 24.19000
N  1.27000 6.69300 28.18400
C  1.51400 7.55400 29.18400
C  1.68600 6.89600 30.53100
C  1.58600 5.37300 30.23900
C  1.29000 5.43500 28.69400
C  2.91300 4.54500 30.55100
C  0.71400 7.45500 31.57100
C  1.20800 7.85800 32.99100
H  2.18300 6.93300 33.70100
N  0.75400 5.04900 25.59200
C  0.77800 4.03300 26.52800
C  0.60400 2.81200 25.78900
C  0.32300 3.10800 24.42700
C  0.64200 4.55200 24.33200
C  0.66500 1.43000 26.50200
C  -0.19500 2.26000 23.34200
O  -0.60000 2.70800 22.25500
C  -0.23900 0.83500 23.56800
N  1.14500 7.56400 23.97300
C  0.83900 6.71100 22.94700
C  0.80700 7.40400 21.60600
C  0.91300 8.87500 22.05900
C  1.35600 8.85100 23.45800
C  1.92200 6.99200 20.69600
C  -0.42200 9.65600 21.85100
C  -0.28400 11.06600 21.44500
N  1.47100 9.10500 26.40700
C  1.56500 10.19600 25.56600
C  1.78900 11.43300 26.29200
C  2.00000 10.94500 27.62700
C  1.85400 9.53700 27.64000
C  1.84500 12.90100 25.89800
C  2.23500 11.36200 28.98000
O  2.42800 12.49700 29.42200
C  2.03700 10.10400 29.87100
C  3.14000 10.03700 30.90000
O  4.19800 9.44400 30.67900
O  2.84100 10.72900 32.03700
C  3.75400 10.76200 33.18000
H  0.89500 3.47800 28.63500
H  0.36100 4.81300 22.22300
H  1.49700 10.98900 23.60600
H  2.68300 7.10000 30.92200
H  0.74800 4.93800 30.78400
H  3.79300 5.02400 30.98000
H  3.30500 3.95400 29.72300
H  2.57900 3.83300 31.30600
H  -0.05800 6.70300 31.72900
H  0.09800 8.27600 31.20300
H  0.41200 7.84300 33.73500
H  1.66500 8.83600 32.84100
H  1.16000 0.66400 25.90500
H  -0.31500 1.03800 26.77200
H  1.18100 1.64500 27.43700
H  -0.81700 0.28600 22.82400
H  -0.78600 0.57100 24.47300
H  0.72200 0.38700 23.82100
H  -0.14200 7.15800 21.12900
H  1.77800 9.27400 21.52900
H  2.63600 7.77500 20.44300
H  1.38300 6.79600 19.76800
H  2.45500 6.09700 21.01500
H  -1.08900 9.52700 22.70300
H  -0.94700 9.09800 21.07600
H  0.74900 11.27800 21.16900
H  -0.53200 11.66500 22.32100
H  -1.01400 11.32400 20.67700
H  2.27100 12.96600 24.89700
H  2.38900 13.42200 26.68600
H  0.83600 13.31100 25.84600
H  1.07800 10.26200 30.36500
H  4.78100 11.03600 32.93800
H  3.80000 9.86000 33.79100
H  3.40000 11.50400 33.89500
Mg 8.60400 48.94500 28.59700
C  6.67700 47.87500 31.25600
C  11.37200 48.89900 30.52700
C  10.32700 50.16200 26.00900
C  5.58200 49.54500 26.76300
N  8.95400 48.59200 30.75600
C  8.00600 48.04600 31.65500
C  8.69000 47.89900 33.08800
C  10.20900 48.33700 32.80200
C  10.18200 48.73300 31.27200
C  10.67300 49.50200 33.79200
C  8.65100 46.45600 33.72800
C  9.78100 45.87900 34.67800
H  9.53600 45.02100 35.97500
N  10.57600 49.31800 28.26200
C  11.60600 49.11400 29.17500
C  12.86300 49.12200 28.48100
C  12.63700 49.44500 27.14100
C  11.15200 49.65400 27.06900
C  14.16700 48.68800 29.18200
C  13.55300 49.43400 25.96600
O  13.11500 49.61500 24.84400
C  15.03900 49.24600 26.16900
N  7.93100 49.61000 26.58000
C  8.90300 50.20600 25.77800
C  8.30800 50.94500 24.56400
C  6.76300 50.65000 24.78900
C  6.74400 49.96500 26.16300
C  8.53200 52.50900 24.43900
C  6.05800 49.70000 23.70500
C  6.80800 48.49400 23.22700
N  6.55800 48.68100 28.83900
C  5.43900 48.85700 27.98800
C  4.25500 48.33800 28.63900
C  4.69100 47.99100 29.93100
C  6.15200 48.15200 30.00600
C  2.91700 48.09900 27.95300
C  4.21800 47.35900 31.20600
O  3.11400 46.98300 31.57500
C  5.53400 47.31500 32.10900
C  5.68100 45.95200 32.60700
O  6.05600 44.98000 31.99000
O  5.15900 45.86600 33.86100
C  5.24000 44.53700 34.47400
H  12.21800 48.70800 31.19100
H  10.90400 50.50300 25.14700
H  4.61000 49.71700 26.29500
H  8.17400 48.62200 33.72100
H  10.93400 47.52900 32.89700
H  10.86500 50.43700 33.26700
H  11.58500 49.13400 34.26300
H  9.93300 49.56000 34.59000
H  8.43300 45.74300 32.93300
H  7.68600 46.51100 34.23400
H  10.41400 46.70300 35.00700
H  10.39900 45.22400 34.06500
H  14.73000 47.84100 28.79200
H  13.95800 48.32300 30.18800
H  14.86000 49.52700 29.25300
H  15.34000 49.92700 26.96500
H  15.48800 49.54400 25.22100
H  15.28300 48.18500 26.20900
H  8.65300 50.55800 23.60500
H  6.05100 51.45100 24.99000
H  7.58500 53.04700 24.39200
H  9.13800 52.71300 23.55600
H  8.99700 52.89800 25.34400
H  6.01800 50.25900 22.77000
H  5.10700 49.32400 24.08300
H  7.11700 48.52600 22.18200
H  6.18300 47.61000 23.35100
H  7.66300 48.33900 23.88500
H  3.08800 47.74700 26.93500
H  2.33100 49.01700 27.92800
H  2.41500 47.33900 28.55200
H  5.32800 47.93000 32.98400
H  4.85300 43.67000 33.93800
H  4.52200 44.60800 35.29100
H  6.24400 44.25500 34.79100

