158

Mg 2.60600 -2.73300 43.91100
C  6.10700 -2.32800 43.54200
C  2.08500 -0.00700 41.93400
C  -0.65500 -3.52000 43.90000
C  3.17800 -5.63500 45.76600
N  3.94900 -1.37500 42.81100
C  5.33500 -1.37000 42.85100
C  5.89300 -0.01200 42.18600
C  4.54700 0.84200 42.08400
C  3.44200 -0.25800 42.20100
C  4.36500 1.88300 43.23200
C  6.59800 -0.41800 40.85000
C  7.89400 0.31600 40.55500
H  8.01300 1.07300 39.22100
N  0.95100 -1.88200 43.00200
C  0.98700 -0.80300 42.21100
C  -0.36700 -0.61000 41.71400
C  -1.24900 -1.49500 42.38700
C  -0.33200 -2.40000 43.15200
C  -0.77600 0.40400 40.67600
C  -2.75100 -1.55300 42.18500
O  -3.23900 -0.76300 41.41200
C  -3.68900 -2.62300 42.73800
N  1.45000 -4.31200 44.78400
C  0.12400 -4.39700 44.64000
C  -0.42600 -5.66100 45.19900
C  0.81800 -6.44000 45.74700
C  1.86000 -5.37800 45.37600
C  -1.49700 -5.41900 46.27800
C  1.01700 -7.86800 45.05000
C  0.47100 -9.13000 45.74500
N  4.31500 -3.78400 44.68400
C  4.34300 -4.91500 45.42700
C  5.73400 -5.20000 45.67800
C  6.50300 -4.24400 44.97000
C  5.54700 -3.38900 44.38100
C  6.24500 -6.32700 46.55500
C  7.82000 -3.71400 44.61500
O  8.89500 -4.15500 45.01800
C  7.62400 -2.50600 43.64700
C  8.33100 -1.25300 44.05500
O  9.32500 -0.78200 43.51600
O  7.72900 -0.66800 45.08000
C  8.20500 0.70800 45.50000
H  1.98300 0.92100 41.36600
H  -1.71700 -3.76900 43.93700
H  3.42100 -6.59700 46.22000
H  6.54000 0.45100 42.93100
H  4.60800 1.37800 41.13700
H  4.95700 1.57500 44.09400
H  3.29400 1.99500 43.40100
H  4.67600 2.88400 42.93300
H  5.85000 -0.19500 40.08800
H  6.82600 -1.48300 40.84600
H  8.69500 -0.42300 40.53800
H  8.17300 0.98400 41.37000
H  -1.22400 -0.14200 39.84600
H  0.09500 0.93700 40.29500
H  -1.49100 1.14900 41.02600
H  -3.79600 -2.60100 43.82300
H  -3.33900 -3.55900 42.30300
H  -4.66600 -2.44200 42.28900
H  -1.00800 -6.21900 44.46500
H  0.89700 -6.52200 46.83100
H  -2.10200 -6.32600 46.29500
H  -2.09600 -4.50900 46.29500
H  -1.08500 -5.42800 47.28600
H  2.03800 -8.04800 44.71100
H  0.40100 -7.76800 44.15600
H  -0.42000 -9.42300 45.19000
H  0.14400 -8.93400 46.76600
H  1.15400 -9.96500 45.90300
H  7.33400 -6.34800 46.60700
H  5.78700 -7.25600 46.21400
H  5.95100 -6.16000 47.59100
H  8.14200 -2.75300 42.72000
H  9.24800 0.59800 45.79500
H  7.62000 1.01800 46.36600
H  8.13400 1.43700 44.69300
Mg 46.32100 17.32400 29.10400
C  44.41600 16.90200 31.89000
C  48.68700 18.91900 30.90000
C  47.90200 17.70700 26.16000
C  43.72100 15.65400 27.24500
N  46.49900 17.95500 31.13100
C  45.56600 17.69000 32.10800
C  46.00900 18.16900 33.47800
C  47.37300 18.96200 33.10800
C  47.54100 18.58900 31.63200
C  47.26200 20.47400 33.41900
C  46.37500 16.97100 34.47200
C  46.53900 17.10600 35.99000
H  46.21300 18.47400 36.63700
N  48.04900 18.30700 28.61300
C  48.93000 18.82600 29.46000
C  50.09400 19.24600 28.70600
C  49.98700 18.73200 27.35300
C  48.55800 18.25200 27.36200
C  51.20900 20.02400 29.32900
C  50.92800 18.74400 26.16800
O  50.63600 18.24700 25.05200
C  52.35200 19.24800 26.41400
N  45.87200 16.82500 27.09100
C  46.65600 17.17200 26.00900
C  46.00600 16.88000 24.67700
C  44.86700 15.92000 25.14500
C  44.83700 16.15100 26.60900
C  45.65000 18.16400 23.93200
C  45.12300 14.36200 24.92400
C  44.49300 13.83100 23.69400
N  44.35000 16.61400 29.41300
C  43.43200 15.93700 28.61600
C  42.26700 15.64600 29.41700
C  42.62800 15.99500 30.73100
C  43.90800 16.51400 30.67900
C  41.03300 15.03800 28.90400
C  42.19400 15.95700 32.13300
O  41.13300 15.54400 32.62100
C  43.37300 16.54600 32.95000
C  42.81600 17.64700 33.74500
O  42.57500 18.73600 33.28100
O  42.35000 17.23500 35.00900
C  41.84300 18.24600 35.96700
H  49.39100 19.48400 31.51400
H  48.37000 17.95100 25.20400
H  42.87700 15.14100 26.78100
H  45.23700 18.82400 33.88200
H  48.28400 18.61400 33.59500
H  46.26400 20.86200 33.62500
H  47.61100 21.06400 32.57100
H  47.79400 20.68300 34.34600
H  47.21300 16.41400 34.05300
H  45.67700 16.14300 34.35000
H  47.57400 16.90600 36.27100
H  45.89000 16.37800 36.47700
H  51.09800 20.26000 30.38800
H  51.48900 20.94700 28.82200
H  52.07600 19.36400 29.31000
H  52.45100 20.19400 26.94700
H  52.66800 19.40700 25.38300
H  52.85300 18.41700 26.91100
H  46.78900 16.33500 24.15000
H  43.97000 16.30200 24.65800
H  46.55700 18.68800 23.62900
H  44.98200 18.77800 24.53500
H  44.91100 17.90200 23.17500
H  44.71500 13.78400 25.75300
H  46.20300 14.21400 24.89700
H  44.17400 14.67600 23.08400
H  43.64500 13.15500 23.80300
H  45.27100 13.36000 23.09300
H  40.84400 15.43600 27.90700
H  40.24900 15.45100 29.54000
H  40.94300 13.95200 28.89400
H  43.57900 15.80000 33.71800
H  40.78800 18.09800 36.20000
H  41.89400 19.29200 35.66900
H  42.33000 18.03300 36.91900

