158

Mg 24.85700 1.68000 29.23900
C  27.07500 1.22500 31.88300
C  22.31400 1.97700 31.67500
C  22.48900 1.89400 26.74300
C  27.21000 1.15000 26.93200
N  24.73500 1.53400 31.56000
C  25.82200 1.40800 32.33400
C  25.50400 1.70500 33.81100
C  23.86900 1.89200 33.72100
C  23.59000 1.83400 32.18600
C  23.00700 0.87700 34.48200
C  26.30200 2.99000 34.39400
C  27.03200 2.77600 35.76700
H  26.52200 3.64200 36.97700
N  22.70800 1.83500 29.21500
C  21.82500 1.90600 30.37500
C  20.49900 1.96600 29.87600
C  20.57700 1.85500 28.48700
C  21.94500 1.82000 28.06100
C  19.25600 2.08000 30.79100
C  19.44800 1.84300 27.48600
O  19.67300 1.91800 26.27600
C  18.04500 1.82500 27.97200
N  24.84000 1.47000 27.04300
C  23.85100 1.72800 26.29100
C  24.21800 2.09700 24.79700
C  25.80200 1.81400 24.82300
C  25.99900 1.50800 26.37400
C  23.44800 1.23600 23.69300
C  26.67900 3.04000 24.30100
C  26.68000 4.26000 25.19500
N  26.69300 1.21200 29.39200
C  27.58100 0.92900 28.28000
C  28.90300 0.72200 28.84900
C  28.80800 0.88400 30.27700
C  27.43800 1.11600 30.52900
C  30.10500 0.35700 28.07100
C  29.49800 0.84300 31.53700
O  30.68700 0.95200 31.80300
C  28.36900 1.09400 32.59100
C  28.51300 0.08900 33.61500
O  27.97300 -1.01700 33.54700
O  29.40200 0.55100 34.60400
C  29.28600 -0.14400 35.88700
H  21.55100 2.03600 32.45300
H  21.77200 2.08000 25.94000
H  27.98500 1.07700 26.16600
H  25.75100 0.84900 34.43800
H  23.57600 2.87600 34.08900
H  22.60600 0.15400 33.77200
H  22.24300 1.47400 34.97900
H  23.65400 0.42100 35.23200
H  25.50400 3.70200 34.60500
H  26.99300 3.43400 33.67800
H  28.07600 3.06600 35.64500
H  27.07500 1.74100 36.10500
H  18.74900 3.04500 30.79600
H  19.50300 1.92500 31.84100
H  18.53800 1.27200 30.64800
H  17.81300 2.81300 28.37100
H  18.02000 0.98100 28.66200
H  17.31800 1.62300 27.18600
H  24.10800 3.18000 24.74400
H  26.00100 0.90100 24.26300
H  23.24900 0.20300 23.97900
H  23.98300 1.25500 22.74300
H  22.51900 1.77200 23.49900
H  26.19000 3.43400 23.41100
H  27.71100 2.79400 24.05000
H  27.57600 4.87500 25.29000
H  26.38800 4.01300 26.21600
H  25.95700 4.91800 24.71300
H  29.92100 -0.60300 27.58900
H  31.03300 0.47500 28.63000
H  30.12900 1.02900 27.21300
H  28.65600 2.08800 32.93600
H  28.27200 0.01000 36.25800
H  29.96100 0.15400 36.68900
H  29.39400 -1.20200 35.64500
Mg 10.12200 46.95200 25.20300
C  7.52800 47.31300 27.51600
C  12.30200 48.32100 27.28900
C  12.32300 46.85700 22.64300
C  7.52000 46.11800 22.71800
N  9.91200 47.68600 27.23000
C  8.81200 47.69100 28.04300
C  9.22000 48.04200 29.47300
C  10.67600 48.60900 29.26700
C  10.97100 48.29500 27.80000
C  10.86700 50.13500 29.53400
C  9.00100 46.95300 30.63600
C  9.61000 47.21400 32.01300
H  8.79200 46.55200 33.16400
N  12.02600 47.42300 25.01600
C  12.79700 47.90700 26.02000
C  14.24800 47.82300 25.55600
C  14.17200 47.26200 24.27600
C  12.77500 47.17300 23.94300
C  15.35900 48.18500 26.53500
C  15.38800 46.76100 23.40400
O  15.25600 46.30700 22.29800
C  16.78000 46.77600 24.01100
N  9.88400 46.45700 22.99700
C  11.04900 46.56900 22.22500
C  10.58400 46.30600 20.75400
C  9.14400 45.64400 20.86400
C  8.80700 46.05700 22.25900
C  10.80400 47.55400 19.85500
C  9.14500 44.06700 20.62400
C  9.01600 43.24300 21.93100
N  7.99500 46.71200 25.07400
C  7.15500 46.33700 24.07900
C  5.84600 46.21000 24.54900
C  5.95700 46.50800 25.91800
C  7.28000 46.94100 26.15500
C  4.60500 45.79800 23.68500
C  5.15000 46.55400 27.11700
O  3.99700 46.27800 27.34500
C  6.18100 47.07800 28.18700
C  6.24100 46.00500 29.19000
O  6.95400 45.00400 29.10500
O  5.34000 46.27400 30.19500
C  5.05600 45.22900 31.11700
H  13.08200 48.60600 27.99800
H  12.97600 46.92400 21.77100
H  6.78600 45.69000 22.03300
H  8.55000 48.88300 29.65100
H  11.35500 48.10200 29.95200
H  11.59500 50.23500 30.33900
H  9.93900 50.58700 29.88400
H  11.26100 50.52200 28.59500
H  9.26900 45.99800 30.18600
H  7.92300 47.01000 30.78700
H  9.81500 48.28000 32.10500
H  10.53300 46.63300 32.01600
H  15.04800 48.51100 27.52800
H  16.00500 48.97600 26.15300
H  15.97800 47.31000 26.73500
H  16.77000 46.13000 24.88900
H  17.06300 47.80800 24.21900
H  17.50600 46.35800 23.31400
H  11.29700 45.56500 20.39300
H  8.41800 46.02300 20.14400
H  9.83100 47.92500 19.53200
H  11.49900 47.39900 19.02900
H  11.29900 48.40000 20.33200
H  10.05200 43.81700 20.07400
H  8.25100 43.86900 20.03300
H  9.14800 43.80800 22.85400
H  9.66100 42.36400 21.93300
H  8.00600 42.83200 21.95200
H  5.04500 44.99300 23.09700
H  4.23000 46.65600 23.12700
H  3.80300 45.38000 24.29300
H  5.86500 47.99300 28.68800
H  4.52500 44.33600 30.78500
H  4.41000 45.76600 31.81100
H  5.88800 44.90200 31.74000

