158

Mg 39.75600 9.98400 29.32500
C  41.86000 10.75600 32.09000
C  37.76000 8.20000 31.53700
C  37.84500 9.15000 26.85500
C  42.04300 11.41000 27.26100
N  39.83600 9.68500 31.55100
C  40.66000 10.22000 32.46200
C  40.10900 10.00500 33.86800
C  38.99600 8.99300 33.74000
C  38.82000 8.91500 32.19100
C  39.21500 7.58800 34.44200
C  39.65300 11.39000 34.55700
C  39.44300 11.40500 36.11400
H  40.55900 12.04300 36.92500
N  37.92700 8.91700 29.23300
C  37.26100 8.26100 30.20500
C  36.06200 7.65500 29.69700
C  36.03700 7.91600 28.29400
C  37.34300 8.65500 28.07300
C  35.06000 6.83100 30.51400
C  35.01800 7.51500 27.18600
O  35.29500 7.82600 26.01700
C  33.59200 7.06700 27.63700
N  39.91900 10.23300 27.34500
C  38.96600 9.85700 26.52000
C  39.23700 10.33300 25.06400
C  40.50200 11.22100 25.24500
C  40.88600 10.88800 26.71200
C  39.35800 9.17600 24.03800
C  40.28200 12.70800 24.99300
C  39.35600 13.40300 26.00700
N  41.62000 10.92000 29.52200
C  42.43800 11.37200 28.58100
C  43.73500 11.80200 29.21100
C  43.45400 11.65700 30.63800
C  42.24500 11.04700 30.73100
C  44.95200 12.30700 28.53400
C  43.95100 11.87000 31.99400
O  44.91200 12.48800 32.48300
C  43.01300 11.22300 32.95900
C  43.53200 10.16400 33.85000
O  43.61300 8.99900 33.53100
O  43.96600 10.61700 35.05200
C  44.61000 9.73400 36.03000
H  37.12700 7.62000 32.21200
H  37.29600 8.79600 25.98000
H  42.80600 11.86800 26.62700
H  40.85900 9.57600 34.53300
H  38.15500 9.57000 34.12400
H  40.16800 7.47600 34.95900
H  39.12200 6.75700 33.74300
H  38.49200 7.57600 35.25700
H  38.70200 11.78500 34.20100
H  40.40200 12.14300 34.30900
H  39.38900 10.35700 36.40700
H  38.52000 11.89600 36.42100
H  34.83200 5.91400 29.97000
H  34.12500 7.39000 30.49400
H  35.47500 6.59000 31.49300
H  33.24900 7.92100 28.22100
H  33.59800 6.27200 28.38200
H  32.95200 6.87900 26.77500
H  38.38800 10.96200 24.79700
H  41.37300 11.04900 24.61200
H  38.61300 9.29700 23.25100
H  39.28700 8.21100 24.54000
H  40.36300 9.11200 23.62100
H  39.73900 12.86000 24.06100
H  41.28500 13.13400 24.98400
H  38.87300 12.64600 26.62500
H  38.63400 14.03500 25.49000
H  39.99700 14.01100 26.64500
H  44.63300 12.77100 27.60100
H  45.67400 11.49900 28.41400
H  45.41800 13.07100 29.15600
H  42.61000 11.89600 33.71600
H  43.80400 9.88900 36.74700
H  45.58400 10.04100 36.41000
H  44.61200 8.71700 35.63700
Mg 48.15000 25.52800 29.76600
C  49.77300 27.50800 32.08800
C  47.08500 23.52500 32.48300
C  47.05200 23.24000 27.67500
C  49.71800 27.25500 27.10100
N  48.55800 25.43400 32.10700
C  49.15200 26.45300 32.80700
C  48.88400 26.34400 34.29300
C  48.21100 24.91100 34.37200
C  47.92600 24.55900 32.91700
C  49.03800 23.80900 35.15800
C  48.01400 27.51500 34.98500
C  48.67500 28.25400 36.19700
H  47.66400 28.65300 37.34800
N  47.16200 23.77000 30.04300
C  46.78700 23.07700 31.16800
C  46.06100 21.93600 30.86700
C  46.08600 21.77200 29.47300
C  46.77200 23.00100 28.98200
C  45.46000 20.97800 31.96200
C  45.49500 20.69500 28.61700
O  45.60500 20.60500 27.40100
C  44.76800 19.56100 29.21300
N  48.54900 25.16600 27.68300
C  47.83700 24.20100 27.01600
C  47.87200 24.32400 25.46800
C  48.68200 25.72000 25.37300
C  48.97400 26.11900 26.81000
C  48.69200 23.24400 24.68800
C  47.92800 26.76000 24.47600
C  48.64500 27.05000 23.16300
N  49.45500 27.08600 29.55700
C  49.98700 27.68600 28.41600
C  50.68600 28.94700 28.86800
C  50.67600 28.82300 30.22200
C  49.98600 27.67500 30.66500
C  51.40000 29.94800 28.01200
C  51.09000 29.53800 31.40300
O  51.67000 30.60600 31.51600
C  50.53200 28.67600 32.62600
C  51.73500 28.17400 33.48500
O  52.34200 27.17500 33.31400
O  51.87400 29.09500 34.53300
C  52.77100 28.82700 35.65100
H  46.56500 23.04800 33.31700
H  46.37800 22.72900 26.98400
H  50.02000 27.94600 26.31200
H  49.84200 26.32900 34.81100
H  47.22100 24.98900 34.82000
H  49.72700 24.26700 35.86800
H  49.76600 23.28300 34.54000
H  48.25600 23.25600 35.67800
H  47.04300 27.10000 35.25600
H  47.92800 28.23600 34.17300
H  49.25400 29.07600 35.77600
H  49.42800 27.56100 36.57100
H  45.78300 21.16000 32.98600
H  45.73800 19.93900 31.78600
H  44.38300 21.09800 32.08500
H  45.29500 19.02400 30.00100
H  44.49100 18.88400 28.40400
H  43.89500 20.02800 29.66700
H  46.82900 24.40000 25.15800
H  49.66500 25.55500 24.93300
H  48.06300 22.40600 24.38900
H  49.27700 22.82800 25.50800
H  49.32000 23.64800 23.89400
H  47.61600 27.59000 25.11000
H  46.92100 26.37900 24.30600
H  47.93200 26.96800 22.34300
H  49.54300 26.46700 22.96000
H  49.05200 28.05500 23.04700
H  51.63600 29.48200 27.05500
H  52.35700 30.05400 28.52500
H  50.78000 30.81200 27.77500
H  49.92800 29.40600 33.16500
H  53.52300 28.09800 35.35100
H  52.19700 28.35200 36.44700
H  53.25800 29.74700 35.97400

