158

Mg -2.79100 17.75300 26.86900
C  -3.35700 15.47500 29.49100
C  -3.18800 20.27800 29.14300
C  -2.36000 19.78900 24.37600
C  -2.82000 14.91400 24.68100
N  -3.11600 17.80600 29.00200
C  -3.20500 16.81500 29.89100
C  -3.22700 17.27700 31.36600
C  -3.44300 18.77000 31.18800
C  -3.22200 18.97400 29.65800
C  -4.83400 19.24800 31.72400
C  -1.92100 16.90900 32.04100
C  -1.50300 17.77600 33.31200
H  -1.08700 16.98400 34.63500
N  -2.76500 19.79700 26.80100
C  -2.85800 20.64400 27.80700
C  -2.81000 21.99000 27.29200
C  -2.38500 21.85000 25.93000
C  -2.48500 20.45900 25.66100
C  -3.09500 23.23200 28.16000
C  -1.86000 22.89700 24.99700
O  -1.54100 22.68100 23.80400
C  -1.62500 24.30300 25.44700
N  -2.78400 17.43300 24.76100
C  -2.41100 18.42500 23.98400
C  -2.32000 17.94200 22.50300
C  -2.24400 16.36300 22.59700
C  -2.64100 16.18000 24.06400
C  -3.42000 18.46100 21.62000
C  -0.77000 15.88100 22.32500
C  0.17100 15.80700 23.55700
N  -3.14700 15.62300 26.95500
C  -3.15200 14.64100 26.03800
C  -3.44200 13.33800 26.65300
C  -3.47100 13.58500 27.99400
C  -3.25800 14.94600 28.15500
C  -3.59600 11.98500 26.04400
C  -3.58100 12.99500 29.24000
O  -3.76800 11.87300 29.59300
C  -3.56900 14.18400 30.28600
C  -2.47700 13.84400 31.20600
O  -1.27500 13.79100 30.98000
O  -3.08700 13.40000 32.41900
C  -2.13600 12.90500 33.42200
H  -3.14500 21.13900 29.81300
H  -2.19400 20.38400 23.47600
H  -2.74200 14.07500 23.98700
H  -4.04900 16.77600 31.87800
H  -2.78400 19.44400 31.73600
H  -5.17100 18.67700 32.58900
H  -5.60800 19.14900 30.96300
H  -4.70600 20.31800 31.88900
H  -1.08100 16.95100 31.34700
H  -1.87000 15.89800 32.44500
H  -2.37500 18.40600 33.48900
H  -0.76300 18.53100 33.04700
H  -3.98000 23.02000 28.76000
H  -3.37000 24.11100 27.57800
H  -2.27900 23.48100 28.83700
H  -2.49200 24.95100 25.57100
H  -0.94200 24.75600 24.72900
H  -1.07100 24.16200 26.37500
H  -1.42700 18.46500 22.16000
H  -2.87500 15.80400 21.90600
H  -4.42800 18.13900 21.88200
H  -3.42500 17.97700 20.64300
H  -3.30900 19.54600 21.60600
H  -0.30900 16.48600 21.54500
H  -1.01700 14.88700 21.95200
H  -0.32000 15.97500 24.51600
H  1.00400 16.49300 23.40400
H  0.64600 14.83100 23.64800
H  -2.74400 11.40300 26.39500
H  -3.61700 11.99000 24.95500
H  -4.53800 11.61300 26.44700
H  -4.48900 14.31500 30.85600
H  -1.31300 12.38300 32.93200
H  -2.63900 12.23100 34.11500
H  -1.85400 13.80000 33.97500
Mg 25.21400 -5.37800 45.99800
C  27.48700 -3.40900 44.21700
C  22.75000 -4.38700 43.86900
C  23.33800 -8.01100 46.87000
C  27.88300 -6.50700 47.90300
N  25.16700 -4.11500 44.22400
C  26.19000 -3.37600 43.70700
C  25.62800 -2.31300 42.72000
C  24.10300 -2.42300 42.92200
C  24.00400 -3.71100 43.72200
C  23.40600 -1.32100 43.69000
C  26.05800 -2.62400 41.22400
C  26.43000 -1.37500 40.34300
H  25.74000 -1.18900 38.95000
N  23.30300 -6.11300 45.42500
C  22.40000 -5.48900 44.64800
C  21.07600 -6.01700 44.72200
C  21.11700 -7.08000 45.65400
C  22.58500 -7.14900 46.01200
C  19.88100 -5.56300 43.90300
C  20.03300 -8.15300 46.00700
O  18.84600 -8.05700 45.57500
C  20.41200 -9.35000 46.86400
N  25.50400 -7.01800 47.13200
C  24.59400 -7.96800 47.33500
C  25.14400 -9.14200 48.17800
C  26.59600 -8.58200 48.56700
C  26.68600 -7.26200 47.85200
C  24.28000 -9.49900 49.40300
C  27.83300 -9.57800 48.24300
C  28.14000 -10.58100 49.39800
N  27.36400 -5.04400 46.17600
C  28.26800 -5.46800 47.09600
C  29.50700 -4.75300 46.92500
C  29.22900 -3.93700 45.75700
C  27.96400 -4.19200 45.31000
C  30.76100 -4.93000 47.68700
C  29.84600 -2.97200 44.84000
O  30.97700 -2.49500 44.82100
C  28.63700 -2.51600 43.85100
C  28.26700 -1.08000 44.09100
O  27.88000 -0.58300 45.17400
O  28.34300 -0.28800 42.97000
C  28.14300 1.17200 43.11400
H  21.83500 -3.91500 43.50800
H  22.90300 -8.90900 47.31300
H  28.75500 -6.85500 48.46100
H  26.03600 -1.33000 42.95300
H  23.57600 -2.39300 41.96800
H  24.16000 -0.60100 44.00800
H  22.90900 -1.63000 44.61000
H  22.68900 -0.81200 43.04600
H  25.25300 -3.25800 40.85200
H  26.93200 -3.26700 41.32400
H  27.45900 -1.63200 40.09100
H  26.52200 -0.46400 40.93500
H  20.10800 -5.13500 42.92600
H  19.37600 -4.79000 44.48200
H  19.19300 -6.38000 43.68400
H  19.56800 -10.02700 46.99600
H  20.73600 -8.85100 47.77800
H  21.24500 -9.91400 46.44500
H  25.21700 -10.01000 47.52300
H  26.54300 -8.46300 49.64900
H  23.93000 -10.52200 49.27100
H  23.43900 -8.81800 49.53700
H  24.79000 -9.53800 50.36600
H  28.68700 -8.93900 48.01700
H  27.57300 -10.18800 47.37900
H  29.10900 -10.35500 49.84200
H  28.34200 -11.59600 49.05500
H  27.42700 -10.65500 50.21900
H  30.80800 -5.93900 48.09800
H  30.76700 -4.22300 48.51700
H  31.60000 -4.75200 47.01500
H  28.98500 -2.56700 42.81900
H  28.84300 1.58000 43.84200
H  27.11600 1.40700 43.39300
H  28.43600 1.62500 42.16600

