158

Mg 40.39600 9.24500 29.76400
C  41.96700 10.85400 32.21000
C  38.17700 7.89900 31.93500
C  38.78200 7.99600 27.10800
C  42.94000 10.22400 27.49100
N  40.22700 9.29900 31.90400
C  40.87700 10.15700 32.70800
C  40.39700 9.98600 34.13300
C  39.26700 8.91600 34.05400
C  39.19000 8.65300 32.54300
C  39.43400 7.58200 34.74600
C  40.04200 11.39500 34.71200
C  39.23200 11.50800 35.96400
H  39.67800 12.41900 37.06100
N  38.66500 8.15300 29.51800
C  37.86700 7.66300 30.61100
C  36.72000 6.96700 30.02000
C  36.84900 7.06200 28.58900
C  38.14400 7.71400 28.38300
C  35.50200 6.46500 30.88300
C  35.82600 6.71600 27.46900
O  36.07700 6.63000 26.27800
C  34.41100 6.41700 27.91600
N  40.91200 9.00500 27.66200
C  40.00700 8.47900 26.78900
C  40.49100 8.52100 25.29000
C  41.97200 9.12300 25.42500
C  41.90800 9.49800 26.92800
C  40.37900 7.27300 24.41100
C  42.28200 10.29000 24.40600
C  41.85200 11.74900 24.62800
N  42.13000 10.25900 29.74000
C  43.05800 10.67300 28.81200
C  44.07500 11.44000 29.42200
C  43.74500 11.50200 30.74400
C  42.51800 10.85200 30.86000
C  45.39200 11.92700 28.73800
C  44.12500 12.05900 32.02800
O  45.10700 12.68300 32.39000
C  42.92600 11.69400 33.09600
C  43.58400 10.95300 34.19300
O  43.99000 9.82100 34.17200
O  43.65500 11.79800 35.24900
C  44.03400 11.14500 36.54400
H  37.58800 7.49800 32.76200
H  38.21200 7.70300 26.22400
H  43.65200 10.64900 26.78100
H  41.24400 9.61100 34.70700
H  38.31600 9.40700 34.26100
H  38.45700 7.39700 35.19100
H  40.24600 7.63300 35.47100
H  39.76800 6.74800 34.12800
H  39.50100 11.90900 33.91700
H  40.95200 11.99300 34.75700
H  39.16000 10.55300 36.48500
H  38.25000 11.89100 35.68800
H  35.69600 6.51100 31.95500
H  35.31000 5.47600 30.46800
H  34.67500 7.13400 30.64700
H  33.96600 7.15900 28.58000
H  34.24300 5.47400 28.43700
H  33.82500 6.44300 26.99700
H  39.84100 9.22500 24.77000
H  42.67000 8.28900 25.49000
H  41.34500 6.77400 24.48600
H  40.18100 7.58500 23.38500
H  39.55600 6.60400 24.66000
H  41.72800 10.08000 23.49100
H  43.35300 10.40000 24.23300
H  41.24700 12.07700 23.78300
H  42.73200 12.39100 24.65200
H  41.22600 11.76900 25.52100
H  46.24000 11.92300 29.42300
H  45.37800 12.94900 28.35900
H  45.64300 11.31700 27.87000
H  42.59200 12.70400 33.33300
H  43.24000 11.34900 37.26300
H  44.98600 11.54100 36.89700
H  44.16400 10.06400 36.58400
Mg 46.65000 16.66200 28.23900
C  44.76000 16.62800 31.06700
C  48.99100 18.78100 29.86900
C  48.10100 17.37800 25.26400
C  44.03400 15.17200 26.54700
N  46.77900 17.73400 30.19000
C  45.97400 17.30800 31.25200
C  46.55800 17.74600 32.61900
C  47.65100 18.79400 32.12400
C  47.88500 18.42000 30.69500
C  47.34800 20.30300 32.31700
C  47.06700 16.50500 33.38100
C  47.13200 16.56500 34.91200
H  47.16600 17.91000 35.62200
N  48.38200 17.72000 27.69000
C  49.18600 18.48000 28.51200
C  50.33300 18.88300 27.74200
C  49.95700 18.72100 26.39500
C  48.80600 17.87100 26.40400
C  51.62000 19.46800 28.35100
C  50.63200 19.19100 25.12300
O  50.24700 18.95100 23.98200
C  51.78900 20.15700 25.26800
N  46.28500 16.04500 26.17700
C  46.99600 16.51400 25.16400
C  46.29400 16.28000 23.81400
C  45.14100 15.28100 24.29600
C  45.14300 15.52300 25.80200
C  45.89800 17.46900 22.95800
C  45.40400 13.86600 23.83400
C  44.80900 13.40000 22.51400
N  44.78600 15.92300 28.67100
C  43.86000 15.27000 27.94500
C  42.65400 14.93400 28.75100
C  42.93800 15.47900 30.01800
C  44.25000 16.06800 29.90400
C  41.57100 14.08400 28.27400
C  42.49200 15.62100 31.33200
O  41.44100 15.21400 31.79200
C  43.68200 16.29600 32.14200
C  43.11300 17.55400 32.73500
O  42.95000 18.62000 32.19800
O  42.64000 17.16500 33.96900
C  41.55900 17.94900 34.52400
H  49.84200 19.32200 30.28900
H  48.33600 17.60000 24.22100
H  43.20400 14.81100 25.93600
H  45.70500 18.11200 33.19000
H  48.56100 18.77400 32.72300
H  46.34100 20.40900 32.72100
H  47.42100 20.93300 31.43000
H  47.99500 20.67200 33.11300
H  48.05400 16.37200 32.93700
H  46.52200 15.63000 33.02700
H  48.00700 15.96600 35.16500
H  46.35100 16.01200 35.43500
H  52.42000 18.74000 28.21700
H  51.52600 19.73100 29.40400
H  51.75100 20.43500 27.86500
H  51.44100 21.14400 25.57100
H  52.26900 20.22600 24.29200
H  52.52900 19.80900 25.99000
H  46.94600 15.62100 23.24000
H  44.17500 15.56700 23.87900
H  46.50200 18.36300 23.11000
H  44.88700 17.72200 23.28000
H  45.99600 17.23100 21.89900
H  44.93000 13.26800 24.61200
H  46.45700 13.58600 23.86500
H  45.69400 13.29600 21.88600
H  44.06000 14.02400 22.02700
H  44.42600 12.40400 22.73500
H  40.65600 14.66300 28.15100
H  41.37300 13.27000 28.97200
H  41.89000 13.74800 27.28700
H  43.94000 15.51800 32.86100
H  40.85000 18.21900 33.74200
H  41.98800 18.87600 34.90600
H  41.09100 17.48800 35.39400

