158

Mg 16.81600 -1.34600 27.88000
C  15.90000 0.81000 30.28300
C  18.80900 -3.02800 30.05600
C  18.26400 -3.11300 25.25500
C  15.21700 0.72900 25.39000
N  17.46100 -0.96400 29.87100
C  16.82700 -0.12600 30.76600
C  17.27700 -0.43300 32.19100
C  18.58400 -1.37600 32.00300
C  18.27400 -1.83600 30.49800
C  19.99300 -0.75900 32.10800
C  16.09000 -1.08500 32.97700
C  15.86100 -0.55100 34.38600
H  17.00900 0.13100 35.12100
N  18.06200 -3.09800 27.73300
C  18.79600 -3.64800 28.80100
C  19.50300 -4.77100 28.26000
C  19.40400 -4.76300 26.88400
C  18.54300 -3.62800 26.52800
C  20.31500 -5.67700 29.16800
C  20.12800 -5.74000 25.88000
O  19.95900 -5.66300 24.68400
C  21.05000 -6.79600 26.43700
N  16.78500 -1.18000 25.69900
C  17.52100 -1.99900 24.86800
C  17.40500 -1.59200 23.35300
C  16.24800 -0.51900 23.44600
C  16.03800 -0.29900 24.94600
C  18.68700 -1.02300 22.70500
C  14.86800 -0.92600 22.81500
C  14.85400 -0.78000 21.30100
N  15.74200 0.31400 27.83000
C  15.14900 1.12400 26.78900
C  14.33400 2.19300 27.34800
C  14.58800 2.06100 28.70600
C  15.48500 0.95900 28.94600
C  13.36300 3.08200 26.66300
C  14.27900 2.66900 29.97900
O  13.41000 3.52200 30.28200
C  15.11200 1.87000 30.97200
C  16.01200 2.88600 31.54800
O  17.19800 2.99300 31.24300
O  15.38800 3.53100 32.59200
C  16.20500 4.42800 33.42300
H  19.38500 -3.43700 30.88900
H  18.85500 -3.53000 24.43800
H  14.68900 1.34500 24.65900
H  17.65200 0.48400 32.64700
H  18.53900 -2.19900 32.71600
H  20.55900 -1.26100 32.89400
H  19.97400 0.23400 32.55800
H  20.54200 -0.60700 31.17900
H  16.22800 -2.16100 32.86900
H  15.16800 -0.76000 32.49600
H  15.49500 -1.38000 34.99300
H  15.01700 0.13700 34.34400
H  21.38500 -5.48600 29.07900
H  20.16000 -6.73800 28.97300
H  20.14800 -5.43100 30.21700
H  21.45100 -7.45900 25.67100
H  20.38000 -7.45800 26.98600
H  21.83100 -6.29000 27.00500
H  17.13000 -2.44500 22.73400
H  16.55700 0.44100 23.03100
H  19.45500 -0.92600 23.47200
H  18.49200 0.00200 22.39000
H  19.09200 -1.55900 21.84600
H  14.11900 -0.32800 23.33500
H  14.67500 -1.96800 23.07000
H  14.31000 0.14800 21.12400
H  14.49700 -1.70700 20.85200
H  15.79500 -0.58600 20.78700
H  12.68400 2.33000 26.26300
H  13.74100 3.58900 25.77500
H  12.96500 3.81600 27.36400
H  14.54600 1.63900 31.87400
H  15.58400 5.23200 33.82000
H  17.15500 4.60700 32.91900
H  16.37100 3.87800 34.34900
Mg 42.19900 41.12600 25.97000
C  41.35600 43.41400 28.39900
C  42.95900 38.89600 28.44600
C  42.82700 38.87800 23.52800
C  41.57000 43.55100 23.44700
N  42.21800 41.17100 28.05900
C  41.82500 42.20700 28.86400
C  41.78300 41.93200 30.37600
C  42.37900 40.45500 30.32000
C  42.54200 40.15800 28.83600
C  43.72700 40.39200 31.16600
C  40.35600 42.08600 31.11000
C  40.13000 41.05000 32.28400
H  39.19200 41.54000 33.42200
N  42.96500 39.11300 25.98900
C  43.20000 38.37100 27.13200
C  43.58800 37.01200 26.66100
C  43.42700 36.99300 25.27500
C  43.05100 38.34800 24.84100
C  43.83400 35.85100 27.65200
C  43.74000 35.94100 24.26000
O  43.46700 36.03800 23.06200
C  44.37000 34.67500 24.74000
N  42.54100 41.33100 23.71300
C  42.55100 40.14600 23.00900
C  42.45200 40.43000 21.46500
C  41.77800 41.86000 21.55000
C  41.98400 42.30800 22.93900
C  43.81500 40.24000 20.76100
C  40.35700 42.11500 20.97500
C  40.34400 43.21600 19.83800
N  41.51500 43.14800 25.87400
C  41.41600 44.01400 24.83100
C  40.90700 45.26300 25.38000
C  40.94100 45.10100 26.80500
C  41.27600 43.75300 27.00200
C  40.54700 46.48500 24.61800
C  40.69600 45.81800 27.99600
O  40.30100 47.01600 28.19100
C  40.89400 44.67300 29.11200
C  41.95700 45.22500 30.01600
O  43.14800 45.47500 29.82200
O  41.34400 45.45900 31.20900
C  42.10900 45.99300 32.37000
H  43.05900 38.10600 29.19400
H  42.95900 38.16600 22.71000
H  41.32600 44.21900 22.61800
H  42.35300 42.70100 30.89600
H  41.67800 39.67700 30.62300
H  43.66000 39.68100 31.98900
H  43.94700 41.32800 31.67900
H  44.59400 40.12400 30.56300
H  39.56900 41.94400 30.36900
H  40.30100 43.09600 31.51500
H  41.08200 40.70600 32.68800
H  39.57500 40.23000 31.82800
H  43.56200 36.25600 28.62700
H  44.89500 35.60200 27.68300
H  43.11100 35.05500 27.47800
H  44.68400 34.10900 23.86200
H  43.59900 34.16100 25.31300
H  45.25600 34.90000 25.33300
H  41.65700 39.81700 21.04100
H  42.46000 42.45300 20.94100
H  44.66400 39.94900 21.37900
H  44.10400 41.11300 20.17600
H  43.60700 39.36700 20.14300
H  39.72300 42.42100 21.80700
H  39.94300 41.21400 20.52200
H  39.55200 43.93400 20.05300
H  40.06600 42.87800 18.84000
H  41.28700 43.75200 19.73000
H  39.72400 46.98500 25.12900
H  40.35000 46.15100 23.59900
H  41.41600 47.13800 24.53400
H  39.99000 44.37900 29.64500
H  43.17000 46.19200 32.22500
H  42.03200 45.25200 33.16600
H  41.80200 46.95700 32.77400

