158

Mg 16.95700 -1.71400 27.07400
C  16.16200 0.36800 29.97200
C  18.84800 -3.70800 29.12600
C  18.06300 -3.16100 24.28000
C  15.26100 0.75400 25.02400
N  17.35900 -1.66000 29.29500
C  16.89900 -0.77300 30.26300
C  17.41600 -1.16700 31.69300
C  18.33100 -2.36100 31.39100
C  18.23500 -2.62100 29.81400
C  19.80900 -2.07200 31.90400
C  16.32900 -1.46600 32.75600
C  16.45100 -0.74700 34.12400
H  17.64600 -1.34600 34.96700
N  18.08800 -3.35200 26.80000
C  18.80300 -4.04100 27.70900
C  19.49100 -5.12500 27.08100
C  19.22600 -4.97500 25.66000
C  18.38500 -3.82000 25.51500
C  20.26100 -6.20200 27.83200
C  19.74400 -5.94800 24.58200
O  19.40000 -5.79000 23.42600
C  20.75200 -7.00000 24.92900
N  16.84400 -1.13800 25.02500
C  17.44100 -1.95800 24.03800
C  17.18400 -1.44300 22.61900
C  16.00200 -0.41800 22.89100
C  16.06300 -0.23900 24.41000
C  18.47300 -0.98300 21.85600
C  14.62900 -0.75500 22.29600
C  13.75000 -1.82100 22.98500
N  15.94800 0.17300 27.42300
C  15.25400 1.02000 26.42700
C  14.55100 2.03900 27.21000
C  14.88000 1.78800 28.53900
C  15.73600 0.73200 28.64600
C  13.74700 3.12900 26.59900
C  14.70000 2.30900 29.83600
O  14.03400 3.27100 30.16300
C  15.44600 1.45500 30.88400
C  16.32100 2.31600 31.66300
O  17.30700 2.90800 31.25500
O  15.82100 2.54300 32.92700
C  16.56700 3.56900 33.63500
H  19.45600 -4.34700 29.77000
H  18.63600 -3.51600 23.42100
H  14.64200 1.29100 24.30200
H  17.97800 -0.31200 32.06900
H  18.03400 -3.27000 31.91300
H  20.09700 -1.02300 31.97200
H  20.49100 -2.25500 31.07400
H  20.06600 -2.59300 32.82600
H  16.20600 -2.53500 32.92600
H  15.41400 -1.05000 32.33500
H  15.51000 -0.71500 34.67300
H  16.63600 0.29600 33.86700
H  20.24600 -6.01200 28.90500
H  21.27500 -6.18900 27.43300
H  19.87400 -7.21900 27.77100
H  20.42200 -7.79300 25.60100
H  21.69300 -6.62000 25.32500
H  20.95800 -7.51800 23.99200
H  16.79800 -2.32600 22.10900
H  16.25200 0.55700 22.47200
H  18.40100 0.04300 21.49300
H  18.86100 -1.61500 21.05800
H  19.22400 -0.91100 22.64300
H  14.84800 -0.98400 21.25300
H  14.13100 0.21300 22.23900
H  13.00900 -1.15500 23.42700
H  14.20000 -2.33900 23.83300
H  13.34100 -2.56100 22.29700
H  14.19600 3.45100 25.65900
H  13.62700 4.00700 27.23400
H  12.76400 2.67800 26.46800
H  14.71500 0.91800 31.48900
H  16.35800 4.58800 33.30700
H  17.59200 3.20700 33.70500
H  16.00700 3.50500 34.56800
Mg 43.35900 4.14600 47.60700
C  41.43200 7.07000 47.55300
C  40.41700 2.39300 47.22300
C  45.10200 1.49700 47.11000
C  46.24200 6.23800 47.00400
N  41.14500 4.62600 47.37100
C  40.62200 5.90300 47.45700
C  39.06000 5.81500 47.34100
C  38.75100 4.27700 47.51000
C  40.18400 3.72200 47.32800
C  38.24800 3.73800 48.83800
C  38.51700 6.50000 46.05800
C  39.47800 6.48600 44.88900
H  38.92400 6.85600 43.52400
N  42.83000 2.15700 47.44600
C  41.60200 1.62200 47.35200
C  41.62500 0.17400 47.28700
C  43.04600 -0.16300 47.24300
C  43.74100 1.16400 47.31500
C  40.45500 -0.77800 47.31200
C  43.70600 -1.57500 46.98200
O  43.02300 -2.60400 46.80800
C  45.17800 -1.74600 46.88800
N  45.32200 3.92300 47.17700
C  45.84300 2.70700 47.02500
C  47.40400 2.64100 47.11200
C  47.68200 4.14700 47.06400
C  46.35600 4.86700 47.03600
C  48.04000 1.99500 48.36800
C  48.66900 4.72400 45.96000
C  49.86800 5.36900 46.65600
N  43.80600 6.22900 47.38000
C  45.00200 6.92300 47.20800
C  44.72300 8.39900 47.15800
C  43.35700 8.43700 47.43400
C  42.87100 7.15300 47.49000
C  45.72300 9.46900 46.91300
C  42.25800 9.41700 47.62100
O  42.18300 10.62800 47.65700
C  40.98500 8.46800 47.62200
C  40.09400 8.71400 48.86000
O  40.15000 8.10200 49.88000
O  39.14300 9.66200 48.50300
C  38.16400 10.04200 49.54200
H  39.48800 1.82400 47.29300
H  45.91400 0.77000 47.18100
H  47.14100 6.85800 47.01900
H  38.59700 6.37500 48.15300
H  38.22100 3.82300 46.67300
H  39.07400 3.40800 49.46800
H  37.53400 2.94000 48.63500
H  37.80700 4.54800 49.41800
H  38.30100 7.51300 46.39900
H  37.63300 5.98400 45.68200
H  40.01700 5.53900 44.85900
H  40.26800 7.22100 45.04700
H  40.21000 -1.09000 46.29700
H  39.63700 -0.24900 47.80200
H  40.63700 -1.66900 47.91400
H  45.72700 -1.49100 47.79400
H  45.46000 -1.15800 46.01400
H  45.28800 -2.80700 46.66300
H  47.75600 2.17600 46.19100
H  48.08200 4.37600 48.05200
H  47.53700 2.17500 49.31900
H  49.07500 2.31000 48.49800
H  48.15900 0.91400 48.28800
H  48.14900 5.37000 45.25400
H  48.93200 3.85700 45.35400
H  50.16300 4.76900 47.51800
H  49.64600 6.37800 47.00200
H  50.72600 5.34700 45.98400
H  45.30100 10.30600 46.35600
H  46.59500 9.22500 46.30600
H  46.06900 9.79600 47.89400
H  40.50900 8.81500 46.70500
H  38.48400 10.10400 50.58200
H  37.37700 9.28800 49.56400
H  37.78400 10.99500 49.17300

