158

Mg 44.76200 3.87400 47.18600
C  42.43200 6.51700 46.70400
C  42.09800 1.71100 46.97600
C  46.85800 1.40900 46.55300
C  47.22000 6.14500 46.97300
N  42.51400 4.12100 46.63700
C  41.85500 5.25900 46.55700
C  40.39300 5.03800 46.37000
C  40.18400 3.61200 46.97700
C  41.68100 3.09300 46.88800
C  39.63800 3.59400 48.48000
C  39.90100 5.22100 44.89100
C  38.69100 6.19700 44.72500
H  38.00000 6.25600 43.35200
N  44.51400 1.78800 46.82200
C  43.34200 1.09700 46.83000
C  43.60200 -0.32300 46.74000
C  44.96000 -0.42700 46.52200
C  45.51100 0.94200 46.67700
C  42.54600 -1.38000 46.89600
C  45.75600 -1.69200 46.22200
O  45.14600 -2.73800 46.35800
C  47.17500 -1.70900 45.89000
N  46.78600 3.76300 46.61300
C  47.49100 2.61500 46.62000
C  48.97000 2.81900 46.76800
C  49.08700 4.41000 47.08600
C  47.56500 4.78800 46.92300
C  49.72800 1.83300 47.70100
C  50.07500 5.10300 46.06500
C  51.10000 6.04300 46.69800
N  44.84300 5.95400 46.95300
C  45.95700 6.71000 46.94400
C  45.58000 8.17600 46.87800
C  44.15600 8.12800 46.87400
C  43.78600 6.77500 46.83200
C  46.40800 9.41900 46.92300
C  42.95100 8.92800 46.87900
O  42.88100 10.17300 47.02700
C  41.81100 7.93700 46.74700
C  40.96100 7.95500 48.00400
O  41.14300 7.30400 48.99900
O  39.91600 8.89300 47.86300
C  38.77000 8.80900 48.86900
H  41.30500 0.98100 47.15500
H  47.62000 0.62800 46.52600
H  47.94300 6.95100 47.11400
H  40.07000 5.80800 47.07100
H  39.61600 2.99100 46.28400
H  38.68400 3.06700 48.47500
H  39.46300 4.59200 48.88400
H  40.36100 3.11400 49.14000
H  39.67300 4.24800 44.45600
H  40.70500 5.75600 44.38500
H  39.06000 7.18200 45.01400
H  37.96700 5.96900 45.50800
H  42.70600 -1.91700 47.83100
H  42.67900 -2.10500 46.09300
H  41.48200 -1.14400 46.86300
H  47.43600 -2.75700 45.74300
H  47.75300 -1.49600 46.79000
H  47.43100 -1.19800 44.96200
H  49.26000 2.65900 45.72900
H  49.47600 4.60200 48.08600
H  50.47800 2.38100 48.27100
H  50.18800 1.09400 47.04500
H  49.04500 1.33700 48.39100
H  49.51300 5.66400 45.31900
H  50.53600 4.33800 45.44100
H  52.07300 5.55400 46.73300
H  50.90500 6.41000 47.70600
H  51.24400 6.94400 46.10200
H  46.44400 9.81400 45.90800
H  47.42200 9.29900 47.30400
H  45.88300 10.14500 47.54400
H  41.24700 8.11600 45.83200
H  37.87800 8.95900 48.26100
H  38.87200 9.59700 49.61500
H  38.78300 7.86900 49.42100
Mg 35.05400 49.81600 26.27600
C  35.43900 47.75500 28.98800
C  33.94800 52.26400 28.30200
C  34.05900 51.45400 23.53500
C  36.12800 47.13300 24.16100
N  34.68900 49.97200 28.41800
C  34.90600 48.97200 29.30700
C  34.76800 49.52600 30.74000
C  33.93300 50.83700 30.44500
C  34.14100 51.05000 28.97600
C  32.40500 50.92000 30.98800
C  36.20500 49.87200 31.29500
C  36.42400 49.44400 32.80500
H  36.33800 50.55600 33.88300
N  34.37000 51.73900 25.97200
C  34.00300 52.58900 26.91700
C  33.75500 53.94200 26.30800
C  33.65000 53.61100 24.90100
C  34.06800 52.19900 24.74400
C  33.59800 55.19400 27.08900
C  33.38600 54.58600 23.63300
O  33.42100 54.16900 22.47200
C  32.98800 56.08600 23.89500
N  35.01500 49.24200 24.14700
C  34.55100 50.13100 23.27700
C  34.62000 49.61300 21.82500
C  35.50100 48.26800 21.90100
C  35.61200 48.19700 23.47700
C  33.26700 49.35600 21.01400
C  36.98100 48.32700 21.36700
C  37.46600 47.00100 20.75000
N  35.61600 47.73500 26.44700
C  36.10000 46.84700 25.55100
C  36.47400 45.63500 26.26000
C  36.30300 45.97600 27.62000
C  35.71300 47.26000 27.68200
C  36.98200 44.38100 25.66700
C  36.35800 45.42600 28.94900
O  36.79900 44.38600 29.41400
C  35.86700 46.57500 29.86600
C  34.87900 46.12900 30.87600
O  33.81900 45.53900 30.60300
O  35.39700 46.26700 32.16100
C  34.70700 45.41500 33.17400
H  33.44100 53.08500 28.81300
H  33.57100 51.91800 22.67500
H  36.56300 46.44200 23.43600
H  34.11300 48.83700 31.27300
H  34.35900 51.71700 30.92600
H  31.65000 50.72500 30.22700
H  32.27100 51.99100 31.14400
H  32.19700 50.38100 31.91200
H  36.30700 50.94900 31.16200
H  36.93100 49.37600 30.65100
H  37.42700 49.02400 32.88400
H  35.72000 48.65200 33.05900
H  34.56200 55.69300 27.19200
H  33.38500 54.98400 28.13700
H  32.96600 55.93600 26.60200
H  32.00900 56.21600 24.35600
H  32.92200 56.62900 22.95200
H  33.78800 56.61200 24.41500
H  35.27700 50.17400 21.16100
H  34.86900 47.44600 21.56600
H  33.23700 48.37800 20.53500
H  33.33600 50.08900 20.21000
H  32.35700 49.48900 21.60000
H  37.72100 48.50000 22.14900
H  37.20700 49.12700 20.66200
H  37.67000 47.15000 19.69000
H  36.61900 46.31600 20.80700
H  38.36100 46.64800 21.26200
H  37.96700 44.62000 25.26500
H  36.38100 44.11900 24.79600
H  36.95000 43.53100 26.34900
H  36.77200 46.98800 30.31200
H  34.08800 44.65400 32.69900
H  34.03800 45.97400 33.82800
H  35.32200 44.85000 33.87400

