158

Mg 47.32200 24.58800 27.91000
C  48.14600 26.48800 30.56700
C  47.00900 21.73700 30.00700
C  46.44600 22.68200 25.21200
C  48.14800 27.15700 25.73200
N  47.67300 24.20400 30.04500
C  47.76700 25.17700 30.97200
C  47.68900 24.66200 32.42100
C  47.58900 23.16700 32.11700
C  47.39100 22.97100 30.63300
C  48.64600 22.17300 32.75200
C  46.57300 25.37900 33.22000
C  46.90400 26.32600 34.33300
H  45.87900 26.57300 35.53200
N  46.85900 22.51600 27.63300
C  46.78500 21.56000 28.57600
C  46.59900 20.26800 27.92200
C  46.25500 20.54800 26.55300
C  46.47800 21.95600 26.43600
C  46.64400 18.93500 28.69600
C  45.87900 19.61800 25.41900
O  45.61700 19.99400 24.27100
C  45.79100 18.22200 25.70900
N  47.44500 24.83000 25.76700
C  46.91500 23.94500 24.91700
C  46.82700 24.56500 23.46500
C  47.21000 26.02400 23.63400
C  47.59900 26.08900 25.13400
C  47.63400 23.79800 22.36000
C  45.97600 26.99700 23.29800
C  46.19300 28.38600 22.68300
N  48.08600 26.40400 28.03600
C  48.40900 27.36800 27.09500
C  49.05400 28.45800 27.77300
C  48.90600 28.19400 29.15800
C  48.31100 26.94000 29.27300
C  49.65800 29.60000 27.04300
C  49.12800 28.73100 30.46900
O  49.67800 29.84000 30.72700
C  48.62700 27.66000 31.43500
C  49.88400 27.24800 32.31500
O  50.64000 26.26300 32.11900
O  49.96200 28.11800 33.35800
C  50.73600 27.65500 34.50200
H  46.83900 20.91300 30.70300
H  46.11800 22.26900 24.25500
H  48.47100 27.96100 25.06600
H  48.63000 24.79600 32.95400
H  46.60300 22.83400 32.44000
H  49.12300 22.72800 33.56000
H  49.41400 21.92600 32.02000
H  48.11300 21.31300 33.15900
H  45.89100 24.56800 33.47800
H  46.04100 25.93000 32.44400
H  46.98300 27.31300 33.87700
H  47.84700 26.04200 34.80200
H  47.03100 18.23600 27.95400
H  45.64600 18.59500 28.97100
H  47.33500 18.96300 29.53800
H  46.80600 17.87700 25.51700
H  45.10800 17.72400 25.02100
H  45.29500 17.95100 26.64100
H  45.77400 24.50800 23.19100
H  48.10300 26.23500 23.04600
H  48.28400 23.08500 22.86800
H  48.20900 24.45400 21.70700
H  47.04500 23.09600 21.76800
H  45.47900 26.92500 24.26600
H  45.35800 26.57100 22.50800
H  45.84400 28.41300 21.65100
H  47.23500 28.70600 22.71400
H  45.54100 29.12400 23.14800
H  50.11200 29.19200 26.14000
H  50.50100 30.06200 27.55600
H  48.89700 30.35900 26.86500
H  47.87900 28.03200 32.13500
H  50.62600 28.45400 35.23600
H  51.80400 27.67800 34.28700
H  50.34800 26.67100 34.76600
Mg 6.15000 55.24900 40.25900
C  4.91700 51.88700 40.15800
C  9.13000 54.13500 39.31000
C  7.09500 58.47500 39.86100
C  2.98400 56.21500 41.39900
N  6.90300 53.16800 39.52900
C  6.21700 51.97900 39.72000
C  7.29200 50.88100 39.50800
C  8.67500 51.61700 39.69600
C  8.24400 53.06300 39.51800
C  9.54800 51.28300 40.87900
C  7.24500 50.16700 38.11400
C  6.65200 50.80400 36.83600
H  7.64000 51.37300 35.73100
N  7.92700 56.15800 39.60500
C  9.05600 55.53800 39.22000
C  10.11400 56.43300 38.93900
C  9.53000 57.69300 39.03900
C  8.13700 57.50500 39.51000
C  11.55500 56.06800 38.75600
C  10.18500 59.06400 38.73100
O  11.32700 59.07600 38.30500
C  9.36700 60.30900 38.87700
N  5.13400 57.07500 40.46900
C  5.77800 58.27000 40.38000
C  4.90000 59.48400 40.72700
C  3.63300 58.77500 41.33900
C  3.87800 57.24300 41.02300
C  5.61300 60.44500 41.69100
C  2.28700 59.37900 40.76200
C  1.06800 59.67500 41.71200
N  4.29000 54.31700 40.61000
C  3.16600 54.85700 41.15700
C  2.14600 53.81900 41.35400
C  2.84000 52.60900 41.01600
C  4.13100 53.00300 40.60300
C  0.79800 53.98100 41.92300
C  2.63100 51.16500 40.90900
O  1.75200 50.40100 41.23700
C  4.16100 50.62100 40.57700
C  4.14900 49.58800 39.50000
O  4.03500 49.91600 38.28800
O  4.34200 48.35300 40.08700
C  4.33000 47.23000 39.12100
H  10.14800 53.82300 39.06600
H  7.29000 59.54800 39.80300
H  1.99800 56.58200 41.69300
H  7.18600 50.10600 40.26600
H  9.42100 51.41300 38.92800
H  9.14700 50.48400 41.50300
H  9.56600 52.10300 41.59800
H  10.58900 51.06400 40.64200
H  6.68400 49.24500 38.26800
H  8.28400 49.91500 37.89900
H  6.00300 51.62700 37.13600
H  5.90300 50.13900 36.40600
H  12.20200 56.51900 39.50900
H  11.82600 56.42300 37.76200
H  11.80000 55.00600 38.73700
H  8.61100 60.30500 38.09200
H  10.03800 61.12500 38.60500
H  9.05700 60.43700 39.91400
H  4.59700 60.15600 39.92400
H  3.67100 58.89200 42.42200
H  5.63200 61.42900 41.22300
H  6.60700 60.07200 41.93900
H  4.99600 60.72600 42.54400
H  1.87400 58.55800 40.17500
H  2.29400 60.16500 40.00800
H  0.26300 58.96600 41.51400
H  0.67100 60.67500 41.53900
H  1.24500 59.60700 42.78500
H  0.46100 55.00600 42.07300
H  0.70500 53.44900 42.87000
H  0.01900 53.44500 41.38000
H  4.64100 50.23100 41.47500
H  3.33200 46.79200 39.15300
H  5.09200 46.61300 39.59700
H  4.56100 47.56300 38.10900

