158

Mg 8.08500 3.00700 27.77400
C  9.51900 1.66300 30.61700
C  6.63300 5.48600 29.78200
C  6.70900 4.21300 24.95900
C  9.46100 0.26000 25.93100
N  8.00500 3.49500 29.88400
C  8.72900 2.78600 30.87600
C  8.46500 3.41500 32.24300
C  7.52900 4.63600 32.00500
C  7.39400 4.57300 30.42200
C  6.22300 4.82700 32.85900
C  9.74300 3.84700 33.07300
C  9.56800 4.72000 34.31900
H  10.49700 4.41700 35.47700
N  6.90300 4.68300 27.44400
C  6.42400 5.55900 28.35200
C  5.55900 6.50200 27.62600
C  5.46100 6.09900 26.28100
C  6.40400 4.97600 26.13200
C  4.90400 7.69500 28.27900
C  4.64000 6.75900 25.14100
O  4.77400 6.39100 23.98500
C  3.61700 7.82500 25.38000
N  7.94600 2.31900 25.80700
C  7.37800 3.03300 24.77700
C  7.56200 2.35900 23.42200
C  8.35500 1.09000 23.73500
C  8.65200 1.22700 25.20600
C  6.28800 2.04300 22.65200
C  9.67900 1.00600 22.96600
C  9.39500 0.89900 21.44300
N  9.20900 1.32400 28.12900
C  9.70700 0.34900 27.30800
C  10.71600 -0.40500 28.03300
C  10.61700 0.03100 29.35900
C  9.67700 1.08400 29.37600
C  11.52200 -1.51600 27.42800
C  11.10100 -0.22500 30.68600
O  11.92600 -0.96400 31.19900
C  10.41200 0.88300 31.53900
C  9.72700 0.10200 32.56200
O  8.97700 -0.82500 32.29800
O  9.99300 0.61100 33.82100
C  9.39000 -0.09500 34.94900
H  6.25600 6.34200 30.34500
H  6.39300 4.56400 23.97400
H  9.91900 -0.59000 25.42100
H  8.00000 2.63300 32.84300
H  8.27400 5.42500 32.09700
H  6.45000 5.51900 33.66900
H  5.92000 3.89700 33.33900
H  5.39800 5.10000 32.20100
H  10.35200 4.48500 32.43200
H  10.34900 2.98300 33.34800
H  8.55600 4.62700 34.71300
H  9.64600 5.79300 34.14400
H  4.93600 8.62900 27.71700
H  5.36200 7.89200 29.24900
H  3.86500 7.37800 28.37000
H  4.25700 8.70500 25.44800
H  3.05300 7.72300 26.30700
H  2.87000 7.80800 24.58600
H  8.26500 2.97100 22.85600
H  7.73600 0.19500 23.68100
H  6.17200 0.99300 22.38200
H  6.37900 2.72300 21.80500
H  5.46200 2.24600 23.33400
H  10.12000 0.07100 23.31000
H  10.35100 1.82200 23.23200
H  9.74100 1.76500 20.87900
H  8.34200 0.69100 21.25300
H  9.98800 0.13900 20.93400
H  12.53500 -1.51900 27.83100
H  11.52500 -1.58900 26.34000
H  11.11200 -2.47500 27.74500
H  11.18900 1.52000 31.96100
H  8.95000 0.70800 35.54000
H  10.09400 -0.68000 35.54200
H  8.44900 -0.62400 34.79300
Mg -11.03200 16.90200 43.29300
C  -7.49500 17.19500 43.40000
C  -11.14100 20.06600 42.22900
C  -14.25700 16.33000 42.48800
C  -10.67400 13.39300 43.72600
N  -9.38900 18.37700 42.77600
C  -8.03700 18.34800 42.98100
C  -7.36800 19.63000 42.54100
C  -8.53400 20.60700 42.29900
C  -9.80000 19.65100 42.37500
C  -8.69200 21.72100 43.34000
C  -6.51700 19.40900 41.24700
C  -4.96000 19.66700 41.42100
H  -4.35400 20.42400 40.22500
N  -12.54600 18.09600 42.63300
C  -12.37500 19.40400 42.28100
C  -13.66200 19.93800 41.94000
C  -14.57600 18.79000 42.05700
C  -13.78800 17.66000 42.41300
C  -13.91600 21.40400 41.64300
C  -16.06800 18.87500 41.71400
O  -16.55400 19.94000 41.33500
C  -17.14000 17.77500 41.84000
N  -12.30500 15.14400 43.19100
C  -13.58300 15.21000 42.96900
C  -14.28900 13.84000 43.14300
C  -13.05200 12.86600 43.04900
C  -11.92500 13.87700 43.40700
C  -15.02000 13.70400 44.54400
C  -12.71600 12.17900 41.71600
C  -13.01400 10.72400 41.56600
N  -9.48300 15.51100 43.46800
C  -9.45500 14.19400 43.77100
C  -8.06200 13.68300 43.83300
C  -7.26100 14.84900 43.78100
C  -8.17800 15.93100 43.56700
C  -7.60700 12.21600 43.96600
C  -5.90900 15.27900 43.87500
O  -4.83900 14.74600 44.22800
C  -6.01800 16.84200 43.63900
C  -5.45300 17.58600 44.82200
O  -5.99800 17.64100 45.90200
O  -4.22400 18.10200 44.47500
C  -3.62400 18.78400 45.62500
H  -11.24700 21.14900 42.13800
H  -15.29900 16.05700 42.31000
H  -10.57300 12.32000 43.90200
H  -6.74000 20.01000 43.34700
H  -8.55000 21.15200 41.35500
H  -7.94700 21.55900 44.12000
H  -9.68800 21.72000 43.78200
H  -8.56700 22.69300 42.86400
H  -6.84800 20.13700 40.50600
H  -6.68700 18.40200 40.86700
H  -4.44900 18.71000 41.31800
H  -4.76800 20.23800 42.32900
H  -14.45900 21.93900 42.42300
H  -14.42800 21.41800 40.68100
H  -12.93700 21.82700 41.41700
H  -18.12800 18.23200 41.89300
H  -16.98800 17.25500 42.78600
H  -17.04000 17.25300 40.88800
H  -14.82600 13.66400 42.21100
H  -13.08500 12.07100 43.79500
H  -16.05400 13.55100 44.23300
H  -14.87500 14.57700 45.17900
H  -14.78400 12.73100 44.97400
H  -11.74400 12.42100 41.28600
H  -13.39200 12.56300 40.95200
H  -12.77300 10.11000 42.43400
H  -12.23000 10.26100 40.96600
H  -13.97800 10.36300 41.20700
H  -6.85000 12.20400 44.75000
H  -7.18700 11.84500 43.03100
H  -8.41800 11.52500 44.19700
H  -5.48100 17.12300 42.73400
H  -4.20700 19.70300 45.70300
H  -2.58400 18.92500 45.33100
H  -3.56000 18.15400 46.51200

