158

Mg 5.35700 54.96200 40.63600
C  4.87800 51.45500 40.78000
C  8.41200 54.63100 39.68300
C  5.26700 58.31400 39.92400
C  1.87000 55.28700 41.49000
N  6.38800 53.24900 40.09900
C  6.10900 51.90100 40.18100
C  7.32200 51.05000 39.71400
C  8.49900 52.12500 39.75900
C  7.67500 53.40900 39.81800
C  9.60700 52.00100 40.87900
C  7.03100 50.41600 38.31800
C  5.99200 51.14200 37.37700
H  6.69800 51.93300 36.28100
N  6.81200 56.44200 40.07000
C  8.03500 56.04500 39.58000
C  8.76900 57.23900 39.20600
C  7.84600 58.39600 39.37100
C  6.56000 57.78700 39.80600
C  10.14800 57.33400 38.64100
C  8.08100 59.84100 39.12600
O  9.10600 60.19200 38.54300
C  7.01200 60.90400 39.40000
N  3.73900 56.59800 40.71200
C  4.02200 57.87200 40.33700
C  2.74800 58.78400 40.36200
C  1.63100 57.74000 40.70300
C  2.43900 56.51600 41.00400
C  2.74500 60.03200 41.24800
C  0.48500 57.46300 39.69900
C  -0.09400 58.67600 38.98800
N  3.64100 53.68600 41.02200
C  2.36300 53.96500 41.45800
C  1.72200 52.71400 41.88700
C  2.62600 51.66700 41.71200
C  3.73700 52.33100 41.13000
C  0.45500 52.51900 42.59100
C  3.01100 50.30000 41.94000
O  2.48700 49.41900 42.61300
C  4.40000 50.04600 41.20400
C  4.28600 49.02500 40.04900
O  3.81000 49.23800 38.97300
O  4.63800 47.83200 40.48100
C  4.31500 46.59900 39.76600
H  9.48300 54.45100 39.57000
H  5.01900 59.35800 39.72400
H  0.84800 55.25900 41.87100
H  7.46200 50.29200 40.48500
H  8.92500 52.11900 38.75600
H  10.58200 51.87300 40.40800
H  9.43500 51.07800 41.43200
H  9.56800 52.86700 41.54000
H  6.68000 49.40000 38.49900
H  7.94900 50.31900 37.73800
H  5.29700 51.78000 37.92400
H  5.39200 50.37800 36.88300
H  10.82500 57.52500 39.47300
H  10.38000 57.91100 37.74500
H  10.43100 56.28400 38.56000
H  6.22700 60.92800 38.64500
H  7.49700 61.87200 39.53200
H  6.48900 60.64900 40.32200
H  2.61800 59.16300 39.34900
H  1.20200 58.05200 41.65500
H  1.78900 60.14900 41.75900
H  2.91900 60.94000 40.67200
H  3.60700 59.97600 41.91300
H  -0.31400 56.96100 40.24500
H  0.91600 56.77500 38.97200
H  0.50300 58.89300 38.10300
H  -0.09800 59.46500 39.74000
H  -1.12800 58.47200 38.71100
H  0.59200 52.13300 43.60100
H  -0.12100 51.77800 42.03600
H  -0.10600 53.44600 42.71500
H  5.06500 49.58600 41.93500
H  4.71400 46.68200 38.75500
H  3.24900 46.45200 39.59500
H  4.69500 45.71400 40.27700
Mg -1.70700 35.58200 26.49100
C  -3.43900 33.72400 28.86900
C  -0.80700 37.78500 28.95700
C  0.16600 37.22400 24.08700
C  -2.90400 33.48900 24.07700
N  -2.16900 35.75700 28.63200
C  -2.83300 34.82900 29.44500
C  -2.71000 35.20700 30.93100
C  -2.07100 36.65700 30.89100
C  -1.64100 36.74000 29.41100
C  -3.07000 37.77200 31.22700
C  -1.99300 34.18700 31.85900
C  -2.88700 33.40900 32.89100
H  -2.32200 33.18600 34.36100
N  -0.55000 37.22100 26.56900
C  -0.31500 38.03000 27.63300
C  0.53600 39.11300 27.21300
C  0.90200 38.92400 25.83300
C  0.17300 37.71900 25.43500
C  0.93100 40.20800 28.17500
C  1.89500 39.67500 24.94700
O  2.13800 39.39300 23.79400
C  2.58900 40.84600 25.56400
N  -1.22500 35.28400 24.39600
C  -0.57700 36.12200 23.59100
C  -0.68300 35.73900 22.13400
C  -1.48500 34.42500 22.15900
C  -1.89200 34.39500 23.62400
C  -1.20100 36.81900 21.24200
C  -0.66600 33.12200 21.76000
C  -1.48500 31.99400 21.12500
N  -2.98000 34.02700 26.44100
C  -3.40700 33.30100 25.37200
C  -4.35300 32.30100 25.82300
C  -4.36300 32.48800 27.17300
C  -3.53800 33.48300 27.53700
C  -5.10300 31.42000 24.98900
C  -4.87600 31.97100 28.34900
O  -5.72600 31.13600 28.55600
C  -4.23200 32.75600 29.60700
C  -5.44400 33.18600 30.33500
O  -6.12600 34.17400 30.07000
O  -5.65700 32.36100 31.36200
C  -6.83800 32.62400 32.22900
H  -0.51900 38.50800 29.72400
H  0.67300 37.82900 23.33100
H  -3.33700 32.92400 23.24800
H  -3.68400 35.28800 31.41300
H  -1.18100 36.65600 31.51900
H  -4.05500 37.42500 30.91600
H  -2.73200 38.73500 30.84400
H  -3.17200 37.99700 32.28900
H  -1.33300 34.72200 32.54100
H  -1.57200 33.34900 31.30300
H  -2.98200 32.37100 32.57300
H  -3.89000 33.83600 32.89400
H  1.93400 40.04700 28.57100
H  0.19800 40.21900 28.98100
H  0.77700 41.21600 27.79000
H  3.18900 41.42800 24.86400
H  3.26800 40.55000 26.36300
H  1.82900 41.53100 25.94100
H  0.34600 35.42300 21.96700
H  -2.36400 34.60700 21.54000
H  -1.90300 37.47200 21.76100
H  -1.89400 36.40500 20.50900
H  -0.38900 37.36000 20.75700
H  -0.27800 32.82100 22.73300
H  0.15900 33.47600 21.14200
H  -1.85900 31.28500 21.86400
H  -0.82800 31.37900 20.51000
H  -2.21000 32.27300 20.36100
H  -4.69200 31.44900 23.98000
H  -6.17500 31.60600 25.05900
H  -4.97600 30.38600 25.31000
H  -3.63600 32.13300 30.27400
H  -6.62500 33.35800 33.00700
H  -7.22700 31.70700 32.67000
H  -7.52900 32.99700 31.47300

