158

Mg 2.12300 -0.88300 44.21400
C  5.58400 -0.35000 43.65000
C  1.51400 1.93600 42.26400
C  -1.11900 -1.82900 43.97900
C  2.93900 -4.16000 45.37700
N  3.47200 0.58100 42.98900
C  4.81800 0.58600 43.00400
C  5.34000 1.74500 42.18800
C  4.01700 2.54100 41.87700
C  2.92700 1.70900 42.44600
C  3.91700 3.97400 42.40800
C  6.03000 1.23300 40.90500
C  7.19100 2.08100 40.37300
H  6.73900 2.93600 39.23900
N  0.45000 0.00200 43.35800
C  0.40900 1.14600 42.66100
C  -0.99100 1.51200 42.48800
C  -1.82700 0.46100 42.92100
C  -0.85100 -0.53600 43.45000
C  -1.31400 2.96500 42.00200
C  -3.39800 0.51400 43.08500
O  -3.98200 1.52700 42.80400
C  -4.16800 -0.58500 43.66100
N  1.07900 -2.66200 44.75900
C  -0.28500 -2.75700 44.66600
C  -0.82300 -4.14500 45.13500
C  0.47600 -4.82100 45.57800
C  1.56400 -3.85200 45.18200
C  -1.88500 -4.04200 46.29500
C  0.65600 -6.22000 44.89000
C  1.28300 -7.32200 45.81600
N  3.92900 -1.96500 44.54700
C  4.05500 -3.24400 45.04000
C  5.49500 -3.50600 45.25100
C  6.14200 -2.34900 44.73800
C  5.10700 -1.48200 44.32800
C  5.95300 -4.73000 46.01200
C  7.42000 -1.72600 44.51400
O  8.51900 -2.18700 44.79200
C  7.10200 -0.33500 43.83500
C  7.73400 0.79100 44.67400
O  7.22500 1.20800 45.70300
O  8.80100 1.31500 44.03600
C  9.48700 2.41300 44.70300
H  1.37700 2.85600 41.69100
H  -2.13300 -2.23400 43.95500
H  3.00000 -5.21000 45.67300
H  5.92700 2.46800 42.75400
H  3.85600 2.69400 40.81000
H  3.86100 3.78200 43.47900
H  3.06500 4.54200 42.03200
H  4.80600 4.50900 42.07400
H  5.31800 1.08300 40.09300
H  6.48100 0.28800 41.20900
H  7.95200 1.37500 40.03900
H  7.54700 2.76400 41.14400
H  -2.35500 3.07200 41.69600
H  -0.71700 3.16300 41.11200
H  -1.07600 3.62800 42.83400
H  -5.16300 -0.27700 43.98100
H  -3.71800 -0.83800 44.62100
H  -4.16000 -1.40100 42.93800
H  -1.41200 -4.64600 44.36700
H  0.51900 -4.89100 46.66500
H  -1.74600 -4.82800 47.03700
H  -2.84000 -4.31900 45.84800
H  -2.04900 -3.04000 46.69300
H  1.31000 -6.01500 44.04300
H  -0.32400 -6.57000 44.56600
H  1.61900 -6.88500 46.75600
H  2.19500 -7.73700 45.38800
H  0.42100 -7.97600 45.95500
H  5.27300 -5.06100 46.79600
H  7.00800 -4.60500 46.25500
H  5.93300 -5.62600 45.39100
H  7.60900 -0.26100 42.87300
H  10.37600 2.63900 44.11500
H  9.73300 2.11800 45.72300
H  8.86900 3.30100 44.83100
Mg 7.30000 53.73300 41.63100
C  6.88700 50.26400 41.36900
C  10.67600 53.28800 40.86600
C  7.42900 57.03200 41.27900
C  3.91400 53.90200 42.47500
N  8.61500 51.95700 41.02900
C  8.24600 50.61300 41.06000
C  9.38900 49.71400 40.72100
C  10.60200 50.66600 41.03000
C  9.99900 52.09000 40.99700
C  11.37800 50.40200 42.32900
C  9.48300 49.15300 39.25700
C  9.20200 50.07100 38.02100
H  8.03600 49.83100 37.06500
N  8.84400 54.99700 41.05300
C  10.11300 54.60500 40.72400
C  10.85700 55.82000 40.47000
C  9.99900 56.93400 40.44800
C  8.70000 56.37700 40.87700
C  12.30600 55.80400 40.00400
C  10.39900 58.37500 40.14300
O  11.56600 58.66400 39.98900
C  9.39000 59.51200 40.15400
N  5.91800 55.19700 41.78000
C  6.27300 56.53400 41.69500
C  5.05300 57.44300 42.18500
C  4.13400 56.39300 42.79000
C  4.66300 55.04300 42.31700
C  5.32500 58.77100 43.10500
C  2.69600 56.67900 42.54000
C  1.68800 56.34600 43.69400
N  5.74100 52.39900 42.00800
C  4.37700 52.59400 42.34400
C  3.72000 51.29900 42.57000
C  4.70900 50.33800 42.20700
C  5.88500 51.04900 41.87000
C  2.24000 51.17500 42.98700
C  4.94100 48.93100 42.26900
O  4.17100 48.03100 42.63400
C  6.37000 48.81400 41.47500
C  5.98400 48.18500 40.14300
O  5.77200 48.69700 39.02200
O  5.96500 46.86200 40.27500
C  5.58100 46.14500 39.03500
H  11.76100 53.17100 40.86600
H  7.48800 58.11800 41.17300
H  2.93700 53.81700 42.95500
H  9.32000 48.94400 41.49000
H  11.30300 50.62600 40.19600
H  11.34300 51.25000 43.01300
H  12.38600 50.01600 42.17600
H  10.88500 49.50900 42.71200
H  8.71800 48.39500 39.08900
H  10.44100 48.63900 39.16800
H  10.13000 49.97500 37.45700
H  9.25600 51.10200 38.37200
H  12.78400 54.83800 39.84100
H  12.87200 56.13000 40.87700
H  12.53100 56.49700 39.19300
H  8.70200 59.44800 39.31200
H  9.93300 60.43500 39.95000
H  8.81600 59.60900 41.07500
H  4.64700 57.88600 41.27600
H  4.24700 56.41700 43.87400
H  6.39400 58.98000 43.14800
H  4.95300 58.52900 44.10100
H  4.65100 59.57000 42.79400
H  2.40400 56.16500 41.62500
H  2.57300 57.70100 42.18200
H  1.44100 57.29900 44.16200
H  2.12200 55.76700 44.50900
H  0.86100 55.83200 43.20400
H  1.67000 51.55900 42.14100
H  2.13500 51.89000 43.80300
H  1.82600 50.22600 43.32900
H  6.89100 48.20200 42.21100
H  6.37100 45.42200 38.83200
H  5.25600 46.74200 38.18400
H  4.72100 45.50300 39.22500

