158

Mg 41.70500 42.28800 27.51100
C  40.67900 44.73500 29.87900
C  42.05500 39.96000 29.93700
C  42.90800 40.32500 25.27800
C  41.63800 45.00600 25.17400
N  41.52200 42.39900 29.66900
C  40.93800 43.44700 30.36400
C  40.70900 42.93100 31.80600
C  41.23700 41.49800 31.86400
C  41.69900 41.28000 30.39800
C  42.29800 41.18200 32.89300
C  39.19800 43.07700 32.39800
C  38.78200 42.29600 33.66800
H  38.20000 43.05100 34.81600
N  42.38000 40.36400 27.60300
C  42.50100 39.48200 28.74500
C  42.93400 38.21600 28.29400
C  43.18100 38.29700 26.88700
C  42.86500 39.68100 26.52600
C  43.15600 37.09300 29.18500
C  43.77800 37.31600 25.91400
O  44.30000 37.60300 24.81500
C  43.89900 35.91000 26.26200
N  42.39000 42.71200 25.65100
C  42.60600 41.56600 24.91400
C  42.84200 42.00500 23.44200
C  42.23200 43.35700 23.37900
C  41.99400 43.70300 24.80900
C  44.26700 41.84000 22.94800
C  40.90000 43.48200 22.45700
C  39.83100 42.45800 22.66400
N  41.25800 44.48600 27.46900
C  41.24400 45.36100 26.47900
C  40.68600 46.62500 26.93300
C  40.47200 46.42500 28.23300
C  40.86800 45.11200 28.53800
C  40.21700 47.67000 25.97900
C  40.02400 47.13700 29.41400
O  39.62000 48.30000 29.51100
C  40.08100 46.01600 30.59900
C  40.88500 46.51100 31.64400
O  41.96500 46.99100 31.40700
O  40.25400 46.47600 32.91800
C  40.97600 46.72800 34.10900
H  42.03200 39.34900 30.84100
H  43.43000 39.82600 24.45800
H  41.53500 45.78700 24.41800
H  41.19800 43.58900 32.52500
H  40.38200 40.83500 31.99800
H  43.20600 40.68900 32.54400
H  42.12500 40.43100 33.66400
H  42.66000 42.09100 33.37400
H  38.50400 42.86200 31.58600
H  39.11200 44.10400 32.75400
H  39.61500 41.72700 34.08100
H  38.03700 41.55400 33.37700
H  43.21000 37.37300 30.23700
H  44.17800 36.75200 29.01900
H  42.36700 36.38100 28.94100
H  42.84600 35.63100 26.27100
H  44.45600 35.89400 27.19900
H  44.42900 35.27800 25.55000
H  42.33100 41.30200 22.78400
H  43.00800 44.02400 23.00200
H  44.21800 41.41600 21.94500
H  44.95000 41.26000 23.56800
H  44.66200 42.82400 22.69400
H  41.10600 43.45500 21.38700
H  40.27800 44.36500 22.60600
H  39.12900 42.89800 23.37200
H  40.19000 41.50500 23.05200
H  39.27200 42.31000 21.74000
H  39.59800 48.38700 26.51900
H  39.61700 47.21000 25.19300
H  41.10800 48.12700 25.54900
H  39.08600 45.97800 31.04200
H  41.49500 45.80900 34.37900
H  40.29900 47.17200 34.83800
H  41.71500 47.49900 33.89000
Mg -2.23800 34.09200 26.78700
C  -3.61200 32.48600 29.54500
C  -0.69400 36.29400 28.96200
C  -1.23800 35.93000 24.09700
C  -4.31700 32.23800 24.66900
N  -2.25600 34.33000 29.00800
C  -2.69500 33.40500 29.92000
C  -1.98100 33.51700 31.28000
C  -1.15800 34.85400 31.12600
C  -1.35400 35.26200 29.57400
C  -1.53300 35.91000 32.10200
C  -1.15600 32.27800 31.83700
C  -1.47600 31.86000 33.30200
H  -0.27400 31.84200 34.27600
N  -1.07900 35.86400 26.56800
C  -0.52800 36.56400 27.60600
C  0.28600 37.56400 27.11700
C  0.15600 37.48000 25.66800
C  -0.69700 36.37300 25.35700
C  1.15200 38.54900 27.86600
C  0.83900 38.24000 24.49200
O  0.72500 37.98000 23.30300
C  1.76800 39.33300 24.85700
N  -2.88300 34.20400 24.64900
C  -2.23900 34.98700 23.76000
C  -2.80700 34.77400 22.32400
C  -3.82700 33.63700 22.48700
C  -3.66300 33.34400 24.03000
C  -3.32400 36.07400 21.65500
C  -3.64400 32.48900 21.54200
C  -2.42100 31.61700 21.73700
N  -3.66000 32.64400 26.97900
C  -4.31800 31.90900 26.04000
C  -5.15800 30.90100 26.74900
C  -4.76900 31.07300 28.11200
C  -3.97100 32.17600 28.18000
C  -6.07500 29.92300 26.07700
C  -5.00200 30.52400 29.43100
O  -5.73000 29.60600 29.80800
C  -4.11300 31.34300 30.39100
C  -5.03400 31.90000 31.36700
O  -5.96700 32.62300 31.04300
O  -4.77600 31.64900 32.66900
C  -5.61800 32.28900 33.71800
H  -0.14700 37.04400 29.53700
H  -0.93400 36.41100 23.16500
H  -4.91700 31.54500 24.07500
H  -2.82800 33.72200 31.93400
H  -0.08000 34.70000 31.15800
H  -2.36900 35.71400 32.77300
H  -1.89600 36.77800 31.55100
H  -0.65700 36.29300 32.62600
H  -0.11600 32.60500 31.82500
H  -1.26400 31.36700 31.24800
H  -1.83400 30.85000 33.49800
H  -2.11100 32.66800 33.66600
H  2.18900 38.37700 27.58000
H  0.87700 38.56500 28.92100
H  0.78900 39.50800 27.49500
H  1.92100 40.01700 24.02200
H  2.74200 38.95000 25.16200
H  1.27800 39.91900 25.63500
H  -2.01300 34.31400 21.73600
H  -4.80800 34.11300 22.47700
H  -3.12800 36.07000 20.58300
H  -2.85900 37.01100 21.96200
H  -4.40500 36.18700 21.74000
H  -3.72500 32.79600 20.49900
H  -4.51700 31.84800 21.66400
H  -1.90200 31.85800 20.80900
H  -2.62200 30.54600 21.70200
H  -1.80600 31.91200 22.58700
H  -6.17000 30.08700 25.00300
H  -7.04400 29.97700 26.57300
H  -5.73800 28.90000 26.24300
H  -3.43300 30.63200 30.86100
H  -4.99400 32.56400 34.56800
H  -6.29600 31.50400 34.05400
H  -6.01000 33.23900 33.35600

