158

Mg -2.04500 34.68900 27.50700
C  -3.72900 33.20800 30.22900
C  -0.72500 36.96600 29.71100
C  -0.80100 36.29700 24.98200
C  -3.80100 32.54400 25.38600
N  -2.38300 35.15300 29.67400
C  -2.89800 34.25600 30.58500
C  -2.71800 34.73300 32.06300
C  -1.89100 36.08400 31.94300
C  -1.63600 36.10700 30.35300
C  -2.65300 37.43500 32.48000
C  -1.99000 33.70500 33.00000
C  -1.42900 34.28200 34.37000
H  -1.59700 33.46400 35.56300
N  -0.94100 36.37000 27.40100
C  -0.41800 37.16900 28.39300
C  0.42500 38.25200 27.81600
C  0.34000 38.03600 26.38200
C  -0.55100 36.83600 26.19300
C  1.01400 39.40100 28.69900
C  1.00300 38.91000 25.24400
O  0.97200 38.70600 24.05600
C  1.77400 40.15800 25.55600
N  -2.30100 34.47300 25.43500
C  -1.57500 35.18300 24.59500
C  -1.76000 34.71400 23.14800
C  -2.67000 33.44600 23.30100
C  -2.83700 33.40800 24.81200
C  -2.21600 35.80400 22.18400
C  -1.87400 32.07800 22.89600
C  -2.67200 30.97600 22.28400
N  -3.54000 33.20300 27.74500
C  -4.15600 32.42700 26.77100
C  -5.03600 31.46100 27.36400
C  -4.90300 31.71200 28.77900
C  -4.03500 32.81000 28.87300
C  -5.81000 30.48400 26.72700
C  -5.29800 31.28000 30.06300
O  -5.98500 30.34900 30.47200
C  -4.45400 32.18600 31.07200
C  -5.34900 32.71800 32.08500
O  -6.18300 33.57000 31.83700
O  -5.22000 32.01400 33.22100
C  -6.30100 32.00800 34.13000
H  -0.10000 37.58100 30.36300
H  -0.40200 36.88100 24.15100
H  -4.34200 31.86500 24.72400
H  -3.70200 34.79500 32.52700
H  -0.94400 36.05300 32.48200
H  -2.15200 37.71600 33.40600
H  -3.69600 37.22600 32.71700
H  -2.57000 38.26900 31.78300
H  -1.11700 33.30600 32.48300
H  -2.55300 32.79100 33.19100
H  -1.81700 35.24800 34.69400
H  -0.36300 34.47600 34.24900
H  2.06000 39.13300 28.84900
H  0.46800 39.36800 29.64200
H  0.89200 40.35700 28.19100
H  1.09500 40.86600 26.03100
H  2.13600 40.66800 24.66400
H  2.61600 39.85000 26.17600
H  -0.76100 34.39500 22.85300
H  -3.63700 33.55300 22.80800
H  -2.20900 36.79000 22.64900
H  -3.14900 35.56900 21.67000
H  -1.42000 35.81700 21.44000
H  -1.25400 31.69700 23.70700
H  -1.12000 32.25000 22.12800
H  -3.71600 31.28200 22.21300
H  -2.45700 30.10100 22.89800
H  -2.32000 30.70400 21.28900
H  -5.82300 29.60600 27.37300
H  -5.36300 30.24400 25.76300
H  -6.80900 30.81900 26.44700
H  -3.72900 31.54000 31.56700
H  -5.99400 32.63900 34.96400
H  -6.56100 31.01200 34.48900
H  -7.15600 32.51000 33.67700
Mg -11.62800 16.93800 42.69100
C  -8.55100 15.34600 42.24100
C  -10.28000 19.75700 41.29300
C  -14.78800 17.86100 41.90200
C  -12.91700 13.73300 43.68100
N  -9.68700 17.43400 41.84300
C  -8.58400 16.66700 41.80600
C  -7.35700 17.43300 41.26300
C  -7.81800 18.90300 41.34800
C  -9.34400 18.69500 41.48600
C  -7.25300 19.80400 42.48500
C  -6.90300 16.85100 39.81300
C  -5.39100 16.98500 39.56900
H  -4.99500 17.43400 38.19300
N  -12.41400 18.65100 41.74000
C  -11.69200 19.72700 41.30200
C  -12.63400 20.69000 40.83600
C  -13.96200 20.03600 40.84700
C  -13.76000 18.73500 41.51100
C  -12.20300 21.95700 40.18000
C  -15.20100 20.75400 40.29200
O  -15.09100 21.89400 39.87200
C  -16.57400 20.02800 40.19900
N  -13.60200 15.94700 42.85400
C  -14.73400 16.57700 42.42200
C  -15.97900 15.72300 42.71900
C  -15.31700 14.37800 43.23200
C  -13.85200 14.71400 43.24500
C  -17.05400 16.39200 43.66300
C  -15.69000 13.08500 42.45600
C  -16.12300 11.95300 43.39900
N  -10.92900 14.99100 43.03400
C  -11.49600 13.83600 43.52300
C  -10.51400 12.71900 43.68700
C  -9.30300 13.31700 43.17200
C  -9.61200 14.67300 42.78200
C  -10.80900 11.28400 44.09600
C  -7.99000 12.97000 42.82000
O  -7.28900 11.96500 42.92600
C  -7.37400 14.34000 42.30900
C  -6.32300 14.78000 43.34100
O  -6.66600 15.42500 44.33600
O  -5.03600 14.37300 43.09600
C  -4.04600 14.66200 44.07700
H  -9.81500 20.70900 41.03000
H  -15.79400 18.21200 41.66600
H  -13.31300 12.74700 43.93100
H  -6.51100 17.25500 41.92700
H  -7.42300 19.48600 40.51600
H  -8.11000 20.00400 43.12900
H  -6.88300 20.79400 42.21900
H  -6.43700 19.30400 43.00600
H  -7.37100 17.37800 38.98100
H  -7.27500 15.82800 39.76800
H  -4.98200 16.01800 39.86300
H  -5.00800 17.72400 40.27300
H  -12.71300 22.76000 40.71200
H  -12.57200 21.87000 39.15800
H  -11.13700 22.18400 40.20900
H  -16.49500 19.16700 39.53500
H  -17.28600 20.72600 39.75800
H  -17.09700 19.91700 41.14900
H  -16.43300 15.54700 41.74300
H  -15.53900 14.30900 44.29700
H  -17.98900 16.56800 43.13300
H  -16.59900 17.34600 43.93100
H  -17.05200 15.82600 44.59500
H  -14.89600 12.69600 41.81900
H  -16.60800 13.23000 41.88800
H  -17.16800 12.09700 43.67400
H  -15.62000 11.91200 44.36500
H  -15.97600 11.00200 42.88900
H  -9.83500 10.80000 44.17500
H  -11.24800 10.73700 43.26100
H  -11.30700 11.22700 45.06300
H  -6.78900 14.16800 41.40600
H  -3.87800 15.72700 43.92300
H  -3.14700 14.05600 43.97200
H  -4.33300 14.48500 45.11400

