158

Mg 54.91200 23.27200 44.74300
C  52.43100 25.49400 43.60700
C  53.02700 20.69500 43.82800
C  57.70000 21.20200 44.97700
C  56.99700 26.07100 45.31500
N  52.93900 23.16000 43.84200
C  52.06600 24.14700 43.39300
C  50.75900 23.48000 42.85200
C  50.83000 22.01000 43.40500
C  52.31900 21.94100 43.78000
C  49.89700 21.79100 44.69500
C  50.58600 23.51600 41.32100
C  49.09100 23.79800 41.00000
H  48.53500 23.34600 39.65300
N  55.31300 21.20600 44.57100
C  54.36800 20.33300 44.09800
C  54.94800 18.99100 44.00900
C  56.28200 19.09500 44.44300
C  56.49200 20.51600 44.76200
C  54.26900 17.79200 43.46200
C  57.36800 17.93000 44.43900
O  57.10000 16.75200 44.16400
C  58.75600 17.99500 44.94000
N  57.03300 23.58400 45.07800
C  57.93400 22.59000 45.18800
C  59.36300 23.08800 45.48500
C  59.16500 24.65000 45.67800
C  57.66500 24.78700 45.38200
C  60.01500 22.32200 46.69400
C  60.03700 25.58400 44.78500
C  60.54400 26.83400 45.44100
N  54.80700 25.35100 44.58000
C  55.72100 26.33600 44.86500
C  55.00400 27.56900 44.79100
C  53.75600 27.34800 44.17000
C  53.71300 25.99600 44.09200
C  55.45500 28.94100 45.11600
C  52.54000 27.91500 43.73900
O  52.14000 29.09900 43.76200
C  51.65700 26.78000 43.25400
C  51.55600 26.81100 41.75900
O  52.48400 26.73100 40.99600
O  50.31500 27.16700 41.33300
C  50.10300 27.63900 39.96400
H  52.44700 19.83900 43.47700
H  58.61500 20.60700 44.93600
H  57.68300 26.89400 45.52700
H  49.94700 24.02400 43.33500
H  50.65400 21.29100 42.60500
H  48.98800 21.41400 44.22700
H  49.56200 22.63400 45.29900
H  50.40600 21.08200 45.34900
H  50.82700 22.51200 40.97100
H  51.22100 24.24600 40.81900
H  49.06600 24.88000 40.87600
H  48.38600 23.46800 41.76400
H  54.95200 17.19400 42.85800
H  53.26200 17.81800 43.04600
H  53.96400 17.08900 44.23700
H  58.72900 18.44800 45.93200
H  59.30800 18.63700 44.25300
H  59.14000 16.97600 44.97700
H  60.06200 22.94200 44.66100
H  59.21100 24.90500 46.73700
H  59.43100 21.48300 47.07400
H  60.11800 22.99400 47.54500
H  60.92200 21.86200 46.30100
H  59.52000 25.95900 43.90200
H  60.94900 25.10300 44.43200
H  59.99900 27.63100 44.93600
H  61.61900 26.96600 45.31300
H  60.30200 26.79300 46.50300
H  56.52400 28.99600 45.32000
H  54.94600 29.31300 46.00500
H  55.21300 29.49500 44.20900
H  50.65400 26.67300 43.66700
H  49.35900 28.43600 39.95800
H  49.71800 26.75200 39.46000
H  50.99600 28.11600 39.56100
Mg 29.80900 57.60800 40.66400
C  26.92500 55.89600 39.63200
C  31.75400 55.07700 39.19700
C  32.52900 59.57200 41.02000
C  27.78000 60.26400 41.70500
N  29.33800 55.77000 39.48100
C  28.12400 55.26600 39.22800
C  28.27400 53.94300 38.49200
C  29.77100 53.57500 38.65600
C  30.34600 54.84000 39.20700
C  29.95200 52.35700 39.67800
C  27.70500 53.91500 37.03800
C  27.74800 55.19000 36.23600
H  26.73400 55.34500 35.05300
N  31.86600 57.33200 40.20900
C  32.43300 56.23600 39.58600
C  33.87600 56.52500 39.43200
C  34.10900 57.81900 39.93800
C  32.83300 58.28300 40.51200
C  34.82900 55.57600 38.66700
C  35.52500 58.43400 40.07700
O  36.47100 57.78500 39.63400
C  35.88100 59.72700 40.80800
N  30.03700 59.64800 41.19900
C  31.28000 60.15300 41.29400
C  31.20900 61.66400 41.64200
C  29.67200 61.91000 42.02100
C  29.11000 60.54100 41.58600
C  32.17700 62.21300 42.66700
C  28.87500 63.12600 41.47300
C  28.31500 63.99300 42.51700
N  27.81400 58.00700 40.90800
C  27.12400 59.06600 41.38200
C  25.68600 58.85100 41.35900
C  25.55500 57.60000 40.78100
C  26.90300 57.08200 40.50800
C  24.55300 59.82200 41.68200
C  24.65000 56.68300 40.17200
O  23.44100 56.70200 40.00300
C  25.47000 55.51600 39.56300
C  25.17100 54.24600 40.31400
O  25.46700 54.01500 41.46700
O  24.34600 53.39200 39.58900
C  24.06400 52.06200 40.26700
H  32.40500 54.23200 38.96400
H  33.33000 60.29200 40.84300
H  27.19900 61.15000 41.97300
H  27.66600 53.15600 38.93900
H  30.24900 53.20800 37.74800
H  30.26100 51.47300 39.11900
H  29.04900 52.07200 40.21800
H  30.69800 52.64800 40.41700
H  26.74400 53.40800 36.95200
H  28.29900 53.18800 36.48500
H  28.73800 55.19900 35.78100
H  27.58300 56.10200 36.81000
H  34.26900 54.76400 38.20300
H  35.51800 55.10700 39.36900
H  35.44800 56.06900 37.91700
H  35.66400 60.52800 40.10000
H  36.95800 59.82400 40.94400
H  35.31700 59.78000 41.73900
H  31.45200 62.15400 40.69900
H  29.69600 61.96200 43.10900
H  31.66500 62.84000 43.39800
H  33.00100 62.71500 42.16000
H  32.48700 61.31400 43.20000
H  27.99900 62.83100 40.89500
H  29.38800 63.78500 40.77300
H  27.24000 63.87500 42.65300
H  28.65000 65.02300 42.39000
H  28.75200 63.86800 43.50800
H  24.69500 60.44000 42.56900
H  23.58100 59.34000 41.58200
H  24.69700 60.47300 40.81900
H  25.25000 55.38400 38.50400
H  23.70800 52.21800 41.28500
H  24.96400 51.45800 40.38300
H  23.30300 51.50200 39.72400

