158

Mg -0.30100 43.88900 26.13100
C  1.81800 43.77100 28.81000
C  -2.91400 43.14000 28.41700
C  -2.41600 43.23600 23.61400
C  2.44900 44.42400 23.93200
N  -0.40500 43.27700 28.40600
C  0.51900 43.55200 29.27000
C  0.03400 43.50000 30.71600
C  -1.46100 43.15400 30.55200
C  -1.60800 43.17300 29.04800
C  -1.86300 41.85000 31.14900
C  0.31200 44.84400 31.47200
C  0.77900 44.77300 32.96700
H  0.51200 43.55600 33.82200
N  -2.37000 43.30900 26.02300
C  -3.28000 43.08700 27.06000
C  -4.51600 42.68500 26.50700
C  -4.35700 42.56300 25.10900
C  -3.01800 43.04200 24.83200
C  -5.73500 42.34500 27.38200
C  -5.33000 41.93600 24.14000
O  -5.07900 41.98900 22.94800
C  -6.64100 41.38700 24.48500
N  -0.01200 43.93500 24.10100
C  -1.07000 43.63700 23.27200
C  -0.54000 43.57600 21.86300
C  0.94300 44.05700 21.95100
C  1.15000 44.10900 23.41900
C  -0.69700 42.13600 21.16200
C  1.21800 45.38000 21.14100
C  1.10600 46.79900 21.77900
N  1.75600 44.18400 26.24300
C  2.70100 44.45600 25.32400
C  3.98100 44.54700 25.97300
C  3.67800 44.21000 27.35200
C  2.33000 44.02600 27.45900
C  5.34300 44.79600 25.25600
C  4.27300 43.92000 28.64200
O  5.41700 43.80800 29.08000
C  3.03300 43.80900 29.63900
C  3.18500 42.63400 30.44700
O  3.18400 41.53900 29.95000
O  3.52400 42.87400 31.78300
C  4.13700 41.78400 32.54600
H  -3.77400 42.90900 29.04900
H  -3.04000 42.96800 22.75900
H  3.25300 44.56400 23.20700
H  0.53500 42.63600 31.15400
H  -2.06200 43.95600 30.98200
H  -0.93800 41.47100 31.58200
H  -2.38100 41.22600 30.42100
H  -2.55200 41.92100 31.99100
H  -0.59300 45.45100 31.47100
H  1.06800 45.35900 30.87900
H  0.10300 45.50400 33.41100
H  1.81900 45.09100 33.03800
H  -6.67300 42.35000 26.82600
H  -5.88900 42.77800 28.37100
H  -5.45500 41.33200 27.67200
H  -6.62600 40.55000 25.18300
H  -6.97700 40.95800 23.54100
H  -7.52800 41.96800 24.73600
H  -1.08200 44.27900 21.23000
H  1.54300 43.21500 21.60500
H  0.25100 41.64600 20.94200
H  -1.31700 42.24600 20.27200
H  -1.32200 41.50800 21.79700
H  0.44400 45.29100 20.37800
H  2.17900 45.41300 20.62700
H  0.25600 47.30200 21.31700
H  1.98800 47.35000 21.45100
H  0.91500 46.85800 22.85100
H  5.38600 44.60900 24.18300
H  6.05500 44.17700 25.80300
H  5.61000 45.84400 25.39000
H  3.06800 44.78200 30.12800
H  4.45600 42.28200 33.46100
H  5.05600 41.41800 32.08600
H  3.40000 41.00800 32.75000
Mg -11.46800 15.65000 41.15000
C  -7.88600 15.13000 40.90200
C  -10.91600 18.86400 40.15500
C  -14.70100 15.83000 40.72800
C  -11.68700 12.15500 41.66500
N  -9.57700 16.79700 40.51900
C  -8.24500 16.43600 40.56900
C  -7.32900 17.50900 39.98500
C  -8.35600 18.72100 39.91900
C  -9.73300 18.08500 40.18200
C  -8.12800 19.79400 41.00600
C  -6.67200 17.10400 38.67800
C  -5.23800 17.36500 38.52500
H  -4.62600 17.52200 37.15800
N  -12.63200 17.16200 40.61300
C  -12.25400 18.46200 40.31200
C  -13.33900 19.29800 40.31200
C  -14.50600 18.51500 40.39600
C  -14.01400 17.07000 40.57800
C  -13.18800 20.74000 40.01800
C  -15.96500 18.99800 40.26500
O  -16.15300 20.21000 40.16700
C  -17.18400 18.08300 40.40200
N  -12.92700 14.11400 41.09900
C  -14.27800 14.47900 40.95600
C  -15.12100 13.38400 41.38800
C  -14.17600 12.15500 41.19400
C  -12.84700 12.86800 41.35800
C  -15.80000 13.62600 42.76800
C  -14.49100 11.28900 39.95300
C  -15.13900 9.92400 40.29900
N  -10.12900 13.94800 41.29300
C  -10.39600 12.62700 41.58300
C  -9.14900 11.85300 41.74000
C  -8.12700 12.85400 41.49100
C  -8.81700 14.10000 41.22600
C  -9.00500 10.36600 42.18200
C  -6.69700 13.06800 41.45200
O  -5.73800 12.40000 41.80600
C  -6.54700 14.53700 41.03300
C  -5.76700 15.16900 42.14900
O  -6.19600 15.36900 43.27000
O  -4.39900 15.27800 41.87200
C  -3.39200 15.47500 42.94100
H  -10.74500 19.87600 39.78200
H  -15.78300 15.93400 40.82500
H  -11.93300 11.10800 41.85200
H  -6.56200 17.70500 40.73400
H  -8.36600 19.18300 38.93200
H  -7.05900 20.00600 40.98100
H  -8.43500 19.41300 41.98000
H  -8.69200 20.70700 40.81500
H  -7.22900 17.68900 37.94700
H  -6.82400 16.03700 38.51500
H  -4.66200 16.69500 39.16200
H  -5.11900 18.29500 39.08100
H  -14.07400 21.35000 39.84400
H  -12.50300 20.91100 39.18800
H  -12.76800 21.25800 40.88000
H  -18.07000 18.68700 40.20700
H  -17.21200 17.69100 41.41900
H  -17.01900 17.20700 39.77400
H  -16.01600 13.31600 40.77000
H  -14.24300 11.65300 42.15900
H  -15.24500 13.29500 43.64600
H  -16.86400 13.39200 42.79500
H  -15.63600 14.69600 42.89400
H  -13.57900 11.07500 39.39500
H  -15.15600 11.96500 39.41500
H  -14.38400 9.14200 40.37800
H  -15.92000 9.72500 39.56500
H  -15.62200 9.97400 41.27500
H  -9.63000 9.86000 41.44700
H  -9.55700 10.31600 43.12000
H  -7.94400 10.12200 42.11600
H  -6.00200 14.48800 40.09000
H  -2.85100 16.39800 42.73200
H  -2.83200 14.55800 43.12700
H  -3.90200 15.68600 43.88100

