158

Mg -1.63600 17.44200 27.43100
C  -2.08600 15.20800 30.13500
C  -2.42400 19.98600 29.58500
C  -1.85200 19.66500 24.85100
C  -1.77300 14.85400 25.25800
N  -2.28100 17.49500 29.61600
C  -2.33600 16.48700 30.51100
C  -2.58700 17.02200 31.99600
C  -2.61600 18.58300 31.75600
C  -2.50500 18.71000 30.21900
C  -3.90300 19.23000 32.28200
C  -1.55400 16.56100 32.99200
C  -1.25200 17.45200 34.19200
H  -0.53000 16.79500 35.33900
N  -1.75800 19.57000 27.32200
C  -2.21000 20.44000 28.24700
C  -2.16400 21.85300 27.77300
C  -1.72500 21.64600 26.39400
C  -1.79700 20.25500 26.12200
C  -2.39100 23.13500 28.59600
C  -1.32700 22.68400 25.39100
O  -0.99200 22.45700 24.27700
C  -1.16900 24.06600 25.92900
N  -1.98000 17.32300 25.32900
C  -2.01200 18.36900 24.46000
C  -1.92800 17.79300 23.04900
C  -1.85700 16.23000 23.19000
C  -1.89600 16.10200 24.70800
C  -3.03600 18.19300 22.09600
C  -0.56700 15.53300 22.71600
C  0.70900 15.97800 23.52000
N  -1.74000 15.43900 27.61100
C  -1.77000 14.52400 26.63300
C  -1.78600 13.20000 27.25700
C  -1.91700 13.41000 28.61500
C  -1.87500 14.81100 28.79300
C  -1.82100 11.94900 26.57400
C  -2.09400 12.70300 29.84700
O  -2.20500 11.52600 30.10000
C  -2.08500 13.89000 30.97700
C  -0.88800 13.71100 31.75400
O  0.20400 14.17500 31.42300
O  -1.16900 13.07900 32.90900
C  0.09900 12.77500 33.63800
H  -2.44400 20.85400 30.24700
H  -1.65900 20.31300 23.99300
H  -1.82700 14.08300 24.48600
H  -3.54900 16.63100 32.32800
H  -1.69500 19.02900 32.12900
H  -4.44800 18.52800 32.91300
H  -4.45100 19.69100 31.46100
H  -3.57100 19.97300 33.00800
H  -0.68000 16.41100 32.35800
H  -1.82300 15.55000 33.29900
H  -2.19900 17.92700 34.44600
H  -0.64800 18.28800 33.83900
H  -3.06100 22.73500 29.35700
H  -3.02200 23.83000 28.04300
H  -1.49700 23.55600 29.05600
H  -2.13300 24.41200 26.30100
H  -0.88400 24.70700 25.09500
H  -0.30200 24.00100 26.58700
H  -0.98900 18.20000 22.67100
H  -2.63200 15.63500 22.70700
H  -3.30100 19.22800 22.31200
H  -3.91800 17.58500 22.30200
H  -2.73400 18.10200 21.05300
H  -0.44200 15.81500 21.67100
H  -0.59900 14.44500 22.67100
H  0.52400 16.85800 24.13600
H  1.52400 16.28500 22.86500
H  1.12300 15.14000 24.08000
H  -1.37800 12.02000 25.58100
H  -2.80800 11.48600 26.60700
H  -1.16200 11.27800 27.12500
H  -2.94500 13.74700 31.63200
H  -0.14900 12.46900 34.65500
H  0.69200 13.68900 33.67800
H  0.73200 11.98200 33.24000
Mg 41.44100 40.86200 27.38000
C  40.72200 43.18400 29.82900
C  42.66500 38.59700 29.76200
C  42.71600 38.74100 24.89100
C  40.81500 43.39200 24.98700
N  41.49400 40.83500 29.56600
C  41.12400 41.88700 30.39600
C  41.16900 41.51400 31.90400
C  41.76300 40.06800 31.84800
C  42.08800 39.81100 30.26200
C  43.09500 39.89800 32.60400
C  39.76400 41.53400 32.69600
C  39.82700 42.14100 34.11600
H  38.94000 41.54600 35.25400
N  42.42500 38.91600 27.35500
C  42.83300 38.17600 28.43200
C  43.31800 36.88600 28.01400
C  43.21000 36.88200 26.57900
C  42.80600 38.27800 26.23300
C  43.63600 35.78700 29.00400
C  43.46100 35.73100 25.59900
O  43.10700 35.76200 24.41300
C  44.01900 34.44000 26.13900
N  41.70900 41.08000 25.28000
C  42.21800 40.00700 24.44900
C  41.98700 40.37900 22.95900
C  41.55500 41.90400 23.03100
C  41.28400 42.17800 24.54400
C  43.00400 40.18900 21.86900
C  40.34100 42.20100 22.14000
C  38.90400 41.82800 22.62500
N  40.89400 42.92600 27.36400
C  40.74700 43.82700 26.34000
C  40.44700 45.12000 26.86600
C  40.36900 44.89200 28.25500
C  40.67800 43.54900 28.47900
C  40.25300 46.39000 26.11100
C  40.16800 45.52300 29.56900
O  39.90700 46.67400 29.94900
C  40.40500 44.39300 30.63600
C  41.54100 44.91900 31.47200
O  42.67400 45.27900 31.20700
O  41.00800 45.16800 32.74000
C  41.75300 45.97700 33.71500
H  42.92800 37.92500 30.58100
H  43.04900 38.13100 24.04800
H  40.60900 43.99000 24.09800
H  41.88100 42.18900 32.37900
H  40.99100 39.34200 32.10600
H  42.94600 39.19100 33.42000
H  43.42300 40.86100 32.99700
H  43.85000 39.53500 31.90700
H  39.40600 40.53600 32.94900
H  39.05400 41.97700 31.99700
H  39.64200 43.21400 34.06200
H  40.88100 42.13100 34.39400
H  43.09300 34.86400 28.79900
H  43.39100 36.03500 30.03600
H  44.70300 35.56400 29.00200
H  43.22800 33.92900 26.68800
H  44.90500 34.53500 26.76600
H  44.23100 33.80200 25.28200
H  41.06300 39.87600 22.67500
H  42.38000 42.52400 22.68200
H  43.25500 41.14000 21.39800
H  42.63800 39.50100 21.10800
H  43.88900 39.78800 22.36300
H  40.54500 41.63400 21.23200
H  40.34500 43.24400 21.82300
H  38.81200 41.19700 23.51000
H  38.54200 41.18000 21.82700
H  38.23700 42.69000 22.63800
H  40.74000 46.34600 25.13600
H  40.68000 47.16300 26.75000
H  39.17600 46.51400 26.00600
H  39.49300 44.22500 31.20900
H  42.03900 45.22100 34.44700
H  41.11900 46.74500 34.15600
H  42.73000 46.29900 33.35300

