158

Mg 26.02900 0.89100 28.80800
C  27.77100 0.85600 31.85400
C  23.03900 1.11300 30.68000
C  24.32200 0.80900 25.90100
C  28.96300 0.00100 27.19900
N  25.50400 1.15600 31.03900
C  26.38700 1.09500 32.06400
C  25.61000 1.19000 33.40900
C  24.09000 1.26600 33.02900
C  24.21500 1.27700 31.48600
C  23.27600 0.02400 33.61000
C  26.06200 2.55000 34.25100
C  26.86500 2.25700 35.55800
H  26.72900 3.21300 36.73400
N  24.02200 0.99000 28.33800
C  22.96900 1.08000 29.25300
C  21.75300 0.98000 28.54100
C  22.05000 0.94800 27.18800
C  23.51600 0.89700 27.07300
C  20.40900 1.00300 29.25400
C  21.01300 0.72900 26.06100
O  21.36900 0.67900 24.92000
C  19.54300 0.61600 26.28900
N  26.61700 0.50700 26.84900
C  25.73200 0.74000 25.82000
C  26.51800 0.77500 24.50100
C  28.01600 0.69800 24.96800
C  27.85500 0.35900 26.43200
C  26.11200 -0.42700 23.62600
C  28.75300 2.06300 24.68800
C  30.21400 1.86200 24.33600
N  28.00800 0.46000 29.33700
C  29.03700 -0.00700 28.60900
C  30.20100 -0.20400 29.45100
C  29.73500 0.02400 30.73000
C  28.36800 0.50900 30.60300
C  31.58900 -0.72100 28.94700
C  30.14700 0.17200 32.11100
O  31.23600 -0.08800 32.57600
C  28.93300 0.63400 32.90000
C  28.58300 -0.22900 34.06900
O  27.84100 -1.20000 34.06300
O  29.34400 0.07900 35.15900
C  29.11800 -0.83200 36.29900
H  22.12800 1.08700 31.28200
H  23.77800 0.91100 24.96000
H  29.90000 -0.25500 26.70100
H  25.78300 0.29000 33.99900
H  23.74900 2.23300 33.39900
H  23.83200 -0.59900 34.31100
H  22.90700 -0.65300 32.83900
H  22.43300 0.41600 34.17800
H  25.26400 3.26000 34.46700
H  26.66300 2.96100 33.43900
H  27.93600 2.38100 35.39900
H  26.69300 1.23800 35.90300
H  19.84200 1.84600 28.85800
H  20.36700 1.12600 30.33600
H  19.86700 0.07600 29.06600
H  19.26200 -0.28300 26.83800
H  19.11100 0.33300 25.32900
H  19.19400 1.61800 26.53900
H  26.34600 1.73300 24.01200
H  28.56000 -0.11900 24.49400
H  25.56900 -0.01500 22.77500
H  25.57000 -1.25600 24.08000
H  26.99200 -0.96000 23.26700
H  28.64400 2.75100 25.52600
H  28.35400 2.56700 23.80700
H  30.83300 2.29900 25.12000
H  30.42100 2.28800 23.35400
H  30.42100 0.80100 24.19600
H  32.16900 0.12600 28.58300
H  31.42600 -1.36300 28.08100
H  32.06800 -1.29000 29.74400
H  29.34900 1.56700 33.28000
H  28.22100 -0.67000 36.89700
H  29.87800 -0.68900 37.06700
H  29.19400 -1.87700 35.99800
Mg 7.66100 53.42900 41.10100
C  7.07700 49.97400 40.66100
C  10.75600 52.94700 40.00400
C  7.83600 56.75800 40.52000
C  4.20400 53.83600 41.86100
N  8.72100 51.62500 40.31300
C  8.40700 50.29600 40.27900
C  9.61500 49.39000 40.07000
C  10.76400 50.43800 40.16300
C  10.07300 51.80800 40.11300
C  11.78500 50.33100 41.33300
C  9.68400 48.30200 38.96100
C  9.77700 48.84200 37.55000
H  8.48300 48.62400 36.77100
N  9.17500 54.73400 40.43200
C  10.36200 54.27400 40.11000
C  11.27400 55.39900 39.93600
C  10.46100 56.60300 40.07400
C  9.10000 56.08100 40.41800
C  12.72800 55.26200 39.68400
C  10.99000 57.97600 39.84700
O  12.13600 58.23400 39.47200
C  10.04300 59.13000 39.86400
N  6.13100 55.04400 41.00500
C  6.52200 56.33700 40.89400
C  5.36100 57.27600 41.14200
C  4.21200 56.35300 41.71800
C  4.85700 54.99100 41.43900
C  5.76500 58.56500 42.02900
C  2.84900 56.59300 41.00800
C  1.74500 56.88300 42.06000
N  5.95200 52.17900 41.22400
C  4.64000 52.47700 41.64700
C  3.90100 51.24400 41.79700
C  4.83600 50.24400 41.43500
C  6.04200 50.84700 41.07600
C  2.51000 51.04000 42.26200
C  4.98800 48.74700 41.26300
O  4.21400 47.77200 41.42000
C  6.38600 48.58500 40.76200
C  6.23800 47.85100 39.54300
O  5.76600 48.42300 38.54800
O  6.68100 46.54500 39.57300
C  6.53100 45.79300 38.30600
H  11.76800 52.80700 39.61800
H  7.88500 57.82500 40.29300
H  3.12600 53.90500 42.01800
H  9.49400 48.75800 40.94900
H  11.36700 50.35200 39.25900
H  12.54400 49.85900 40.70900
H  11.48400 49.55200 42.03300
H  12.23200 51.22300 41.77100
H  8.80300 47.67200 39.07900
H  10.53500 47.63300 39.09300
H  10.69600 48.45600 37.10700
H  9.93500 49.91900 37.49300
H  12.98000 54.94000 38.67400
H  13.01300 54.45900 40.36500
H  13.31500 56.13700 39.96500
H  10.53500 60.06900 39.60900
H  9.64500 59.13400 40.87900
H  9.18500 58.80900 39.27400
H  5.04500 57.59700 40.15000
H  4.16500 56.40500 42.80600
H  6.60100 58.32800 42.68700
H  4.98000 58.74900 42.76200
H  5.97900 59.45500 41.43800
H  2.55800 55.64100 40.56400
H  2.91100 57.33100 40.20800
H  1.63000 57.93000 42.34300
H  1.89700 56.46200 43.05400
H  0.81200 56.45900 41.68700
H  2.38500 50.01500 42.61100
H  1.88900 51.27200 41.39700
H  2.12700 51.56000 43.14000
H  6.91800 47.94000 41.46100
H  5.95200 46.30900 37.54000
H  6.04800 44.86300 38.60500
H  7.49900 45.38500 38.01400

