158

Mg 1.73300 7.52600 25.58900
C  2.21100 9.59800 28.33700
C  2.22300 4.84700 27.77200
C  1.16700 5.56900 23.00400
C  1.71400 10.43000 23.55300
N  2.07500 7.25600 27.82400
C  2.19900 8.26200 28.77300
C  2.22400 7.74600 30.19600
C  2.75500 6.22400 29.96000
C  2.47200 6.09000 28.42000
C  4.22700 5.86200 30.33500
C  0.85300 7.86800 30.98500
C  0.84300 7.70000 32.52700
H  2.08800 7.02200 33.15400
N  1.68300 5.48400 25.42900
C  1.76300 4.54700 26.45100
C  1.58600 3.18100 25.89500
C  1.21900 3.41400 24.49800
C  1.37800 4.88400 24.24500
C  1.59400 1.87100 26.78900
C  0.85300 2.35400 23.34900
O  0.59800 2.66300 22.16700
C  0.71800 0.96900 23.74600
N  1.78900 7.90600 23.46300
C  1.35500 6.92900 22.65000
C  0.92500 7.44400 21.26900
C  0.80200 8.98100 21.56500
C  1.46200 9.14200 22.95200
C  1.95800 7.06300 20.08200
C  -0.65600 9.59600 21.52400
C  -0.92300 10.41100 20.22500
N  1.99100 9.55600 25.82500
C  2.02500 10.56400 24.89900
C  2.31300 11.82400 25.58100
C  2.47800 11.51200 26.93100
C  2.19000 10.07600 27.03200
C  2.30300 13.20700 25.04000
C  2.60600 12.02700 28.28700
O  2.84300 13.15600 28.73700
C  2.41400 10.83800 29.21300
C  3.67800 10.74200 30.03800
O  4.72100 10.13700 29.74500
O  3.35000 11.20800 31.28900
C  4.53500 11.15800 32.17200
H  2.50200 3.99400 28.39400
H  0.93100 4.97100 22.12200
H  1.63500 11.36900 23.00100
H  2.99100 8.26500 30.77100
H  1.95300 5.64900 30.42500
H  4.79500 6.72100 30.69300
H  4.73600 5.47500 29.45200
H  4.32300 5.16400 31.16700
H  0.18600 7.23700 30.39800
H  0.54400 8.87800 30.71700
H  -0.05800 7.18600 32.86300
H  0.89900 8.70100 32.95500
H  0.65800 1.37100 26.53800
H  1.58200 1.92500 27.87700
H  2.40700 1.20500 26.50200
H  0.24700 0.39100 22.95000
H  -0.01600 1.04300 24.54800
H  1.64000 0.58500 24.18300
H  -0.07300 7.11000 20.98600
H  1.39700 9.49100 20.80700
H  2.46000 7.97300 19.75300
H  1.49000 6.49900 19.27500
H  2.73400 6.42100 20.49900
H  -0.75200 10.25700 22.38500
H  -1.37800 8.78700 21.63400
H  -1.91600 10.23700 19.81000
H  -0.30100 10.04000 19.41100
H  -0.74500 11.45800 20.47100
H  2.33700 13.22400 23.95000
H  3.21000 13.66800 25.43100
H  1.46100 13.76600 25.44800
H  1.44500 10.98600 29.69100
H  4.89500 10.13400 32.27500
H  4.29300 11.61300 33.13200
H  5.34400 11.76400 31.76500
Mg 29.77700 59.50100 39.64100
C  26.78200 57.88100 38.79100
C  31.36900 56.70300 38.47500
C  32.47400 61.23000 39.41400
C  27.88000 62.51100 40.12700
N  29.12200 57.47100 38.85100
C  27.90800 57.05300 38.53400
C  27.86000 55.74200 37.80800
C  29.29900 55.23900 38.17200
C  29.99500 56.55000 38.47600
C  29.25300 54.24600 39.36300
C  27.73600 55.85700 36.22200
C  26.43700 55.26300 35.68700
H  25.65600 56.09500 34.64400
N  31.65800 58.98500 39.31400
C  32.15300 57.83500 38.82300
C  33.56800 57.93000 38.69500
C  33.99200 59.21300 39.08400
C  32.71900 59.88300 39.29600
C  34.52300 56.73300 38.21100
C  35.43200 59.87100 39.12600
O  36.36200 59.24800 38.65700
C  35.67200 61.21100 39.79100
N  30.08500 61.54000 39.75800
C  31.34500 62.00100 39.69200
C  31.36100 63.50600 39.88200
C  29.92900 63.87000 40.25600
C  29.21200 62.57300 40.02900
C  32.47500 64.10000 40.80200
C  29.29300 65.04000 39.39200
C  28.62700 66.26400 40.20700
N  27.67100 60.11900 39.67100
C  27.07000 61.32900 39.91900
C  25.61700 61.09500 39.72900
C  25.48200 59.72700 39.33700
C  26.74100 59.22200 39.30000
C  24.48600 62.12600 39.90400
C  24.51300 58.75100 38.84600
O  23.30500 58.74600 38.75400
C  25.31400 57.47000 38.41400
C  24.89500 56.30000 39.15000
O  25.21500 55.92500 40.28600
O  24.12800 55.52000 38.36700
C  23.33500 54.55600 39.15600
H  31.72900 55.76800 38.04100
H  33.31500 61.89700 39.21500
H  27.21200 63.37000 40.21200
H  26.99800 55.19500 38.19100
H  29.81400 54.68600 37.38700
H  29.85800 54.70600 40.14400
H  29.73600 53.27500 39.25300
H  28.23900 53.96600 39.64700
H  28.61100 55.48100 35.69300
H  27.74600 56.88700 35.86400
H  25.82800 54.87800 36.50600
H  26.65100 54.40900 35.04400
H  34.07000 55.81000 38.57000
H  35.50200 56.85200 38.67700
H  34.64200 56.59600 37.13600
H  36.63300 61.22000 40.30700
H  34.92400 61.48000 40.53700
H  35.80400 61.84400 38.91400
H  31.55200 63.82500 38.85700
H  29.92500 64.10300 41.32100
H  33.02600 64.82500 40.20200
H  33.08600 63.29400 41.20900
H  32.02200 64.53000 41.69500
H  28.52000 64.58700 38.77200
H  30.03600 65.42900 38.69600
H  27.65900 66.56200 39.80400
H  29.34600 67.08300 40.23600
H  28.55400 65.76000 41.17000
H  24.91400 63.08800 40.18400
H  23.96100 61.98300 40.84900
H  23.81900 62.04600 39.04600
H  25.24900 57.25300 37.34800
H  22.94500 54.85200 40.13000
H  23.91500 53.65700 39.36500
H  22.46800 54.27000 38.56100

