158

Mg 8.43400 3.59700 27.32400
C  9.58400 2.26700 30.36000
C  6.50600 5.72600 29.01600
C  7.12300 4.35700 24.40800
C  10.05300 0.73500 25.69900
N  8.06100 3.94100 29.42100
C  8.82500 3.40700 30.47500
C  8.34600 4.00600 31.79900
C  7.22500 5.00900 31.42800
C  7.25200 4.91900 29.87300
C  5.84600 4.58200 31.94900
C  9.43400 4.63900 32.61300
C  9.16600 4.77100 34.11600
H  10.38900 4.88100 35.09800
N  7.21100 4.98400 26.77500
C  6.47400 5.76800 27.59600
C  5.74900 6.67600 26.79900
C  5.85300 6.29700 25.48600
C  6.77400 5.17000 25.48200
C  4.95600 7.76900 27.50300
C  5.21100 6.87800 24.32600
O  5.45700 6.42000 23.20500
C  4.40400 8.07200 24.41900
N  8.76100 2.74700 25.32600
C  8.11300 3.31600 24.28500
C  8.31700 2.49700 22.98300
C  9.19600 1.30400 23.34800
C  9.36700 1.61500 24.87000
C  6.97900 2.13800 22.27900
C  10.61900 1.15200 22.66400
C  10.68900 0.10700 21.53000
N  9.67700 1.94100 27.84000
C  10.28400 0.91000 27.08900
C  11.12300 0.05900 27.94200
C  10.89300 0.59500 29.22800
C  10.00300 1.68300 29.11200
C  11.93900 -1.06600 27.32500
C  11.22600 0.45500 30.65200
O  11.92000 -0.31500 31.27200
C  10.40600 1.58300 31.48400
C  9.72900 0.89700 32.51300
O  8.84800 0.06200 32.24300
O  10.27900 1.16500 33.72300
C  9.72600 0.39600 34.84600
H  5.88700 6.47000 29.52300
H  6.91500 4.61600 23.36800
H  10.59400 -0.07200 25.20000
H  7.84700 3.18200 32.30900
H  7.46900 6.01800 31.75900
H  5.22800 4.10300 31.18900
H  5.22800 5.42300 32.26500
H  5.88700 3.93700 32.82600
H  9.49200 5.68200 32.30200
H  10.43300 4.26500 32.38900
H  8.66900 3.81600 34.28800
H  8.48400 5.57700 34.38900
H  4.93600 8.68200 26.91000
H  5.17300 7.94700 28.55700
H  3.93300 7.39100 27.50100
H  3.96000 8.27800 23.44500
H  5.08200 8.86900 24.72800
H  3.64700 7.79800 25.15400
H  8.72300 3.21600 22.27100
H  8.60000 0.39400 23.27900
H  6.11300 2.36500 22.90000
H  6.92000 1.05600 22.16800
H  6.96400 2.59100 21.28800
H  11.41600 0.90500 23.36600
H  10.82000 2.08900 22.14500
H  9.72000 -0.36800 21.37500
H  11.39500 -0.70000 21.72500
H  10.93600 0.61800 20.60000
H  12.70400 -1.49300 27.97300
H  12.40700 -0.62100 26.44700
H  11.24500 -1.87700 27.10100
H  11.20600 2.18500 31.91600
H  9.36200 -0.60700 34.62200
H  8.89100 0.84900 35.38200
H  10.48700 0.22100 35.60700
Mg 36.86500 50.17200 25.27400
C  37.00100 47.89700 27.89000
C  35.67600 52.60800 27.55000
C  35.96800 52.04000 22.77200
C  37.59700 47.57600 23.07700
N  36.31300 50.16500 27.42200
C  36.55600 49.20900 28.26300
C  36.37200 49.72200 29.67300
C  35.65600 51.09800 29.50500
C  35.80300 51.29700 28.08400
C  34.18100 51.24600 30.10600
C  37.75700 49.70400 30.54100
C  37.61500 48.91800 31.84100
H  36.29900 49.03000 32.58800
N  36.03500 52.12500 25.17700
C  35.57900 52.95100 26.18100
C  35.18100 54.18300 25.56900
C  35.24500 54.02500 24.13800
C  35.78800 52.75200 23.99000
C  34.77900 55.37300 26.37600
C  34.79700 55.03600 23.05600
O  34.69600 54.71400 21.88900
C  34.47200 56.49800 23.46500
N  36.71700 49.77500 23.15500
C  36.40500 50.76800 22.41000
C  36.76400 50.48000 20.91700
C  37.47900 49.03100 21.04100
C  37.22500 48.75300 22.52900
C  35.49000 50.55800 20.02900
C  38.94800 48.90900 20.53700
C  39.12900 47.65300 19.61000
N  37.24100 48.10600 25.38100
C  37.54000 47.22100 24.47000
C  37.65100 45.94600 25.06300
C  37.47500 46.18100 26.41600
C  37.18200 47.49600 26.57600
C  38.14900 44.73100 24.36300
C  37.46300 45.55500 27.66400
O  37.65600 44.42100 28.06000
C  37.23100 46.69200 28.76800
C  35.99900 46.45600 29.59000
O  34.85300 46.89200 29.34300
O  36.38700 45.61400 30.62200
C  35.35600 45.04300 31.39500
H  35.39400 53.33000 28.32000
H  36.01900 52.64000 21.86100
H  37.92800 46.83900 22.34300
H  35.67600 49.03700 30.15700
H  36.15100 51.86000 30.10700
H  34.05800 52.29200 30.38500
H  33.97100 50.80800 31.08100
H  33.38700 50.96900 29.41300
H  38.18100 50.67100 30.81000
H  38.53600 49.11800 30.05500
H  38.33000 49.36900 32.52900
H  37.79000 47.85700 31.66100
H  35.21300 56.30000 26.00300
H  34.98800 55.20900 27.43300
H  33.69000 55.38800 26.32400
H  33.68600 56.56800 24.21700
H  34.16600 56.90800 22.50200
H  35.31100 57.09800 23.81600
H  37.54800 51.14600 20.55800
H  36.71900 48.37200 20.62100
H  35.28200 51.62100 19.90800
H  34.72300 50.06500 20.62700
H  35.83100 50.12600 19.08900
H  39.71300 49.00200 21.30700
H  39.15600 49.73000 19.85200
H  40.05300 47.10900 19.80100
H  39.06800 48.01600 18.58400
H  38.36100 46.90100 19.79200
H  37.45000 44.32100 23.63400
H  38.44300 44.00400 25.12000
H  39.03100 44.97400 23.77000
H  38.10300 46.71600 29.42100
H  34.51700 45.71000 31.59400
H  35.67900 44.74800 32.39300
H  34.83700 44.18400 30.97000

