158

Mg -2.00100 17.36300 26.57700
C  -2.63100 15.25900 29.28000
C  -2.85700 20.03800 28.62600
C  -1.52500 19.34700 23.99900
C  -1.53000 14.55000 24.69700
N  -2.67300 17.51600 28.67000
C  -2.82200 16.59200 29.58100
C  -3.03300 17.14300 30.98600
C  -3.29200 18.69300 30.69000
C  -2.95800 18.79100 29.21700
C  -4.57900 19.32100 31.28000
C  -1.83300 16.96500 32.03800
C  -2.32900 16.59200 33.50000
H  -1.30300 16.61900 34.59400
N  -2.26600 19.43400 26.28200
C  -2.53100 20.37600 27.28100
C  -2.41700 21.67200 26.69400
C  -2.01500 21.55500 25.37600
C  -1.95700 20.03500 25.17300
C  -2.95100 22.92100 27.38700
C  -1.87200 22.60000 24.30100
O  -1.66600 22.33300 23.12000
C  -1.64800 23.99700 24.69500
N  -1.74000 17.01900 24.53000
C  -1.57500 17.98300 23.62900
C  -1.22100 17.38800 22.22700
C  -0.90100 15.90300 22.58100
C  -1.40600 15.78600 24.05300
C  -2.21800 17.68600 21.05300
C  0.53000 15.54600 22.18000
C  1.69100 15.92500 23.14200
N  -2.17600 15.30900 26.81100
C  -1.99800 14.29300 25.94400
C  -2.25500 12.98700 26.57200
C  -2.54700 13.32900 27.92600
C  -2.42900 14.74100 27.98400
C  -2.11100 11.66200 25.88800
C  -2.84800 12.79100 29.23000
O  -2.99800 11.65700 29.62300
C  -2.92300 14.04800 30.14300
C  -1.78700 13.83400 31.05700
O  -0.60600 14.02600 30.79500
O  -2.18000 13.41800 32.30900
C  -1.16600 13.25500 33.29500
H  -3.17500 20.77400 29.36700
H  -1.22300 19.97400 23.15800
H  -1.14500 13.66700 24.18400
H  -3.88500 16.60900 31.40700
H  -2.51200 19.25800 31.20000
H  -5.13400 18.57000 31.84200
H  -5.27600 19.76800 30.57100
H  -4.19300 20.08400 31.95600
H  -1.29700 17.89500 32.22600
H  -1.11600 16.20800 31.72000
H  -2.63000 15.55500 33.34600
H  -3.15100 17.24400 33.79300
H  -3.31900 22.73900 28.39700
H  -3.76000 23.40100 26.83700
H  -2.08000 23.54900 27.57500
H  -2.56600 24.35700 25.15900
H  -1.43500 24.49500 23.74900
H  -0.82700 24.13100 25.39800
H  -0.24600 17.76900 21.92400
H  -1.60500 15.31700 21.99100
H  -3.22400 17.34900 21.30500
H  -1.81100 17.19300 20.17000
H  -2.37300 18.76300 20.99500
H  0.71700 15.60800 21.10800
H  0.39500 14.46500 22.21900
H  2.36300 16.40700 22.43200
H  2.11400 15.02000 23.58000
H  1.33100 16.56900 23.94400
H  -1.42200 11.79900 25.05400
H  -3.05400 11.21000 25.58100
H  -1.61200 11.02200 26.61600
H  -3.84500 14.08500 30.72300
H  -1.63300 13.16400 34.27600
H  -0.47300 14.09600 33.28400
H  -0.64100 12.39100 32.88800
Mg 17.19800 -1.04500 28.23400
C  15.84700 0.83500 30.86000
C  18.96900 -2.83400 30.45800
C  18.89700 -2.27800 25.73300
C  15.56100 1.22800 25.94900
N  17.55000 -0.77300 30.37500
C  16.79600 -0.09500 31.30100
C  17.06100 -0.57600 32.70700
C  18.26500 -1.48200 32.54200
C  18.25700 -1.73600 31.04500
C  19.56200 -0.94100 33.14000
C  15.85800 -1.25400 33.39200
C  15.53400 -1.09700 34.86700
H  16.51400 -0.28800 35.73700
N  18.63600 -2.49000 28.06900
C  19.21600 -3.21100 29.08000
C  20.04400 -4.26900 28.56400
C  19.95900 -4.23600 27.11000
C  19.08000 -3.00700 26.90700
C  20.71000 -5.27900 29.47400
C  20.42400 -5.12100 26.05900
O  20.12500 -5.06200 24.85500
C  21.31600 -6.28900 26.50700
N  17.42100 -0.35300 26.15000
C  18.17200 -1.13800 25.37300
C  18.04900 -0.65700 23.92000
C  16.85400 0.33100 23.90500
C  16.51800 0.36700 25.38800
C  19.37900 -0.19100 23.22100
C  15.55800 -0.06300 23.05200
C  15.46400 0.32000 21.60100
N  15.95400 0.61500 28.34600
C  15.47500 1.44300 27.35300
C  14.54900 2.38900 27.98900
C  14.67000 2.16000 29.33000
C  15.57800 1.16300 29.50000
C  13.62800 3.33100 27.25800
C  14.20900 2.55100 30.59400
O  13.56400 3.54300 30.85100
C  14.86000 1.63300 31.65100
C  15.55100 2.48400 32.64700
O  16.59900 3.11700 32.45000
O  14.67600 2.53300 33.72800
C  15.07600 3.55700 34.71800
H  19.62400 -3.37000 31.14900
H  19.44500 -2.78500 24.93500
H  14.93000 1.87600 25.33700
H  17.38300 0.32600 33.22800
H  18.09600 -2.47800 32.95000
H  20.37800 -0.95500 32.41800
H  19.84000 -1.61000 33.95400
H  19.53100 0.08200 33.51400
H  15.58900 -2.28800 33.17900
H  14.96200 -0.81700 32.95300
H  15.25400 -2.09600 35.20300
H  14.59100 -0.55400 34.92800
H  21.77100 -5.04500 29.56300
H  20.63800 -6.29000 29.07200
H  20.19100 -5.29100 30.43200
H  21.89900 -6.67800 25.67200
H  20.74600 -7.13600 26.89000
H  22.14000 -5.92100 27.11800
H  17.73300 -1.47100 23.26900
H  17.22600 1.28000 23.52000
H  20.22800 -0.42200 23.86500
H  19.32900 0.88900 23.08500
H  19.56400 -0.69300 22.27200
H  14.63500 0.32300 23.48400
H  15.48300 -1.12700 23.27500
H  15.76400 -0.57300 21.05300
H  16.10600 1.13900 21.27500
H  14.43700 0.60100 21.36400
H  13.51800 3.25200 26.17600
H  14.04800 4.33100 27.37300
H  12.64800 3.38300 27.73200
H  14.06000 1.03000 32.08100
H  15.69100 3.00200 35.42700
H  14.16100 3.89600 35.20400
H  15.54500 4.41800 34.24100

