158

Mg 29.91800 58.17600 41.21600
C  26.97200 56.63900 39.89700
C  31.73000 55.45600 39.80300
C  32.62500 59.91400 41.69500
C  27.94400 61.01800 42.01300
N  29.42600 56.20600 40.04000
C  28.13600 55.90300 39.63200
C  28.16700 54.55400 38.78700
C  29.62200 54.01100 39.17300
C  30.35500 55.33900 39.70400
C  29.55800 52.87200 40.26500
C  28.04500 54.85000 37.28100
C  27.35200 53.82100 36.36800
H  27.92500 53.57200 34.95300
N  31.88300 57.66200 40.98400
C  32.43500 56.56300 40.33300
C  33.89100 56.77900 40.31700
C  34.17600 58.03800 40.84300
C  32.85800 58.56300 41.23500
C  34.89100 55.66100 39.98400
C  35.61700 58.54200 41.14600
O  36.61300 57.88400 40.94700
C  35.87300 59.92700 41.75100
N  30.13400 60.23100 41.71200
C  31.41300 60.63500 41.90700
C  31.56800 62.11800 42.22800
C  30.02900 62.46300 42.32600
C  29.30400 61.14900 42.10100
C  32.45800 62.46300 43.47700
C  29.57700 63.64700 41.43400
C  29.10000 64.90300 42.22000
N  27.83400 58.73500 41.06900
C  27.25600 59.85200 41.57400
C  25.79600 59.70700 41.39300
C  25.66800 58.53700 40.63700
C  26.95400 57.91600 40.56100
C  24.76500 60.70800 41.92500
C  24.67700 57.59500 40.16000
O  23.46100 57.72600 40.20200
C  25.50000 56.37100 39.48500
C  24.95300 55.12000 40.13800
O  25.32500 54.70400 41.24900
O  24.09100 54.37700 39.33400
C  23.50600 53.21300 40.00700
H  32.34000 54.57600 39.59000
H  33.53800 60.50100 41.81800
H  27.45600 61.95900 42.27300
H  27.32000 53.92700 39.06500
H  30.15700 53.64600 38.29600
H  28.52700 52.85000 40.61500
H  30.25500 53.12900 41.06300
H  29.83600 51.88100 39.90500
H  29.07700 55.05800 36.99900
H  27.53300 55.81200 37.24900
H  26.36800 54.18000 36.06700
H  27.13500 52.89300 36.89800
H  35.75100 55.92100 39.36700
H  34.41600 54.86700 39.40700
H  35.18100 55.27200 40.95900
H  36.95300 60.05900 41.68900
H  35.45000 59.95200 42.75500
H  35.42400 60.62400 41.04300
H  32.00500 62.56700 41.33600
H  29.84500 62.54500 43.39700
H  32.57500 61.59500 44.12600
H  31.88400 63.22700 44.00300
H  33.38700 62.84200 43.05200
H  28.85300 63.27600 40.70900
H  30.31900 64.16200 40.82400
H  29.37000 65.87500 41.80600
H  29.39700 64.83200 43.26600
H  28.01100 64.86500 42.24300
H  24.74400 61.57200 41.26200
H  25.14500 61.04200 42.89100
H  23.80400 60.25800 42.17500
H  25.44500 56.31500 38.39800
H  24.26300 52.56300 40.44600
H  22.88000 52.59100 39.36700
H  22.95700 53.63600 40.84800
Mg 9.17600 48.70800 26.16600
C  6.81000 48.96600 28.82000
C  11.39300 50.41800 28.18900
C  11.30100 48.72500 23.60700
C  6.50300 47.93700 23.95900
N  9.08100 49.67700 28.18000
C  8.10000 49.56200 29.19400
C  8.56500 50.10800 30.55600
C  9.88600 50.75400 30.08600
C  10.15600 50.33900 28.74100
C  9.89800 52.30200 30.20600
C  8.88700 48.97800 31.63400
C  7.99900 49.16800 32.87400
H  8.60800 49.70100 34.15100
N  11.15500 49.30000 25.95100
C  11.88000 49.94700 26.94600
C  13.24900 50.07200 26.45200
C  13.26700 49.64700 25.10800
C  11.86600 49.14500 24.81500
C  14.36100 50.72500 27.21000
C  14.33900 49.46200 24.09800
O  14.16500 48.95300 23.00300
C  15.73000 49.70300 24.44000
N  8.94600 48.43500 24.08700
C  9.96200 48.49000 23.20900
C  9.60000 48.04600 21.76900
C  8.06500 47.69300 21.96400
C  7.80500 48.06900 23.37200
C  9.71500 49.13800 20.77000
C  7.75600 46.21800 21.70400
C  8.25800 45.13700 22.63600
N  7.12200 48.40000 26.28300
C  6.19300 48.11300 25.35000
C  4.88300 47.95300 26.01400
C  5.04800 48.13600 27.38300
C  6.44500 48.54500 27.52200
C  3.61400 47.58600 25.28700
C  4.49200 48.10700 28.74700
O  3.35000 47.92700 29.17700
C  5.59700 48.61700 29.68900
C  5.83200 47.45700 30.58100
O  6.46300 46.45100 30.30800
O  5.14300 47.66400 31.77700
C  5.39900 46.58200 32.65800
H  12.07800 50.92800 28.87000
H  11.85700 48.77600 22.66900
H  5.64100 47.85300 23.29400
H  7.97700 50.89200 31.03300
H  10.71600 50.45800 30.72800
H  10.86800 52.63500 30.57400
H  9.04900 52.62000 30.81100
H  9.71700 52.82900 29.26900
H  9.95600 49.00800 31.84700
H  8.71200 48.03900 31.10800
H  7.61000 48.17000 33.07900
H  7.15800 49.84300 32.71600
H  14.97000 51.34400 26.55100
H  14.89300 50.06800 27.89900
H  14.01100 51.61100 27.73900
H  15.83300 49.27200 25.43600
H  15.87500 50.78100 24.49400
H  16.49700 49.36000 23.74600
H  10.09100 47.12800 21.44500
H  7.29300 48.30100 21.49200
H  10.12600 49.98100 21.32600
H  8.74000 49.45900 20.40500
H  10.37400 48.86600 19.94600
H  8.22500 46.10000 20.72700
H  6.68000 46.19000 21.53300
H  8.61900 45.39800 23.63100
H  9.02300 44.59700 22.07700
H  7.50100 44.36300 22.76200
H  3.58000 47.91300 24.24700
H  2.80900 48.01300 25.88500
H  3.52000 46.50300 25.36800
H  5.34900 49.50700 30.26800
H  4.60100 45.84900 32.54700
H  5.30100 46.83800 33.71300
H  6.39400 46.14100 32.59100

