158

Mg 34.39000 2.91900 29.85500
C  32.33300 4.15800 32.39900
C  36.84500 2.70500 32.12600
C  36.56100 2.36400 27.31000
C  31.81300 3.03300 27.66100
N  34.50300 3.36200 32.05300
C  33.55900 3.79000 32.92000
C  34.04900 3.93300 34.39900
C  35.56800 3.77400 34.15000
C  35.62600 3.21700 32.70900
C  36.32900 5.14000 34.25300
C  33.48300 2.75000 35.35300
C  33.08200 3.22000 36.75500
H  33.98500 4.24300 37.44800
N  36.39200 2.48000 29.73600
C  37.22300 2.41200 30.80700
C  38.49600 2.04900 30.36600
C  38.50500 1.87400 28.93200
C  37.12000 2.25200 28.63500
C  39.73700 1.81000 31.22200
C  39.60400 1.41600 27.98600
O  39.41400 1.44200 26.77500
C  40.92800 0.95300 28.45000
N  34.26000 2.84700 27.70900
C  35.27700 2.61900 26.83600
C  34.69600 2.31500 25.44700
C  33.09800 2.25700 25.65700
C  33.03800 2.74400 27.09300
C  35.15000 3.10700 24.22200
C  32.41000 0.88300 25.48800
C  31.31200 0.75800 24.40000
N  32.52100 3.63100 29.92300
C  31.53100 3.52700 28.89900
C  30.33600 3.98900 29.45900
C  30.58600 4.27900 30.75000
C  31.93500 4.02900 31.06300
C  28.99400 4.22300 28.79900
C  29.96600 4.73000 32.06700
O  28.83100 4.99000 32.38200
C  31.08400 4.70600 33.18600
C  31.41500 6.07400 33.63200
O  32.23700 6.77100 33.09600
O  30.84800 6.30300 34.88000
C  31.59800 7.26300 35.73900
H  37.60200 2.58200 32.90300
H  37.30200 2.23800 26.51800
H  30.96200 2.96500 26.98000
H  33.83700 4.93100 34.78400
H  36.03700 3.10600 34.87200
H  36.62300 5.31600 35.28800
H  35.83100 6.02000 33.84700
H  37.21000 4.99900 33.62700
H  34.21600 1.94400 35.32400
H  32.58300 2.50000 34.78900
H  33.07200 2.31900 37.36800
H  32.10500 3.70300 36.72300
H  40.28400 0.91200 30.93200
H  39.62200 1.90200 32.30200
H  40.31600 2.73200 31.17600
H  41.57400 0.80100 27.58500
H  40.80700 0.04400 29.04000
H  41.41000 1.77700 28.97600
H  34.96200 1.27900 25.24000
H  32.71100 3.09200 25.07300
H  35.88300 2.49900 23.69100
H  35.63500 4.02500 24.55300
H  34.22700 3.20000 23.64900
H  31.98300 0.49100 26.41000
H  33.10900 0.10800 25.17400
H  30.34100 0.64100 24.88100
H  31.49500 -0.09400 23.74500
H  31.32500 1.64900 23.77200
H  28.56600 5.19800 29.02900
H  28.28200 3.47300 29.14400
H  29.05400 4.23300 27.71100
H  30.77100 4.06800 34.01200
H  31.29700 8.25700 35.40800
H  32.64400 7.14400 35.45400
H  31.34100 7.17800 36.79500
Mg 40.75600 8.91800 30.11000
C  42.70300 9.76000 32.87200
C  38.27500 7.77200 32.27700
C  39.42500 7.48500 27.55200
C  43.68800 9.69800 28.15500
N  40.57400 8.83000 32.41000
C  41.34600 9.43300 33.30700
C  40.76700 9.26200 34.69100
C  39.41900 8.43500 34.49800
C  39.35000 8.42000 32.99700
C  39.46300 7.03800 35.19600
C  40.69800 10.59400 35.44900
C  41.48200 10.84600 36.75400
H  40.91000 11.86900 37.74400
N  38.98200 8.07400 29.92400
C  38.04900 7.75900 30.93000
C  36.92800 7.22100 30.27500
C  37.21100 7.05500 28.89400
C  38.60400 7.51500 28.73100
C  35.77400 6.77200 31.04100
C  36.46200 6.39800 27.77600
O  36.87100 6.32200 26.59400
C  34.99400 6.02200 28.09800
N  41.40300 8.80200 28.03000
C  40.67500 8.03900 27.23200
C  41.32200 7.88800 25.85800
C  42.72000 8.65300 26.01400
C  42.60100 9.13300 27.50500
C  41.45000 6.41700 25.38800
C  43.00900 9.75600 24.95300
C  42.49600 11.24400 25.20500
N  42.75300 9.74400 30.39200
C  43.80700 9.95700 29.50700
C  44.87600 10.62200 30.30300
C  44.50900 10.54300 31.61100
C  43.25400 9.89300 31.62200
C  46.09300 11.21300 29.66900
C  44.85100 10.92500 32.93100
O  45.80800 11.60300 33.35300
C  43.64800 10.40100 33.81200
C  44.20900 9.47500 34.93400
O  44.27300 8.26100 34.85500
O  44.77300 10.28400 35.88800
C  45.74000 9.55200 36.73900
H  37.47800 7.34500 32.88900
H  39.01300 6.82200 26.78800
H  44.53900 9.93700 27.51400
H  41.42400 8.60800 35.26300
H  38.52100 8.96600 34.81400
H  39.53600 6.21300 34.48700
H  38.55700 6.99100 35.80000
H  40.26800 7.04300 35.93100
H  39.67000 10.92000 35.60800
H  40.96900 11.29700 34.66200
H  42.44000 11.22300 36.39500
H  41.66700 9.89000 37.24400
H  35.80100 7.41500 31.92100
H  35.89900 5.71800 31.29000
H  34.84000 6.91300 30.49800
H  35.02700 5.34100 28.94800
H  34.54100 5.49500 27.25800
H  34.47400 6.95900 28.29400
H  40.64200 8.47600 25.24200
H  43.52300 7.91900 25.94600
H  40.68300 5.81300 25.87300
H  42.47200 6.12000 25.62300
H  41.32300 6.46700 24.30700
H  42.66400 9.47200 23.95900
H  44.09400 9.85400 24.94200
H  41.82500 11.26000 26.06400
H  41.96500 11.59100 24.31800
H  43.25100 12.01300 25.37000
H  46.76700 11.67600 30.38900
H  45.85600 12.03300 28.99100
H  46.56400 10.39000 29.13100
H  43.19500 11.24600 34.32900
H  46.75000 9.54300 36.32900
H  45.33100 8.56100 36.93500
H  45.87900 10.15100 37.63900

