158

Mg -3.17100 17.06000 27.07500
C  -3.55400 14.87000 29.84700
C  -3.17700 19.74100 29.35400
C  -2.89000 19.09800 24.55300
C  -3.45100 14.32900 25.02800
N  -3.16200 17.27300 29.37400
C  -3.33400 16.24400 30.26300
C  -3.33600 16.78500 31.67400
C  -3.36300 18.33900 31.46200
C  -3.22800 18.48500 29.97100
C  -4.50800 19.22300 32.25100
C  -2.14600 16.25500 32.53500
C  -1.70700 16.98400 33.74700
H  -1.55700 16.10200 35.02700
N  -2.91000 19.09100 27.00300
C  -2.99300 20.02700 28.00700
C  -2.85500 21.33300 27.45400
C  -2.57500 21.12600 26.08800
C  -2.84700 19.71200 25.81900
C  -2.92000 22.57400 28.31800
C  -2.10500 22.07200 25.02300
O  -1.81600 21.75600 23.87700
C  -1.78800 23.45500 25.39800
N  -3.22300 16.71700 25.13000
C  -3.09800 17.76600 24.27400
C  -3.16400 17.25700 22.78300
C  -3.17600 15.70000 22.93900
C  -3.28600 15.53500 24.45000
C  -4.21100 17.85600 21.78600
C  -2.11700 14.86100 22.26200
C  -0.67800 15.04400 22.78500
N  -3.39600 14.97200 27.33100
C  -3.50200 14.00600 26.36900
C  -3.75000 12.73100 26.98100
C  -3.80600 13.01500 28.39900
C  -3.53800 14.39900 28.51700
C  -3.91900 11.37400 26.34600
C  -3.99400 12.47200 29.74800
O  -4.20200 11.34900 30.16700
C  -3.86700 13.65100 30.74000
C  -2.70500 13.22400 31.56500
O  -1.54600 13.36700 31.29400
O  -3.19400 12.63700 32.77600
C  -2.16900 11.89500 33.50200
H  -3.37100 20.60000 30.00000
H  -2.87600 19.66600 23.62100
H  -3.83200 13.49800 24.43000
H  -4.18200 16.32400 32.18300
H  -2.44000 18.73700 31.88200
H  -4.92700 19.89900 31.50700
H  -4.04600 19.81900 33.03800
H  -5.24800 18.53000 32.65300
H  -1.29800 16.04100 31.88500
H  -2.69100 15.43200 32.99600
H  -2.48900 17.72200 33.92200
H  -0.74300 17.45800 33.55600
H  -3.35500 22.40300 29.30300
H  -3.65900 23.21400 27.83700
H  -1.96900 23.10500 28.36000
H  -2.68100 23.86800 25.86800
H  -1.36000 23.98000 24.54400
H  -1.01700 23.54900 26.16200
H  -2.21100 17.46300 22.29500
H  -4.12700 15.32100 22.56300
H  -3.70100 18.32800 20.94600
H  -4.81600 18.66400 22.19700
H  -4.72800 17.10400 21.19000
H  -2.20400 14.96800 21.18000
H  -2.35600 13.81400 22.44400
H  -0.11500 15.57400 22.01600
H  -0.20600 14.12800 23.13900
H  -0.79300 15.66800 23.67200
H  -4.88600 11.26700 25.85400
H  -4.00800 10.58300 27.09100
H  -3.16700 11.23000 25.57100
H  -4.67700 13.77000 31.46000
H  -1.36700 11.61100 32.82100
H  -2.60400 10.99100 33.92800
H  -1.73700 12.50900 34.29200
Mg 17.46200 50.58000 26.28300
C  19.11900 49.33400 29.17900
C  14.99000 51.56100 28.39600
C  15.95600 51.48600 23.63300
C  19.96700 48.97600 24.39300
N  17.07100 50.46300 28.60900
C  17.98300 50.00600 29.55500
C  17.52400 50.27600 30.95200
C  16.06900 50.70100 30.71600
C  15.99300 50.93500 29.20300
C  15.01400 49.74000 31.24800
C  18.48100 51.27100 31.61300
C  18.86900 51.13900 33.06000
H  17.79200 50.47900 33.99100
N  15.77600 51.49400 25.99800
C  14.87300 51.81000 27.01100
C  13.74600 52.48400 26.39200
C  14.05400 52.56600 24.95400
C  15.25400 51.82900 24.80100
C  12.56400 52.96300 27.15600
C  13.21700 53.17900 23.80500
O  13.61100 53.12800 22.61900
C  11.92100 53.83000 24.06400
N  17.90300 50.24500 24.24100
C  17.04800 50.67500 23.26500
C  17.57200 50.34400 21.85300
C  18.95800 49.60400 22.19400
C  18.94700 49.57300 23.68900
C  16.69700 49.33500 21.11900
C  20.16100 50.31300 21.52400
C  20.68300 51.58800 22.18200
N  19.24700 49.42200 26.65100
C  20.10000 48.88500 25.76100
C  21.27000 48.31900 26.54500
C  20.91400 48.50700 27.89300
C  19.67200 49.14000 27.85100
C  22.45900 47.72200 25.91500
C  21.30600 48.21200 29.27000
O  22.32900 47.73500 29.68800
C  20.27100 48.73400 30.12300
C  19.81200 47.58300 30.95400
O  18.97900 46.78700 30.61300
O  20.38500 47.65700 32.21500
C  19.88900 46.77400 33.32800
H  14.24000 51.95300 29.08600
H  15.43600 51.76700 22.71500
H  20.66200 48.44700 23.73700
H  17.61500 49.40100 31.59600
H  15.86800 51.67400 31.16400
H  15.37900 48.87000 31.79400
H  14.43300 49.42100 30.38300
H  14.49100 50.39900 31.94000
H  18.04300 52.26400 31.51600
H  19.43800 51.27000 31.09200
H  19.16100 52.05900 33.56500
H  19.71800 50.45700 33.09200
H  12.44700 52.39800 28.08100
H  11.72500 52.67400 26.52400
H  12.57400 54.03900 27.33000
H  12.00200 54.67600 24.74600
H  11.20700 53.08100 24.40700
H  11.38300 54.17800 23.18300
H  17.70800 51.29700 21.34200
H  18.98500 48.59100 21.79400
H  16.39800 48.67000 21.92900
H  17.13600 48.66100 20.38400
H  15.84800 49.88400 20.71100
H  19.92300 50.44200 20.46800
H  20.97700 49.60800 21.36900
H  19.88300 52.03400 22.77200
H  21.00100 52.32100 21.44000
H  21.55000 51.35500 22.80000
H  22.68900 48.21100 24.96700
H  22.34900 46.66500 25.67400
H  23.30500 47.79700 26.59700
H  20.69900 49.47600 30.79700
H  19.68900 47.50000 34.11700
H  20.68900 46.09700 33.62800
H  18.97000 46.26300 33.04200

