158

Mg 41.78100 40.98700 26.03500
C  41.21600 43.25700 28.77200
C  43.27000 38.88100 28.22800
C  42.21100 38.91500 23.51400
C  40.55800 43.46400 23.91700
N  42.08600 41.13500 28.19200
C  41.81900 42.10200 29.14800
C  42.20300 41.73400 30.60600
C  42.97400 40.42600 30.36100
C  42.77400 40.08100 28.78300
C  44.52900 40.62500 30.63300
C  40.96700 41.53100 31.60700
C  41.50800 41.23300 33.01900
H  40.52000 41.47100 34.12300
N  42.63600 39.09600 25.89000
C  43.23900 38.33400 26.89100
C  43.65000 37.08200 26.34400
C  43.23000 37.06100 25.01400
C  42.68500 38.40400 24.72700
C  44.37200 36.10900 27.16900
C  43.34400 35.88900 24.01300
O  42.99000 35.99000 22.84500
C  43.76200 34.57400 24.45800
N  41.51900 41.19700 24.07600
C  41.65400 40.14600 23.19600
C  41.30800 40.53800 21.73700
C  40.61100 41.87900 21.98700
C  40.91000 42.21800 23.42800
C  42.48400 40.48900 20.69000
C  39.15600 41.90700 21.76200
C  38.24400 40.99300 22.51200
N  41.03800 42.99900 26.21500
C  40.58000 43.84300 25.23700
C  40.16600 45.07400 25.86200
C  40.39300 44.90000 27.27800
C  40.89000 43.59300 27.39600
C  39.72200 46.31600 25.24300
C  40.35100 45.56600 28.59600
O  39.97200 46.64100 29.00400
C  40.81900 44.47500 29.59500
C  41.87500 44.99300 30.45800
O  43.02500 44.97900 30.12400
O  41.37900 45.50300 31.62400
C  42.27700 45.80700 32.74400
H  43.80200 38.26300 28.95500
H  42.37200 38.26700 22.65100
H  40.14900 44.24700 23.27500
H  42.80200 42.51200 31.07900
H  42.57900 39.57700 30.91900
H  44.88300 41.65600 30.60100
H  45.14000 40.01200 29.97000
H  44.77200 40.23700 31.62200
H  40.30000 40.72800 31.29400
H  40.27900 42.37600 31.65400
H  42.46100 41.72300 33.21600
H  41.72800 40.16500 33.03300
H  44.57000 36.62100 28.11100
H  45.23900 35.76700 26.60400
H  43.75000 35.24100 27.38700
H  43.68400 33.89000 23.61300
H  43.11000 34.24200 25.26600
H  44.78600 34.41900 24.79700
H  40.59200 39.75600 21.48900
H  41.16800 42.58500 21.37200
H  43.38400 40.07600 21.14500
H  42.72100 41.50800 20.38300
H  42.24400 39.94000 19.77900
H  39.07200 41.84100 20.67800
H  38.88100 42.94400 21.95300
H  37.30700 41.47900 22.78200
H  38.59400 40.40200 23.35900
H  37.89000 40.30400 21.74500
H  40.00100 46.25400 24.19200
H  40.25900 47.11600 25.75300
H  38.69400 46.62400 25.43400
H  39.96000 44.22600 30.21900
H  42.60700 44.82800 33.09100
H  41.80200 46.31600 33.58300
H  43.08700 46.40600 32.32800
Mg 17.43900 52.18600 26.45800
C  19.63800 50.77700 28.76700
C  15.38900 53.05600 28.98100
C  15.42100 53.47700 24.15300
C  19.58800 51.02400 23.90000
N  17.51400 51.93500 28.61800
C  18.56600 51.40500 29.40600
C  18.22300 51.39200 30.87100
C  16.64500 51.78200 30.83300
C  16.50300 52.31600 29.41500
C  15.60200 50.71200 31.23600
C  19.12600 52.42200 31.53500
C  19.14600 52.54100 33.05700
H  18.09500 51.66000 33.84700
N  15.63300 53.23500 26.56000
C  14.96600 53.50100 27.70500
C  13.83300 54.31600 27.40200
C  13.91400 54.57800 26.02300
C  14.97800 53.74200 25.50400
C  12.98700 54.89600 28.52800
C  13.06600 55.42200 25.13700
O  13.37800 55.55300 23.97300
C  11.82500 56.06300 25.59900
N  17.32900 51.88300 24.30000
C  16.46700 52.71300 23.62000
C  16.80700 52.79600 22.11400
C  18.21900 52.14200 22.08100
C  18.38200 51.63600 23.54400
C  15.70500 52.05100 21.27800
C  19.48300 53.11300 21.82800
C  20.55700 52.60700 20.79000
N  19.17000 50.98900 26.31500
C  19.94100 50.68500 25.22300
C  21.05900 49.91400 25.66600
C  20.99900 49.89700 27.01900
C  19.84600 50.62800 27.41100
C  22.19800 49.50700 24.75700
C  21.67600 49.39300 28.23800
O  22.65300 48.76400 28.49500
C  20.87700 50.10900 29.43300
C  20.52000 48.93400 30.33100
O  19.78100 48.00000 30.06100
O  21.11500 49.08400 31.50700
C  20.53700 48.25000 32.58700
H  14.76200 53.39500 29.80800
H  14.98900 54.09900 23.36600
H  20.12100 50.62000 23.03700
H  18.33100 50.46100 31.42800
H  16.44500 52.60700 31.51700
H  14.91700 50.60000 30.39400
H  15.08500 51.08400 32.12000
H  16.09900 49.80600 31.58200
H  18.74600 53.40100 31.24400
H  20.17400 52.34000 31.24700
H  18.98300 53.58900 33.31000
H  20.14200 52.27900 33.41500
H  12.40800 54.08200 28.96400
H  12.22400 55.54400 28.09700
H  13.56800 55.40600 29.29800
H  11.31100 55.26500 26.13500
H  11.17500 56.43200 24.80600
H  12.06100 56.95300 26.18100
H  16.85800 53.83900 21.80000
H  18.16900 51.32600 21.36000
H  16.23900 51.30000 20.69600
H  15.15800 52.72600 20.62000
H  14.91800 51.65000 21.91700
H  19.94800 53.43600 22.76000
H  19.07400 54.06100 21.47700
H  21.45900 52.32100 21.33200
H  20.83800 53.36700 20.06200
H  20.16700 51.69500 20.33800
H  23.13600 49.89900 25.15300
H  22.17500 49.79900 23.70800
H  22.23200 48.41800 24.78600
H  21.53800 50.76200 30.00300
H  19.46800 48.41600 32.71600
H  21.00300 48.45700 33.55100
H  20.71400 47.20500 32.33200

