158

Mg 49.87900 45.98600 43.67700
C  46.64700 46.77600 42.55000
C  49.34500 42.71800 42.46400
C  53.19500 45.42800 44.08800
C  50.33100 49.31000 44.60000
N  48.24300 44.93600 42.53600
C  47.01500 45.45400 42.21700
C  46.14800 44.38700 41.52600
C  46.94400 43.06400 41.72900
C  48.25300 43.57400 42.31400
C  46.35300 41.85300 42.50400
C  45.85500 44.66300 40.00300
C  44.44200 44.18200 39.67400
H  43.83000 44.85600 38.41700
N  51.07400 44.26100 43.49800
C  50.65000 43.06300 42.98200
C  51.82800 42.27500 42.85100
C  52.98900 43.04200 43.33000
C  52.44800 44.31500 43.69400
C  51.70400 40.82500 42.27300
C  54.43600 42.51800 43.27400
O  54.73500 41.41700 42.80900
C  55.62300 43.30600 43.82800
N  51.56400 47.22200 44.26600
C  52.82700 46.77900 44.39000
C  53.79600 47.83400 45.06700
C  52.76400 48.92000 45.47400
C  51.46500 48.51800 44.75900
C  54.63900 47.33900 46.29000
C  53.33500 50.30100 45.15200
C  53.63900 50.70100 43.64800
N  48.73700 47.75800 43.56400
C  49.05600 48.99300 44.04200
C  47.90700 49.91700 43.78900
C  46.92100 49.06300 43.29100
C  47.50500 47.80900 43.12200
C  47.84300 51.36100 44.20500
C  45.49400 48.90100 42.85400
O  44.57400 49.67800 42.88700
C  45.38400 47.55400 42.25100
C  44.22300 46.86500 42.85200
O  44.01800 46.55600 43.99900
O  43.35700 46.54700 41.82800
C  42.17600 45.88200 42.27500
H  49.21700 41.71000 42.06500
H  54.23600 45.32800 44.40000
H  50.43300 50.34000 44.94800
H  45.20900 44.14500 42.02600
H  47.12900 42.71000 40.71500
H  45.51600 42.07000 43.16700
H  47.10400 41.45700 43.18800
H  45.92300 41.12200 41.82000
H  46.54700 44.12900 39.35100
H  45.97600 45.70300 39.70300
H  43.75800 44.20400 40.52300
H  44.51500 43.10600 39.51300
H  52.05000 40.77000 41.24100
H  50.72400 40.35400 42.35500
H  52.31200 40.15800 42.88400
H  55.38100 43.64300 44.83700
H  55.74300 44.26500 43.32400
H  56.55900 42.79600 43.60100
H  54.51000 48.18500 44.32100
H  52.53400 48.88500 46.53900
H  54.26200 47.75500 47.22400
H  55.69600 47.60100 46.24100
H  54.55600 46.25300 46.32100
H  54.33200 50.27600 45.59100
H  52.70200 51.04600 45.63300
H  54.71500 50.79100 43.49900
H  53.23900 51.71300 43.58000
H  53.16800 50.11700 42.85700
H  46.89800 51.85400 43.97800
H  48.69500 52.00000 43.97000
H  47.85100 51.27700 45.29100
H  45.34800 47.62900 41.16500
H  41.42400 46.51300 42.75000
H  42.39300 45.01700 42.90200
H  41.72300 45.47500 41.37100
Mg -12.13700 16.29500 41.51200
C  -9.07600 14.54700 41.20500
C  -10.69300 18.92100 39.78400
C  -15.07800 17.73400 41.42600
C  -13.62300 13.30800 42.85000
N  -10.06500 16.69200 40.71600
C  -8.98800 15.82100 40.72200
C  -7.83000 16.34400 39.95600
C  -8.33100 17.81900 39.70700
C  -9.77000 17.82600 40.01300
C  -7.60600 18.92100 40.58400
C  -7.62600 15.49000 38.73500
C  -6.19600 15.20400 38.37400
H  -5.49700 15.99300 37.37500
N  -12.75400 18.11900 40.86600
C  -12.05900 19.08700 40.12800
C  -12.84300 20.22100 39.78300
C  -14.05300 19.92500 40.29900
C  -14.00600 18.57900 40.98400
C  -12.32800 21.42800 39.02100
C  -15.27200 20.81100 40.18800
O  -15.28600 21.88800 39.63400
C  -16.57100 20.61600 40.95900
N  -14.12200 15.60200 41.93500
C  -15.17300 16.41100 41.85900
C  -16.45100 15.63300 42.20300
C  -15.99100 14.35400 42.85400
C  -14.45700 14.42100 42.57100
C  -17.48200 16.34800 43.06900
C  -16.55900 12.99700 42.28900
C  -16.79900 12.04000 43.38500
N  -11.64200 14.31900 41.89200
C  -12.27000 13.24800 42.48900
C  -11.33000 12.18600 42.58500
C  -10.12800 12.65400 42.14600
C  -10.28500 13.96800 41.80300
C  -11.67500 10.79400 43.00000
C  -8.72200 12.21600 42.01900
O  -8.07300 11.24200 42.33600
C  -8.07900 13.45300 41.39400
C  -6.97000 13.81500 42.22800
O  -7.09500 14.00400 43.45700
O  -5.75400 13.75300 41.58800
C  -4.45300 14.09500 42.20300
H  -10.28000 19.75200 39.20800
H  -16.05400 18.17800 41.22000
H  -14.00000 12.36800 43.25900
H  -6.91200 16.34000 40.54300
H  -8.26700 18.17000 38.67700
H  -8.28600 19.22500 41.38000
H  -7.34500 19.75400 39.93100
H  -6.62100 18.65400 40.96600
H  -7.96600 16.02200 37.84600
H  -8.15500 14.53900 38.67700
H  -6.23100 14.20200 37.94700
H  -5.55700 15.16600 39.25600
H  -12.79000 22.36300 39.33800
H  -12.54800 21.33400 37.95700
H  -11.26700 21.48500 39.26200
H  -17.04000 19.78900 40.42500
H  -17.29500 21.43000 40.93400
H  -16.27400 20.47600 41.99900
H  -16.88700 15.52400 41.21000
H  -16.19400 14.36800 43.92500
H  -17.77900 15.97700 44.05000
H  -18.38600 16.46400 42.47200
H  -17.18300 17.38300 43.23500
H  -15.73400 12.59700 41.69900
H  -17.39600 13.13900 41.60500
H  -16.46200 12.38800 44.36100
H  -16.29700 11.09600 43.17600
H  -17.83700 11.71500 43.45600
H  -11.83200 10.20500 42.09700
H  -12.61600 10.74800 43.54800
H  -10.97600 10.28100 43.66100
H  -7.68800 13.09500 40.44200
H  -4.33200 15.16700 42.36100
H  -3.65000 13.93700 41.48300
H  -4.32600 13.50600 43.11100

