158

Mg 47.18000 34.62400 27.39600
C  45.68000 33.36000 30.47900
C  48.12200 37.47300 29.35400
C  48.58700 35.83100 24.66300
C  45.89700 31.99200 25.77500
N  47.14400 35.17300 29.78900
C  46.36200 34.59500 30.77100
C  46.51600 35.33900 32.08300
C  47.03500 36.74500 31.62800
C  47.49700 36.48000 30.16200
C  46.14100 38.02000 31.87500
C  47.52300 34.62400 33.08700
C  47.17700 34.73700 34.61800
H  46.77600 36.09200 35.11000
N  48.16200 36.42200 27.01100
C  48.47100 37.43800 27.91800
C  49.23100 38.41000 27.23600
C  49.45600 37.94300 25.91300
C  48.72800 36.66200 25.84200
C  49.77900 39.73800 27.87900
C  50.20300 38.51900 24.77600
O  50.34500 38.00900 23.66500
C  50.84200 39.92800 24.88000
N  47.09900 34.02500 25.41400
C  47.81500 34.66800 24.40600
C  47.85900 33.84500 23.13500
C  46.96300 32.59600 23.47800
C  46.63000 32.83100 24.99400
C  47.49700 34.73100 21.93400
C  47.68800 31.28700 23.39300
C  46.87300 30.06700 22.89300
N  46.12000 32.96600 27.91200
C  45.69600 31.96300 27.15300
C  44.95300 30.95000 27.91000
C  44.86900 31.48900 29.16800
C  45.65000 32.68000 29.18700
C  44.37600 29.65800 27.32000
C  44.42000 31.26800 30.54700
O  43.80800 30.35500 31.02800
C  44.60500 32.63100 31.30200
C  44.87600 32.37100 32.69400
O  45.79800 31.80100 33.14300
O  43.77100 32.90800 33.40700
C  43.55900 32.27500 34.71600
H  48.37800 38.39200 29.88500
H  49.24000 36.02500 23.80900
H  45.40700 31.20300 25.20100
H  45.54100 35.41800 32.56400
H  47.97900 37.04100 32.08600
H  45.61700 38.29500 30.95900
H  46.66700 38.91700 32.19900
H  45.46500 37.77800 32.69500
H  48.58300 34.83300 32.94500
H  47.51900 33.58400 32.76100
H  48.06000 34.54400 35.22800
H  46.28600 34.14600 34.82700
H  49.43100 39.70100 28.91100
H  49.38300 40.63300 27.40000
H  50.85700 39.81100 28.02200
H  51.64000 39.83200 25.61600
H  50.15200 40.73700 25.12100
H  51.19800 40.21200 23.89000
H  48.87700 33.52200 22.91800
H  46.05700 32.63000 22.87300
H  48.41100 34.97800 21.39500
H  47.04300 35.68400 22.20400
H  46.85500 34.19900 21.23100
H  47.99800 30.96800 24.38800
H  48.54600 31.45800 22.74300
H  47.48900 29.39300 22.29800
H  45.95000 30.32300 22.37400
H  46.53500 29.36600 23.65700
H  44.17000 29.07400 28.21700
H  45.12900 29.10500 26.75900
H  43.50700 29.77800 26.67300
H  43.68200 33.20600 31.23500
H  43.89000 31.23800 34.65700
H  42.49300 32.25000 34.94200
H  44.01600 32.85600 35.51700
Mg -9.94600 17.25300 42.49200
C  -6.51400 17.39600 42.59800
C  -9.89300 20.66700 41.60200
C  -13.18100 17.12000 41.71100
C  -9.69500 13.87800 42.56100
N  -8.43000 18.84800 42.05600
C  -7.09000 18.63700 42.32400
C  -6.29400 19.92900 42.29600
C  -7.43100 20.95000 41.95600
C  -8.68600 20.13900 41.92100
C  -7.55000 22.21800 42.80200
C  -5.03400 19.92300 41.26600
C  -4.55700 21.32100 40.87700
H  -4.40000 21.65500 39.41300
N  -11.32800 18.66200 41.77200
C  -11.12200 19.99800 41.58700
C  -12.31900 20.61500 41.14200
C  -13.36900 19.71900 41.29800
C  -12.68600 18.45800 41.60600
C  -12.38100 22.14100 40.81100
C  -14.90000 20.05400 41.16900
O  -15.27300 21.21100 40.93500
C  -15.87200 18.98100 41.47400
N  -11.22100 15.67400 41.92300
C  -12.56900 15.88900 41.91700
C  -13.38200 14.53900 42.07200
C  -12.24800 13.55200 42.32600
C  -10.96900 14.41300 42.24400
C  -14.50300 14.61400 43.16000
C  -12.26300 12.17700 41.54100
C  -12.14500 10.95500 42.46800
N  -8.55500 15.89500 42.62000
C  -8.51500 14.51800 42.71400
C  -7.19600 13.98400 42.89300
C  -6.45100 15.15300 42.96700
C  -7.27700 16.23000 42.70200
C  -6.79200 12.55900 43.04900
C  -5.10500 15.51300 43.11600
O  -4.12300 14.86700 43.43000
C  -5.05900 17.04200 42.90400
C  -4.67200 17.54000 44.22500
O  -5.46100 17.81400 45.14400
O  -3.30100 17.52800 44.40400
C  -2.99400 17.83800 45.79600
H  -9.82100 21.72700 41.35000
H  -14.26800 17.02700 41.74200
H  -9.71300 12.83400 42.88200
H  -5.89500 19.99900 43.30800
H  -7.33200 21.22800 40.90700
H  -6.90400 22.33300 43.67200
H  -8.54100 22.32800 43.24100
H  -7.26200 23.02400 42.12700
H  -5.24000 19.19700 40.47900
H  -4.17200 19.61800 41.85900
H  -3.52700 21.42300 41.21700
H  -5.00200 22.07800 41.52200
H  -11.97400 22.58300 41.72100
H  -13.39800 22.46100 40.58400
H  -11.83600 22.38200 39.89900
H  -15.79100 18.08600 40.85700
H  -16.82800 19.44600 41.23500
H  -15.75500 18.56700 42.47500
H  -13.80600 14.40200 41.07800
H  -12.29400 13.26900 43.37800
H  -14.49500 13.61400 43.59400
H  -15.40200 14.70700 42.55000
H  -14.48400 15.37400 43.94100
H  -11.33200 12.17200 40.97500
H  -13.16300 12.10300 40.93100
H  -13.10600 10.46700 42.62500
H  -11.68800 11.29000 43.40000
H  -11.43500 10.25700 42.02500
H  -6.03400 12.16900 42.37000
H  -7.57300 11.82300 42.85900
H  -6.42300 12.39500 44.06200
H  -4.36100 17.23200 42.08800
H  -3.42300 17.03100 46.39000
H  -3.54700 18.73900 46.06200
H  -1.91600 17.84200 45.95600

