158

Mg -2.45900 17.45400 25.75400
C  -2.75500 15.24300 28.59900
C  -3.18900 19.99600 27.85200
C  -2.00600 19.45500 23.09400
C  -1.87400 14.65000 23.76900
N  -2.94700 17.56500 27.97300
C  -2.89500 16.60700 28.97500
C  -3.20800 17.16100 30.36600
C  -3.88000 18.55600 29.88400
C  -3.27200 18.76100 28.50400
C  -5.46000 18.50700 29.81900
C  -1.96700 17.38400 31.22200
C  -2.28400 18.07500 32.53200
H  -1.86000 17.26700 33.77100
N  -2.45500 19.43600 25.58100
C  -2.72300 20.35800 26.57900
C  -2.66600 21.71700 25.96900
C  -2.38400 21.52300 24.57000
C  -2.26300 20.07900 24.38300
C  -2.95700 23.00100 26.82100
C  -2.39300 22.60400 23.49900
O  -2.50300 22.38000 22.29000
C  -2.44700 24.07900 23.88600
N  -2.08800 17.01900 23.67400
C  -1.96200 18.07800 22.77100
C  -1.59000 17.52600 21.33700
C  -1.51100 15.98200 21.63300
C  -1.86100 15.80300 23.11800
C  -2.71900 17.89600 20.34000
C  0.00400 15.56000 21.28200
C  1.21200 16.07300 22.14900
N  -2.48700 15.34200 26.06700
C  -2.15700 14.32000 25.14300
C  -2.20800 13.11900 25.78000
C  -2.28900 13.41000 27.23200
C  -2.51700 14.76200 27.33600
C  -2.11200 11.78400 25.17100
C  -2.35300 12.84200 28.51100
O  -2.12200 11.70600 28.83300
C  -2.72800 13.99400 29.50700
C  -1.58900 13.99900 30.44100
O  -0.42400 14.38400 30.24900
O  -1.95400 13.31800 31.54100
C  -0.85200 12.63800 32.32800
H  -3.40500 20.83400 28.51800
H  -1.88400 20.11900 22.23500
H  -1.61500 13.74100 23.22200
H  -3.98500 16.57200 30.85400
H  -3.50300 19.46100 30.36100
H  -5.87400 19.25300 30.49700
H  -5.78600 17.48900 30.03600
H  -5.78500 18.66100 28.79000
H  -1.42000 18.04500 30.54900
H  -1.39700 16.46200 31.33000
H  -3.35400 18.27400 32.59700
H  -1.81700 19.05900 32.47000
H  -3.18700 22.84500 27.87500
H  -3.83100 23.52500 26.43300
H  -2.11100 23.66100 26.63000
H  -2.51000 24.60400 22.93200
H  -1.61300 24.40700 24.50600
H  -3.42800 24.25400 24.32700
H  -0.64400 18.03400 21.14900
H  -2.10800 15.27200 21.06100
H  -3.50900 18.36200 20.92900
H  -3.25800 17.08900 19.84300
H  -2.25700 18.47400 19.54100
H  0.16600 15.98800 20.29300
H  -0.01100 14.50300 21.01900
H  1.77000 16.82700 21.59500
H  1.79100 15.17900 22.38400
H  0.90200 16.64500 23.02300
H  -1.44200 11.65900 24.32100
H  -3.14100 11.43800 25.07000
H  -1.61300 11.13200 25.88800
H  -3.57900 13.58000 30.04900
H  -0.08700 13.33700 32.66700
H  -0.37200 11.94700 31.63500
H  -1.26700 12.02800 33.13000
Mg 41.64700 40.95700 26.96500
C  40.55300 43.27100 29.27900
C  42.69900 38.92500 29.61900
C  42.87500 38.64100 24.71900
C  41.14800 43.27200 24.41100
N  41.70700 41.10700 29.13400
C  41.06200 42.08500 29.83700
C  40.99900 41.70800 31.39700
C  42.02100 40.53500 31.46700
C  42.18800 40.17600 30.02400
C  43.33400 40.86100 32.15300
C  39.49700 41.36100 31.77100
C  38.92600 42.12600 32.90300
H  38.39100 41.27200 34.14100
N  42.70900 39.04800 27.14900
C  42.86300 38.33600 28.30000
C  43.29900 36.93700 27.98300
C  43.47200 36.89200 26.62500
C  42.99800 38.26600 26.13900
C  43.60100 35.89900 29.04800
C  43.86400 35.81200 25.70300
O  44.16000 35.98200 24.48600
C  44.12700 34.49500 26.27000
N  42.09800 40.98800 24.85300
C  42.44200 39.86600 24.15300
C  42.52800 40.19400 22.63900
C  42.13900 41.69200 22.56000
C  41.74300 42.01900 24.02500
C  43.95000 39.95100 22.05100
C  41.08000 42.04000 21.57600
C  39.66600 41.53000 21.81700
N  41.00500 42.92600 26.82500
C  40.79600 43.67200 25.70800
C  40.21900 44.89300 26.12500
C  40.07500 44.83000 27.54700
C  40.53600 43.58100 27.90800
C  39.88600 45.93500 25.13500
C  39.63500 45.39400 28.73100
O  39.03300 46.39500 28.93300
C  39.96900 44.45800 29.89400
C  40.89800 45.21600 30.78500
O  41.95000 45.72400 30.46000
O  40.39700 45.20500 32.10200
C  41.12500 45.93400 33.13100
H  42.88600 38.19600 30.41000
H  43.27700 37.97400 23.95300
H  40.96800 43.99900 23.61600
H  41.48200 42.51500 31.94800
H  41.62900 39.70900 32.06200
H  43.21700 41.64400 32.90300
H  44.11200 41.16300 31.45300
H  43.68300 39.96700 32.66900
H  39.38800 40.29800 31.98600
H  38.91500 41.61200 30.88400
H  38.19400 42.88000 32.61600
H  39.72400 42.76500 33.28200
H  42.90100 35.06300 29.04600
H  43.51100 36.26900 30.06900
H  44.61300 35.51100 28.93500
H  43.32400 34.24800 26.96400
H  45.06400 34.66800 26.79800
H  44.20800 33.73700 25.49100
H  41.81500 39.62700 22.04000
H  43.06700 42.25400 22.44700
H  43.92500 38.89100 21.79800
H  44.73200 40.05700 22.80300
H  44.15400 40.65600 21.24500
H  41.42000 41.58000 20.64800
H  41.05200 43.11500 21.39600
H  39.70200 40.76100 22.58900
H  39.34800 41.02000 20.90700
H  39.00800 42.32500 22.16800
H  39.19400 45.48600 24.42200
H  40.83600 46.19000 24.66500
H  39.40800 46.77400 25.64000
H  39.11900 44.25100 30.54400
H  40.89000 45.62700 34.15000
H  40.86700 46.98700 33.01900
H  42.19200 45.92700 32.90600

