158

Mg 8.05700 3.23000 27.53800
C  9.54300 1.98300 30.32300
C  6.18000 5.39200 29.36800
C  6.57300 4.29900 24.63000
C  9.51700 0.58700 25.63900
N  7.92400 3.65200 29.61000
C  8.62600 3.01500 30.61000
C  8.26000 3.64100 32.01800
C  7.07500 4.55500 31.69700
C  7.02000 4.52300 30.11000
C  5.70700 4.32500 32.40400
C  9.51300 4.36300 32.65500
C  9.22400 5.31400 33.87800
H  10.04700 5.15900 35.08500
N  6.67000 4.72900 27.02800
C  5.95200 5.46000 27.93900
C  5.04700 6.37600 27.32300
C  5.09800 6.08500 25.93000
C  6.17500 5.05300 25.81700
C  4.12100 7.34000 28.05800
C  4.36200 6.72200 24.76900
O  4.72700 6.49800 23.61500
C  3.23700 7.66800 24.96400
N  8.15200 2.57300 25.37300
C  7.41100 3.15200 24.37300
C  7.70900 2.55900 23.07800
C  8.67300 1.38700 23.40200
C  8.77500 1.46300 24.90400
C  6.42700 2.15300 22.21900
C  10.04100 1.24300 22.54100
C  11.23400 1.85700 23.30700
N  9.20600 1.56300 27.86100
C  9.76000 0.63200 27.03700
C  10.68400 -0.26700 27.77900
C  10.73200 0.30800 29.07600
C  9.75000 1.39300 29.07600
C  11.55800 -1.41200 27.28100
C  11.40300 0.23100 30.37400
O  12.17900 -0.58600 30.79300
C  10.55100 1.29700 31.27200
C  9.88300 0.56700 32.42800
O  9.16600 -0.41700 32.30200
O  10.26200 1.10100 33.69600
C  9.91000 0.35500 34.88600
H  5.68500 6.07500 30.06200
H  6.06100 4.74200 23.77300
H  9.98100 -0.15100 24.98100
H  7.94600 2.75200 32.56500
H  7.32700 5.59200 31.91800
H  5.22800 5.25400 32.71300
H  5.83500 3.72000 33.30100
H  5.11600 3.84800 31.62200
H  9.88000 5.00500 31.85400
H  10.30800 3.65600 32.89300
H  8.19500 5.31500 34.23700
H  9.33400 6.36200 33.59800
H  4.30900 7.39800 29.13000
H  3.09200 6.98300 28.08800
H  4.20600 8.35200 27.66300
H  2.43800 7.24200 25.57100
H  2.79600 7.91600 23.99800
H  3.64800 8.55000 25.45600
H  8.31900 3.27600 22.52800
H  8.18300 0.41600 23.33200
H  5.58200 2.31300 22.88900
H  6.46700 1.06900 22.10800
H  6.40900 2.74500 21.30500
H  10.00000 1.83500 21.62600
H  10.19900 0.21100 22.22800
H  10.89300 2.51300 24.10700
H  12.01200 2.34800 22.72200
H  11.72700 1.05300 23.85300
H  12.29400 -0.96300 26.61400
H  11.02100 -2.12200 26.65200
H  12.07000 -1.91100 28.10400
H  11.25800 2.00800 31.69800
H  9.69700 -0.70500 34.75100
H  9.04400 0.86200 35.31400
H  10.76800 0.45600 35.55000
Mg 6.74800 53.04900 41.77100
C  5.48100 49.66800 41.45300
C  9.64600 51.94100 40.28600
C  7.62300 56.26500 41.42000
C  3.40000 54.06800 42.31600
N  7.45200 51.09300 40.83200
C  6.79800 49.88100 40.91100
C  7.71700 48.75300 40.33500
C  9.14800 49.41400 40.32600
C  8.78800 50.91900 40.43000
C  9.98000 49.04300 41.58200
C  7.41400 48.22300 38.92700
C  6.90800 49.25300 37.84900
H  5.59300 49.18400 37.17400
N  8.41800 54.02200 40.92400
C  9.55800 53.36700 40.50300
C  10.54700 54.37700 40.22400
C  10.04700 55.61000 40.63400
C  8.60100 55.37200 41.01500
C  11.91300 53.94900 39.77200
C  10.71600 56.92200 40.61700
O  11.73500 57.02000 40.04500
C  10.19700 58.19300 41.10300
N  5.66300 54.85400 41.86400
C  6.29700 56.04400 41.72400
C  5.35800 57.20700 42.12800
C  3.98300 56.49400 42.24100
C  4.36800 55.02300 42.10500
C  5.77700 57.99600 43.27400
C  2.93300 56.88700 41.14500
C  1.50600 57.07200 41.48800
N  4.81500 52.13200 42.03900
C  3.53000 52.66900 42.24100
C  2.52700 51.64900 42.36900
C  3.28700 50.43900 42.09800
C  4.62500 50.77800 41.83000
C  1.10000 51.94500 42.66500
C  3.16700 48.97900 41.91800
O  2.18200 48.25700 41.83900
C  4.64800 48.40400 41.76100
C  4.59700 47.30100 40.72400
O  4.31500 47.36100 39.56900
O  5.16000 46.19700 41.30200
C  5.43200 45.11900 40.39000
H  10.62800 51.56600 39.99000
H  7.77800 57.34200 41.32500
H  2.36400 54.27100 42.59300
H  7.78400 47.88700 40.99300
H  9.69500 49.14400 39.42300
H  10.97800 48.64500 41.39700
H  9.54900 48.19800 42.11900
H  9.87100 49.85100 42.30400
H  6.71400 47.38800 38.94000
H  8.34700 47.82700 38.52500
H  7.60900 49.18400 37.01800
H  6.81900 50.26000 38.25600
H  12.34400 54.77900 39.21200
H  11.95100 53.03600 39.17800
H  12.49400 53.68100 40.65500
H  10.97100 58.93700 41.29000
H  9.60400 58.05400 42.00600
H  9.55100 58.66200 40.36100
H  5.39900 57.90400 41.29100
H  3.52800 56.38000 43.22500
H  5.92100 59.04200 43.00200
H  6.73400 57.78000 43.75000
H  4.92400 58.00600 43.95300
H  3.03100 56.00500 40.51300
H  3.30600 57.71800 40.54800
H  0.91600 56.53200 40.74800
H  1.20700 58.10800 41.32800
H  1.25000 56.70700 42.48200
H  0.57500 52.37900 41.81300
H  1.08500 52.55000 43.57200
H  0.61600 51.00700 42.93800
H  4.92300 47.88000 42.67700
H  5.64100 45.51300 39.39600
H  4.59800 44.44000 40.21300
H  6.28300 44.51900 40.71100

