158

Mg 35.28200 2.85200 29.45600
C  32.89500 3.77200 31.96300
C  37.72300 2.74700 32.02500
C  37.35400 1.93100 27.20100
C  32.69700 3.37000 27.16000
N  35.27300 3.27500 31.68700
C  34.16100 3.54300 32.50300
C  34.55400 3.61500 33.95300
C  36.12600 3.69700 33.85200
C  36.40900 3.18700 32.41700
C  36.57100 5.12600 34.14900
C  34.04700 2.29800 34.68900
C  33.96000 2.20200 36.20000
H  34.38100 3.39200 37.08800
N  37.30300 2.46100 29.55700
C  38.12100 2.35800 30.68800
C  39.46000 1.99000 30.26800
C  39.40600 1.71800 28.88100
C  37.97800 2.02800 28.48400
C  40.68500 1.97600 31.19500
C  40.47300 1.34400 27.83000
O  40.25200 1.23700 26.60900
C  41.88700 1.06100 28.13400
N  35.07600 2.84200 27.30400
C  36.06900 2.27500 26.65300
C  35.66700 2.15400 25.22200
C  34.08300 2.42400 25.24000
C  33.89900 2.90600 26.61800
C  36.29400 3.20800 24.29500
C  33.26000 1.17200 24.91700
C  33.55600 -0.13700 25.72500
N  33.29200 3.67800 29.46200
C  32.41700 3.75400 28.47500
C  31.11200 4.09100 28.98900
C  31.23100 4.14500 30.35700
C  32.53500 3.80400 30.61600
C  29.79900 4.29200 28.21500
C  30.50600 4.46300 31.56700
O  29.42300 4.95900 31.75400
C  31.59900 4.11800 32.74400
C  31.79100 5.30300 33.57900
O  32.26300 6.33900 33.25900
O  31.17900 5.01200 34.75300
C  31.30200 6.01300 35.88100
H  38.42800 2.67600 32.85600
H  37.81500 1.30700 26.43200
H  31.87100 3.46100 26.45200
H  34.13500 4.42700 34.54700
H  36.62400 3.13600 34.64300
H  37.17500 5.54200 33.34200
H  37.29800 5.05400 34.95900
H  35.78200 5.76200 34.55000
H  34.61600 1.41100 34.41100
H  33.01500 2.15600 34.36600
H  34.56900 1.33300 36.45000
H  32.93700 1.96600 36.49700
H  41.31700 1.11100 30.99400
H  40.41200 1.91000 32.24800
H  41.31100 2.85400 31.03300
H  42.47400 0.79200 27.25600
H  42.00100 0.36000 28.96000
H  42.38300 1.92300 28.58000
H  35.87300 1.16300 24.81900
H  33.85100 3.20100 24.51100
H  37.34300 3.39500 24.52600
H  35.78200 4.16700 24.37600
H  36.35000 2.86600 23.26200
H  33.46300 0.89100 23.88300
H  32.21900 1.47300 25.03100
H  33.71500 -0.84900 24.91500
H  32.63800 -0.38000 26.25900
H  34.46700 -0.10800 26.32200
H  29.90000 3.86600 27.21700
H  29.47000 5.32900 28.14000
H  28.98800 3.81300 28.76300
H  31.29500 3.26500 33.35200
H  30.29900 6.42700 35.98100
H  32.00900 6.81700 35.67500
H  31.62400 5.50900 36.79200
Mg 36.46900 49.24300 24.66600
C  36.58900 47.29300 27.60600
C  35.51000 51.95600 26.63600
C  36.21700 50.97000 21.77600
C  37.13400 46.37800 22.86500
N  35.94900 49.54300 26.88100
C  36.30100 48.63600 27.85800
C  36.32000 49.29000 29.24400
C  35.63200 50.76200 28.96700
C  35.71600 50.75700 27.39000
C  34.16900 50.97400 29.49000
C  37.66000 49.33300 30.03400
C  37.57500 48.79500 31.51700
H  36.26600 48.99600 32.26300
N  35.82300 51.16200 24.25500
C  35.44500 52.10700 25.21900
C  35.15900 53.35600 24.46500
C  35.42400 53.07100 23.11400
C  35.79300 51.66400 22.97700
C  34.89000 54.60100 25.22900
C  35.33000 54.01300 21.88000
O  35.46200 53.64900 20.71400
C  34.96400 55.47700 22.15300
N  36.50500 48.73000 22.59000
C  36.56200 49.62300 21.58000
C  37.03800 49.00800 20.19000
C  37.20700 47.51800 20.59700
C  36.82600 47.50100 22.10400
C  36.01700 49.13900 18.93500
C  38.62300 46.94800 20.32500
C  39.72500 47.61400 21.21400
N  36.73200 47.19200 25.08700
C  37.04800 46.15400 24.29300
C  37.47200 44.97700 25.04000
C  37.28000 45.41000 26.36900
C  36.79700 46.73600 26.36900
C  38.06500 43.68800 24.51400
C  37.47600 45.02700 27.71300
O  37.97800 44.06000 28.16700
C  36.96400 46.23000 28.61100
C  35.75800 45.69900 29.26600
O  34.70800 45.48100 28.69600
O  35.89300 45.66800 30.61900
C  34.70300 45.13700 31.30800
H  35.26000 52.74900 27.34400
H  36.27600 51.52100 20.83500
H  37.68200 45.55300 22.40600
H  35.66700 48.62500 29.81000
H  36.18600 51.61400 29.36100
H  33.98100 51.87500 30.07300
H  33.98200 50.13700 30.16200
H  33.47600 50.99300 28.64800
H  37.95900 50.38100 30.04500
H  38.34400 48.75600 29.41100
H  38.46700 49.13900 32.04000
H  37.66900 47.70900 31.53300
H  35.26900 55.50300 24.74900
H  35.31600 54.65400 26.23100
H  33.81900 54.61500 25.43300
H  35.71700 56.04800 22.69600
H  33.97600 55.43300 22.61200
H  34.91500 56.12000 21.27500
H  38.04400 49.37900 19.99400
H  36.65700 46.76500 20.03300
H  36.53100 49.19100 17.97500
H  35.42000 50.04500 19.03800
H  35.32200 48.30300 19.01100
H  38.90700 47.17400 19.29800
H  38.69500 45.86200 20.25800
H  39.27500 48.16200 22.04200
H  40.17100 48.37900 20.57900
H  40.50600 46.90900 21.50200
H  38.59900 43.30400 25.38300
H  38.64800 43.79700 23.60000
H  37.23100 42.98600 24.49400
H  37.78200 46.48700 29.28400
H  33.79700 45.71400 31.12700
H  34.91100 45.17300 32.37800
H  34.58300 44.12400 30.92300

