158

Mg 0.02700 7.99000 26.73800
C  0.84600 9.79600 29.64900
C  -0.22900 5.18900 28.70000
C  -0.11900 6.12900 23.80100
C  0.59200 10.80600 24.93500
N  0.40300 7.52400 28.95400
C  0.44800 8.43300 29.93900
C  0.15400 7.87500 31.32000
C  0.19900 6.33500 31.04300
C  0.18400 6.29800 29.46800
C  1.42600 5.65300 31.72500
C  -1.22500 8.44800 31.79100
C  -1.29200 9.06700 33.15100
H  -0.23200 8.84500 34.23000
N  -0.25700 5.93500 26.31300
C  -0.27300 4.94100 27.23900
C  -0.59800 3.62600 26.62400
C  -0.50800 3.85300 25.18400
C  -0.28500 5.37600 25.02900
C  -0.93100 2.37900 27.36600
C  -0.47600 2.89600 23.94900
O  -0.28200 3.22800 22.81000
C  -0.77700 1.35600 24.12100
N  0.49200 8.38300 24.62300
C  0.13300 7.48800 23.59200
C  0.10800 8.18200 22.23000
C  0.23400 9.74600 22.70000
C  0.41900 9.67000 24.20500
C  1.23200 7.68200 21.28200
C  -1.03200 10.61000 22.25800
C  -0.66800 11.75100 21.31600
N  0.59900 9.94700 27.12700
C  0.83000 10.99700 26.28300
C  1.23600 12.16000 27.02900
C  1.26500 11.75800 28.38000
C  0.93000 10.40100 28.36700
C  1.45200 13.52800 26.53500
C  1.61400 12.12900 29.71400
O  2.20200 13.10800 30.06300
C  1.24600 10.88200 30.61700
C  2.35700 10.45100 31.50600
O  3.11600 9.51200 31.40700
O  2.43100 11.35000 32.48700
C  3.69200 11.31300 33.19200
H  -0.24900 4.26900 29.28800
H  -0.19900 5.62800 22.83400
H  0.60900 11.74000 24.36900
H  0.92800 8.16400 32.03100
H  -0.74200 5.93700 31.42200
H  2.37800 5.86700 31.23900
H  1.20300 4.58900 31.65000
H  1.50000 5.94900 32.77200
H  -1.99100 7.67300 31.82700
H  -1.54100 9.17700 31.04500
H  -2.27800 8.76700 33.50700
H  -1.35600 10.13500 32.94200
H  -0.03700 1.81200 27.62600
H  -1.57000 1.84700 26.66100
H  -1.52200 2.55800 28.26400
H  -0.88200 0.90000 23.13700
H  -1.62000 1.08600 24.75700
H  0.12700 1.05500 24.65200
H  -0.82000 7.90100 21.73200
H  1.14600 10.21400 22.32800
H  1.93900 7.07800 21.85000
H  1.88100 8.42800 20.82500
H  0.82600 7.15600 20.41800
H  -1.43200 10.99700 23.19500
H  -1.79100 10.05400 21.70800
H  -1.50300 11.91800 20.63500
H  0.30900 11.73700 20.83300
H  -0.71800 12.67100 21.89700
H  2.53000 13.67100 26.46100
H  1.06100 14.27200 27.22800
H  0.92100 13.65800 25.59200
H  0.39700 11.14800 31.24600
H  4.46400 11.15400 32.43900
H  3.88500 10.48400 33.87300
H  3.90600 12.30400 33.59200
Mg 6.58600 53.21100 40.81300
C  6.09000 49.78800 40.26900
C  9.81100 52.93000 39.93300
C  6.86800 56.66900 40.99300
C  3.07500 53.55000 41.14400
N  7.85400 51.54900 39.92200
C  7.43800 50.24100 39.95900
C  8.66100 49.42100 39.89100
C  9.87200 50.37400 40.08100
C  9.18800 51.73900 39.97900
C  10.70300 50.20900 41.42400
C  8.87200 48.51200 38.67000
C  8.88000 49.17800 37.29000
H  7.75300 48.75900 36.30600
N  8.15800 54.62600 40.54700
C  9.34900 54.27700 40.04200
C  10.16300 55.43200 39.78900
C  9.35500 56.51200 40.18200
C  8.04600 55.98100 40.63400
C  11.59400 55.37000 39.18500
C  9.74000 57.93300 40.12500
O  10.78800 58.21200 39.65100
C  8.98700 59.12100 40.68200
N  5.12900 54.84000 41.01900
C  5.52800 56.13500 41.06200
C  4.38300 57.06200 41.30100
C  3.18500 56.12400 41.10100
C  3.84100 54.73400 41.12500
C  4.47500 57.83600 42.65100
C  2.25000 56.29800 39.88300
C  0.74200 56.06500 40.14500
N  4.90200 51.98200 40.82900
C  3.55100 52.21100 41.04800
C  2.73100 50.95300 40.95500
C  3.72400 50.05700 40.70900
C  4.98900 50.67300 40.53300
C  1.33100 50.68500 41.08200
C  3.99100 48.62800 40.56100
O  3.24600 47.63100 40.64100
C  5.47100 48.37000 40.28400
C  5.44300 47.55500 38.96500
O  4.90900 47.91300 37.99800
O  6.16000 46.36500 39.07300
C  5.89000 45.36600 38.02600
H  10.89600 52.83900 39.84800
H  6.78800 57.75800 40.96100
H  1.98300 53.57100 41.15100
H  8.54300 48.79400 40.77400
H  10.67600 50.15000 39.38100
H  11.03100 51.08800 41.97800
H  11.59700 49.65600 41.13400
H  10.10400 49.67100 42.15900
H  8.06400 47.78600 38.75500
H  9.77900 47.91700 38.77900
H  9.83500 49.05600 36.77800
H  8.72500 50.23500 37.50600
H  11.63500 55.89000 38.22800
H  11.93900 54.33800 39.12800
H  12.23800 55.81500 39.94400
H  9.61800 60.01000 40.70800
H  8.80000 58.85500 41.72200
H  8.03000 59.32800 40.20300
H  4.21100 57.80500 40.52300
H  2.62900 56.07500 42.03700
H  4.65600 58.86700 42.34800
H  5.23300 57.50800 43.36200
H  3.45500 57.68600 43.00700
H  2.58300 55.74000 39.00800
H  2.33300 57.32100 39.51700
H  0.62200 56.06100 41.22800
H  0.52400 55.13700 39.61600
H  0.21400 56.96900 39.84200
H  1.17300 49.84800 40.40100
H  0.86000 51.64700 40.88100
H  1.14200 50.42700 42.12400
H  5.70800 47.63500 41.05300
H  4.81900 45.29300 37.83800
H  6.31900 44.39500 38.27200
H  6.34000 45.72500 37.10000

