158

Mg 7.51400 3.07800 27.96200
C  8.98300 1.77100 30.93300
C  5.50800 4.99000 29.96500
C  5.75500 4.04800 25.20800
C  9.21700 0.67100 26.07600
N  7.38600 3.41000 30.27700
C  8.18400 2.85500 31.28000
C  7.61100 3.32000 32.67500
C  6.41800 4.25200 32.29500
C  6.37700 4.16600 30.75000
C  5.08800 3.81600 32.80700
C  8.65600 3.97100 33.61700
C  9.17600 3.22700 34.76500
H  9.87200 3.98000 35.90300
N  5.87100 4.34700 27.63400
C  5.22900 5.06000 28.59000
C  4.21000 5.85000 27.99700
C  4.39200 5.75600 26.53500
C  5.38600 4.74000 26.39300
C  3.26600 6.74300 28.79200
C  3.76800 6.51900 25.37900
O  4.12400 6.36900 24.25500
C  2.61800 7.54100 25.57700
N  7.40900 2.47300 25.97600
C  6.58800 2.99500 25.00400
C  6.83500 2.29400 23.67200
C  8.21600 1.56700 23.88600
C  8.23500 1.49800 25.42100
C  5.69000 1.30800 23.12800
C  9.47400 2.30900 23.35500
C  9.84700 1.70800 21.90800
N  8.86300 1.61900 28.32700
C  9.45700 0.71000 27.47400
C  10.22500 -0.27300 28.26700
C  10.13800 0.15500 29.59900
C  9.19000 1.27000 29.59200
C  10.81900 -1.52000 27.88200
C  10.56300 -0.09100 30.97300
O  11.32200 -0.90500 31.41000
C  9.86800 0.94100 31.88000
C  9.14800 0.23300 32.94600
O  7.99800 -0.20900 32.80400
O  9.86800 0.05600 34.05200
C  9.24100 -0.41500 35.32100
H  4.88400 5.64900 30.57200
H  5.22500 4.37500 24.31000
H  9.68400 -0.00300 25.35400
H  7.35900 2.38500 33.17600
H  6.58100 5.28800 32.59200
H  5.34200 3.07800 33.56900
H  4.30600 3.37800 32.18700
H  4.68900 4.63800 33.40100
H  8.22300 4.93000 33.90100
H  9.55700 4.11300 33.02100
H  9.87500 2.57200 34.24600
H  8.44700 2.51900 35.16000
H  3.22400 6.57400 29.86800
H  2.28200 6.66800 28.32800
H  3.60700 7.77800 28.81400
H  2.27900 8.04600 24.67300
H  3.18600 8.27100 26.15200
H  1.73600 7.19500 26.11600
H  6.92900 3.17200 23.03400
H  8.09800 0.56100 23.48500
H  5.26200 1.68500 22.19800
H  4.88200 1.29300 23.85900
H  6.03600 0.29200 22.94000
H  10.25600 2.23200 24.11000
H  9.17700 3.33900 23.15900
H  9.91300 2.43800 21.10100
H  9.26700 0.85900 21.54500
H  10.84300 1.29900 22.07400
H  10.32400 -1.93500 27.00500
H  10.64800 -2.16300 28.74500
H  11.86400 -1.46700 27.57900
H  10.69500 1.51500 32.29900
H  9.17000 0.48000 35.93900
H  9.70000 -1.23000 35.88100
H  8.18200 -0.62800 35.17600
Mg 6.40400 53.52800 41.00300
C  5.99900 49.97200 41.14600
C  9.67400 52.86800 39.81800
C  6.86600 56.83500 40.46300
C  3.09000 53.96500 41.49700
N  7.54200 51.64400 40.36400
C  7.23700 50.29700 40.54100
C  8.36000 49.36000 40.12200
C  9.54900 50.34600 40.11500
C  8.84000 51.73900 40.05500
C  10.54900 50.37800 41.31500
C  8.08000 48.67300 38.75100
C  7.12100 49.27000 37.81500
H  7.56800 50.45700 36.98700
N  8.07600 54.66900 40.30700
C  9.30600 54.25900 39.88100
C  10.14700 55.39600 39.73700
C  9.36400 56.58900 39.79300
C  8.01100 56.07900 40.19500
C  11.64200 55.28800 39.59700
C  9.91100 58.04400 39.77700
O  11.10400 58.27400 39.49700
C  9.00300 59.24400 39.86900
N  5.16600 55.05500 40.86500
C  5.53800 56.37900 40.74400
C  4.41400 57.29200 40.99400
C  3.20200 56.39500 41.02800
C  3.87200 55.04000 41.09900
C  4.73500 58.22900 42.27100
C  2.16800 56.49400 39.83800
C  0.75000 56.67000 40.31400
N  4.84700 52.25600 41.37200
C  3.53000 52.61500 41.51000
C  2.82200 51.38400 41.91500
C  3.73700 50.35500 41.70400
C  4.93500 50.92400 41.37500
C  1.49500 51.25700 42.38700
C  3.94900 48.96200 41.79500
O  3.14200 48.03700 42.06000
C  5.48200 48.65000 41.47100
C  5.25600 47.70600 40.31200
O  4.62400 47.89400 39.24000
O  5.90500 46.57000 40.56900
C  5.84600 45.54300 39.51100
H  10.65800 52.76900 39.35500
H  6.78900 57.89400 40.21000
H  2.08600 54.17700 41.86900
H  8.59700 48.66400 40.92700
H  10.20600 50.17300 39.26300
H  11.47100 49.92100 40.95500
H  10.13900 49.67900 42.04500
H  10.67300 51.38600 41.71100
H  7.94500 47.59200 38.76900
H  9.03100 48.72000 38.21900
H  6.21100 49.65200 38.27800
H  6.88300 48.55500 37.02700
H  11.95500 55.52000 38.57800
H  11.99900 54.27600 39.78700
H  12.27100 56.02400 40.09800
H  9.56000 60.18000 39.90500
H  8.51400 59.18700 40.84200
H  8.32100 59.25700 39.01900
H  4.32900 57.94300 40.12300
H  2.76100 56.49200 42.02000
H  4.46000 59.24700 41.99600
H  5.75700 58.12700 42.63700
H  4.05800 57.94200 43.07500
H  2.26300 55.56400 39.27700
H  2.47700 57.29900 39.17100
H  0.44400 57.68600 40.56300
H  0.74300 56.00400 41.17700
H  0.11600 56.28100 39.51700
H  0.78500 51.77300 41.74000
H  1.43500 51.72200 43.37000
H  1.28100 50.18900 42.43200
H  5.97700 48.11300 42.28000
H  6.54600 44.78600 39.86400
H  6.37100 45.80600 38.59200
H  4.87000 45.07500 39.38200

