158

Mg 48.64600 14.95900 28.82800
C  46.56500 15.20700 31.69400
C  51.07700 16.72400 30.37800
C  50.20500 14.93400 25.98900
C  45.75200 13.51800 27.18600
N  48.69200 15.97000 30.72700
C  47.79300 15.87800 31.81400
C  48.43200 16.47600 33.09200
C  49.75900 17.14800 32.58400
C  49.89400 16.61000 31.14600
C  49.67700 18.71200 32.53900
C  48.69900 15.55700 34.24100
C  48.08500 15.89900 35.58600
H  48.91600 15.48300 36.79900
N  50.49600 15.67600 28.26300
C  51.34200 16.36700 29.03800
C  52.53700 16.64300 28.29100
C  52.31800 16.17800 26.97600
C  50.96600 15.56800 26.99300
C  53.76400 17.37500 28.95600
C  53.14700 16.23600 25.67700
O  52.81100 15.65500 24.62200
C  54.49500 16.90200 25.79600
N  47.95200 14.47900 26.78200
C  48.91000 14.53100 25.77100
C  48.31400 13.88900 24.53400
C  46.88800 13.34500 24.93300
C  46.81300 13.72900 26.39100
C  48.29100 14.85600 23.25500
C  46.71100 11.83900 24.78600
C  47.83400 10.81300 25.24500
N  46.64000 14.28100 29.38000
C  45.62600 13.74700 28.56400
C  44.47500 13.50000 29.39000
C  44.77900 13.98900 30.65500
C  46.11800 14.46200 30.57300
C  43.22500 12.80800 29.03900
C  44.24500 14.24800 31.93800
O  43.12400 14.05700 32.44500
C  45.46200 15.01000 32.69300
C  44.86300 16.22000 33.31000
O  44.41500 17.18100 32.66400
O  44.72200 16.10300 34.69200
C  44.04400 17.09500 35.53100
H  51.77700 17.18600 31.07700
H  50.75600 14.54000 25.13200
H  44.80800 13.15100 26.77600
H  47.79100 17.27500 33.46500
H  50.63200 17.00300 33.22100
H  50.54100 19.20800 32.98100
H  48.76600 19.09300 33.00200
H  49.61100 19.07100 31.51200
H  49.76700 15.54600 34.45400
H  48.45100 14.56500 33.86200
H  47.06300 15.52100 35.60300
H  47.97900 16.98300 35.53900
H  53.37500 17.95300 29.79400
H  54.37100 18.05300 28.35600
H  54.41700 16.64200 29.42900
H  55.16800 16.23200 26.33000
H  54.52600 17.90600 26.21800
H  54.95900 16.88100 24.81000
H  49.09900 13.17400 24.28900
H  46.13700 13.96700 24.44500
H  48.87600 14.34400 22.49000
H  48.65300 15.87100 23.41900
H  47.28800 14.87700 22.82900
H  46.46300 11.47700 23.78800
H  45.81700 11.49700 25.30600
H  47.53600 9.78500 25.03400
H  47.93100 10.94400 26.32200
H  48.74700 11.07300 24.71000
H  42.90300 12.76400 27.99900
H  42.38800 13.11500 29.66700
H  43.37800 11.74200 29.20300
H  45.81800 14.30700 33.44700
H  44.70300 17.24300 36.38700
H  43.01300 16.86700 35.80000
H  44.01000 18.04100 34.99200
Mg -1.76400 34.81600 26.86700
C  -3.04100 32.84500 29.53200
C  -0.23400 36.76500 29.07100
C  -0.97500 36.73600 24.23500
C  -3.40600 32.53800 24.59500
N  -1.81500 34.86700 29.11400
C  -2.19200 33.82600 29.99300
C  -1.72100 34.09600 31.41500
C  -0.76600 35.41200 31.19100
C  -0.97200 35.77200 29.69000
C  -1.02500 36.55600 32.18700
C  -0.98400 32.91800 32.04400
C  -1.67200 32.27800 33.25200
H  -0.82200 32.29700 34.53200
N  -0.72700 36.56500 26.69000
C  -0.13700 37.18600 27.73700
C  0.59200 38.22900 27.19900
C  0.44600 38.23400 25.76900
C  -0.46700 37.12700 25.48400
C  1.38700 39.18900 28.07900
C  1.02600 39.22200 24.72000
O  0.72900 39.25600 23.51700
C  2.02900 40.18500 25.14200
N  -2.53100 34.90300 24.68900
C  -1.80300 35.69100 23.87100
C  -1.84600 35.24300 22.40200
C  -2.35300 33.73800 22.62100
C  -2.85300 33.70300 24.02400
C  -2.85300 36.10100 21.55300
C  -1.21100 32.64000 22.35600
C  -1.74600 31.28300 21.92100
N  -3.03900 33.09100 26.95100
C  -3.55000 32.28000 25.97800
C  -4.12700 31.18000 26.64200
C  -4.08400 31.38000 28.04300
C  -3.32100 32.56000 28.16400
C  -4.88300 30.08800 25.98200
C  -4.50500 30.91700 29.31000
O  -5.27200 29.98000 29.59700
C  -3.79200 31.80800 30.33900
C  -4.93800 32.38100 31.10500
O  -5.60000 33.35600 30.81700
O  -5.13400 31.70600 32.33800
C  -5.99600 32.24700 33.36500
H  0.39500 37.28700 29.79400
H  -0.44400 37.19500 23.39800
H  -3.65700 31.76200 23.86900
H  -2.61600 34.33900 31.98800
H  0.26000 35.05800 31.29400
H  -1.55500 37.42400 31.79500
H  -0.00900 36.89500 32.38400
H  -1.45600 36.15600 33.10500
H  -0.00200 33.24400 32.38600
H  -0.85100 32.13900 31.29400
H  -1.85500 31.22500 33.04000
H  -2.68000 32.61100 33.50000
H  2.31700 39.50800 27.60800
H  1.67400 38.65700 28.98600
H  0.69000 40.02300 28.15400
H  1.65500 40.86300 25.90800
H  2.29800 40.65200 24.19400
H  2.90300 39.69700 25.57500
H  -0.81600 35.35500 22.06400
H  -3.10900 33.40600 21.91000
H  -3.15800 36.91600 22.20900
H  -3.74500 35.57000 21.22000
H  -2.48600 36.55000 20.63000
H  -0.64800 32.39100 23.25600
H  -0.55800 33.16500 21.66000
H  -1.29500 30.50000 22.53000
H  -1.44900 31.14900 20.88100
H  -2.83600 31.29100 21.94600
H  -5.07400 29.25900 26.66300
H  -4.37500 29.55400 25.17900
H  -5.83100 30.41300 25.55400
H  -3.16600 31.18900 30.98200
H  -6.73300 32.98500 33.04700
H  -5.39000 32.63200 34.18500
H  -6.45500 31.34200 33.76200

