158

Mg 49.97600 47.61700 43.45200
C  46.67900 47.83300 42.37300
C  50.13100 44.56800 41.88700
C  53.26500 47.49900 44.13400
C  49.89100 51.00300 44.48800
N  48.37500 46.19800 42.42100
C  47.15200 46.60400 42.01000
C  46.52900 45.51600 41.11800
C  47.55800 44.34000 41.19200
C  48.80300 45.07200 41.77800
C  47.22200 43.11300 42.07700
C  46.17100 45.92000 39.66400
C  44.79200 45.44700 39.16100
H  44.84600 44.44500 37.95100
N  51.47300 46.24700 43.02700
C  51.28300 45.04600 42.38300
C  52.61400 44.44400 42.24900
C  53.62700 45.33200 42.71800
C  52.76400 46.41700 43.34600
C  52.82500 43.04200 41.68000
C  55.15600 45.25800 42.69500
O  55.62700 44.29900 42.18400
C  56.08300 46.26200 43.33200
N  51.37000 49.16200 43.98100
C  52.57700 48.72100 44.47100
C  53.26600 49.89800 45.28700
C  52.15600 51.02500 45.36000
C  51.07500 50.39100 44.50700
C  53.82100 49.62500 46.68200
C  52.65500 52.49000 45.08900
C  52.67500 53.03500 43.71200
N  48.59100 49.20900 43.46100
C  48.69000 50.48400 43.84500
C  47.32600 51.11300 43.70200
C  46.57000 50.14800 43.07400
C  47.38700 48.97900 42.96100
C  46.94200 52.56100 44.17300
C  45.30700 49.85700 42.57800
O  44.29000 50.51100 42.46600
C  45.35000 48.40100 42.02600
C  44.35000 47.64600 42.79400
O  44.17400 47.56100 43.97300
O  43.53600 47.06200 41.85100
C  42.34500 46.40800 42.37100
H  50.26700 43.66600 41.28600
H  54.24500 47.43700 44.61100
H  49.82300 51.93000 45.06100
H  45.55400 45.26100 41.53300
H  47.83400 44.01400 40.18900
H  47.26800 42.27500 41.38100
H  46.16300 43.07000 42.33400
H  47.77300 43.01800 43.01300
H  46.97700 45.54100 39.03500
H  46.16700 47.00900 39.62400
H  44.30400 46.38800 38.90700
H  44.13700 45.02300 39.92200
H  53.20400 42.97300 40.66000
H  51.90400 42.46000 41.71700
H  53.62400 42.48700 42.17100
H  55.96300 46.34000 44.41300
H  55.85300 47.24700 42.92400
H  57.07100 45.88100 43.07300
H  53.96100 50.34100 44.57300
H  51.76500 51.11300 46.37400
H  53.24400 49.79700 47.59100
H  54.69000 50.22300 46.95700
H  54.15000 48.58700 46.66700
H  53.61400 52.64000 45.58500
H  51.93700 53.11800 45.61500
H  53.68200 53.43600 43.60400
H  51.99000 53.87300 43.58300
H  52.49600 52.31600 42.91200
H  46.98100 52.54000 45.26300
H  45.94500 52.83600 43.83100
H  47.69400 53.30300 43.90300
H  45.12200 48.29800 40.96500
H  42.49400 45.44500 42.86000
H  41.67000 46.23800 41.53100
H  41.72400 47.08800 42.95400
Mg 7.04900 53.43700 41.91900
C  6.22700 50.00300 41.18500
C  10.28300 52.79900 40.68900
C  7.73700 56.69500 41.87600
C  3.60700 54.01800 42.32300
N  8.11100 51.61800 40.85000
C  7.57300 50.34500 40.91100
C  8.71300 49.34300 40.35700
C  10.01700 50.17200 40.46800
C  9.45100 51.62500 40.71600
C  11.00900 49.67100 41.56100
C  8.31600 48.78400 38.94100
C  7.42400 49.66000 38.05900
H  7.15900 49.14900 36.71200
N  8.80900 54.60100 41.38200
C  10.02000 54.18200 40.96300
C  10.96000 55.24000 40.92000
C  10.13600 56.36600 41.17900
C  8.79200 55.93400 41.49300
C  12.44400 55.01200 40.44400
C  10.63200 57.78300 41.04100
O  11.81500 58.02400 40.78900
C  9.73500 59.00100 41.08400
N  5.81200 55.11300 41.96900
C  6.40600 56.40200 42.13800
C  5.29900 57.37900 42.43800
C  4.04500 56.52600 42.62400
C  4.47900 55.13700 42.26700
C  5.52300 58.49200 43.50300
C  2.80800 57.05700 41.77600
C  1.40700 56.94400 42.41900
N  5.33200 52.30000 41.90100
C  3.97500 52.68200 42.09000
C  3.11900 51.51600 42.05800
C  4.05200 50.41500 41.84500
C  5.31100 50.99900 41.59300
C  1.62300 51.48000 42.33400
C  4.12500 49.01000 41.82700
O  3.26600 48.20700 42.13800
C  5.56700 48.61500 41.33300
C  5.39400 47.68400 40.11800
O  4.93000 47.99800 39.03100
O  5.59400 46.42300 40.54700
C  5.18900 45.31100 39.62300
H  11.33800 52.56400 40.53300
H  7.72100 57.78500 41.82200
H  2.52500 54.15000 42.39000
H  8.66200 48.53700 41.08900
H  10.56400 50.15300 39.52500
H  11.96900 49.30900 41.19500
H  10.57300 48.81100 42.07000
H  11.26700 50.41500 42.31500
H  7.76100 47.86300 39.12000
H  9.17800 48.42800 38.37700
H  7.98200 50.59400 37.99300
H  6.48400 49.93800 38.53800
H  12.41500 54.41700 39.53000
H  12.90900 54.39800 41.21500
H  13.10400 55.87600 40.36900
H  10.36800 59.88700 41.03700
H  9.40500 59.03000 42.12300
H  9.00700 58.99300 40.27300
H  5.24400 57.85200 41.45800
H  3.86900 56.44500 43.69600
H  5.55300 59.50300 43.09700
H  6.43900 58.36600 44.08000
H  4.67500 58.51600 44.18800
H  2.80400 56.66200 40.76100
H  3.02400 58.08400 41.48100
H  0.73100 56.44100 41.72700
H  1.01400 57.94300 42.61000
H  1.43900 56.40300 43.36500
H  1.48400 51.93400 43.31500
H  1.21800 50.46800 42.33500
H  1.14400 52.25700 41.73800
H  5.99200 48.03300 42.15100
H  5.68400 44.35600 39.79900
H  5.43700 45.64300 38.61500
H  4.11100 45.15000 39.66600

