158

Mg 36.03000 49.60100 26.07400
C  36.39600 47.64800 28.94000
C  34.95300 52.29800 27.94400
C  35.39200 51.31300 23.21200
C  36.42200 46.75200 24.20800
N  35.68100 49.92300 28.13200
C  35.84300 48.96500 29.12700
C  35.45700 49.54300 30.48100
C  34.90300 50.97800 30.21100
C  35.10300 51.08400 28.68100
C  33.33300 51.12900 30.43700
C  36.73000 49.62000 31.47600
C  36.41400 49.34400 32.98400
H  34.96100 49.42200 33.54700
N  35.38400 51.60400 25.63300
C  35.12000 52.59500 26.56300
C  34.94100 53.85700 25.81000
C  35.02700 53.51900 24.44200
C  35.24000 52.12300 24.37500
C  34.67800 55.23000 26.54200
C  34.86100 54.37200 23.17200
O  34.83100 54.00500 22.03600
C  34.55600 55.87900 23.36700
N  35.97500 49.06000 24.00900
C  35.83500 49.96200 22.99700
C  35.69400 49.24300 21.59300
C  36.44200 47.91500 21.99700
C  36.18100 47.87400 23.51700
C  34.22800 49.16700 20.96700
C  37.88600 47.69500 21.54300
C  38.28700 46.34500 20.86200
N  36.41900 47.57200 26.46900
C  36.60000 46.53700 25.62500
C  37.05700 45.35800 26.38900
C  36.93200 45.73300 27.71200
C  36.60500 47.10400 27.69900
C  37.59400 44.07500 25.93500
C  37.05300 45.26300 29.09400
O  37.37000 44.20100 29.56000
C  36.55800 46.55000 29.99000
C  35.32000 46.20200 30.73500
O  34.18400 46.32200 30.28200
O  35.64300 45.66100 31.99900
C  34.41800 45.21900 32.67200
H  34.70200 53.15800 28.56900
H  35.20900 51.82700 22.26600
H  36.70000 45.93300 23.54100
H  34.73200 48.82800 30.87100
H  35.29300 51.77300 30.84600
H  32.92500 51.22900 29.43200
H  33.22000 52.05900 30.99500
H  32.86800 50.32400 31.00600
H  37.11400 50.63800 31.41800
H  37.46700 48.86000 31.21600
H  37.11700 49.89400 33.60900
H  36.73400 48.32500 33.20100
H  35.45300 55.92700 26.22000
H  34.68500 55.21200 27.63200
H  33.69200 55.62600 26.30000
H  35.46000 56.25200 23.85000
H  33.67100 56.12500 23.95400
H  34.64800 56.43900 22.43600
H  36.41000 49.75200 20.94800
H  35.97200 47.10200 21.44500
H  34.11800 48.11200 20.71900
H  34.15800 49.72800 20.03400
H  33.43100 49.56900 21.59200
H  38.45500 47.79200 22.46800
H  38.36500 48.51000 21.00100
H  38.40500 46.66100 19.82500
H  37.48400 45.61000 20.80200
H  39.19400 45.99700 21.35500
H  38.65600 43.97200 26.15800
H  37.39300 43.94000 24.87200
H  37.14400 43.24900 26.48600
H  37.43200 46.78000 30.60000
H  33.78400 46.06600 32.93500
H  34.71700 44.79500 33.63000
H  33.76700 44.56100 32.09700
Mg 10.20100 48.68300 26.44800
C  8.34900 48.44000 29.43200
C  12.77300 50.12500 28.21800
C  11.84900 48.66600 23.51000
C  7.20200 47.66400 24.65900
N  10.48200 49.28500 28.56800
C  9.67200 48.91900 29.61700
C  10.28000 49.42700 30.95300
C  11.53200 50.28200 30.54100
C  11.60800 49.93600 29.03500
C  11.37800 51.84700 30.90100
C  10.62900 48.21200 31.91600
C  9.78500 48.12500 33.22900
H  10.21600 49.01200 34.47600
N  12.15400 49.34100 25.99100
C  13.03400 49.84900 26.84100
C  14.20100 50.09900 26.04600
C  14.04600 49.53700 24.70900
C  12.64600 49.12600 24.69900
C  15.43200 50.80400 26.59400
C  14.93800 49.47700 23.43200
O  14.58400 49.05200 22.33800
C  16.33300 49.94600 23.51500
N  9.49800 48.36400 24.30400
C  10.47200 48.38100 23.35700
C  9.87500 47.93600 21.99000
C  8.51400 47.37900 22.45700
C  8.35900 47.83300 23.83900
C  9.82800 49.01200 20.86700
C  8.42900 45.90100 22.25100
C  9.53000 45.09700 23.03400
N  8.21700 48.27400 26.89200
C  7.12000 47.89100 26.08700
C  5.99700 47.60400 26.89500
C  6.42000 47.81100 28.18000
C  7.76300 48.16700 28.15400
C  4.62600 47.21400 26.45600
C  5.96600 47.78500 29.53100
O  4.81300 47.46700 29.93700
C  7.22800 48.19700 30.46200
C  7.51100 47.01200 31.33700
O  8.17500 46.05300 31.04000
O  6.78400 47.11000 32.51500
C  6.95100 46.05300 33.54400
H  13.67800 50.50600 28.69700
H  12.26000 48.55300 22.50500
H  6.35700 47.14700 24.20000
H  9.54100 50.07900 31.41900
H  12.42300 49.82400 30.97000
H  11.42500 52.46200 30.00200
H  12.30300 52.09600 31.42100
H  10.63400 52.15000 31.63800
H  11.68300 48.27900 32.18900
H  10.47000 47.28200 31.37100
H  9.75900 47.07100 33.50400
H  8.75600 48.40500 33.00500
H  16.26500 50.10100 26.57900
H  15.33500 51.10200 27.63800
H  15.67700 51.71900 26.05500
H  16.70200 50.05100 24.53500
H  16.28800 50.88200 22.95800
H  16.88700 49.13200 23.04800
H  10.52400 47.15800 21.58800
H  7.67700 47.79200 21.89400
H  8.88500 49.54500 20.74400
H  10.14700 48.60700 19.90700
H  10.66900 49.68600 21.03300
H  8.50800 45.70500 21.18200
H  7.47000 45.50100 22.57800
H  10.19100 45.64300 23.70700
H  10.04300 44.47000 22.30400
H  8.97900 44.52200 23.77800
H  3.89400 47.38800 27.24400
H  4.63900 46.16300 26.16700
H  4.32400 47.80900 25.59400
H  7.13100 49.10100 31.06300
H  7.70700 45.28400 33.38800
H  6.06800 45.46200 33.29800
H  6.92700 46.43800 34.56300

