158

Mg 7.41500 3.47700 27.05700
C  9.16400 2.07500 29.82900
C  5.31200 5.08400 29.20800
C  5.70100 4.61200 24.37200
C  9.00500 1.19800 25.01100
N  7.26900 3.52600 29.23800
C  8.16200 3.00600 30.19000
C  7.80900 3.58400 31.54800
C  6.50100 4.35400 31.31300
C  6.31700 4.31700 29.82600
C  5.17900 3.92700 32.08300
C  9.08200 4.36900 32.10900
C  8.88200 5.13200 33.42900
H  9.70800 4.66400 34.66900
N  5.75500 4.81500 26.85300
C  4.99100 5.36600 27.80200
C  3.92900 6.15800 27.25300
C  4.16100 6.17700 25.82900
C  5.23300 5.13000 25.64800
C  3.09200 7.10700 28.13500
C  3.47800 6.93100 24.80300
O  3.83500 6.76700 23.66500
C  2.38900 7.88500 25.07000
N  7.32200 2.97700 25.02300
C  6.65900 3.72400 24.08000
C  6.94900 3.18900 22.65200
C  8.18000 2.21600 22.84000
C  8.11400 2.06100 24.37700
C  5.75900 2.53800 21.90100
C  9.51900 2.85300 22.30800
C  9.79700 2.28700 20.89700
N  8.86700 1.95400 27.37200
C  9.36500 1.12000 26.45600
C  10.31900 0.23100 27.03000
C  10.32600 0.62800 28.42600
C  9.41000 1.68600 28.53200
C  10.93300 -0.97100 26.43200
C  10.84100 0.37100 29.73600
O  11.67100 -0.48100 30.08900
C  10.13300 1.30600 30.73600
C  9.54000 0.57000 31.95100
O  8.62300 -0.22700 31.92500
O  10.20000 1.00100 33.10900
C  9.81000 0.33600 34.45200
H  4.68100 5.59500 29.93800
H  5.29600 4.99400 23.43300
H  9.49300 0.47800 24.35000
H  7.62000 2.76100 32.23700
H  6.67100 5.39900 31.57100
H  5.44000 3.17500 32.82800
H  4.44500 3.62900 31.33400
H  4.80900 4.80600 32.61000
H  9.37000 5.02800 31.29100
H  9.93400 3.71100 32.27800
H  7.90600 5.08200 33.91100
H  9.17400 6.16600 33.24400
H  3.68200 7.37000 29.01300
H  2.24700 6.49300 28.44800
H  2.76600 7.99600 27.59500
H  2.05700 8.24200 24.09500
H  2.96300 8.68500 25.53600
H  1.56100 7.48900 25.65900
H  7.19700 4.08900 22.09000
H  8.09800 1.21600 22.41600
H  4.88100 2.81600 22.48400
H  5.86400 1.45300 21.88600
H  5.57700 2.98600 20.92400
H  10.31900 2.60800 23.00700
H  9.48700 3.94200 22.27300
H  9.63900 2.91800 20.02200
H  9.12900 1.46000 20.65700
H  10.81100 1.88900 20.85600
H  11.39600 -1.45300 27.29200
H  11.71200 -0.60100 25.76500
H  10.25000 -1.59600 25.85600
H  10.84700 2.05100 31.08700
H  8.97300 -0.35000 34.32200
H  9.48800 1.11600 35.14200
H  10.67800 -0.11800 34.93000
Mg 44.61200 4.75900 46.65900
C  42.84300 7.88300 46.75600
C  41.68700 3.28800 45.69300
C  46.32900 2.12200 45.64500
C  47.55400 6.61400 47.09800
N  42.50300 5.52200 46.27400
C  41.97600 6.76300 46.45500
C  40.47900 6.83800 46.12600
C  40.15300 5.31500 45.94100
C  41.55300 4.62600 46.02000
C  39.18700 4.77800 47.05900
C  40.28400 7.68100 44.78100
C  41.42500 7.47500 43.70200
H  40.88500 7.41300 42.23400
N  44.09700 2.94400 45.80500
C  42.80600 2.45400 45.54000
C  42.88600 1.06100 45.13000
C  44.24100 0.76900 45.09600
C  44.94900 1.94400 45.56000
C  41.70900 0.26100 44.73500
C  44.80900 -0.57700 44.69200
O  44.05300 -1.38700 44.24100
C  46.28000 -0.82100 44.55200
N  46.60100 4.51300 46.29400
C  47.03800 3.25900 46.07900
C  48.59600 3.08800 46.16100
C  49.06000 4.42900 46.65700
C  47.69000 5.29000 46.65200
C  49.13000 1.88500 46.97000
C  50.35200 5.02700 45.93600
C  51.70200 4.83600 46.68900
N  45.10100 6.82100 47.17200
C  46.35500 7.38200 47.22300
C  46.19200 8.82900 47.40100
C  44.81400 9.04500 47.35100
C  44.21700 7.76600 47.04500
C  47.31900 9.81600 47.59800
C  43.86200 10.07800 47.24400
O  43.92700 11.28800 47.33200
C  42.58100 9.37300 47.00800
C  41.86200 9.58900 48.30300
O  41.95500 8.87600 49.29200
O  41.02700 10.59900 48.18700
C  40.34700 10.89400 49.38500
H  40.76500 2.89000 45.26500
H  46.99400 1.26300 45.53300
H  48.52300 7.04100 47.36200
H  39.97500 7.32200 46.96200
H  39.72700 5.05100 44.97300
H  39.73600 4.33000 47.88700
H  38.48200 4.03300 46.69300
H  38.56900 5.59300 47.43600
H  40.54300 8.68800 45.10600
H  39.30800 7.59800 44.30400
H  42.04400 6.58600 43.82400
H  42.15800 8.28200 43.69200
H  41.70600 0.11500 43.65500
H  40.78500 0.73100 45.07300
H  41.64800 -0.68100 45.27900
H  46.28300 -1.78600 44.04600
H  46.86500 -0.84200 45.47200
H  46.62000 -0.02000 43.89500
H  49.00600 2.98100 45.15700
H  49.44300 4.32600 47.67300
H  48.31500 1.36500 47.47300
H  49.89500 2.06400 47.72500
H  49.65800 1.09600 46.43500
H  50.24000 6.10000 45.78100
H  50.48400 4.69600 44.90600
H  52.41200 4.51600 45.92600
H  51.66900 4.14700 47.53300
H  52.12000 5.81700 46.91700
H  46.79900 10.75800 47.42300
H  48.07000 9.61400 46.83300
H  47.70500 9.96000 48.60700
H  41.99800 9.83700 46.21300
H  39.49700 11.53600 49.15200
H  40.80300 11.51900 50.15300
H  39.92000 10.02400 49.88500

