158

Mg -2.26700 17.25700 27.09000
C  -2.98400 14.95800 29.63500
C  -2.51000 19.80700 29.34600
C  -2.06700 19.45700 24.48300
C  -2.67500 14.69600 24.74600
N  -2.71400 17.32100 29.25600
C  -2.88100 16.28400 30.10700
C  -2.98300 16.88200 31.51000
C  -2.93500 18.41200 31.42000
C  -2.74400 18.52100 29.88800
C  -4.19300 19.14600 32.08200
C  -1.83600 16.41100 32.49500
C  -1.87900 17.06900 33.99100
H  -1.89600 16.24800 35.24800
N  -2.19300 19.32600 26.93100
C  -2.24900 20.23700 28.00200
C  -2.08000 21.59700 27.58100
C  -1.69900 21.40500 26.19200
C  -2.00700 20.01900 25.77300
C  -2.39500 22.80200 28.56200
C  -1.12100 22.36200 25.34900
O  -0.72000 22.11600 24.27100
C  -0.93100 23.85300 25.78200
N  -2.59800 17.12200 24.98000
C  -2.40800 18.17000 24.16300
C  -2.55800 17.77000 22.64600
C  -2.73500 16.19100 22.67800
C  -2.55000 15.97300 24.23800
C  -3.56400 18.49100 21.75600
C  -1.92300 15.25400 21.72900
C  -0.53100 14.74100 22.24600
N  -2.58200 15.19900 27.11200
C  -2.69900 14.25800 26.09100
C  -2.86800 12.95800 26.61700
C  -2.92000 13.14900 28.04100
C  -2.84000 14.53000 28.27700
C  -2.98800 11.73600 25.78400
C  -3.08600 12.40600 29.28900
O  -3.23700 11.22500 29.56000
C  -3.17900 13.61000 30.36900
C  -2.06700 13.31500 31.34000
O  -0.94800 13.71300 31.24700
O  -2.47000 12.52300 32.37300
C  -1.53800 12.10700 33.38600
H  -2.38700 20.61600 30.06800
H  -1.98800 20.19500 23.68200
H  -2.64700 13.84800 24.05900
H  -3.90300 16.38600 31.81800
H  -1.99400 18.81300 31.79900
H  -4.76800 18.31900 32.49700
H  -4.80700 19.64400 31.33100
H  -3.98000 19.78500 32.93800
H  -0.88700 16.54500 31.97500
H  -1.94000 15.33300 32.61800
H  -2.73900 17.71700 34.16100
H  -1.14600 17.87300 33.92700
H  -2.14500 23.80300 28.20900
H  -1.82600 22.57400 29.46300
H  -3.46700 22.71100 28.73800
H  -0.22000 24.16300 25.01600
H  -0.51300 23.94300 26.78400
H  -1.77500 24.52300 25.62200
H  -1.56800 18.06100 22.29300
H  -3.77300 16.02900 22.38700
H  -3.55900 17.93200 20.82000
H  -3.28400 19.53400 21.60400
H  -4.54600 18.43300 22.22500
H  -1.70700 15.78100 20.80000
H  -2.56300 14.42700 21.42300
H  0.28300 14.83700 21.52800
H  -0.53000 13.66200 22.40100
H  -0.23400 15.20300 23.18700
H  -2.72500 11.97400 24.75400
H  -3.98800 11.30600 25.72500
H  -2.34700 10.98300 26.24100
H  -4.12400 13.50400 30.90100
H  -0.81100 11.39200 33.00000
H  -1.95300 11.55500 34.23000
H  -1.01800 12.93400 33.86900
Mg -4.93700 25.18200 26.25600
C  -3.58700 26.44300 29.21400
C  -7.01900 23.23600 28.09600
C  -5.79300 23.61200 23.39700
C  -2.44900 27.06400 24.43000
N  -5.25800 24.88000 28.36900
C  -4.64900 25.50500 29.38400
C  -5.24400 25.19100 30.70600
C  -6.24000 24.05400 30.41500
C  -6.19100 24.07100 28.86000
C  -5.78000 22.62000 30.93700
C  -5.88100 26.41300 31.40400
C  -5.42100 26.78500 32.83300
H  -4.79600 25.68100 33.70000
N  -6.21700 23.69400 25.84600
C  -7.04000 23.06700 26.73100
C  -8.02800 22.27900 25.95800
C  -7.70400 22.39000 24.58500
C  -6.48500 23.29600 24.54700
C  -9.01700 21.52400 26.78700
C  -8.37200 21.73800 23.39000
O  -7.87600 21.69000 22.23600
C  -9.75200 21.14700 23.57000
N  -4.18500 25.33600 24.17100
C  -4.71800 24.54600 23.20700
C  -3.82700 24.56300 21.96900
C  -2.81100 25.75200 22.20600
C  -3.11300 26.05200 23.73100
C  -3.17600 23.15200 21.54900
C  -3.07800 27.05200 21.36600
C  -1.93500 28.02100 20.96800
N  -3.22100 26.52300 26.64300
C  -2.43700 27.27800 25.81800
C  -1.68000 28.14500 26.61800
C  -2.00200 27.89000 28.01100
C  -3.03600 26.91600 27.94600
C  -0.65800 29.15900 26.10300
C  -1.74800 28.17200 29.45900
O  -1.02400 28.93100 30.02800
C  -2.72300 27.19300 30.25300
C  -1.79000 26.22300 30.87800
O  -1.19300 25.35200 30.19600
O  -1.55800 26.47700 32.19700
C  -0.48700 25.76700 32.95000
H  -7.59400 22.57200 28.74500
H  -6.10700 23.14200 22.46300
H  -1.81100 27.70000 23.81300
H  -4.38100 24.88500 31.29800
H  -7.27100 24.27600 30.69100
H  -6.16700 22.52600 31.95200
H  -4.70500 22.53500 31.09600
H  -6.13700 21.75800 30.37400
H  -6.95400 26.25900 31.51900
H  -5.63500 27.31900 30.85100
H  -6.35100 27.08900 33.31400
H  -4.72900 27.62600 32.78300
H  -8.56900 20.86700 27.53300
H  -9.65200 20.82400 26.24400
H  -9.69300 22.21400 27.29100
H  -10.25400 21.17500 22.60300
H  -10.32300 21.73700 24.28700
H  -9.60700 20.13200 23.93900
H  -4.50400 24.86000 21.16800
H  -1.79000 25.40500 22.04600
H  -2.12200 23.17700 21.27200
H  -3.83100 22.81200 20.74700
H  -3.30700 22.45700 22.37800
H  -3.73200 27.70900 21.94000
H  -3.68500 26.69100 20.53600
H  -2.10000 28.96500 21.48700
H  -1.85100 28.13100 19.88700
H  -0.96800 27.64500 21.30200
H  -1.21400 30.08800 26.23100
H  -0.34900 28.88700 25.09300
H  0.23100 29.28000 26.72200
H  -3.28200 27.59100 31.10100
H  0.00700 25.14000 32.20800
H  -1.08700 25.12700 33.59600
H  0.20300 26.41700 33.48800

