158

Mg -2.79100 17.75300 26.86900
C  -3.35700 15.47500 29.49100
C  -3.18800 20.27800 29.14300
C  -2.36000 19.78900 24.37600
C  -2.82000 14.91400 24.68100
N  -3.11600 17.80600 29.00200
C  -3.20500 16.81500 29.89100
C  -3.22700 17.27700 31.36600
C  -3.44300 18.77000 31.18800
C  -3.22200 18.97400 29.65800
C  -4.83400 19.24800 31.72400
C  -1.92100 16.90900 32.04100
C  -1.50300 17.77600 33.31200
H  -1.08700 16.98400 34.63500
N  -2.76500 19.79700 26.80100
C  -2.85800 20.64400 27.80700
C  -2.81000 21.99000 27.29200
C  -2.38500 21.85000 25.93000
C  -2.48500 20.45900 25.66100
C  -3.09500 23.23200 28.16000
C  -1.86000 22.89700 24.99700
O  -1.54100 22.68100 23.80400
C  -1.62500 24.30300 25.44700
N  -2.78400 17.43300 24.76100
C  -2.41100 18.42500 23.98400
C  -2.32000 17.94200 22.50300
C  -2.24400 16.36300 22.59700
C  -2.64100 16.18000 24.06400
C  -3.42000 18.46100 21.62000
C  -0.77000 15.88100 22.32500
C  0.17100 15.80700 23.55700
N  -3.14700 15.62300 26.95500
C  -3.15200 14.64100 26.03800
C  -3.44200 13.33800 26.65300
C  -3.47100 13.58500 27.99400
C  -3.25800 14.94600 28.15500
C  -3.59600 11.98500 26.04400
C  -3.58100 12.99500 29.24000
O  -3.76800 11.87300 29.59300
C  -3.56900 14.18400 30.28600
C  -2.47700 13.84400 31.20600
O  -1.27500 13.79100 30.98000
O  -3.08700 13.40000 32.41900
C  -2.13600 12.90500 33.42200
H  -3.14500 21.13900 29.81300
H  -2.19400 20.38400 23.47600
H  -2.74200 14.07500 23.98700
H  -4.04900 16.77600 31.87800
H  -2.78400 19.44400 31.73600
H  -5.17100 18.67700 32.58900
H  -5.60800 19.14900 30.96300
H  -4.70600 20.31800 31.88900
H  -1.08100 16.95100 31.34700
H  -1.87000 15.89800 32.44500
H  -2.37500 18.40600 33.48900
H  -0.76300 18.53100 33.04700
H  -3.98000 23.02000 28.76000
H  -3.37000 24.11100 27.57800
H  -2.27900 23.48100 28.83700
H  -2.49200 24.95100 25.57100
H  -0.94200 24.75600 24.72900
H  -1.07100 24.16200 26.37500
H  -1.42700 18.46500 22.16000
H  -2.87500 15.80400 21.90600
H  -4.42800 18.13900 21.88200
H  -3.42500 17.97700 20.64300
H  -3.30900 19.54600 21.60600
H  -0.30900 16.48600 21.54500
H  -1.01700 14.88700 21.95200
H  -0.32000 15.97500 24.51600
H  1.00400 16.49300 23.40400
H  0.64600 14.83100 23.64800
H  -2.74400 11.40300 26.39500
H  -3.61700 11.99000 24.95500
H  -4.53800 11.61300 26.44700
H  -4.48900 14.31500 30.85600
H  -1.31300 12.38300 32.93200
H  -2.63900 12.23100 34.11500
H  -1.85400 13.80000 33.97500
Mg 7.04600 2.87500 27.94800
C  8.65500 1.44200 30.88700
C  5.23100 4.78700 30.08800
C  5.50700 4.20300 25.26400
C  8.71300 0.67000 26.04700
N  6.91900 3.00400 30.32000
C  7.77200 2.44600 31.23000
C  7.46100 3.09900 32.60100
C  6.10400 4.01100 32.38200
C  6.14300 3.99900 30.82400
C  4.81200 3.44100 32.85000
C  8.61300 3.99600 33.01900
C  8.42200 4.72700 34.40000
H  9.34900 4.25000 35.47400
N  5.60600 4.28500 27.70000
C  4.91300 4.96300 28.70000
C  3.93400 5.91000 28.17700
C  4.10600 5.85500 26.74600
C  5.11700 4.80900 26.49200
C  3.08900 6.76700 29.10100
C  3.35200 6.65300 25.76400
O  3.61200 6.52100 24.59300
C  2.27700 7.73000 26.11800
N  6.99300 2.46200 25.96700
C  6.39200 3.14800 24.97700
C  6.72800 2.65400 23.54800
C  7.91500 1.66800 23.90000
C  7.82000 1.53300 25.43500
C  5.45200 2.04500 22.88400
C  9.27800 2.21800 23.39000
C  10.06200 3.18800 24.33600
N  8.25600 1.28300 28.35700
C  8.96300 0.54100 27.47700
C  9.82500 -0.34700 28.10400
C  9.72800 -0.09700 29.48700
C  8.82100 0.98800 29.58400
C  10.69100 -1.37300 27.33800
C  10.28100 -0.35900 30.79800
O  11.16200 -1.16500 31.12600
C  9.66000 0.68900 31.75200
C  9.07200 -0.01000 32.86800
O  7.95500 -0.44500 32.87500
O  9.96900 -0.18100 33.90700
C  9.50500 -0.56400 35.27800
H  4.87900 5.50900 30.82800
H  4.92500 4.58500 24.42200
H  9.21900 -0.06700 25.42000
H  7.21800 2.32300 33.32800
H  6.27300 4.99200 32.82600
H  4.57900 4.00600 33.75200
H  4.90500 2.36900 33.03000
H  4.00400 3.67100 32.15600
H  8.70600 4.81800 32.30900
H  9.53800 3.42000 33.05900
H  7.42500 4.43600 34.73000
H  8.52400 5.77700 34.12600
H  3.13800 7.80700 28.77800
H  3.50300 6.73400 30.10900
H  2.04300 6.45800 29.11000
H  1.57400 7.32900 26.84800
H  1.78700 8.08300 25.21100
H  2.79600 8.51900 26.66300
H  7.11800 3.60000 23.17300
H  7.57900 0.71700 23.48600
H  4.52300 2.34900 23.36700
H  5.52200 0.96000 22.95200
H  5.37200 2.27000 21.82000
H  9.03900 2.66000 22.42300
H  9.83600 1.32700 23.10000
H  9.90000 4.19500 23.95300
H  11.13900 3.02000 24.34500
H  9.80900 3.14500 25.39500
H  11.63200 -1.68400 27.79100
H  10.98600 -1.06200 26.33600
H  10.04500 -2.23600 27.17600
H  10.35000 1.48800 32.02200
H  8.58900 -1.15400 35.28700
H  9.21600 0.38300 35.73500
H  10.24200 -1.07100 35.90000

