158

Mg -1.85400 33.65000 27.75100
C  -3.59400 32.02700 30.42400
C  -0.55200 35.88400 30.29800
C  -0.25600 35.27400 25.40500
C  -3.51700 31.69900 25.40600
N  -2.15200 33.99700 30.04100
C  -2.82700 33.09600 30.89400
C  -2.82900 33.63800 32.36800
C  -1.85300 34.89300 32.31300
C  -1.46700 34.88100 30.78600
C  -2.57300 36.28300 32.60800
C  -2.37400 32.49000 33.37300
C  -3.37600 32.18400 34.55100
H  -2.83300 32.23700 35.97900
N  -0.68600 35.36500 27.80400
C  -0.15800 36.12500 28.94300
C  0.83400 37.00400 28.40200
C  0.94700 36.81900 27.02300
C  -0.07000 35.79900 26.70600
C  1.64700 37.88100 29.33500
C  1.87300 37.46400 26.03100
O  1.87700 37.17800 24.89300
C  3.01400 38.22400 26.56000
N  -2.13400 33.56000 25.64500
C  -1.20400 34.30000 24.92300
C  -1.49400 34.05900 23.42800
C  -2.47900 32.83900 23.38200
C  -2.83400 32.71500 24.86100
C  -1.99300 35.24100 22.68000
C  -1.91500 31.50600 22.82900
C  -0.69900 30.95000 23.63900
N  -3.14300 32.10000 27.84600
C  -3.67400 31.38900 26.77300
C  -4.47800 30.36600 27.31700
C  -4.49700 30.55200 28.75200
C  -3.65500 31.62400 29.01300
C  -5.40700 29.46700 26.55600
C  -4.97900 30.02800 30.02900
O  -5.61200 29.02400 30.33900
C  -4.39200 30.96200 31.14300
C  -5.51900 31.58600 31.87000
O  -6.06100 32.63900 31.53500
O  -5.85000 30.77700 32.96600
C  -6.88500 31.35200 33.77900
H  -0.03600 36.50400 31.03500
H  0.30200 35.50600 24.49500
H  -4.18700 31.28900 24.64600
H  -3.84600 34.00400 32.51400
H  -1.06200 34.86700 33.06200
H  -3.41500 36.12800 33.28300
H  -3.04400 36.80300 31.77400
H  -1.83400 36.88900 33.13200
H  -1.39400 32.78300 33.75000
H  -2.27000 31.56800 32.80000
H  -3.56200 31.11200 34.49600
H  -4.26900 32.80600 34.49200
H  2.57800 37.32100 29.42900
H  1.24800 37.99500 30.34300
H  1.87800 38.91100 29.06600
H  3.72900 38.43400 25.76600
H  3.55700 37.62500 27.29200
H  2.68500 39.10400 27.11500
H  -0.59700 33.71600 22.91200
H  -3.32300 33.17600 22.77900
H  -1.67300 36.07600 23.30300
H  -3.07300 35.28800 22.54400
H  -1.62300 35.22500 21.65500
H  -1.61300 31.62500 21.78800
H  -2.68700 30.73900 22.88900
H  0.27200 31.08100 23.16100
H  -0.85100 29.87000 23.62900
H  -0.50200 31.28700 24.65600
H  -5.15400 29.17900 25.53600
H  -6.36300 29.98600 26.63300
H  -5.53000 28.58400 27.18300
H  -3.73400 30.33600 31.74600
H  -7.84600 30.88200 33.57100
H  -7.08000 32.40300 33.56000
H  -6.57900 31.38300 34.82400
Mg -13.09500 15.59300 43.14600
C  -10.44300 13.43400 42.32900
C  -11.65700 18.01800 41.39900
C  -16.16400 17.17100 42.95900
C  -14.78100 12.72800 44.50300
N  -11.31200 15.60800 41.82100
C  -10.35500 14.73600 41.72700
C  -9.09000 15.34800 41.08000
C  -9.37100 16.88500 41.11900
C  -10.90600 16.84800 41.49200
C  -8.49100 17.65100 42.20000
C  -8.70300 14.80500 39.75000
C  -7.22100 14.68800 39.38500
H  -6.63500 15.60000 38.21600
N  -13.76300 17.42800 42.43500
C  -13.00900 18.25000 41.68400
C  -13.66200 19.45900 41.39600
C  -15.00800 19.28800 41.88400
C  -15.04500 17.89400 42.46700
C  -13.11100 20.71300 40.72300
C  -16.10200 20.36700 41.84000
O  -15.89200 21.42900 41.16900
C  -17.48700 20.32000 42.48400
N  -15.21100 14.93000 43.59200
C  -16.18400 15.84000 43.54100
C  -17.51700 15.15200 44.07800
C  -17.01600 13.76100 44.73300
C  -15.59500 13.76400 44.19600
C  -18.42000 16.08400 44.97800
C  -17.81400 12.50300 44.51200
C  -18.13200 11.63000 45.75600
N  -12.69200 13.49900 43.53400
C  -13.43200 12.56800 44.16200
C  -12.62100 11.35700 44.28200
C  -11.41100 11.60600 43.64600
C  -11.53500 12.93900 43.13600
C  -13.02600 10.10600 44.96700
C  -10.09700 11.12600 43.27200
O  -9.47100 10.11200 43.53700
C  -9.47200 12.35600 42.37900
C  -8.23900 12.85100 43.06500
O  -8.16500 13.51800 44.08300
O  -7.16300 12.33200 42.38000
C  -5.79700 12.53600 42.76200
H  -11.08600 18.90200 41.10500
H  -17.17400 17.58400 42.91700
H  -15.35500 11.88800 44.89800
H  -8.33700 15.11800 41.83400
H  -9.25600 17.37000 40.15000
H  -9.06400 17.75400 43.12200
H  -8.11600 18.62300 41.87900
H  -7.64000 17.01200 42.43300
H  -9.23800 15.48000 39.08200
H  -9.06100 13.77600 39.76100
H  -7.21200 13.68900 38.94900
H  -6.64600 14.75500 40.30900
H  -12.06800 20.62200 40.42000
H  -13.27600 21.59100 41.34800
H  -13.64600 20.82100 39.77900
H  -17.53000 19.67600 43.36200
H  -18.06300 19.76800 41.74100
H  -17.91100 21.30200 42.69100
H  -18.15200 14.93200 43.22000
H  -16.91000 13.92800 45.80500
H  -17.71900 16.76100 45.46700
H  -18.96900 15.46400 45.68600
H  -19.19700 16.54900 44.37200
H  -17.38100 11.78000 43.82100
H  -18.82400 12.80800 44.23700
H  -19.13400 11.66700 46.18400
H  -17.70100 11.92900 46.71200
H  -17.81300 10.59700 45.61800
H  -12.18000 9.77200 45.56700
H  -13.19800 9.51200 44.07000
H  -13.86300 10.15100 45.66400
H  -9.25400 11.96800 41.38500
H  -5.55200 13.20200 43.59000
H  -5.39100 12.97500 41.85100
H  -5.22400 11.61100 42.83200

