158

Mg 49.47000 44.72600 42.93500
C  46.07800 45.44500 41.81100
C  49.03900 41.65700 41.94100
C  52.78000 44.58600 43.10600
C  49.66200 48.27600 43.60100
N  47.78800 43.78000 41.86600
C  46.52500 44.14600 41.53500
C  45.64500 43.05100 40.93800
C  46.59000 41.79000 41.13100
C  47.89100 42.41200 41.70600
C  45.95600 40.73400 42.05300
C  45.32400 43.37600 39.41400
C  44.44100 42.35800 38.63700
H  44.93600 41.71500 37.28400
N  50.71100 43.27300 42.65900
C  50.38100 42.00900 42.30300
C  51.50900 41.21600 42.30300
C  52.65100 42.02500 42.62900
C  52.11600 43.37100 42.80100
C  51.45700 39.79800 41.94500
C  54.03500 41.57600 42.70900
O  54.41400 40.38800 42.52300
C  55.24900 42.54500 43.18100
N  51.05300 46.22300 43.51400
C  52.33100 45.89400 43.43000
C  53.26500 47.09500 43.58200
C  52.24700 48.26200 43.96600
C  50.86900 47.56000 43.66100
C  54.73500 47.04100 44.30300
C  52.31900 49.54800 43.06200
C  51.90800 50.87900 43.63500
N  48.16800 46.49800 42.87200
C  48.38600 47.82300 43.26800
C  47.17800 48.60200 43.11400
C  46.33000 47.70600 42.50000
C  46.90300 46.44300 42.41500
C  47.02900 50.08800 43.48000
C  45.00000 47.59800 41.87500
O  44.19600 48.50300 41.72200
C  44.77700 46.09300 41.54700
C  43.69200 45.58500 42.31300
O  42.69300 45.07500 41.82000
O  43.86200 45.58800 43.65800
C  42.60400 45.20400 44.28800
H  48.91800 40.60200 41.69000
H  53.86100 44.45000 43.02900
H  49.69900 49.32300 43.91000
H  44.70100 42.94200 41.47100
H  46.94600 41.37500 40.18800
H  44.93500 40.98300 42.34000
H  46.56400 40.57900 42.94500
H  46.06900 39.84900 41.42700
H  46.26700 43.45600 38.87300
H  44.81600 44.34000 39.43100
H  43.44800 42.80200 38.56100
H  44.38700 41.48200 39.28400
H  51.09000 39.27500 42.82800
H  52.42800 39.40200 41.64700
H  50.76600 39.46100 41.17300
H  56.05900 41.83400 43.34100
H  55.11000 42.91800 44.19500
H  55.51400 43.26600 42.40700
H  53.65000 47.27200 42.57800
H  52.20300 48.56800 45.01100
H  55.00000 46.08800 44.76100
H  54.84500 47.88600 44.98300
H  55.57900 47.23200 43.64000
H  51.71900 49.43000 42.16000
H  53.33900 49.64900 42.69200
H  52.76500 51.53200 43.46800
H  51.62200 50.88300 44.68700
H  50.97400 51.09500 43.11600
H  47.23500 50.62800 42.55600
H  47.75000 50.30400 44.26900
H  45.99700 50.26200 43.78600
H  44.55900 46.15400 40.48100
H  41.86900 45.80400 43.75100
H  42.54000 45.36300 45.36400
H  42.53300 44.12200 44.18100
Mg -11.10400 38.40200 41.11300
C  -8.99500 35.73500 39.95800
C  -8.95900 40.52600 39.56200
C  -13.41300 40.64500 41.49600
C  -13.15800 35.85100 42.49400
N  -9.28300 38.03000 39.67300
C  -8.63500 36.92400 39.41900
C  -7.27900 37.34200 38.61700
C  -7.18500 38.85600 38.90800
C  -8.57900 39.20600 39.41700
C  -6.16300 39.19200 40.04800
C  -7.38800 36.97000 37.10500
C  -6.56500 35.78000 36.64000
H  -5.83800 36.05100 35.28600
N  -11.18400 40.34000 40.59600
C  -10.14600 41.12900 40.05800
C  -10.49900 42.49200 40.18900
C  -11.82400 42.53000 40.54800
C  -12.21600 41.16800 40.93400
C  -9.55200 43.61000 39.74200
C  -12.63000 43.82100 40.65800
O  -12.04000 44.92100 40.47100
C  -14.04600 43.87500 40.75100
N  -13.06600 38.20000 41.76000
C  -13.81100 39.33300 41.87800
C  -15.20000 39.09700 42.49400
C  -15.12800 37.57600 42.81600
C  -13.66300 37.20300 42.40900
C  -15.71900 40.04800 43.61700
C  -16.18200 36.61300 42.10400
C  -16.77300 35.44800 42.97700
N  -11.03700 36.25300 41.32600
C  -11.92300 35.43500 42.00000
C  -11.36800 34.16000 42.10000
C  -10.26100 34.22500 41.22100
C  -10.18700 35.50700 40.68800
C  -11.82100 33.10900 42.94900
C  -9.16500 33.47700 40.61000
O  -8.80500 32.31700 40.81300
C  -8.41300 34.37500 39.56900
C  -6.90700 34.25800 39.81400
O  -6.26500 34.89800 40.66500
O  -6.49400 33.28500 38.95000
C  -5.12200 32.82200 39.03100
H  -8.26900 41.24900 39.12200
H  -14.21000 41.33700 41.77800
H  -13.72200 35.12900 43.08800
H  -6.38900 36.81300 38.95500
H  -6.79700 39.39500 38.04400
H  -5.25700 39.67900 39.68600
H  -5.91200 38.31700 40.64700
H  -6.70600 39.86700 40.70900
H  -7.20000 37.85500 36.49800
H  -8.43300 36.72900 36.91200
H  -7.16200 34.87200 36.55100
H  -5.77500 35.54600 37.35300
H  -9.96000 43.88500 38.76900
H  -8.48500 43.41400 39.63100
H  -9.63500 44.38400 40.50500
H  -14.36300 43.02900 40.14000
H  -14.44200 44.80500 40.34400
H  -14.31500 43.55100 41.75600
H  -15.90900 39.22600 41.67600
H  -15.19900 37.39500 43.88900
H  -14.97300 40.80600 43.85600
H  -15.96900 39.43600 44.48400
H  -16.68800 40.45300 43.32500
H  -15.93300 36.21700 41.12000
H  -17.08700 37.20600 41.97000
H  -17.86000 35.38300 43.02100
H  -16.24600 35.45200 43.93100
H  -16.54100 34.43500 42.64600
H  -11.95100 32.24000 42.30400
H  -12.79300 33.25100 43.42000
H  -11.13700 32.93500 43.77900
H  -8.55400 34.09400 38.52600
H  -4.43900 33.34300 38.36000
H  -4.96800 31.74900 38.90900
H  -4.70300 33.04900 40.01100

