158

Mg 7.55700 2.65300 27.40100
C  9.22800 1.16400 30.15800
C  5.89600 4.74100 29.65600
C  6.12200 3.94700 24.78600
C  8.75000 0.01200 25.46400
N  7.42700 2.72200 29.67600
C  8.29800 2.14600 30.54800
C  8.17000 2.74700 31.98200
C  6.93000 3.77300 31.91900
C  6.76700 3.78300 30.29900
C  5.60700 3.30700 32.54200
C  9.45200 3.44600 32.50300
C  9.25000 4.32700 33.79200
H  10.27900 4.16000 34.87400
N  6.11100 4.17000 27.20800
C  5.53000 4.89500 28.22500
C  4.65400 5.91700 27.67400
C  4.79400 5.72100 26.25700
C  5.72100 4.57800 25.98200
C  3.84900 6.83500 28.43000
C  4.04800 6.41100 25.05400
O  4.29200 6.18100 23.85500
C  3.31600 7.55300 25.36500
N  7.33300 1.92600 25.45900
C  6.77700 2.73100 24.55200
C  6.94000 2.29700 23.06700
C  7.75600 1.02200 23.31000
C  8.01600 0.98200 24.80600
C  5.51100 1.92600 22.50400
C  9.15800 0.91900 22.60800
C  9.49600 -0.48000 21.95200
N  8.63600 0.93400 27.67600
C  9.02500 -0.08900 26.85600
C  9.88600 -1.04000 27.40800
C  10.01600 -0.54300 28.73200
C  9.25600 0.64400 28.87600
C  10.45800 -2.19700 26.73600
C  10.66000 -0.81400 29.98200
O  11.52200 -1.63300 30.40600
C  10.26500 0.39100 30.93200
C  9.74300 -0.16900 32.21600
O  8.71700 -0.86900 32.33800
O  10.70700 0.03500 33.22400
C  10.48000 -0.69300 34.46300
H  5.49000 5.58300 30.22100
H  5.67300 4.26800 23.84400
H  9.24000 -0.82500 24.96200
H  8.05700 1.96300 32.73100
H  7.15700 4.80300 32.19500
H  5.57600 2.25500 32.82700
H  4.92200 3.30400 31.69400
H  5.30400 4.04600 33.28400
H  9.85200 4.06800 31.70300
H  10.16400 2.63400 32.65200
H  8.29700 3.96900 34.18300
H  9.20000 5.37900 33.51400
H  3.80600 6.60000 29.49400
H  2.82100 6.66900 28.11100
H  4.30100 7.80100 28.20400
H  3.93500 8.35100 25.77600
H  2.44300 7.27200 25.95400
H  2.90400 8.02500 24.47300
H  7.46600 3.05800 22.49100
H  7.13300 0.17900 23.01200
H  4.76100 2.06200 23.28300
H  5.37400 0.89700 22.17200
H  5.38500 2.63500 21.68600
H  9.95700 1.16700 23.30700
H  9.18000 1.74700 21.90000
H  9.82000 -0.35100 20.91900
H  8.61700 -1.10700 22.10600
H  10.37100 -0.96900 22.38100
H  11.22100 -1.87200 26.02800
H  9.67800 -2.77300 26.23800
H  10.90700 -2.89100 27.44700
H  11.12600 1.03900 31.09800
H  9.88200 -1.59000 34.29600
H  9.87500 -0.13100 35.17400
H  11.47400 -0.76400 34.90400
Mg 34.95800 2.58700 29.36400
C  32.81400 3.50900 31.96700
C  37.53500 2.15000 31.57500
C  36.94800 1.70600 26.74300
C  32.36100 3.40900 26.98200
N  35.11700 2.92700 31.51100
C  34.09000 3.24000 32.46100
C  34.68900 3.33900 33.94700
C  36.18300 3.03500 33.63100
C  36.31900 2.61000 32.16200
C  37.21000 4.22800 33.85300
C  34.03000 2.45300 34.95500
C  33.55400 3.07500 36.27900
H  34.56900 3.83400 37.03000
N  36.96300 1.97700 29.14300
C  37.84900 1.94200 30.14800
C  39.12500 1.48500 29.62800
C  39.02500 1.31100 28.23700
C  37.59000 1.59100 27.99300
C  40.33000 1.09100 30.56300
C  39.99600 0.79500 27.21200
O  39.66000 0.42500 26.10300
C  41.57300 0.57100 27.59100
N  34.69900 2.56800 27.20900
C  35.65300 2.11600 26.35600
C  35.09800 1.97400 24.89300
C  33.59300 2.34500 25.03300
C  33.54600 2.83700 26.48900
C  35.84600 2.80500 23.88700
C  32.68200 1.09400 24.78900
C  31.74200 1.21700 23.58100
N  33.01500 3.33600 29.37100
C  32.06400 3.59900 28.34700
C  30.80900 3.88300 29.01100
C  31.02800 3.88700 30.42000
C  32.39700 3.49400 30.59900
C  29.54300 3.92700 28.34500
C  30.38600 4.09500 31.76400
O  29.24300 4.43000 32.07000
C  31.53400 3.85100 32.82300
C  31.62000 5.06300 33.54600
O  32.33300 6.02800 33.28100
O  30.66700 5.02800 34.50100
C  30.54400 6.29100 35.22200
H  38.38500 1.98200 32.24100
H  37.57700 1.43200 25.89300
H  31.59200 3.68400 26.25800
H  34.56000 4.40200 34.15400
H  36.49300 2.20100 34.26100
H  37.80600 4.33900 32.94700
H  37.87100 4.01000 34.69200
H  36.74700 5.20900 33.96100
H  34.63600 1.56900 35.15300
H  33.08700 2.18200 34.48200
H  33.24100 2.23100 36.89300
H  32.65700 3.68700 36.18400
H  40.38400 0.07600 30.95700
H  40.36200 1.78300 31.40500
H  41.28000 1.33300 30.08700
H  41.66700 -0.14000 28.41300
H  42.11300 1.48500 27.83600
H  42.06700 0.20800 26.69000
H  35.26700 0.89900 24.83500
H  33.36500 3.10200 24.28200
H  36.47900 2.19300 23.24400
H  36.45100 3.58400 24.35100
H  35.26900 3.39100 23.17100
H  31.96100 0.95200 25.59400
H  33.25300 0.18800 24.58500
H  31.93300 0.45200 22.82800
H  31.91100 2.16000 23.06000
H  30.70600 1.10000 23.89700
H  29.37100 4.79700 27.71100
H  28.77100 3.91700 29.11500
H  29.34800 3.04200 27.73900
H  31.20600 3.05900 33.49500
H  30.16600 7.07700 34.56800
H  31.51600 6.68600 35.51800
H  29.95000 6.14000 36.12300

