158

Mg 46.82600 25.21900 28.29700
C  47.58900 27.47400 30.94300
C  46.01000 22.82700 30.63500
C  47.21300 22.81700 25.85800
C  48.02900 27.58300 26.17700
N  46.81000 25.14600 30.51300
C  47.01000 26.24100 31.37800
C  46.59400 25.92500 32.74100
C  46.31500 24.29800 32.68500
C  46.43000 24.02100 31.15800
C  47.16900 23.39300 33.60500
C  45.43500 26.79500 33.43800
C  45.77400 27.22300 34.90400
H  44.61200 27.28400 35.86300
N  46.50800 23.07200 28.24400
C  46.13300 22.36500 29.32800
C  45.75700 21.08200 28.79500
C  46.29900 20.94900 27.49000
C  46.69200 22.34200 27.13800
C  45.15800 19.95000 29.59200
C  46.29500 19.79800 26.52400
O  46.67400 19.93700 25.33000
C  45.73700 18.43000 26.95300
N  47.44600 25.17300 26.26500
C  47.52700 24.09300 25.44800
C  47.65500 24.50600 24.01500
C  47.72600 26.09300 24.05600
C  47.73100 26.34700 25.61700
C  48.78600 23.80900 23.15100
C  46.62000 26.83800 23.20900
C  45.16800 26.67800 23.59500
N  47.61400 27.19200 28.44000
C  47.99600 28.03500 27.50300
C  48.26400 29.30900 27.97200
C  48.17200 29.21900 29.41500
C  47.71200 27.84300 29.61900
C  48.65500 30.49300 27.13100
C  48.45500 29.79800 30.76600
O  49.00800 30.86400 31.09900
C  47.98400 28.70400 31.80300
C  49.09000 28.37900 32.74800
O  50.08100 27.66000 32.50200
O  48.90900 28.98100 33.99300
C  49.94900 28.68300 34.97600
H  45.57000 22.04200 31.25300
H  47.29900 22.03800 25.09800
H  48.31600 28.34600 25.45000
H  47.41700 26.14400 33.42200
H  45.28300 24.13400 32.99800
H  46.54700 22.88500 34.34200
H  47.71800 24.09200 34.23600
H  47.83300 22.67700 33.12200
H  44.53600 26.18300 33.51400
H  45.25000 27.64300 32.77900
H  46.05000 28.27600 34.86500
H  46.59000 26.61800 35.30000
H  44.50900 19.38300 28.92500
H  44.69100 20.38800 30.47400
H  45.94500 19.27700 29.93200
H  45.79800 17.66500 26.17900
H  44.64800 18.41200 27.00100
H  46.05900 18.14200 27.95400
H  46.69400 24.17300 23.62100
H  48.67500 26.51600 23.72800
H  49.48700 24.56700 22.80200
H  48.40200 23.18500 22.34400
H  49.32300 23.14200 23.82600
H  46.75100 26.47100 22.19100
H  46.97300 27.86900 23.23000
H  44.96200 25.64300 23.86600
H  44.48000 27.01200 22.81800
H  44.86700 27.23600 24.48200
H  49.05800 31.27000 27.78100
H  47.80300 30.87600 26.56900
H  49.43800 30.30500 26.39700
H  47.22200 29.25300 32.35700
H  50.94000 28.96100 34.61900
H  50.02900 27.61400 35.17600
H  49.76500 29.30100 35.85400
Mg -0.16700 44.52300 24.55300
C  1.96300 43.49600 27.14600
C  -2.88600 43.54300 26.43900
C  -2.11100 44.66000 21.78900
C  2.71600 44.85200 22.50500
N  -0.39500 43.43700 26.42800
C  0.59500 43.43500 27.45700
C  0.01900 43.31100 28.88300
C  -1.46000 42.94100 28.52600
C  -1.63000 43.35900 27.06500
C  -1.82500 41.47700 28.73600
C  0.23800 44.59600 29.77900
C  -0.10700 44.49100 31.29600
H  -0.59300 43.15200 31.75700
N  -2.24000 44.34900 24.20700
C  -3.18200 43.99200 25.12700
C  -4.46500 43.98500 24.50400
C  -4.28400 44.21900 23.08400
C  -2.81400 44.37900 22.96100
C  -5.76700 43.86400 25.24300
C  -5.26800 44.27600 21.90500
O  -4.91200 44.54700 20.75000
C  -6.67900 43.94900 22.17100
N  0.22900 44.97400 22.44800
C  -0.75500 44.96900 21.53100
C  -0.17700 45.49200 20.18100
C  1.30800 45.74400 20.51300
C  1.47400 45.21900 21.92600
C  -0.24000 44.61900 18.90000
C  1.77100 47.21800 20.58100
C  0.85900 48.14200 21.41200
N  1.87400 44.39100 24.72600
C  2.89300 44.48600 23.79300
C  4.17600 44.15100 24.45100
C  3.82000 43.73300 25.76300
C  2.44300 43.92300 25.91000
C  5.56600 44.23600 23.87500
C  4.33600 43.25900 27.04700
O  5.47200 42.91500 27.30200
C  3.16400 43.36500 28.11900
C  3.13200 42.21300 28.97300
O  2.85100 41.06800 28.59800
O  3.41800 42.60300 30.29600
C  3.47800 41.47900 31.25300
H  -3.76000 43.40300 27.07900
H  -2.80800 44.69000 20.94900
H  3.43400 45.15600 21.74000
H  0.51700 42.46800 29.36200
H  -2.07900 43.57700 29.15800
H  -2.22800 41.03100 27.82700
H  -2.64800 41.53100 29.44800
H  -1.04700 40.82500 29.13300
H  -0.38400 45.36200 29.31700
H  1.29600 44.82300 29.64300
H  -0.96000 45.14400 31.48100
H  0.65900 44.87300 31.96900
H  -6.39700 44.73500 25.06200
H  -5.57900 43.57500 26.27700
H  -6.36500 43.07000 24.79700
H  -6.63200 43.04600 22.78100
H  -7.33700 43.86100 21.30600
H  -7.13600 44.71200 22.80100
H  -0.74500 46.37200 19.88000
H  2.07900 45.37400 19.83700
H  -1.08900 44.94100 18.29800
H  -0.60500 43.67000 19.29400
H  0.68900 44.42700 18.36300
H  1.62000 47.55700 19.55600
H  2.83200 47.16700 20.82600
H  0.18500 47.63200 22.10100
H  0.38200 48.87000 20.75600
H  1.45500 48.76600 22.07700
H  5.57400 44.50300 22.81800
H  6.13800 43.32800 24.06800
H  6.05800 44.91900 24.56800
H  3.32200 44.26400 28.71400
H  4.11300 40.70300 30.82700
H  2.50600 41.19900 31.66100
H  4.06900 41.96000 32.03200

