158

Mg 35.86000 2.24400 30.69900
C  33.22000 3.21700 32.79000
C  38.04800 2.50700 33.39300
C  38.35200 1.65100 28.57600
C  33.60800 2.51700 27.99100
N  35.65000 2.86400 32.79100
C  34.42900 3.03300 33.46600
C  34.67400 3.15000 34.94900
C  36.22000 3.35800 35.01300
C  36.67900 2.92400 33.64300
C  36.60000 4.81700 35.47700
C  34.16100 1.88400 35.67100
C  33.67000 2.09500 37.13000
H  34.18700 3.25100 37.93900
N  37.91800 2.08400 30.91600
C  38.63800 2.22200 32.14400
C  40.01300 1.92000 31.90700
C  40.13100 1.61900 30.50100
C  38.76000 1.73700 29.92700
C  41.01400 2.09000 33.03900
C  41.36700 1.24500 29.66000
O  41.22900 0.86500 28.50200
C  42.77200 1.16900 30.23700
N  35.97300 2.00600 28.51600
C  37.14600 1.80800 27.90500
C  36.98700 1.67100 26.36000
C  35.43000 1.86200 26.23900
C  34.96800 2.27100 27.63600
C  37.82700 2.59000 25.43500
C  34.71200 0.55500 25.85600
C  33.70500 0.60300 24.73900
N  33.80800 2.76600 30.34100
C  33.02400 2.77200 29.22100
C  31.59600 3.13600 29.55700
C  31.69400 3.33200 30.95100
C  33.03900 3.07000 31.37300
C  30.38700 3.46800 28.77700
C  30.95700 3.73800 32.13600
O  29.82200 4.10400 32.23000
C  31.85900 3.56900 33.32900
C  31.92600 4.86200 34.01000
O  32.48600 5.83300 33.56800
O  31.20900 4.82300 35.17400
C  31.05700 6.06600 35.99100
H  38.73200 2.43000 34.24100
H  39.16000 1.38200 27.89300
H  32.89900 2.68700 27.17800
H  34.13000 4.00600 35.34800
H  36.63600 2.72600 35.79800
H  37.12200 4.80700 36.43400
H  35.78300 5.51100 35.67500
H  37.30100 5.17700 34.72500
H  35.00200 1.19300 35.72700
H  33.42100 1.52300 34.95600
H  33.81500 1.15500 37.66300
H  32.58800 2.21900 37.08800
H  40.82400 1.35900 33.82600
H  40.88400 3.09900 33.43000
H  42.00700 1.95900 32.61000
H  43.42000 0.63900 29.53900
H  42.86500 0.54400 31.12600
H  43.05300 2.19600 30.46800
H  37.40200 0.68600 26.14500
H  35.10100 2.61600 25.52400
H  38.51700 1.89900 24.95100
H  38.25100 3.37600 26.06100
H  37.23800 3.14200 24.70200
H  34.24500 0.05500 26.70400
H  35.44200 -0.18600 25.53100
H  34.05400 0.14300 23.81400
H  33.36800 1.61100 24.49900
H  32.82500 0.07400 25.10600
H  30.45700 3.20100 27.72200
H  30.00100 4.47600 28.92600
H  29.62500 2.81300 29.20100
H  31.48500 2.79400 33.99800
H  31.86200 6.16100 36.72000
H  30.10700 5.99700 36.52100
H  30.88200 6.94700 35.37500
Mg -4.98500 26.02000 25.68500
C  -3.89200 27.28800 28.78700
C  -7.14000 24.04100 27.69600
C  -5.83800 24.38000 22.92100
C  -2.69400 27.99200 23.94800
N  -5.26700 25.58400 28.03800
C  -4.75900 26.30400 29.00800
C  -5.49000 26.01700 30.37500
C  -6.28400 24.73200 30.02400
C  -6.32300 24.82000 28.50100
C  -5.56600 23.44900 30.51700
C  -6.48500 27.15100 30.77900
C  -6.46300 27.40400 32.27800
H  -6.52300 26.12700 33.26900
N  -6.29600 24.40500 25.34300
C  -7.10800 23.77000 26.27500
C  -8.05100 22.86700 25.57800
C  -7.60900 22.90200 24.17100
C  -6.51900 23.91200 24.08600
C  -9.07700 21.96400 26.23600
C  -8.14200 22.13100 22.94800
O  -7.51700 22.12100 21.87000
C  -9.32200 21.23900 23.03900
N  -4.25100 26.01200 23.72800
C  -4.84200 25.31300 22.78500
C  -4.20400 25.73000 21.38700
C  -3.42100 27.06600 21.72500
C  -3.44000 27.05700 23.21700
C  -3.27800 24.57500 20.77200
C  -4.10400 28.31700 20.99400
C  -3.25500 29.21700 20.10300
N  -3.46300 27.29300 26.21700
C  -2.65800 28.09000 25.37600
C  -1.91000 28.98100 26.26800
C  -2.37300 28.66800 27.56500
C  -3.36700 27.67700 27.53400
C  -0.74700 29.82500 25.92000
C  -2.15900 29.01500 28.93800
O  -1.48000 29.89500 29.50500
C  -3.19600 28.15600 29.75200
C  -2.54800 27.35100 30.88100
O  -1.56400 26.63300 30.79900
O  -3.15100 27.50400 32.11600
C  -2.45500 26.85000 33.20600
H  -7.88000 23.41200 28.19700
H  -6.11500 23.78800 22.04500
H  -2.14100 28.72500 23.35700
H  -4.73500 25.69000 31.09000
H  -7.30300 24.73500 30.41100
H  -5.19400 22.76500 29.75500
H  -6.21300 22.99400 31.26700
H  -4.63200 23.64100 31.04400
H  -7.54200 27.04100 30.53900
H  -6.13300 28.10100 30.37700
H  -7.34300 28.02900 32.43000
H  -5.53500 27.90100 32.56200
H  -9.98200 21.88600 25.63500
H  -9.30400 22.41900 27.20100
H  -8.70700 20.99000 26.55600
H  -9.34800 20.52700 22.21400
H  -10.13000 21.95900 23.16500
H  -9.39600 20.56500 23.89200
H  -5.03500 25.96300 20.72100
H  -2.38800 26.92900 21.40600
H  -3.26800 23.73000 21.45900
H  -2.32700 24.92000 20.36500
H  -3.90600 24.22100 19.95400
H  -4.65700 28.94200 21.69500
H  -4.87400 28.01800 20.28200
H  -3.09000 30.26900 20.33500
H  -3.64700 29.23000 19.08600
H  -2.32400 28.67700 19.92800
H  -1.15000 30.82500 25.76100
H  -0.26600 29.56700 24.97600
H  0.04500 29.81300 26.66900
H  -3.91900 28.83500 30.20400
H  -1.46600 27.28000 33.35900
H  -2.33300 25.76800 33.15900
H  -2.97100 26.98500 34.15700

