158

Mg 27.22600 51.04800 26.43300
C  24.88400 51.93600 28.81500
C  29.45300 50.37000 28.86100
C  29.43500 50.47600 23.94900
C  24.93600 52.34700 23.96900
N  27.20900 51.07900 28.59300
C  26.11400 51.35600 29.38400
C  26.46600 51.18200 30.86900
C  27.96300 50.68900 30.87000
C  28.24600 50.73600 29.36300
C  29.00300 51.55500 31.65200
C  25.50300 50.25800 31.61700
C  25.00100 50.72200 33.01100
H  25.11300 49.66700 34.05800
N  29.18300 50.52500 26.44900
C  29.94500 50.29100 27.53700
C  31.21700 50.03900 27.14500
C  31.26800 50.08000 25.69400
C  29.93100 50.30100 25.27900
C  32.34300 49.64600 28.15700
C  32.51500 49.82100 24.76500
O  32.47700 49.90100 23.55600
C  33.85500 49.42600 25.40700
N  27.15300 51.40800 24.34000
C  28.18700 50.97100 23.53200
C  27.81600 50.95100 22.06000
C  26.40100 51.57400 22.07800
C  26.12400 51.83200 23.53200
C  28.83700 51.70700 21.16100
C  25.23500 50.67700 21.46800
C  24.10300 51.52000 20.71600
N  25.28700 51.79600 26.27900
C  24.51300 52.35300 25.26500
C  23.25400 52.92400 25.78700
C  23.43900 52.84400 27.17800
C  24.61800 52.10400 27.44100
C  22.13300 53.41900 25.02100
C  22.72900 53.00900 28.45700
O  21.60200 53.45000 28.63100
C  23.70300 52.60900 29.59900
C  24.12500 53.71300 30.46500
O  25.08500 54.42800 30.25500
O  23.32500 53.75900 31.60300
C  23.76100 54.64800 32.59200
H  30.12400 50.11700 29.68400
H  30.13500 50.31900 23.12600
H  24.18600 52.69200 23.25400
H  26.38100 52.18100 31.29600
H  28.05700 49.70200 31.32500
H  28.45000 52.28600 32.24200
H  29.65300 52.09300 30.96200
H  29.57000 50.92500 32.33700
H  26.01800 49.30900 31.77000
H  24.61700 50.08600 31.00500
H  23.95000 50.80400 32.73400
H  25.42700 51.71400 33.16300
H  32.14100 50.14000 29.10700
H  33.29300 50.12000 27.90900
H  32.45600 48.56200 28.18700
H  33.77000 48.61500 26.13000
H  34.34400 50.30600 25.82400
H  34.48700 48.99100 24.63300
H  27.85300 49.96100 21.60600
H  26.42700 52.55000 21.59300
H  29.66800 52.05500 21.77400
H  28.43300 52.55000 20.60000
H  29.34000 51.04600 20.45500
H  24.77000 50.06600 22.24100
H  25.71000 49.94000 20.81900
H  23.24900 51.30400 21.35900
H  24.04200 51.14200 19.69600
H  24.27600 52.58700 20.86200
H  22.10300 52.95300 24.03600
H  22.26800 54.47500 24.78800
H  21.15600 53.25800 25.47700
H  23.17500 51.91500 30.25400
H  24.32400 55.51000 32.23300
H  24.28800 54.05500 33.33900
H  22.95100 55.10200 33.16200
Mg 7.25500 53.54200 40.82300
C  6.73100 50.11000 40.51100
C  10.60100 53.09100 40.16600
C  7.64700 56.88200 40.37200
C  3.83300 54.03400 41.16500
N  8.45800 51.74300 40.27700
C  8.07100 50.46700 40.22800
C  9.33000 49.53200 40.16900
C  10.56900 50.52000 40.18500
C  9.84000 51.93100 40.19400
C  11.53400 50.45100 41.33600
C  9.35000 48.57200 38.89400
C  9.22000 49.17100 37.47800
H  8.17300 48.62300 36.58100
N  8.89200 54.83700 40.24600
C  10.18000 54.46500 40.14800
C  10.99000 55.61500 39.79600
C  10.17100 56.75600 39.93400
C  8.88300 56.21100 40.23700
C  12.47600 55.46900 39.50100
C  10.59900 58.18500 39.73400
O  11.72400 58.42100 39.34300
C  9.69000 59.35100 39.91100
N  5.92200 55.17500 40.75200
C  6.38700 56.43100 40.61100
C  5.24700 57.47600 40.87200
C  4.00900 56.53700 40.87600
C  4.60000 55.14500 40.86100
C  5.48600 58.16600 42.22200
C  3.00700 56.86100 39.73000
C  1.49400 56.73600 40.06700
N  5.60100 52.37900 40.91100
C  4.30900 52.70000 41.22000
C  3.57100 51.47000 41.44400
C  4.49700 50.49900 41.24000
C  5.71900 51.05800 40.82800
C  2.14400 51.30700 41.93900
C  4.64300 49.07100 41.27800
O  3.85400 48.20200 41.60500
C  6.14700 48.76600 40.88200
C  6.13500 47.77100 39.79700
O  5.52900 47.99700 38.73500
O  6.65700 46.56100 40.15500
C  6.58500 45.51300 39.07300
H  11.67300 52.89100 40.12100
H  7.65800 57.97100 40.44100
H  2.75900 54.21600 41.24400
H  9.53300 48.78100 40.93400
H  11.14200 50.35100 39.27400
H  12.55300 50.18700 41.05500
H  11.19700 49.74000 42.09100
H  11.53100 51.38700 41.89600
H  8.45500 47.98500 39.10200
H  10.20000 47.89100 38.95300
H  10.09200 49.25700 36.82900
H  9.02600 50.24100 37.55700
H  13.14900 55.89700 40.24400
H  12.69300 55.99400 38.57100
H  12.86300 54.45200 39.42800
H  8.89600 59.37700 39.16400
H  10.24200 60.29000 39.89100
H  9.23700 59.36400 40.90200
H  5.25000 58.21300 40.06800
H  3.53800 56.67800 41.84900
H  4.65700 58.80900 42.51700
H  6.46100 58.64700 42.14600
H  5.59300 57.34500 42.93100
H  3.26200 56.05300 39.04400
H  3.17400 57.83900 39.28000
H  1.03400 57.70000 39.85000
H  1.28400 56.22500 41.00600
H  1.01800 56.05500 39.36000
H  2.00900 52.19700 42.55300
H  2.03300 50.43400 42.58300
H  1.39100 51.32100 41.15100
H  6.58700 48.34600 41.78600
H  7.11200 44.63600 39.44800
H  6.93000 45.92100 38.12200
H  5.53200 45.23800 39.01900

