158

Mg 46.64700 25.10000 28.84600
C  47.55700 27.34400 31.49200
C  45.52400 23.00600 31.30100
C  46.02900 22.85900 26.45500
C  47.97700 27.34300 26.64900
N  46.71400 25.10500 31.04600
C  46.97700 26.16700 31.84600
C  46.87500 25.83300 33.31700
C  46.51900 24.25500 33.29500
C  46.15800 24.10500 31.78000
C  47.69800 23.35100 33.87400
C  45.82400 26.76800 34.06500
C  46.29200 27.47700 35.34300
H  45.52900 27.30400 36.58300
N  45.80100 23.20400 28.84700
C  45.38800 22.55100 29.92000
C  44.73300 21.38400 29.45500
C  44.81000 21.28100 28.07100
C  45.58900 22.47300 27.73200
C  44.14700 20.32400 30.46600
C  44.56300 20.11600 27.08800
O  44.80900 20.14600 25.92600
C  43.90000 18.90100 27.61900
N  47.21900 24.95600 26.90000
C  46.76300 23.96700 26.08800
C  47.08700 24.32800 24.67600
C  47.30000 25.85800 24.69000
C  47.46100 26.08400 26.13400
C  48.21000 23.44800 23.95900
C  46.00500 26.61200 24.16900
C  44.61300 26.18900 24.60900
N  47.53300 26.98600 28.97600
C  48.14300 27.71500 27.99600
C  48.71200 28.92100 28.54400
C  48.46100 28.89500 29.96100
C  47.88400 27.60900 30.17400
C  49.56600 29.92400 27.74700
C  48.67400 29.53200 31.26900
O  49.17000 30.59900 31.57300
C  48.14500 28.49800 32.39000
C  49.34600 28.20000 33.16100
O  50.15300 27.29700 32.84600
O  49.36400 28.90000 34.39400
C  50.39500 28.42200 35.32400
H  45.12600 22.35900 32.08500
H  45.85600 22.25200 25.56400
H  48.39900 27.97300 25.86300
H  47.86500 25.86400 33.77300
H  45.66500 24.10800 33.95600
H  47.83500 22.40500 33.35000
H  47.47900 23.28500 34.94000
H  48.63300 23.90700 33.80500
H  45.00000 26.10300 34.32100
H  45.55600 27.49900 33.30200
H  46.31900 28.54700 35.13900
H  47.28400 27.08200 35.56400
H  44.43700 19.31600 30.16900
H  43.06000 20.34500 30.53700
H  44.48700 20.41500 31.49800
H  44.45800 18.24300 28.28500
H  43.52900 18.31000 26.78200
H  42.99800 19.17000 28.17000
H  46.12800 24.10600 24.20700
H  48.24000 26.14700 24.22000
H  48.58200 22.68000 24.63700
H  49.06600 24.00600 23.57900
H  47.87700 22.89800 23.07900
H  45.92300 26.74800 23.09100
H  46.19300 27.60600 24.57500
H  44.48700 25.41600 25.36700
H  43.86400 26.15000 23.81900
H  44.26400 26.97700 25.27700
H  49.84000 29.55400 26.75900
H  50.52600 30.12500 28.22000
H  49.10300 30.90400 27.63100
H  47.37600 29.00200 32.97500
H  51.36900 28.23300 34.87200
H  50.08300 27.48100 35.77800
H  50.50300 29.25500 36.01800
Mg -5.49100 25.27000 25.84800
C  -4.04400 26.17500 28.96800
C  -7.73500 23.30400 27.72400
C  -6.51300 23.87900 23.06500
C  -3.18400 27.22300 24.23300
N  -5.82300 24.77900 28.12600
C  -5.08100 25.28300 29.14000
C  -5.61300 24.77300 30.54000
C  -6.64100 23.70500 30.02000
C  -6.67800 23.87200 28.52300
C  -6.48400 22.24100 30.60900
C  -6.25000 25.97700 31.35100
C  -5.78800 26.08300 32.81500
H  -5.10500 24.90000 33.57200
N  -6.95800 23.92700 25.42300
C  -7.81500 23.27100 26.30300
C  -8.79200 22.50700 25.55900
C  -8.52100 22.66800 24.18600
C  -7.20300 23.41000 24.13400
C  -9.99700 21.81000 26.19500
C  -9.28000 22.31900 23.00200
O  -8.84100 22.38000 21.85800
C  -10.67300 21.74000 23.10000
N  -4.76700 25.41300 23.96900
C  -5.37000 24.69500 22.97200
C  -4.75500 25.12500 21.61900
C  -3.98600 26.40500 21.98700
C  -3.94900 26.37000 23.50700
C  -4.15200 23.92300 20.91200
C  -4.44900 27.71500 21.32100
C  -3.35000 28.40600 20.43000
N  -3.91500 26.48700 26.40100
C  -3.03400 27.25200 25.62200
C  -2.07000 27.98100 26.45000
C  -2.45400 27.56500 27.71100
C  -3.56700 26.65300 27.69000
C  -0.98300 28.96300 25.97600
C  -1.98600 27.78600 29.09800
O  -1.12100 28.50000 29.61900
C  -2.98300 26.85100 29.90800
C  -2.10600 26.05000 30.83000
O  -1.78400 24.89600 30.64000
O  -1.94000 26.72100 31.99200
C  -1.14800 26.01200 32.95700
H  -8.44800 22.65200 28.23100
H  -6.74600 23.52900 22.05700
H  -2.53600 27.92400 23.70300
H  -4.88400 24.19100 31.10300
H  -7.62800 23.97900 30.39300
H  -6.47600 21.47600 29.83200
H  -7.27500 22.07700 31.34000
H  -5.56000 22.11500 31.17300
H  -7.33200 26.09900 31.30900
H  -5.80500 26.86800 30.91000
H  -6.57400 26.51100 33.43700
H  -5.09200 26.90800 32.66200
H  -9.69800 21.46200 27.18400
H  -10.27500 20.97600 25.54900
H  -10.85300 22.47300 26.31800
H  -10.55500 20.68600 23.35000
H  -11.19900 21.77300 22.14600
H  -11.27900 22.39300 23.72900
H  -5.68500 25.45200 21.15400
H  -2.92900 26.21600 21.79400
H  -3.07600 23.98600 20.74300
H  -4.57500 23.76900 19.91900
H  -4.20700 23.08200 21.60300
H  -4.86000 28.31600 22.13200
H  -5.32800 27.53600 20.70200
H  -3.62900 28.38500 19.37600
H  -2.44100 27.85200 20.66300
H  -3.19500 29.45600 20.67800
H  -0.20100 28.50300 25.37200
H  -0.59300 29.29700 26.93800
H  -1.27000 29.94200 25.59200
H  -3.54800 27.39400 30.66600
H  -0.12900 26.37700 32.82600
H  -1.09800 24.92500 33.02500
H  -1.28300 26.34800 33.98500

