158

Mg 53.78800 24.92800 44.81800
C  51.08900 26.99300 44.05100
C  52.04900 22.29900 43.39900
C  56.64800 23.21600 44.39700
C  55.57500 27.83000 45.51400
N  51.79600 24.69900 43.91000
C  50.80500 25.71600 43.75300
C  49.55100 25.13800 43.08700
C  49.83200 23.65800 43.27800
C  51.32100 23.50000 43.49800
C  49.00300 22.90900 44.36900
C  49.46600 25.55700 41.62200
C  48.02500 25.78700 41.07700
H  47.81100 25.42500 39.62500
N  54.32200 23.03100 44.05800
C  53.46100 22.07500 43.57400
C  54.14600 20.78000 43.42200
C  55.46400 20.96400 43.81000
C  55.53800 22.43300 44.08900
C  53.42400 19.52000 42.98900
C  56.58300 19.97400 43.81000
O  56.35700 18.83500 43.40700
C  57.92300 20.28600 44.27900
N  55.74400 25.50200 44.80700
C  56.80000 24.56000 44.69800
C  58.10000 25.16300 44.97700
C  57.83300 26.66700 45.12200
C  56.31500 26.74500 45.03100
C  58.89700 24.47800 46.18700
C  58.54400 27.61700 44.10000
C  59.49900 28.63400 44.70600
N  53.44800 27.03700 44.90700
C  54.20900 28.04300 45.36600
C  53.44300 29.25800 45.55800
C  52.22500 28.89900 44.89100
C  52.26800 27.53600 44.58400
C  53.82400 30.44300 46.27600
C  50.91500 29.42100 44.56900
O  50.47300 30.54400 44.81100
C  50.26800 28.30700 43.76000
C  50.44600 28.69300 42.31500
O  51.50700 28.76200 41.78700
O  49.25900 28.99300 41.79100
C  49.21700 29.54200 40.42900
H  51.41100 21.44600 43.16000
H  57.61500 22.77500 44.14900
H  56.13400 28.70700 45.84600
H  48.65800 25.35800 43.67300
H  49.47700 23.12900 42.39300
H  48.32500 22.23300 43.84800
H  48.38200 23.55600 44.98900
H  49.73200 22.37600 44.98000
H  49.85100 24.71500 41.04600
H  50.13500 26.37800 41.36500
H  47.72700 26.83200 41.16600
H  47.28200 25.22100 41.63800
H  53.52100 19.43900 41.90700
H  52.43100 19.45000 43.43200
H  53.96400 18.65400 43.37300
H  58.33200 20.93800 43.50600
H  58.57600 19.42600 44.13400
H  57.90600 20.63500 45.31200
H  58.70600 24.92300 44.10300
H  58.18200 26.89800 46.12800
H  58.76600 25.13600 47.04600
H  59.95600 24.43000 45.93600
H  58.55400 23.50500 46.54000
H  57.90800 28.19100 43.42700
H  59.04400 26.92800 43.42000
H  60.51800 28.47800 44.35300
H  59.35500 28.71400 45.78400
H  59.13500 29.57000 44.28300
H  54.73100 30.22000 46.83800
H  52.99200 30.83500 46.86000
H  53.97700 31.27900 45.59300
H  49.24000 28.25100 44.12000
H  50.24700 29.75400 40.14400
H  48.78700 30.53800 40.31600
H  48.68100 28.93800 39.69700
Mg -12.30200 15.86400 42.07300
C  -9.17500 14.27000 41.65600
C  -11.21700 18.47200 40.07900
C  -15.34800 17.08800 42.10600
C  -13.35300 12.91200 43.76200
N  -10.37500 16.32200 41.00300
C  -9.23100 15.58200 40.98300
C  -8.10400 16.29700 40.26400
C  -8.86800 17.54400 39.62400
C  -10.25300 17.46500 40.28600
C  -8.09000 18.90900 39.95900
C  -7.28500 15.46000 39.20600
C  -5.79300 15.55800 39.34600
H  -4.95600 14.80200 38.38000
N  -13.14600 17.62700 41.34000
C  -12.51000 18.57400 40.57000
C  -13.41100 19.68600 40.33400
C  -14.70500 19.27200 40.81700
C  -14.45400 17.94800 41.45800
C  -12.91100 20.99000 39.66900
C  -15.94400 20.06500 40.68100
O  -15.91000 21.11400 40.02300
C  -17.18500 19.66500 41.16000
N  -14.19400 14.96800 42.66400
C  -15.25600 15.80500 42.70700
C  -16.42800 14.99900 43.27900
C  -15.74800 13.82400 44.01800
C  -14.34500 13.89200 43.47300
C  -17.39600 15.88400 44.08300
C  -16.55700 12.51500 43.74100
C  -17.11400 11.89800 45.07400
N  -11.51200 13.93200 42.60400
C  -12.07000 12.85600 43.24800
C  -11.03100 11.83500 43.49300
C  -9.90800 12.35900 42.97200
C  -10.23300 13.60000 42.31400
C  -11.30100 10.59700 44.30800
C  -8.50300 12.07900 42.64400
O  -7.75700 11.10200 42.94200
C  -7.98900 13.30100 41.75600
C  -6.93000 13.94400 42.48100
O  -7.13800 14.88200 43.26300
O  -5.73900 13.38200 42.10900
C  -4.53900 14.06100 42.62500
H  -10.92600 19.22600 39.34500
H  -16.38200 17.41700 42.22200
H  -13.66400 12.06500 44.37700
H  -7.51500 16.73100 41.07200
H  -9.00400 17.58800 38.54400
H  -8.51500 19.40900 40.82900
H  -8.13200 19.48500 39.03400
H  -7.03600 18.66700 40.09400
H  -7.62200 15.81400 38.23200
H  -7.66800 14.44000 39.15700
H  -5.53300 15.15100 40.32300
H  -5.48700 16.59000 39.51600
H  -11.84500 21.13600 39.84000
H  -13.37500 21.84400 40.16300
H  -13.19700 20.98400 38.61700
H  -17.50400 18.74100 40.67800
H  -17.84500 20.50300 40.93500
H  -17.11300 19.53200 42.23900
H  -16.99000 14.62400 42.42400
H  -15.71900 14.05700 45.08300
H  -17.59600 15.41200 45.04500
H  -18.28900 16.08400 43.49100
H  -17.05100 16.89000 44.32300
H  -15.81900 11.82400 43.33300
H  -17.36100 12.70700 43.03100
H  -18.16700 11.73700 44.84100
H  -17.01000 12.50000 45.97600
H  -16.67800 10.91800 45.26700
H  -11.80800 10.85900 45.23700
H  -10.34100 10.16600 44.59300
H  -11.94100 9.93000 43.73000
H  -7.50200 12.98900 40.83200
H  -3.74600 13.93200 41.88700
H  -4.22500 13.55900 43.54000
H  -4.49100 15.13600 42.79200

