158

Mg 1.66600 -0.22000 43.49600
C  5.10500 0.33700 43.21600
C  1.07100 2.76000 42.05400
C  -1.50200 -1.01900 43.57500
C  2.47600 -3.57500 44.54300
N  2.95800 1.30600 42.64700
C  4.31200 1.35500 42.68600
C  4.86700 2.65600 41.99900
C  3.51600 3.56700 42.05800
C  2.40800 2.46900 42.20700
C  3.53200 4.60300 43.18000
C  5.43400 2.34400 40.58600
C  6.89800 2.89700 40.14400
H  6.96100 3.80300 38.90400
N  0.03200 0.71400 42.89200
C  -0.03500 1.97500 42.32100
C  -1.44100 2.36600 42.16600
C  -2.25600 1.34900 42.76500
C  -1.23300 0.26800 43.13300
C  -1.93800 3.77500 41.54100
C  -3.78500 1.36600 43.00500
O  -4.45400 2.25400 42.52700
C  -4.52800 0.34800 43.73700
N  0.58500 -2.14600 43.88500
C  -0.76900 -2.08300 44.00600
C  -1.26000 -3.44000 44.42400
C  0.06300 -4.16400 44.92500
C  1.12200 -3.32200 44.29400
C  -2.34200 -3.33800 45.47800
C  0.11100 -5.65700 44.60600
C  0.23300 -6.60000 45.77000
N  3.40900 -1.44500 43.82800
C  3.60200 -2.74800 44.28000
C  5.00000 -2.95900 44.43600
C  5.63900 -1.79600 43.99600
C  4.58200 -0.86400 43.68200
C  5.67000 -4.25200 44.73000
C  7.02100 -1.20100 43.77500
O  8.15000 -1.56000 44.11800
C  6.61300 0.24400 43.28300
C  7.23900 1.21200 44.12600
O  6.70900 1.88000 45.03800
O  8.49000 1.44200 43.65600
C  9.42400 2.24200 44.41000
H  0.96900 3.75600 41.61700
H  -2.53800 -1.36300 43.54600
H  2.84000 -4.51300 44.96900
H  5.63400 3.00200 42.69200
H  3.48300 4.19600 41.16800
H  3.82600 5.56400 42.75700
H  4.27600 4.36400 43.94000
H  2.51800 4.75100 43.55100
H  4.81000 2.85700 39.85400
H  5.32000 1.28600 40.35100
H  7.53400 2.01900 40.03000
H  7.38100 3.40000 40.98200
H  -2.90600 3.72700 41.04100
H  -1.19500 4.19000 40.86000
H  -2.02200 4.39600 42.43200
H  -5.41600 0.73900 44.23400
H  -3.84900 -0.02800 44.50300
H  -4.78400 -0.48500 43.08200
H  -1.66800 -3.96800 43.56200
H  0.19900 -3.93800 45.98300
H  -2.58900 -2.29400 45.67000
H  -2.03100 -3.77600 46.42700
H  -3.18900 -3.89900 45.08300
H  0.98700 -5.78800 43.97100
H  -0.69400 -5.94400 43.92900
H  1.12500 -7.21900 45.66500
H  -0.59800 -7.28800 45.61300
H  0.14600 -6.09200 46.73000
H  5.65500 -4.79400 43.78400
H  5.12700 -4.75600 45.52900
H  6.70800 -4.02000 44.96500
H  7.03200 0.35000 42.28200
H  9.63700 3.25100 44.05900
H  10.41800 1.80200 44.48100
H  9.07400 2.51100 45.40700
Mg -5.37800 25.10200 25.58500
C  -3.74500 26.53000 28.42000
C  -7.23800 23.18600 27.78900
C  -6.79400 23.70900 22.86800
C  -3.21300 26.94500 23.58000
N  -5.50600 24.89600 27.84700
C  -4.82100 25.62500 28.80500
C  -5.40100 25.30700 30.19700
C  -6.22200 24.07400 29.92100
C  -6.39300 24.11900 28.41700
C  -5.68700 22.78900 30.57300
C  -6.11300 26.58300 30.73300
C  -5.98800 26.82300 32.25800
H  -5.51300 25.70900 33.16000
N  -6.78500 23.58700 25.38200
C  -7.38000 22.92100 26.41700
C  -8.33200 21.95000 25.79500
C  -8.14400 22.01700 24.33300
C  -7.25000 23.15800 24.12200
C  -9.22300 21.09700 26.72200
C  -8.83600 21.24600 23.23600
O  -8.70000 21.44900 22.03600
C  -9.76700 20.14100 23.62700
N  -5.11600 25.44900 23.60000
C  -5.82400 24.73100 22.62300
C  -5.10700 24.79500 21.21500
C  -4.20200 26.05900 21.41000
C  -4.14000 26.13800 22.92900
C  -4.31300 23.55400 20.91900
C  -4.79300 27.32000 20.77600
C  -4.05600 27.77300 19.57400
N  -3.87700 26.49000 25.87300
C  -3.07700 27.11800 24.95300
C  -2.21200 28.07500 25.67700
C  -2.45600 27.88000 27.01300
C  -3.37600 26.86300 27.08600
C  -1.28600 29.08200 25.03400
C  -2.17100 28.35800 28.28400
O  -1.49500 29.34100 28.61300
C  -2.91800 27.49400 29.29900
C  -1.95000 26.70900 30.17700
O  -0.87500 26.25500 29.84700
O  -2.49700 26.61000 31.42100
C  -1.65400 26.11700 32.55500
H  -7.93200 22.75200 28.51100
H  -7.32300 23.31100 21.99900
H  -2.62500 27.54000 22.87800
H  -4.63400 24.93000 30.87300
H  -7.25200 24.24100 30.23600
H  -4.64600 22.80400 30.89300
H  -5.63900 22.02100 29.80100
H  -6.35100 22.47900 31.38000
H  -7.17600 26.45100 30.53300
H  -5.78700 27.40100 30.08900
H  -6.89500 27.06400 32.81300
H  -5.35700 27.68500 32.47600
H  -8.73400 20.73400 27.62600
H  -9.69100 20.23200 26.25300
H  -10.13200 21.64600 26.96900
H  -9.22100 19.38800 24.19500
H  -10.30200 19.67700 22.79900
H  -10.51100 20.58800 24.28700
H  -5.89500 24.95700 20.47900
H  -3.14800 25.84000 21.23800
H  -4.64700 22.65200 21.43200
H  -3.22700 23.61900 20.98700
H  -4.62400 23.31500 19.90200
H  -5.02800 28.13800 21.45700
H  -5.81600 27.07100 20.49400
H  -3.15500 27.16900 19.47100
H  -3.66600 28.75700 19.83400
H  -4.60900 27.72800 18.63500
H  -0.68100 28.56700 24.28700
H  -0.58600 29.49600 25.75900
H  -1.84000 29.90000 24.57300
H  -3.55200 28.10200 29.94400
H  -0.59300 26.27500 32.35900
H  -1.81100 25.05200 32.72700
H  -2.00200 26.54700 33.49400

