158

Mg 46.99400 14.82300 27.15400
C  45.17300 15.04800 30.14300
C  49.26800 17.03900 28.39500
C  48.35000 15.07200 23.99900
C  44.41300 12.85400 25.76200
N  47.17400 15.90300 29.01500
C  46.30200 15.90500 30.08400
C  46.91300 16.59900 31.35000
C  48.11000 17.37100 30.65800
C  48.19500 16.72600 29.25500
C  47.91100 18.87900 30.66000
C  47.38400 15.63500 32.49600
C  47.02000 16.10900 33.95500
H  48.06400 15.77700 35.01800
N  48.68300 15.70100 26.39900
C  49.54200 16.48400 27.09700
C  50.62600 16.94500 26.24400
C  50.40500 16.36800 24.96100
C  49.06600 15.69400 25.08100
C  51.78100 17.94700 26.69500
C  51.05100 16.75200 23.62100
O  50.63100 16.50800 22.52000
C  52.32400 17.51400 23.70700
N  46.44700 14.08000 25.17100
C  47.19400 14.29800 24.09600
C  46.66000 13.55300 22.84500
C  45.41500 12.80300 23.40600
C  45.42000 13.17900 24.90000
C  46.36100 14.42000 21.65300
C  45.42100 11.24300 23.22500
C  46.46800 10.48700 24.11000
N  45.10900 14.07500 27.73800
C  44.29000 13.26600 27.11000
C  43.17400 12.98500 28.09300
C  43.52700 13.61800 29.25700
C  44.67000 14.32100 29.02100
C  41.95500 12.10800 27.83000
C  43.17500 13.78100 30.61300
O  42.13300 13.40100 31.23700
C  44.22200 14.67600 31.29800
C  43.44700 15.84000 31.92200
O  43.20200 16.84300 31.29600
O  43.14900 15.57900 33.22400
C  42.72100 16.76600 34.04200
H  50.07500 17.66000 28.79100
H  48.84900 15.02500 23.02900
H  43.70700 12.06500 25.49500
H  46.26600 17.33400 31.82900
H  49.09000 17.15100 31.08200
H  47.85900 19.14900 29.60500
H  48.66400 19.33100 31.30500
H  46.95400 19.19200 31.07900
H  48.44900 15.40600 32.47900
H  46.93800 14.64300 32.44200
H  46.11500 15.56600 34.22800
H  46.74800 17.16500 33.94700
H  52.70800 17.37400 26.71100
H  51.64600 18.24700 27.73400
H  51.83500 18.85700 26.09800
H  52.21700 18.58900 23.84800
H  52.73000 17.36000 22.70800
H  53.10100 17.03600 24.30500
H  47.37800 12.79700 22.52900
H  44.49000 13.10600 22.91700
H  47.08000 14.07700 20.90900
H  46.37400 15.45700 21.99000
H  45.37900 14.24900 21.21400
H  45.81000 10.98100 22.24200
H  44.48800 10.73700 23.47700
H  46.10900 9.68800 24.75900
H  46.99700 11.15300 24.79200
H  47.27000 10.00500 23.55200
H  42.42300 11.35600 27.19500
H  41.30600 12.72100 27.20500
H  41.62300 11.64800 28.76100
H  44.67000 14.04500 32.06600
H  42.34300 16.52900 35.03600
H  41.97600 17.36900 33.52300
H  43.52500 17.46700 34.26700
Mg -10.01000 17.73000 42.25000
C  -6.54700 17.26100 42.29400
C  -9.47200 21.01800 41.72400
C  -13.21100 17.94300 41.47500
C  -10.21000 14.18900 42.28500
N  -8.12900 18.99100 42.08600
C  -6.86500 18.61400 42.10900
C  -5.90800 19.77300 41.99200
C  -6.89400 21.04200 41.94100
C  -8.23400 20.33700 41.94800
C  -6.78900 22.10800 43.14800
C  -4.92200 19.62300 40.79900
C  -5.37100 18.85500 39.53200
H  -4.73000 19.26800 38.16500
N  -11.21700 19.34200 41.80400
C  -10.76800 20.57200 41.70600
C  -11.91200 21.45200 41.38400
C  -13.03400 20.58600 41.33300
C  -12.51400 19.21700 41.47400
C  -11.87400 22.88500 40.89600
C  -14.61000 21.05300 41.10700
O  -14.83600 22.19300 40.86400
C  -15.75400 20.15200 41.30400
N  -11.53300 16.25700 41.66600
C  -12.77400 16.63000 41.67100
C  -13.76000 15.46400 41.68900
C  -12.78200 14.28400 41.94300
C  -11.40000 14.90400 42.02000
C  -15.00000 15.58900 42.64500
C  -12.82000 13.12600 40.80700
C  -13.68900 11.96100 41.13900
N  -8.73200 16.02300 42.38900
C  -8.96400 14.73700 42.56900
C  -7.79700 13.97300 42.87600
C  -6.81900 14.95200 42.77300
C  -7.40000 16.17000 42.46300
C  -7.57700 12.51900 43.10800
C  -5.37400 15.12600 42.73900
O  -4.46700 14.34000 42.91700
C  -5.18000 16.63400 42.56900
C  -4.44800 17.03300 43.76200
O  -3.23700 17.05100 43.80300
O  -5.19200 17.40300 44.82300
C  -4.45900 18.04900 45.88500
H  -9.32200 22.07300 41.48600
H  -14.29000 18.11500 41.46800
H  -10.46500 13.15600 42.52800
H  -5.37800 19.89700 42.93700
H  -6.84000 21.60600 41.01000
H  -5.76700 22.44500 43.32100
H  -7.31000 21.72600 44.02600
H  -7.35700 22.95000 42.75100
H  -4.01100 19.13100 41.14100
H  -4.58200 20.61100 40.48800
H  -6.39100 18.47900 39.45600
H  -4.78800 17.94600 39.67600
H  -12.81000 23.36600 41.18000
H  -11.86900 23.03700 39.81600
H  -10.99200 23.33300 41.35200
H  -15.86000 19.54000 40.40800
H  -16.55400 20.88400 41.41000
H  -15.51800 19.62600 42.22900
H  -14.19200 15.24300 40.71300
H  -12.95300 13.67000 42.82700
H  -15.12500 16.58800 43.06400
H  -15.06800 14.73700 43.32100
H  -15.84900 15.60900 41.96200
H  -11.84000 12.66500 40.68800
H  -13.18000 13.41300 39.81900
H  -14.54300 11.92700 40.46300
H  -14.14500 12.12600 42.11600
H  -13.10800 11.04700 41.26000
H  -8.30000 11.98000 42.49600
H  -7.78600 12.22200 44.13600
H  -6.57500 12.25000 42.77200
H  -4.46200 16.73800 41.75500
H  -5.21900 18.32900 46.61300
H  -3.97800 18.93300 45.46600
H  -3.81300 17.28800 46.32300

