158

Mg 47.45600 45.13800 43.29600
C  43.98400 44.90100 43.18400
C  47.73900 41.74500 42.89200
C  50.66000 45.57200 41.98400
C  47.00600 48.78100 43.11600
N  46.08500 43.59100 43.17900
C  44.67000 43.66900 43.18900
C  44.06900 42.23200 43.19000
C  45.28900 41.38300 43.54300
C  46.50600 42.30000 43.18400
C  45.41600 40.80100 45.03800
C  43.24400 41.84000 41.94200
C  43.59700 42.49900 40.59600
H  43.43200 41.73300 39.25000
N  49.04100 43.82400 42.67300
C  48.97400 42.40100 42.59500
C  50.29800 41.88900 42.22300
C  51.13700 42.97100 42.02200
C  50.27900 44.21700 42.25400
C  50.71500 40.41000 42.27100
C  52.63600 42.85500 41.65000
O  53.10300 41.78500 41.34500
C  53.49200 44.07500 41.63600
N  48.62400 46.95100 42.78700
C  50.00100 46.78300 42.36700
C  50.67600 48.21700 42.19900
C  49.41700 49.16900 42.42500
C  48.29400 48.25200 42.87400
C  51.97100 48.51900 43.14500
C  49.18300 50.18700 41.34900
C  48.55800 51.49500 41.73800
N  45.87000 46.61400 43.26400
C  45.83800 47.98900 43.27200
C  44.45400 48.46900 43.37600
C  43.62900 47.30700 43.24800
C  44.57300 46.20500 43.27900
C  43.96200 49.82300 43.38900
C  42.27700 46.75400 43.24300
O  41.16400 47.31900 43.27300
C  42.49400 45.16800 43.21300
C  41.73500 44.56200 44.41300
O  40.91100 43.67900 44.41800
O  42.18000 45.15600 45.60600
C  41.30000 44.78000 46.82100
H  47.78200 40.65500 42.95800
H  51.64700 45.75400 41.55300
H  47.02700 49.86100 43.27200
H  43.25300 42.22700 43.91100
H  45.42000 40.52500 42.88400
H  45.73000 39.76200 44.94300
H  44.42700 40.96100 45.46700
H  46.21600 41.33700 45.54900
H  42.22800 42.19900 42.10900
H  43.11700 40.77000 41.77500
H  44.67400 42.55100 40.76100
H  43.23700 43.52700 40.55400
H  50.62800 40.00800 41.26200
H  49.95900 39.85000 42.82200
H  51.67300 40.30300 42.77900
H  53.29200 44.68700 42.51500
H  53.43000 44.70300 40.74700
H  54.48800 43.66200 41.79700
H  51.03300 48.12000 41.17400
H  49.60200 49.77100 43.31400
H  51.73300 49.26900 43.89900
H  52.79600 48.85000 42.51400
H  52.28700 47.61000 43.65700
H  48.51400 49.69100 40.64600
H  50.12500 50.38800 40.83900
H  48.58600 51.61800 42.82100
H  47.59300 51.71400 41.28200
H  49.13000 52.36700 41.42200
H  44.29400 50.38300 44.26300
H  42.87400 49.84500 43.44900
H  44.21800 50.19300 42.39600
H  42.01100 44.83700 42.29300
H  41.71100 45.13100 47.76800
H  41.24900 43.69200 46.86200
H  40.27500 45.13700 46.71500
Mg 25.93800 49.63100 26.26100
C  23.76300 50.47700 28.82100
C  28.21100 48.57100 28.50900
C  28.15000 49.10900 23.68500
C  23.68000 50.92500 23.91200
N  26.02500 49.75800 28.52100
C  24.93000 49.92900 29.31200
C  25.28100 49.55000 30.75400
C  26.76200 49.02600 30.66400
C  27.05100 49.12500 29.10700
C  27.88500 49.72200 31.55200
C  24.21800 48.56600 31.43700
C  23.75200 49.02300 32.85600
H  24.70400 49.66500 33.96300
N  27.87900 48.95700 26.13900
C  28.58600 48.41400 27.16700
C  29.81000 47.79900 26.72000
C  29.84100 48.00700 25.23900
C  28.59200 48.70500 24.97200
C  30.81000 46.99900 27.61700
C  30.94000 47.54700 24.28600
O  30.83700 47.74300 23.10000
C  32.01500 46.66800 24.78900
N  25.95000 49.97500 24.06100
C  26.97500 49.72700 23.26700
C  26.68900 50.03000 21.82900
C  25.15800 50.30500 21.84800
C  24.82600 50.36700 23.31700
C  27.57200 51.18400 21.28300
C  24.36200 49.20600 21.05800
C  24.06300 47.86500 21.76100
N  24.14200 50.53500 26.32300
C  23.34800 51.01800 25.27200
C  22.08400 51.54700 25.84000
C  22.18500 51.33100 27.21500
C  23.50800 50.79300 27.45600
C  20.91600 52.06700 25.08400
C  21.49800 51.58000 28.46400
O  20.43100 52.13500 28.66100
C  22.50200 51.00200 29.57300
C  22.83800 52.08700 30.63200
O  23.62100 53.05600 30.51300
O  22.04200 51.90200 31.79200
C  22.26800 52.88300 32.83800
H  28.81300 47.92500 29.15200
H  28.82700 48.81300 22.88100
H  22.89700 51.28400 23.24100
H  25.29500 50.52600 31.23800
H  26.87200 47.97700 30.93600
H  28.56500 48.98200 31.97200
H  27.47700 50.32900 32.36000
H  28.60300 50.20600 30.89000
H  24.69500 47.58700 31.47100
H  23.27200 48.37800 30.93000
H  23.39800 48.03800 33.15900
H  22.78600 49.52600 32.81500
H  31.79300 47.44400 27.46100
H  30.74900 45.93900 27.37300
H  30.69700 47.00400 28.70100
H  32.69500 47.21200 25.44500
H  32.69300 46.36400 23.99100
H  31.56200 45.77700 25.22300
H  26.95000 49.25200 21.11100
H  24.90100 51.29000 21.45800
H  28.48700 51.17200 21.87500
H  27.06700 52.13300 21.46300
H  27.79700 50.98400 20.23600
H  24.87900 48.89300 20.15100
H  23.39300 49.63000 20.79700
H  24.01800 46.95000 21.17100
H  23.07600 47.99200 22.20700
H  24.73300 47.67600 22.60000
H  21.00100 53.15100 25.15800
H  20.06400 51.77000 25.69500
H  20.71400 51.71000 24.07400
H  21.96400 50.25700 30.15900
H  23.00400 52.48500 33.53700
H  21.39100 52.97600 33.47900
H  22.62900 53.86300 32.52700

