158

Mg 42.12300 41.31300 26.76600
C  41.48800 43.76400 28.95300
C  43.28800 39.27000 29.41900
C  42.72500 38.86800 24.60100
C  41.24500 43.48300 24.06400
N  42.27300 41.57300 28.90900
C  41.90800 42.62200 29.58300
C  41.86900 42.31900 31.09400
C  42.72200 40.99000 31.19000
C  42.90500 40.58700 29.75500
C  44.16500 41.08900 31.79000
C  40.37900 42.09000 31.56000
C  40.01900 42.76400 32.86600
H  39.96000 41.70700 34.05800
N  42.87900 39.33600 27.01500
C  43.28700 38.66100 28.15500
C  43.67100 37.30300 27.81700
C  43.58400 37.21100 26.40700
C  43.04000 38.51900 25.94100
C  44.10700 36.25600 28.83300
C  43.94100 36.06000 25.46100
O  43.76400 35.99700 24.22200
C  44.69200 34.88600 26.00000
N  42.11500 41.21500 24.63500
C  42.37200 40.08500 24.00500
C  42.21400 40.27700 22.45900
C  41.57300 41.71200 22.34800
C  41.58400 42.15900 23.80600
C  43.43500 39.89600 21.52300
C  40.27300 41.72800 21.53400
C  38.96800 41.40500 22.35400
N  41.54200 43.21200 26.41400
C  41.17500 44.04100 25.36100
C  40.85900 45.41500 25.87100
C  40.95900 45.27300 27.22500
C  41.35800 43.96200 27.50800
C  40.23000 46.51600 24.95500
C  40.71100 46.00900 28.43900
O  40.18500 47.11500 28.63000
C  41.03000 45.01800 29.61600
C  42.01600 45.75500 30.48100
O  43.14100 46.05900 30.09200
O  41.54200 45.85100 31.74200
C  42.23300 46.68700 32.67200
H  43.71500 38.69300 30.24200
H  42.92800 38.00900 23.95800
H  40.89600 44.17900 23.29800
H  42.30200 43.14200 31.66400
H  42.25100 40.12500 31.65900
H  44.21500 41.90500 32.51000
H  44.75700 41.15000 30.87700
H  44.37500 40.13100 32.26700
H  40.27000 41.02100 31.74400
H  39.79300 42.27800 30.66100
H  39.05400 43.26600 32.80100
H  40.79100 43.47100 33.16800
H  45.16200 36.04600 28.65700
H  43.52500 35.33500 28.84600
H  44.08400 36.65500 29.84700
H  44.16200 34.21500 26.67600
H  45.66000 35.24200 26.35400
H  44.90800 34.20700 25.17500
H  41.40100 39.55000 22.46400
H  42.40100 42.29200 21.94100
H  44.16400 39.28900 22.06000
H  43.92500 40.77500 21.10500
H  43.13000 39.18000 20.76000
H  40.22400 41.17400 20.59600
H  40.17500 42.74200 21.14800
H  39.09800 40.59400 23.07100
H  38.23200 40.95100 21.69000
H  38.65300 42.35500 22.78600
H  39.53900 46.11000 24.21600
H  40.97900 47.22500 24.60100
H  39.57300 47.11100 25.59000
H  40.16600 44.66700 30.18100
H  43.08400 47.26000 32.30500
H  42.35900 46.05500 33.55100
H  41.51200 47.48600 32.84100
Mg 17.16900 52.85500 25.75200
C  18.95500 51.37100 28.52600
C  14.72400 53.70100 27.97800
C  15.37900 53.95600 23.17900
C  19.56800 51.51600 23.61000
N  16.85600 52.47500 27.95300
C  17.81400 52.10100 28.89500
C  17.30800 52.41600 30.29900
C  15.84800 52.89300 30.01200
C  15.75100 52.98000 28.54000
C  14.76800 51.94300 30.66600
C  18.19800 53.59500 31.02100
C  18.03600 53.87600 32.55800
H  17.12100 53.09300 33.42400
N  15.31900 53.80600 25.64800
C  14.44000 54.02500 26.67400
C  13.22400 54.66200 26.08200
C  13.39800 54.79100 24.68000
C  14.73800 54.13500 24.45000
C  12.00700 55.01900 26.84700
C  12.48100 55.34000 23.60500
O  12.81500 55.37200 22.41000
C  11.21600 55.92600 23.97200
N  17.37900 52.51000 23.67500
C  16.52000 53.23100 22.86100
C  17.02600 53.06100 21.41200
C  18.43700 52.27400 21.53700
C  18.42700 51.99000 22.98800
C  16.03100 52.30700 20.52000
C  19.63000 52.99300 20.92800
C  20.42700 52.36600 19.78100
N  18.91000 51.63800 25.91100
C  19.82500 51.32100 24.98900
C  20.98100 50.58600 25.59000
C  20.70600 50.64400 27.03300
C  19.40600 51.20600 27.13400
C  22.10200 50.03300 24.79800
C  21.09700 50.28200 28.41100
O  22.12000 49.73500 28.76500
C  20.03500 50.77000 29.35500
C  19.56100 49.51500 30.11700
O  19.25000 48.45200 29.52500
O  19.45300 49.74800 31.45900
C  18.83800 48.58600 32.20700
H  13.98500 54.08300 28.68600
H  14.73000 54.31000 22.37500
H  20.35600 51.22900 22.91000
H  17.42800 51.53400 30.92900
H  15.83100 53.81300 30.59600
H  15.16300 51.04400 31.13800
H  14.04500 51.76700 29.87000
H  14.27500 52.52700 31.44300
H  18.03600 54.53000 30.48300
H  19.25000 53.38400 30.83000
H  17.81700 54.93500 32.69600
H  18.98800 53.70200 33.05900
H  11.67200 56.02900 26.61100
H  12.27200 55.09200 27.90100
H  11.15200 54.34500 26.78300
H  11.42500 56.76700 24.63300
H  10.59500 55.16800 24.45100
H  10.78100 56.24600 23.02500
H  17.26800 54.09000 21.14400
H  18.38400 51.33100 20.99200
H  15.49900 52.92800 19.79900
H  15.27000 51.78200 21.09700
H  16.52000 51.61900 19.83000
H  20.35500 53.16200 21.72400
H  19.44500 54.02700 20.63600
H  20.49300 53.10200 18.97900
H  19.94200 51.45600 19.42900
H  21.42700 52.09900 20.12400
H  21.82200 50.02400 23.74500
H  22.18600 48.98100 25.07100
H  23.06500 50.54400 24.79800
H  20.51500 51.47400 30.03400
H  18.94300 48.88500 33.25000
H  19.34400 47.63800 32.02500
H  17.77100 48.47100 32.01600

