158

Mg 24.65000 -4.43400 46.21700
C  26.94000 -2.23300 44.78100
C  22.28900 -3.40700 43.97200
C  22.84900 -7.21300 46.91500
C  27.36400 -5.83800 48.19400
N  24.72800 -3.05200 44.48100
C  25.68800 -2.18400 44.08700
C  25.22600 -1.19700 42.98300
C  23.66700 -1.42200 43.09600
C  23.55400 -2.71700 43.90600
C  22.83600 -0.27800 43.73700
C  25.76300 -1.59600 41.59300
C  26.05000 -0.41600 40.64600
H  25.58800 -0.54400 39.16900
N  22.74500 -5.18500 45.63400
C  21.98000 -4.67200 44.61100
C  20.77600 -5.51600 44.47300
C  20.85900 -6.65200 45.34100
C  22.19500 -6.33300 46.03100
C  19.67800 -5.14600 43.57200
C  19.87600 -7.80400 45.44400
O  18.91500 -7.97300 44.68800
C  20.07600 -8.88700 46.50300
N  25.01900 -6.16600 47.53600
C  24.09300 -7.08500 47.61700
C  24.54200 -8.28900 48.48400
C  25.96700 -7.76700 49.01200
C  26.13200 -6.50000 48.17500
C  23.54100 -8.95000 49.47600
C  27.10500 -8.74100 48.96500
C  28.26800 -8.55900 49.92200
N  26.69000 -4.08700 46.58400
C  27.62400 -4.69300 47.46200
C  28.88600 -3.96300 47.25600
C  28.63200 -2.91100 46.33600
C  27.29400 -3.07700 45.85400
C  30.15300 -4.27400 48.00900
C  29.29600 -1.78100 45.62000
O  30.45000 -1.43000 45.71000
C  28.26000 -1.33500 44.61700
C  28.02100 0.11400 44.89400
O  27.41200 0.60800 45.85400
O  28.51100 0.76400 43.81300
C  28.29000 2.22700 43.62000
H  21.55700 -2.99000 43.27700
H  22.42700 -8.20100 47.11300
H  28.22500 -6.12400 48.80300
H  25.43200 -0.19300 43.35400
H  23.30300 -1.73000 42.11600
H  21.82600 -0.27100 43.32500
H  23.14000 0.74800 43.53200
H  22.79100 -0.52200 44.79800
H  25.05700 -2.06600 40.90800
H  26.67600 -2.16900 41.75400
H  27.12600 -0.26300 40.73000
H  25.49600 0.43700 41.03800
H  19.74100 -4.05900 43.59900
H  18.70300 -5.40000 43.98900
H  19.78900 -5.61800 42.59500
H  20.18600 -8.45000 47.49500
H  20.96300 -9.43400 46.18200
H  19.18600 -9.51600 46.52600
H  24.72500 -9.15500 47.84800
H  26.03200 -7.43400 50.04800
H  22.59800 -8.40500 49.43500
H  23.94400 -8.88300 50.48700
H  23.29000 -10.00200 49.34300
H  27.51000 -8.74100 47.95300
H  26.78700 -9.77900 49.06500
H  28.49700 -9.52700 50.36700
H  28.26300 -7.80900 50.71300
H  29.08500 -8.31200 49.24400
H  30.63500 -5.17800 47.63600
H  29.95300 -4.33100 49.07900
H  30.88600 -3.47000 47.95300
H  28.73700 -1.40400 43.64000
H  29.17700 2.78400 43.32000
H  27.82000 2.70000 44.48200
H  27.68400 2.39700 42.73100
Mg 29.43400 57.71800 40.93700
C  26.83300 55.76100 39.53800
C  31.65100 55.80400 39.24700
C  31.86500 60.20500 41.38600
C  27.03000 60.05900 42.03600
N  29.22300 56.07500 39.57100
C  28.14700 55.37700 39.18200
C  28.49800 54.16700 38.26100
C  30.02400 54.06200 38.55600
C  30.33800 55.34600 39.12500
C  30.46700 52.89300 39.46200
C  28.10400 54.51200 36.78000
C  27.22400 53.48900 35.97000
H  26.33200 54.22200 34.86200
N  31.51000 57.87000 40.49700
C  32.22100 56.95500 39.80400
C  33.64600 57.34600 39.78300
C  33.70700 58.68300 40.44100
C  32.33000 58.94400 40.81200
C  34.68800 56.51300 38.94700
C  34.99600 59.51300 40.61800
O  36.06600 58.96200 40.35200
C  35.16800 60.90300 41.29200
N  29.50500 59.81800 41.70200
C  30.60200 60.60700 41.73000
C  30.29800 62.04400 42.19400
C  28.76200 61.86800 42.67400
C  28.37100 60.54000 42.05300
C  31.33500 62.61300 43.23600
C  27.88000 63.11900 42.26600
C  27.68500 63.94800 43.51400
N  27.36400 57.79300 41.02400
C  26.53200 58.83000 41.42700
C  25.18500 58.36800 41.27300
C  25.21900 57.19900 40.50600
C  26.59600 56.87800 40.32000
C  23.91000 59.06700 41.65400
C  24.44800 56.12300 39.86900
O  23.23800 55.90600 39.91300
C  25.43600 55.22600 39.19500
C  25.12800 53.82200 39.62800
O  25.11800 53.43000 40.80200
O  24.87300 52.98900 38.56800
C  24.57800 51.55300 38.74400
H  32.42600 55.17600 38.80200
H  32.72000 60.87100 41.52000
H  26.27600 60.74300 42.43100
H  28.00000 53.26000 38.60300
H  30.46600 53.94400 37.56700
H  31.09000 53.24800 40.28300
H  31.16400 52.26700 38.90500
H  29.70600 52.25900 39.91700
H  28.98500 54.56600 36.14100
H  27.53900 55.44300 36.73900
H  26.57600 52.94200 36.65400
H  27.90700 52.79000 35.48800
H  34.93900 56.94000 37.97600
H  34.26200 55.53800 38.71200
H  35.51800 56.33200 39.63000
H  34.56000 61.62800 40.75100
H  36.22200 61.15700 41.17500
H  34.91900 60.91800 42.35300
H  30.48900 62.71500 41.35700
H  28.77000 61.70800 43.75200
H  30.72300 63.13100 43.97400
H  31.97800 63.34900 42.75400
H  31.86100 61.82000 43.76900
H  26.86000 62.88100 41.96200
H  28.31100 63.73600 41.47700
H  28.57500 63.99400 44.14200
H  26.80200 63.74400 44.12000
H  27.46200 64.98100 43.24700
H  23.72500 58.98100 42.72500
H  22.98900 58.66700 41.22900
H  23.91500 60.10300 41.31700
H  25.24800 55.08500 38.13100
H  23.78900 51.35800 39.47000
H  25.44900 50.92900 38.94300
H  24.27600 51.11800 37.79100

