158

Mg -3.35900 16.96400 26.79100
C  -3.38800 14.96800 29.59000
C  -3.72000 19.83400 28.62500
C  -3.30900 18.73500 23.91000
C  -3.57400 13.94900 24.86300
N  -3.46900 17.26800 28.84300
C  -3.51300 16.34300 29.90200
C  -3.48300 16.99100 31.29600
C  -3.63200 18.49600 30.87100
C  -3.66300 18.56500 29.34700
C  -4.59100 19.37000 31.69700
C  -2.28300 16.59000 32.22600
C  -1.67700 17.45100 33.32700
H  -1.41400 16.87600 34.72000
N  -3.35200 19.02000 26.35900
C  -3.48300 20.05900 27.29600
C  -3.35400 21.37000 26.63400
C  -3.12300 21.05200 25.22200
C  -3.26200 19.57300 25.12100
C  -3.52500 22.75600 27.32300
C  -2.93400 22.02800 24.06500
O  -3.07000 21.61600 22.89200
C  -2.68300 23.43100 24.35700
N  -3.54300 16.35500 24.65000
C  -3.41900 17.36600 23.72600
C  -3.43200 16.78000 22.30400
C  -3.33300 15.21800 22.59700
C  -3.50600 15.10400 24.09500
C  -4.76400 17.30600 21.73300
C  -1.90400 14.84100 21.99400
C  -0.77000 15.33000 22.93000
N  -3.53100 14.93800 27.05200
C  -3.54700 13.83000 26.20800
C  -3.46600 12.52700 26.95800
C  -3.47400 12.97700 28.29200
C  -3.46500 14.39600 28.29000
C  -3.49000 11.14500 26.43400
C  -3.38300 12.56100 29.69100
O  -3.32000 11.45600 30.14000
C  -3.30900 13.75600 30.48400
C  -2.02500 13.60300 31.21400
O  -0.89300 14.05700 30.87500
O  -2.30700 13.11400 32.45200
C  -1.15000 12.96900 33.34500
H  -3.79300 20.67600 29.31700
H  -3.30000 19.22900 22.93600
H  -3.53000 13.06400 24.22300
H  -4.41700 16.71400 31.78500
H  -2.66700 18.94300 31.11100
H  -5.36200 19.90900 31.14600
H  -4.06600 20.21700 32.13700
H  -5.05900 18.84900 32.53300
H  -1.49100 16.44300 31.49100
H  -2.64700 15.68800 32.71800
H  -2.09500 18.45700 33.37200
H  -0.68100 17.69300 32.95900
H  -2.63900 23.36800 27.15100
H  -3.56800 22.56900 28.39600
H  -4.36700 23.31900 26.91800
H  -3.58100 23.86900 24.79000
H  -2.43800 23.95200 23.43100
H  -1.84500 23.57800 25.03800
H  -2.65800 17.20200 21.66300
H  -4.15200 14.66300 22.14000
H  -5.41400 16.49000 21.41600
H  -4.42100 17.83700 20.84400
H  -5.19700 18.07500 22.37200
H  -1.73000 15.37700 21.06100
H  -1.86600 13.77700 21.76000
H  -0.06000 14.51900 23.09300
H  -1.01200 15.60000 23.95800
H  -0.25500 16.17100 22.46700
H  -3.56800 11.08200 25.34800
H  -4.29500 10.55300 26.86900
H  -2.56000 10.59500 26.57900
H  -4.09300 13.67600 31.23600
H  -0.99400 13.81600 34.01300
H  -0.22800 12.73700 32.81200
H  -1.54100 12.15800 33.96000
Mg 24.69700 2.16200 29.09100
C  26.78300 1.44600 31.92400
C  22.02700 1.94100 31.05500
C  23.01000 2.39500 26.30800
C  27.63600 1.44900 27.06400
N  24.48800 1.90900 31.22700
C  25.42100 1.81500 32.23700
C  24.81400 2.17700 33.60300
C  23.28500 1.88000 33.28600
C  23.26000 1.96700 31.75600
C  22.71500 0.57100 33.89800
C  25.23500 3.52000 34.24300
C  26.16500 3.38000 35.44700
H  26.06800 4.41700 36.61400
N  22.80000 2.28900 28.74200
C  21.80400 2.12200 29.70900
C  20.55100 2.19600 28.97900
C  20.80500 2.40400 27.53400
C  22.26000 2.42000 27.48300
C  19.20900 2.21400 29.60900
C  19.86600 2.81700 26.46400
O  20.28400 3.25700 25.38900
C  18.34500 2.96400 26.73900
N  25.31500 2.02000 26.92200
C  24.37500 2.19900 26.01800
C  24.93500 2.29500 24.56100
C  26.47800 2.25400 24.83800
C  26.52300 1.86300 26.34500
C  24.31700 1.41500 23.48700
C  27.34000 3.41200 24.42100
C  27.55400 4.48300 25.50500
N  26.77800 1.58600 29.39800
C  27.78700 1.32500 28.45300
C  29.02700 0.97500 29.08500
C  28.70300 1.08900 30.50700
C  27.30000 1.38800 30.60400
C  30.38100 0.74700 28.48400
C  29.23000 0.94600 31.90000
O  30.34100 0.59400 32.31800
C  28.02100 1.35600 32.83800
C  27.80000 0.40500 33.93900
O  27.02800 -0.51400 34.05000
O  28.42300 1.01200 35.06100
C  28.32800 0.28000 36.32900
H  21.17600 1.72400 31.70400
H  22.49600 2.48500 25.34900
H  28.59700 1.30700 26.56600
H  25.12800 1.42400 34.32500
H  22.63000 2.65000 33.69400
H  22.67900 0.67200 34.98300
H  23.38300 -0.28600 33.80000
H  21.76100 0.22500 33.50000
H  24.35100 4.15200 34.32300
H  25.79100 3.98000 33.42600
H  27.19300 3.41500 35.08700
H  26.02000 2.40100 35.90400
H  18.66700 3.14500 29.44600
H  19.26800 2.01700 30.67900
H  18.60500 1.43100 29.14900
H  18.32500 3.83900 27.38900
H  17.86600 2.09800 27.19400
H  17.84000 3.33900 25.84900
H  24.66400 3.32100 24.31200
H  26.94200 1.42000 24.31100
H  23.79100 0.58100 23.95200
H  25.15200 0.97700 22.94000
H  23.64500 1.89500 22.77500
H  26.80400 3.96300 23.64800
H  28.33900 3.12000 24.09600
H  27.07500 4.17900 26.43500
H  27.06000 5.43300 25.30000
H  28.60300 4.77200 25.57200
H  30.52400 1.56000 27.77300
H  30.39800 -0.24700 28.03500
H  31.10500 0.87600 29.28800
H  28.27500 2.29900 33.32000
H  28.35500 -0.80300 36.20600
H  27.39200 0.58000 36.80200
H  29.18600 0.65800 36.88600

