158

Mg 25.56400 0.18100 29.58100
C  27.48000 0.29900 32.54000
C  22.75900 0.89200 31.37000
C  23.85400 0.27100 26.63800
C  28.47800 -0.83100 27.92800
N  25.24900 0.67800 31.71600
C  26.15200 0.70200 32.74600
C  25.46400 0.90700 34.09600
C  23.93800 0.88700 33.65200
C  23.98000 0.79400 32.16800
C  22.95400 -0.00600 34.49000
C  25.88700 2.18100 34.91500
C  26.53800 1.94700 36.34500
H  26.39000 2.94100 37.51200
N  23.54900 0.38400 29.05600
C  22.56200 0.79600 29.93700
C  21.28600 1.03800 29.16200
C  21.67700 0.95400 27.77100
C  23.08700 0.56400 27.76000
C  20.01000 1.20600 29.81100
C  20.84600 1.22800 26.59600
O  21.26500 1.28100 25.43400
C  19.41000 1.66400 26.71000
N  25.95000 -0.27400 27.58500
C  25.16100 -0.13300 26.49900
C  25.87900 -0.42400 25.12800
C  27.38100 -0.42700 25.56800
C  27.25100 -0.55500 27.15200
C  25.45100 -1.69600 24.41300
C  28.08800 0.90000 25.23500
C  28.90500 0.95800 23.93100
N  27.55100 -0.30200 30.09300
C  28.66600 -0.64600 29.33400
C  29.87100 -0.76900 30.15100
C  29.46500 -0.34200 31.37800
C  28.04400 -0.11200 31.35200
C  31.18800 -1.23600 29.72400
C  29.84600 -0.04700 32.80400
O  30.93600 -0.23200 33.29800
C  28.60800 0.40700 33.63200
C  28.48800 -0.47900 34.79000
O  27.83800 -1.51700 34.85000
O  29.32300 -0.00700 35.73300
C  29.10600 -0.69500 37.04000
H  21.85700 1.27300 31.85400
H  23.35400 0.41400 25.67700
H  29.42600 -1.05400 27.43500
H  25.74800 0.07200 34.73700
H  23.51900 1.87500 33.84400
H  23.51500 -0.63000 35.18500
H  22.40000 -0.70900 33.86800
H  22.34800 0.60900 35.15500
H  25.07900 2.90200 35.03500
H  26.61100 2.76900 34.35000
H  27.62000 1.97900 36.22200
H  26.27000 0.94400 36.67700
H  19.78500 2.27300 29.79400
H  19.96000 0.88700 30.85200
H  19.26100 0.64900 29.24800
H  18.84900 0.89100 27.23500
H  18.99900 1.77300 25.70600
H  19.28300 2.61200 27.23200
H  25.65500 0.38800 24.43700
H  27.95600 -1.27300 25.19000
H  26.32200 -2.03000 23.85000
H  24.76700 -1.44500 23.60200
H  24.95900 -2.48200 24.98500
H  28.78700 1.06800 26.05400
H  27.28600 1.63700 25.26600
H  29.99000 1.04200 23.98300
H  28.56200 1.73000 23.24200
H  28.71500 0.02800 23.39400
H  31.12300 -1.88400 28.85000
H  31.62800 -1.78600 30.55600
H  31.68400 -0.28800 29.52100
H  28.60700 1.46800 33.88500
H  28.05300 -0.65200 37.31900
H  29.66400 -0.06800 37.73600
H  29.49200 -1.71400 37.07900
Mg 47.61800 34.10900 27.42000
C  45.80300 32.66800 29.84600
C  47.98700 37.03400 29.24800
C  48.69700 35.66700 24.66800
C  47.04900 31.20200 25.49700
N  46.84300 34.85700 29.29000
C  46.36700 33.94300 30.24200
C  46.37700 34.55000 31.63800
C  46.88300 36.06400 31.32300
C  47.32700 35.99900 29.88300
C  45.86200 37.20500 31.68100
C  47.17000 33.77000 32.75700
C  47.98300 34.61400 33.70700
H  47.13800 35.61000 34.51300
N  48.33600 36.06300 26.99700
C  48.48400 37.03900 27.93100
C  49.32100 38.12300 27.33700
C  49.38300 37.88700 25.92100
C  48.77800 36.49000 25.74300
C  49.91100 39.21700 28.11200
C  50.07900 38.61900 24.83300
O  50.24500 38.14800 23.70700
C  50.66200 39.97900 25.07500
N  47.83900 33.57500 25.33000
C  48.30700 34.39800 24.44300
C  48.72900 33.56700 23.17000
C  48.17800 32.16400 23.53900
C  47.68900 32.29100 24.87900
C  48.09800 34.02800 21.83900
C  49.29800 31.09200 23.37900
C  50.15400 30.78600 24.61600
N  46.76400 32.25700 27.63600
C  46.61000 31.15600 26.82100
C  45.76600 30.17500 27.45800
C  45.35000 30.76400 28.56600
C  46.03400 31.95900 28.70300
C  45.32000 28.93800 26.85900
C  44.41700 30.64300 29.69600
O  43.64600 29.76200 29.97200
C  44.66800 31.89900 30.54700
C  44.87300 31.49300 31.96700
O  45.77600 30.69300 32.36500
O  43.82900 32.00100 32.72900
C  43.92300 31.83200 34.18000
H  48.15000 37.89300 29.90200
H  49.04600 36.17000 23.76400
H  46.91900 30.22400 25.03000
H  45.32900 34.59600 31.93200
H  47.83400 36.30400 31.80000
H  44.92900 36.79400 32.06600
H  45.68500 37.71800 30.73500
H  46.20300 37.92200 32.42800
H  47.94600 33.17200 32.27900
H  46.49400 33.16500 33.36200
H  48.79800 35.12700 33.19700
H  48.38600 33.93800 34.46200
H  49.55700 40.13400 27.64000
H  51.00100 39.20100 28.12100
H  49.56000 39.25100 29.14400
H  51.54000 39.88400 25.71300
H  49.96400 40.68700 25.52400
H  51.10800 40.29800 24.13300
H  49.81600 33.50700 23.11300
H  47.19800 31.89300 23.14600
H  47.47400 34.89700 22.05100
H  47.50800 33.33800 21.23600
H  48.97300 34.19100 21.21200
H  49.98800 31.35500 22.57800
H  48.70600 30.25100 23.01600
H  49.90400 31.38600 25.49100
H  51.19200 31.03500 24.39300
H  50.03600 29.72500 24.83700
H  45.83500 28.68400 25.93200
H  44.24400 28.86800 26.70100
H  45.55700 28.26300 27.68200
H  43.81800 32.58100 30.55300
H  44.55600 32.65100 34.52300
H  44.49700 30.95900 34.49200
H  42.95500 31.82100 34.68100

