158

Mg 1.70300 -2.04400 44.11700
C  5.13600 -1.20300 44.03600
C  0.94100 0.83500 42.55300
C  -1.44000 -3.22300 43.80400
C  2.71200 -5.42300 45.00200
N  2.93200 -0.44200 43.23100
C  4.32100 -0.24200 43.41200
C  4.83500 1.13600 43.06600
C  3.46300 1.86800 42.74400
C  2.37500 0.69800 42.72000
C  3.06500 3.00100 43.77300
C  5.89800 1.21700 41.96900
C  5.82200 0.11200 40.94700
H  6.80300 0.16100 39.71600
N  -0.07200 -1.25700 43.30200
C  -0.16000 -0.03900 42.68500
C  -1.57500 0.20600 42.39400
C  -2.32100 -0.89900 42.84900
C  -1.30200 -1.83100 43.34500
C  -2.09400 1.49000 41.71700
C  -3.85300 -1.03200 42.85600
O  -4.54300 -0.09800 42.36000
C  -4.63700 -2.19500 43.35900
N  0.82000 -4.00400 44.28200
C  -0.50600 -4.16600 44.14500
C  -0.97100 -5.52900 44.52900
C  0.37000 -6.31500 44.95600
C  1.34700 -5.20200 44.73000
C  -2.06500 -5.62800 45.63000
C  0.53600 -7.57900 44.10500
C  0.34400 -8.84900 44.88900
N  3.52200 -3.10500 44.46300
C  3.75900 -4.48800 44.75500
C  5.19300 -4.64400 44.98000
C  5.77000 -3.35500 44.84800
C  4.70600 -2.49000 44.44400
C  5.88000 -5.89700 45.35600
C  7.00900 -2.64200 44.75200
O  8.14100 -2.95800 45.04200
C  6.58200 -1.19300 44.36200
C  6.91000 -0.20300 45.35800
O  6.42000 -0.17100 46.43600
O  7.74500 0.78700 44.85700
C  8.15400 1.71700 45.85100
H  0.66700 1.87600 42.36700
H  -2.48500 -3.49300 43.97200
H  3.06900 -6.41000 45.30600
H  5.25700 1.52200 43.99400
H  3.57600 2.31800 41.75800
H  2.16600 2.54700 44.18900
H  2.82500 3.88700 43.18500
H  3.79200 3.02200 44.58500
H  6.84600 1.14500 42.50300
H  5.91000 2.19100 41.47900
H  4.82200 0.12400 40.51100
H  5.91700 -0.89300 41.35900
H  -2.93200 1.43500 41.02300
H  -1.34000 1.94900 41.07700
H  -2.35400 2.19300 42.50900
H  -4.31600 -3.20400 43.10300
H  -5.68000 -2.18200 43.04200
H  -4.48200 -2.10400 44.43400
H  -1.42000 -5.85500 43.59000
H  0.37700 -6.46100 46.03700
H  -1.88900 -4.72000 46.20700
H  -1.91100 -6.49300 46.27500
H  -3.02500 -5.63500 45.11400
H  1.51600 -7.70200 43.64300
H  -0.15500 -7.63600 43.26400
H  -0.56200 -9.32700 44.51500
H  0.17500 -8.65700 45.94800
H  1.12800 -9.60500 44.92600
H  6.83200 -5.60200 45.79500
H  6.11100 -6.45300 44.44700
H  5.33300 -6.46000 46.11100
H  7.13400 -1.02100 43.43800
H  8.05600 2.70900 45.41100
H  9.19800 1.55500 46.11900
H  7.75500 1.62800 46.86100
Mg 50.43100 46.83300 43.10100
C  47.21400 47.36800 41.74100
C  50.53100 43.79800 41.84400
C  53.70300 46.97400 43.70400
C  50.38600 50.40400 43.85500
N  48.99500 45.77700 41.94900
C  47.76400 46.11900 41.43900
C  47.08800 44.82800 40.86900
C  48.01900 43.70800 41.22400
C  49.27500 44.47500 41.75000
C  47.52800 42.67900 42.27700
C  46.72700 44.92300 39.33600
C  45.27200 44.65700 38.95900
H  45.01000 43.48800 37.99700
N  51.96300 45.58700 42.78900
C  51.77500 44.32500 42.29600
C  53.02500 43.62300 42.22600
C  54.00100 44.53800 42.86400
C  53.28000 45.76500 43.14800
C  53.15000 42.30800 41.51000
C  55.48000 44.14600 43.06300
O  55.95900 43.11900 42.66500
C  56.39000 44.94100 44.01900
N  51.73400 48.44400 43.88800
C  53.05200 48.15100 44.03100
C  53.89400 49.41000 44.41700
C  52.75600 50.47600 44.66100
C  51.58400 49.77000 43.99300
C  54.80800 49.30700 45.63800
C  53.09600 51.89400 43.99400
C  52.40800 53.11300 44.61400
N  49.03500 48.53400 42.93500
C  49.18000 49.85900 43.36100
C  47.93100 50.59500 43.09400
C  47.09000 49.60000 42.44500
C  47.84400 48.41200 42.40500
C  47.69100 52.07700 43.35400
C  45.78700 49.33700 41.90600
O  44.80300 50.02900 41.81800
C  45.79700 47.85200 41.42800
C  44.76700 47.22600 42.28200
O  44.58700 47.30100 43.49500
O  43.86600 46.66400 41.35300
C  42.56300 46.25200 41.87900
H  50.55900 42.76800 41.48200
H  54.79200 46.98800 43.78100
H  50.35200 51.44300 44.18900
H  46.14500 44.77400 41.41200
H  48.25500 43.25500 40.26100
H  46.44000 42.62800 42.29900
H  47.88800 42.71900 43.30500
H  47.80400 41.70900 41.86200
H  47.42100 44.33800 38.73200
H  46.77400 45.97200 39.04300
H  44.92100 45.52900 38.40600
H  44.65400 44.57400 39.85200
H  54.05700 42.40500 40.91400
H  52.33700 42.11900 40.80900
H  53.34800 41.48200 42.19200
H  56.76500 45.91300 43.69800
H  57.28500 44.34800 44.20800
H  56.07400 45.03500 45.05800
H  54.51900 49.65000 43.55700
H  52.46100 50.62600 45.70000
H  55.77900 49.70500 45.34200
H  55.00700 48.29600 45.99300
H  54.43000 49.88800 46.48000
H  52.87600 51.80300 42.93000
H  54.14700 52.12400 44.16800
H  53.16100 53.75700 45.06800
H  51.51800 52.87500 45.19800
H  52.08500 53.80400 43.83600
H  48.60500 52.63000 43.56800
H  46.85500 52.06200 44.05300
H  47.33500 52.50600 42.41800
H  45.65300 47.75600 40.35200
H  42.65700 45.43100 42.58900
H  41.89900 45.98700 41.05700
H  42.13500 47.02200 42.52000

