158

Mg 25.61700 0.79300 29.60200
C  27.64200 0.71500 32.49800
C  22.98100 1.44900 31.75900
C  23.72500 1.10800 26.92600
C  28.32500 -0.13500 27.75800
N  25.37500 0.91300 31.96500
C  26.34500 0.98900 32.92400
C  25.75700 1.43100 34.30600
C  24.19600 1.24000 34.07200
C  24.18900 1.25800 32.47300
C  23.60500 -0.02900 34.52800
C  26.23600 2.76800 34.80400
C  26.96300 2.82400 36.15400
H  26.50700 3.79400 37.15100
N  23.59300 1.20700 29.36500
C  22.69400 1.44500 30.33200
C  21.42500 1.67100 29.73000
C  21.54400 1.42500 28.37000
C  22.97500 1.28000 28.13800
C  20.17300 1.87100 30.62600
C  20.47500 1.36800 27.18400
O  20.86500 1.46400 26.02800
C  18.99400 1.21200 27.49800
N  25.89600 0.32500 27.64800
C  25.00200 0.74800 26.67100
C  25.65000 0.71500 25.28300
C  27.16100 0.24300 25.55100
C  27.16200 0.23000 27.08200
C  24.89800 -0.08900 24.13000
C  28.18600 1.27800 25.03800
C  28.30100 1.51300 23.56600
N  27.56600 0.22200 29.95100
C  28.54300 -0.18400 29.13200
C  29.76300 -0.47700 29.87700
C  29.50700 -0.01100 31.12800
C  28.11000 0.32400 31.16800
C  31.06500 -0.84100 29.26400
C  30.08600 0.32200 32.44000
O  31.21800 0.09500 32.85900
C  28.93700 0.80000 33.31900
C  28.80000 -0.05900 34.45500
O  28.41900 -1.19200 34.37800
O  29.37400 0.43900 35.53600
C  29.56000 -0.38700 36.74400
H  22.07200 1.67500 32.32000
H  23.19900 1.18400 25.97300
H  29.11600 -0.49700 27.09800
H  26.08300 0.63600 34.97800
H  23.54900 2.07900 34.32700
H  23.18800 0.22200 35.50300
H  24.40000 -0.77400 34.48900
H  22.89600 -0.55500 33.88800
H  25.45200 3.52500 34.80000
H  26.96700 3.05800 34.04800
H  28.03200 2.91000 35.96100
H  26.72400 1.83000 36.53400
H  19.91900 0.93600 31.12600
H  19.37300 2.13000 29.93200
H  20.39400 2.66700 31.33800
H  18.66300 0.75500 26.56500
H  18.48400 2.16200 27.66100
H  18.90600 0.50300 28.32100
H  25.73400 1.77400 25.03800
H  27.47500 -0.78000 25.34600
H  24.44700 0.59800 23.41400
H  24.04400 -0.59300 24.58400
H  25.44100 -0.87600 23.60700
H  29.20500 1.03500 25.34200
H  27.88500 2.21500 25.50600
H  27.61500 0.86900 23.01600
H  29.27600 1.26900 23.14500
H  28.17800 2.56800 23.32500
H  31.56900 0.10200 29.05400
H  30.85100 -1.34800 28.32300
H  31.64700 -1.58200 29.81200
H  29.21500 1.79200 33.67600
H  29.81800 -1.44000 36.62900
H  28.73400 -0.30300 37.45000
H  30.43700 0.03400 37.23700
Mg -6.68100 25.56800 26.50100
C  -5.06100 26.94700 29.22800
C  -8.37000 23.33700 28.59800
C  -8.16600 24.12000 23.74600
C  -4.81100 27.64700 24.42600
N  -6.74400 25.27800 28.67100
C  -6.06000 26.03800 29.59300
C  -6.66600 25.76300 31.01300
C  -7.53000 24.48100 30.82600
C  -7.50000 24.23800 29.27000
C  -6.99600 23.17700 31.55600
C  -7.50600 26.98900 31.44200
C  -7.45100 27.35700 32.93300
H  -7.04900 26.24500 33.89000
N  -8.06900 23.98500 26.19900
C  -8.62900 23.20100 27.20000
C  -9.48500 22.16400 26.62700
C  -9.42000 22.37300 25.25500
C  -8.52000 23.51700 24.98800
C  -10.33400 21.16300 27.42600
C  -10.26700 21.70800 24.12100
O  -10.11300 22.07800 22.93100
C  -11.21400 20.61200 24.46900
N  -6.46800 25.81100 24.41900
C  -7.19000 25.09700 23.47400
C  -6.82000 25.53200 22.06000
C  -5.86900 26.75000 22.23100
C  -5.70500 26.78300 23.78600
C  -6.17400 24.29800 21.30000
C  -6.28600 28.11900 21.58500
C  -5.40300 28.51200 20.41500
N  -5.19200 26.98100 26.66000
C  -4.51100 27.72000 25.76400
C  -3.55200 28.53800 26.41200
C  -3.75100 28.21700 27.78400
C  -4.72600 27.22800 27.87900
C  -2.59400 29.52700 25.71500
C  -3.28900 28.54600 29.17500
O  -2.35300 29.30700 29.55000
C  -4.18800 27.72100 30.15000
C  -3.30000 26.97200 31.07400
O  -2.33700 26.31400 30.75000
O  -3.78200 27.15900 32.42000
C  -2.90800 26.52200 33.52400
H  -8.88300 22.71400 29.33400
H  -8.62600 23.68700 22.85500
H  -4.08300 28.18600 23.81600
H  -5.80600 25.55700 31.65000
H  -8.51300 24.73800 31.22100
H  -6.32200 23.49200 32.35300
H  -6.54900 22.44400 30.88500
H  -7.79000 22.62300 32.05700
H  -8.52500 26.86400 31.07500
H  -7.17600 27.91700 30.97500
H  -8.49900 27.63100 33.05200
H  -6.77400 28.20700 33.02000
H  -10.15500 20.14200 27.09100
H  -11.35800 21.42600 27.16000
H  -10.13800 21.17200 28.49800
H  -11.62600 20.16300 23.56600
H  -11.98200 21.04800 25.10800
H  -10.73000 19.82300 25.04500
H  -7.72100 25.82600 21.52300
H  -4.88600 26.44000 21.87900
H  -5.30900 24.68300 20.76000
H  -6.87300 23.83500 20.60500
H  -5.80200 23.59800 22.04800
H  -6.12100 28.88100 22.34700
H  -7.31900 28.10000 21.23800
H  -4.91300 27.66400 19.93800
H  -4.56400 29.04700 20.85900
H  -6.00400 29.14600 19.76200
H  -1.64300 29.02300 25.54700
H  -2.20100 30.20400 26.47300
H  -3.14500 30.04900 24.93300
H  -4.82200 28.43000 30.68100
H  -3.46000 25.97400 34.28700
H  -2.10700 27.16000 33.89800
H  -2.34600 25.68100 33.11900

