158

Mg 7.18700 1.58200 28.08700
C  8.73500 0.23900 30.93800
C  5.14600 3.40400 30.20400
C  6.06800 3.04900 25.48000
C  9.11400 -0.59100 26.15300
N  6.98200 1.70300 30.28900
C  7.82600 1.18800 31.23100
C  7.58800 1.79700 32.70300
C  6.21200 2.66300 32.44700
C  6.00500 2.52400 30.91000
C  4.99900 2.31000 33.33500
C  8.79600 2.64300 33.21900
C  9.25600 2.42600 34.68700
H  8.17500 2.23700 35.81100
N  5.74200 3.12700 27.89800
C  5.01500 3.74200 28.83000
C  4.17800 4.71100 28.18500
C  4.62300 4.83000 26.85500
C  5.53500 3.63600 26.68400
C  3.13400 5.54300 29.03300
C  4.24500 5.85500 25.76100
O  4.86000 5.85600 24.64600
C  3.26000 6.86700 26.09600
N  7.36200 1.16000 26.07800
C  6.80500 1.94800 25.20700
C  7.22100 1.54500 23.74000
C  8.09600 0.33900 23.95100
C  8.17000 0.22700 25.51100
C  6.00800 1.32200 22.62700
C  9.40800 0.33900 23.15200
C  10.56600 1.17200 23.84600
N  8.59500 0.13200 28.43500
C  9.39300 -0.64900 27.54400
C  10.31600 -1.51600 28.27700
C  10.18600 -1.04900 29.60400
C  9.06000 -0.15000 29.59600
C  11.18500 -2.58700 27.69400
C  10.72900 -1.23900 30.89800
O  11.63000 -2.00800 31.33500
C  9.88300 -0.22300 31.79800
C  9.26400 -0.94900 32.93200
O  8.25900 -1.66300 32.82600
O  9.97000 -0.89100 34.08300
C  9.38000 -1.45100 35.26900
H  4.59800 3.99500 30.94000
H  5.80800 3.62100 24.58600
H  9.67800 -1.30300 25.54600
H  7.41900 0.96300 33.38300
H  6.33800 3.73300 32.61500
H  5.30000 1.59600 34.10200
H  4.20500 1.86000 32.73900
H  4.71900 3.21300 33.87800
H  8.65400 3.67700 32.90400
H  9.69100 2.30900 32.69300
H  9.92400 3.24400 34.95900
H  9.91900 1.56100 34.73100
H  3.35900 6.59800 28.87400
H  2.95300 5.19900 30.05100
H  2.20800 5.43800 28.46800
H  2.33200 6.49600 26.52900
H  3.00100 7.33000 25.14400
H  3.70200 7.60700 26.76300
H  7.76500 2.43700 23.42700
H  7.67400 -0.62100 23.65400
H  5.07900 1.50700 23.16500
H  5.90000 0.31900 22.21500
H  6.13800 2.05100 21.82700
H  9.32300 0.62800 22.10500
H  9.81400 -0.66900 23.07200
H  10.38700 1.56300 24.84700
H  10.78600 1.96100 23.12600
H  11.44000 0.55400 24.05300
H  12.05000 -2.22400 27.14000
H  10.49000 -3.22600 27.14800
H  11.54400 -3.27900 28.45500
H  10.62200 0.55300 32.00100
H  9.96100 -2.37100 35.33100
H  8.32700 -1.71600 35.17500
H  9.47200 -0.76200 36.10800
Mg 36.89100 50.45900 27.24400
C  37.01500 48.31800 29.83300
C  35.22400 52.78600 29.25000
C  36.13200 52.33000 24.51400
C  37.77000 47.72000 25.14900
N  36.30600 50.53400 29.19100
C  36.61500 49.60000 30.14800
C  36.31300 50.00900 31.62000
C  35.33700 51.20700 31.30800
C  35.66300 51.56300 29.80100
C  33.81400 50.98500 31.58100
C  37.63900 50.34700 32.38200
C  37.85200 49.86100 33.76500
H  36.92400 50.27100 34.79800
N  35.88100 52.33500 26.92900
C  35.32700 53.15200 27.91900
C  34.79400 54.38300 27.29800
C  35.17700 54.29900 25.89800
C  35.70100 52.92600 25.73200
C  34.25000 55.66800 28.08700
C  34.82300 55.30200 24.79200
O  35.21300 55.13300 23.60500
C  34.04500 56.64800 25.08400
N  36.87700 50.07700 25.10800
C  36.61400 51.02700 24.19800
C  36.93600 50.49400 22.71800
C  37.47100 49.05800 22.96800
C  37.36100 48.93900 24.52700
C  35.76900 50.70800 21.78900
C  38.94700 48.80500 22.43600
C  39.06900 47.61100 21.43000
N  37.44100 48.47500 27.44600
C  37.73300 47.50800 26.53100
C  38.01000 46.24300 27.18000
C  37.70900 46.50700 28.52500
C  37.30000 47.85500 28.57900
C  38.25500 44.90100 26.54000
C  37.66300 45.88500 29.85900
O  37.92500 44.75200 30.35300
C  37.19600 47.06400 30.76200
C  36.05300 46.61900 31.56300
O  35.03400 46.12700 31.11700
O  36.34200 46.81100 32.90600
C  35.27700 46.33600 33.76800
H  34.77100 53.48700 29.95400
H  36.01300 52.93300 23.61200
H  38.07700 46.90500 24.49000
H  35.82100 49.18400 32.13600
H  35.69600 52.00600 31.95700
H  33.28800 50.99300 30.62700
H  33.46900 51.81400 32.19900
H  33.55000 50.05000 32.07500
H  37.86000 51.41100 32.46300
H  38.33900 49.83900 31.71800
H  38.85600 50.13400 34.09000
H  37.94100 48.77500 33.73400
H  33.17300 55.83500 28.06100
H  34.81500 56.50400 27.67400
H  34.53600 55.64000 29.13800
H  32.96900 56.52900 25.20900
H  34.02800 57.22300 24.15800
H  34.52500 57.35200 25.76400
H  37.76000 51.15700 22.45200
H  36.73200 48.31300 22.67400
H  34.91900 50.78300 22.46800
H  35.67300 49.94300 21.01900
H  35.92800 51.66900 21.30000
H  39.66000 48.67600 23.25000
H  39.26800 49.68200 21.87400
H  39.15900 47.99900 20.41600
H  38.07200 47.17000 21.44000
H  39.86000 46.93800 21.76300
H  37.62000 44.90700 25.65400
H  37.86300 44.15200 27.22800
H  39.31300 44.72900 26.34000
H  38.09000 47.16100 31.37800
H  35.10600 45.26000 33.80300
H  34.33000 46.82600 33.54000
H  35.53200 46.50400 34.81400

