158

Mg 24.34100 -6.37600 45.31700
C  26.42100 -4.14900 43.76500
C  21.70700 -5.38200 43.40000
C  22.72500 -9.34800 46.14000
C  27.17600 -7.65900 47.08800
N  24.13300 -4.94500 43.79200
C  25.11200 -4.08600 43.33000
C  24.51800 -3.02600 42.29500
C  22.94400 -3.28000 42.34000
C  22.89900 -4.67000 43.14000
C  22.10300 -2.14200 43.05400
C  25.11700 -3.32200 40.81100
C  25.32900 -2.00200 40.04400
H  24.87400 -1.87900 38.55900
N  22.42200 -7.18900 45.00400
C  21.47800 -6.62100 44.14500
C  20.29100 -7.49200 44.15500
C  20.50300 -8.48400 45.10100
C  21.92500 -8.41300 45.38300
C  19.06600 -7.18300 43.31400
C  19.47100 -9.36700 45.68300
O  18.36000 -9.10000 45.39900
C  19.82800 -10.34600 46.60000
N  24.97000 -8.32100 46.36100
C  24.07700 -9.34300 46.58800
C  24.63700 -10.41200 47.56700
C  26.05900 -9.76800 47.90600
C  26.07500 -8.50000 47.12200
C  23.74100 -11.03000 48.72600
C  27.26200 -10.80300 47.64000
C  28.46600 -10.96300 48.64300
N  26.40200 -6.03300 45.30400
C  27.38400 -6.55500 46.17100
C  28.67100 -5.82300 46.01700
C  28.31400 -4.93000 44.94500
C  26.99800 -5.08200 44.65300
C  29.89200 -5.97700 46.69600
C  28.86800 -3.87700 44.09700
O  29.95400 -3.38500 44.01000
C  27.58800 -3.33800 43.31500
C  27.54100 -1.86300 43.53700
O  26.90600 -1.31900 44.39300
O  28.34700 -1.21200 42.66700
C  28.43300 0.26800 42.87200
H  20.85900 -5.01800 42.81600
H  22.19000 -10.26600 46.39300
H  28.06100 -7.96800 47.64700
H  24.78500 -2.00100 42.55200
H  22.58100 -3.34100 41.31400
H  22.71700 -1.24500 43.14200
H  21.84600 -2.42600 44.07400
H  21.17000 -2.11800 42.49200
H  24.37800 -3.95400 40.31800
H  25.99400 -3.95200 40.96400
H  26.39100 -1.75800 40.01300
H  24.96800 -1.10500 40.54800
H  19.32800 -6.80700 42.32500
H  18.32800 -6.58800 43.85200
H  18.55100 -8.11900 43.09500
H  20.38800 -9.85400 47.39500
H  20.41400 -11.13900 46.13600
H  18.97800 -10.88300 47.02100
H  24.98500 -11.17100 46.86600
H  25.96400 -9.35900 48.91200
H  24.39200 -11.30500 49.55600
H  23.10900 -11.80600 48.29400
H  23.14700 -10.26200 49.22200
H  27.65200 -10.33100 46.73800
H  26.84500 -11.80500 47.53800
H  28.09900 -11.70500 49.35200
H  28.75100 -9.98200 49.02300
H  29.32900 -11.32100 48.08100
H  29.68800 -6.04600 47.76400
H  30.48500 -5.08500 46.48900
H  30.52000 -6.82300 46.41800
H  27.63300 -3.44400 42.23100
H  28.59300 0.52600 43.91900
H  27.46500 0.66000 42.55900
H  29.18800 0.83700 42.32900
Mg 49.28000 44.55000 42.43800
C  46.24400 45.06500 40.67900
C  49.67800 41.58800 40.70600
C  52.62200 44.60400 43.07900
C  49.08800 47.88400 43.45900
N  48.13300 43.51500 40.80200
C  46.84100 43.85300 40.37100
C  46.40900 42.79200 39.34200
C  47.26400 41.59200 39.62100
C  48.42200 42.25500 40.45300
C  46.67900 40.37800 40.38200
C  46.47800 43.32400 37.90700
C  45.28900 43.08700 36.92900
H  45.27800 43.81300 35.60800
N  50.92800 43.26600 41.91600
C  50.86100 42.06300 41.29100
C  52.16800 41.33600 41.44100
C  53.00800 42.16000 42.18000
C  52.24000 43.40500 42.43800
C  52.43200 39.88800 40.93700
C  54.37100 41.74200 42.61800
O  54.75600 40.65900 42.20800
C  55.39400 42.58700 43.12600
N  50.69200 46.01500 43.15000
C  51.97800 45.78300 43.45400
C  52.66200 46.97800 44.21200
C  51.46900 48.04500 44.36400
C  50.34500 47.31300 43.62100
C  53.33500 46.57100 45.52100
C  51.72800 49.43800 43.66100
C  51.12600 50.66100 44.35700
N  47.87200 46.14200 42.36000
C  47.92900 47.43200 42.76000
C  46.74500 48.14900 42.47100
C  46.07000 47.28000 41.64800
C  46.77100 46.07200 41.61500
C  46.50000 49.53400 42.92000
C  44.94600 47.12700 40.75900
O  44.12700 47.97800 40.48700
C  44.91500 45.72400 40.16200
C  43.59900 45.12900 40.68200
O  42.70000 44.88400 39.94000
O  43.53000 45.02500 42.07000
C  42.24800 44.84800 42.64300
H  49.89100 40.55600 40.42100
H  53.65500 44.46300 43.40300
H  48.96800 48.84500 43.96200
H  45.39300 42.40400 39.40000
H  47.66300 41.19500 38.68700
H  46.90000 40.36000 41.44900
H  46.99300 39.44000 39.92400
H  45.60800 40.30200 40.19500
H  47.31300 42.84300 37.39800
H  46.60200 44.40300 37.80800
H  44.38000 43.21900 37.51700
H  45.31700 42.00300 36.81900
H  53.32700 39.83300 40.31600
H  51.68900 39.57300 40.20500
H  52.49600 39.23300 41.80600
H  55.11800 42.93000 44.12300
H  55.63600 43.43900 42.49100
H  56.30200 41.99400 43.23900
H  53.49700 47.34100 43.61300
H  51.25800 48.12600 45.43000
H  53.04700 47.20300 46.36100
H  54.41000 46.56500 45.34400
H  53.04200 45.56600 45.82700
H  51.41000 49.39700 42.61900
H  52.81700 49.46200 43.68200
H  51.79800 51.45900 44.67300
H  50.70400 50.37900 45.32100
H  50.38200 51.10400 43.69500
H  46.35100 50.28600 42.14500
H  47.30900 49.81300 43.59500
H  45.55500 49.46000 43.45900
H  44.83500 45.81600 39.07800
H  42.30000 44.20000 43.51800
H  41.51600 44.38200 41.98300
H  41.91000 45.87100 42.80300

