158

Mg -11.80800 37.81200 41.79000
C  -9.52600 35.36600 40.98000
C  -10.03700 39.84400 39.64600
C  -14.44000 39.91300 41.55000
C  -14.01100 35.40200 43.12300
N  -10.04700 37.58200 40.35000
C  -9.21600 36.48600 40.23900
C  -7.94000 36.77100 39.46400
C  -8.15000 38.26000 39.08900
C  -9.49700 38.60700 39.72500
C  -6.94600 39.14300 39.41700
C  -7.72800 35.88300 38.21900
C  -6.24100 35.29500 37.93700
H  -5.22700 36.17800 37.12800
N  -12.03500 39.72100 40.96800
C  -11.13600 40.40800 40.26400
C  -11.53600 41.76400 40.11200
C  -12.91300 41.82400 40.62900
C  -13.16800 40.43100 41.05100
C  -10.64400 42.85000 39.49500
C  -13.72000 43.09500 40.78800
O  -13.35500 44.13600 40.27100
C  -14.93200 43.08300 41.66900
N  -13.95300 37.67000 42.21000
C  -14.80200 38.71800 41.99500
C  -16.16500 38.46400 42.58500
C  -16.01000 36.93700 43.06800
C  -14.55900 36.59900 42.78600
C  -16.59700 39.41400 43.66500
C  -16.95600 35.87900 42.44900
C  -18.19200 35.43700 43.17500
N  -11.79300 35.77800 42.02800
C  -12.64600 34.95700 42.85300
C  -12.00600 33.64200 43.00200
C  -10.74200 33.79900 42.34200
C  -10.68400 35.08800 41.70800
C  -12.50100 32.42000 43.79800
C  -9.48700 33.12200 42.02900
O  -9.15500 32.00100 42.33400
C  -8.56400 34.09500 41.15800
C  -7.29500 34.23100 41.93900
O  -6.50800 33.27800 42.07700
O  -7.13900 35.55200 42.35600
C  -5.99700 35.85200 43.23800
H  -9.52600 40.51500 38.95300
H  -15.21100 40.68500 41.51400
H  -14.69800 34.77100 43.69100
H  -7.09700 36.63500 40.14200
H  -8.33300 38.42600 38.02700
H  -7.19900 39.89700 40.16300
H  -6.62900 39.63500 38.49800
H  -6.07900 38.60800 39.80200
H  -7.92000 36.56700 37.39200
H  -8.41100 35.05000 38.04900
H  -6.37700 34.30400 37.50500
H  -5.84100 35.19300 38.94600
H  -10.82800 43.77800 40.03600
H  -10.87400 43.03300 38.44600
H  -9.59600 42.66600 39.72900
H  -15.22600 44.06900 42.03000
H  -14.75900 42.48200 42.56200
H  -15.71500 42.73200 40.99700
H  -16.85800 38.44100 41.74400
H  -16.16500 36.85100 44.14300
H  -17.38700 40.09500 43.34900
H  -15.72200 39.91400 44.08100
H  -17.07100 38.84700 44.46700
H  -16.44800 34.99000 42.07400
H  -17.21300 36.25100 41.45700
H  -18.43700 36.18200 43.93200
H  -17.90700 34.54700 43.73600
H  -19.00900 35.16000 42.50900
H  -12.96100 31.69000 43.13200
H  -13.20500 32.79400 44.54200
H  -11.69200 31.86300 44.27000
H  -8.29600 33.77400 40.15100
H  -6.41800 36.47300 44.02900
H  -5.28700 36.35300 42.58000
H  -5.54400 34.97700 43.70400
Mg 1.02100 42.93900 25.57500
C  3.32000 42.54500 28.22200
C  -1.52200 42.03400 27.48400
C  -0.89600 42.80100 22.83100
C  3.88100 43.47600 23.50400
N  0.99200 42.41100 27.62600
C  1.95700 42.36700 28.55700
C  1.36900 41.90400 29.90500
C  -0.16400 41.55400 29.52200
C  -0.25600 42.04600 28.11800
C  -0.60500 40.11900 29.86400
C  1.52900 43.02200 30.94400
C  1.88600 42.56500 32.34800
H  1.00100 42.96000 33.47700
N  -1.00000 42.67600 25.21800
C  -1.88100 42.35100 26.18900
C  -3.18100 42.36700 25.68900
C  -3.05200 42.45300 24.27500
C  -1.65400 42.61200 24.03600
C  -4.38700 42.30500 26.53600
C  -4.11200 42.39200 23.21200
O  -4.03000 42.61200 22.01300
C  -5.50000 42.12600 23.59400
N  1.46000 43.04200 23.44200
C  0.43200 43.05100 22.52600
C  0.92500 43.39100 21.15400
C  2.30700 44.01200 21.49000
C  2.61000 43.48800 22.89300
C  0.93400 42.14500 20.13600
C  2.33200 45.54700 21.33700
C  3.37100 46.08000 20.38000
N  3.08000 42.98600 25.76300
C  4.06400 43.25000 24.82600
C  5.37300 43.29000 25.42800
C  5.09000 43.00800 26.83100
C  3.72500 42.84200 26.94100
C  6.73700 43.38500 24.77500
C  5.70300 42.66800 28.13200
O  6.89800 42.48100 28.43500
C  4.58700 42.46600 29.16000
C  4.66900 41.14600 29.76800
O  4.53300 40.05700 29.17700
O  4.99600 41.33900 31.12500
C  5.38200 40.12200 31.86400
H  -2.29700 41.58800 28.11200
H  -1.55900 42.87500 21.96600
H  4.68600 43.83100 22.85700
H  1.90800 40.98600 30.13800
H  -0.92600 42.20100 29.95700
H  0.27100 39.56200 30.19600
H  -0.87700 39.48200 29.02300
H  -1.44000 40.02200 30.55700
H  0.62700 43.63200 30.97700
H  2.34900 43.68500 30.66800
H  2.85900 42.97400 32.62100
H  2.08400 41.49500 32.40800
H  -4.86100 41.34100 26.35200
H  -5.02100 43.17900 26.39000
H  -4.14800 42.48100 27.58500
H  -6.13000 41.96500 22.71900
H  -5.79200 42.94300 24.25200
H  -5.61300 41.19400 24.14900
H  0.25800 44.17100 20.78700
H  2.97600 43.74800 20.67000
H  1.97300 41.93100 19.88600
H  0.37000 42.41300 19.24300
H  0.53100 41.25000 20.61100
H  2.47000 46.01400 22.31200
H  1.43600 46.04000 20.95800
H  2.87300 46.64000 19.58800
H  3.88100 45.32900 19.77600
H  4.08300 46.67800 20.94800
H  7.35500 42.58400 25.18100
H  7.16700 44.38100 24.87800
H  6.60400 43.17600 23.71300
H  4.65400 43.21300 29.95200
H  5.68500 39.40700 31.10000
H  4.58100 39.72800 32.49100
H  6.15400 40.44500 32.56300

