158

Mg 25.64600 1.28100 29.33100
C  27.53900 1.04700 32.23800
C  22.77700 1.84700 31.25700
C  23.86200 1.07500 26.44400
C  28.56400 0.62700 27.41000
N  25.19600 1.27600 31.42400
C  26.12200 1.36000 32.46200
C  25.54200 1.77000 33.78400
C  23.99900 1.67100 33.42600
C  23.99800 1.65300 31.92300
C  23.12200 0.60900 34.16600
C  26.09000 3.05600 34.43100
C  26.56700 2.82700 35.91900
H  26.20500 3.95500 36.95800
N  23.60700 1.44700 28.88100
C  22.56500 1.71800 29.83500
C  21.36700 1.84000 29.12500
C  21.63600 1.62100 27.78700
C  23.11800 1.38100 27.64800
C  20.11000 2.07800 29.77500
C  20.64400 1.65600 26.66300
O  21.01500 1.36700 25.50400
C  19.15300 1.90100 26.87600
N  26.13300 0.87000 27.23100
C  25.20800 0.84300 26.24300
C  25.85700 0.63900 24.83300
C  27.41000 0.51700 25.16700
C  27.37600 0.64000 26.67700
C  25.25400 -0.46000 23.90400
C  28.23100 1.73900 24.51300
C  27.89600 3.19700 24.90300
N  27.63500 1.00600 29.68400
C  28.67200 0.75600 28.85000
C  29.81300 0.40000 29.58900
C  29.45100 0.58800 30.92100
C  28.09900 0.87200 30.94000
C  31.14500 -0.05100 29.10900
C  29.92000 0.58200 32.33200
O  30.99000 0.36500 32.90400
C  28.67100 1.07300 33.18000
C  28.55400 0.16600 34.37000
O  27.88700 -0.87100 34.43000
O  29.48800 0.53300 35.28600
C  29.44600 -0.23600 36.53700
H  21.95400 1.88400 31.97400
H  23.39800 1.03300 25.45700
H  29.51300 0.45600 26.89800
H  25.74400 0.98000 34.50600
H  23.48400 2.61700 33.59500
H  22.10500 0.98600 34.27500
H  23.55300 0.28400 35.11300
H  23.17500 -0.22800 33.46900
H  25.28500 3.79000 34.42000
H  26.88400 3.44200 33.79200
H  27.63800 2.63700 35.83900
H  26.19400 1.90400 36.36300
H  19.52300 1.17600 29.60500
H  19.63100 2.98400 29.40400
H  20.31600 2.25200 30.83100
H  18.89200 2.95400 26.98300
H  18.77000 1.30200 27.70300
H  18.66900 1.67500 25.92600
H  25.75000 1.56900 24.27600
H  27.81800 -0.48600 25.03700
H  24.42600 -1.02300 24.33500
H  26.05500 -1.17700 23.72200
H  24.81300 -0.09500 22.97600
H  28.08000 1.65700 23.43600
H  29.28300 1.48000 24.63000
H  27.09200 3.13800 25.63600
H  27.60100 3.74600 24.00900
H  28.71100 3.75900 25.36100
H  31.30900 0.29500 28.08800
H  31.33600 -1.11300 28.95300
H  31.89100 0.36800 29.78500
H  28.88500 2.09000 33.51000
H  28.52800 -0.13400 37.11500
H  30.20100 -0.01500 37.29200
H  29.52400 -1.29700 36.30200
Mg 46.61100 25.30600 28.59500
C  47.53000 27.22500 31.37500
C  45.83700 22.77100 30.80700
C  45.80200 23.37700 26.06900
C  48.08700 27.53600 26.55300
N  46.65400 25.09100 30.88500
C  46.91100 26.02600 31.79000
C  46.57400 25.60100 33.26300
C  46.03000 24.15700 32.98500
C  46.16400 23.93900 31.44300
C  46.68500 23.04000 33.87100
C  45.58900 26.56600 34.13100
C  45.97100 26.96700 35.58600
H  44.97000 27.53200 36.61400
N  45.90000 23.40600 28.44200
C  45.75300 22.46500 29.39600
C  45.32900 21.20000 28.87000
C  45.17500 21.32100 27.48200
C  45.65700 22.74200 27.26500
C  45.13900 19.94000 29.79300
C  44.70100 20.35100 26.44200
O  44.60700 20.62200 25.27000
C  44.17900 18.93000 26.88900
N  46.95500 25.44500 26.61600
C  46.49800 24.52500 25.72000
C  46.93100 24.82300 24.27600
C  47.45000 26.31400 24.46300
C  47.42900 26.52700 25.95800
C  47.95100 23.81500 23.68200
C  46.60100 27.36900 23.62700
C  47.42100 27.80400 22.39100
N  47.64800 26.99100 28.82500
C  48.10500 27.84600 27.88000
C  48.74400 29.02100 28.50500
C  48.55400 28.75500 29.88400
C  47.88900 27.51100 30.03500
C  49.34800 30.20800 27.87000
C  48.88200 29.22300 31.21900
O  49.50900 30.16300 31.63700
C  48.18000 28.25500 32.20700
C  49.20000 27.74400 33.07200
O  50.00000 26.84600 32.83800
O  49.10100 28.42500 34.26200
C  49.99900 27.78900 35.30700
H  45.56800 21.94800 31.47300
H  45.59000 22.76000 25.19300
H  48.59400 28.34700 26.02600
H  47.54300 25.53700 33.75800
H  44.95400 24.12600 33.15800
H  46.12500 22.10500 33.88300
H  46.72500 23.49900 34.85900
H  47.66700 22.75000 33.49500
H  44.54000 26.27500 34.07800
H  45.57400 27.46500 33.51400
H  46.78200 27.69600 35.57000
H  46.41100 26.08400 36.04900
H  45.62200 20.01900 30.76700
H  45.65100 19.21300 29.16200
H  44.09000 19.64700 29.80500
H  43.32800 18.97900 27.56900
H  44.95900 18.32800 27.35300
H  43.94800 18.39100 25.97000
H  46.07500 24.82400 23.60000
H  48.47800 26.40000 24.11400
H  48.96100 24.20800 23.56300
H  47.61400 23.43400 22.71800
H  47.82800 22.97400 24.36500
H  46.24900 28.19600 24.24400
H  45.66700 26.85300 23.40100
H  47.93100 26.95500 21.93700
H  48.16200 28.54700 22.68600
H  46.88100 28.41200 21.66600
H  50.42800 30.06200 27.86300
H  48.91200 31.04900 28.40900
H  49.02800 30.28600 26.83100
H  47.54300 28.93200 32.77600
H  51.00100 28.00100 34.93400
H  49.80000 26.79500 35.70900
H  50.04200 28.35200 36.24000

