158

Mg 26.27100 0.49400 29.81500
C  28.17500 0.08800 32.69100
C  23.66100 1.22000 31.63200
C  24.53200 0.10600 26.99800
C  29.19900 -0.58700 28.05600
N  25.95900 0.34900 32.07000
C  26.91000 0.58300 32.97900
C  26.31000 0.99900 34.30800
C  24.83300 1.47900 33.91100
C  24.77300 1.00500 32.41400
C  23.62200 0.88200 34.64000
C  27.05600 2.12500 35.16600
C  27.54700 1.67800 36.52400
H  27.42200 2.67300 37.65700
N  24.28400 0.54600 29.35400
C  23.32600 0.93000 30.28000
C  22.06500 0.98200 29.62800
C  22.27700 0.59600 28.28400
C  23.74300 0.36300 28.12900
C  20.82900 1.50600 30.20100
C  21.31600 0.44800 27.08000
O  21.69800 0.08800 25.98900
C  19.85400 0.76100 27.26700
N  26.83400 -0.20800 27.76500
C  25.91600 -0.09900 26.82300
C  26.61500 -0.37500 25.43900
C  28.08600 -0.25500 25.74500
C  28.08100 -0.29400 27.29800
C  26.17500 -1.74400 24.83800
C  28.96900 0.88000 25.22700
C  29.30200 0.77100 23.75700
N  28.25000 -0.21100 30.22400
C  29.28500 -0.61700 29.42900
C  30.46600 -0.92300 30.22900
C  30.07300 -0.59500 31.49100
C  28.69900 -0.21900 31.43300
C  31.84000 -1.43000 29.78100
C  30.50500 -0.65700 32.84200
O  31.51900 -1.06500 33.42000
C  29.27200 -0.13200 33.67100
C  29.03000 -1.21100 34.69300
O  28.45200 -2.22800 34.52000
O  29.69300 -0.88100 35.84000
C  29.77200 -1.99500 36.81700
H  22.78700 1.55400 32.19500
H  24.00900 -0.03800 26.05100
H  30.12500 -0.85000 27.54100
H  26.35800 0.11500 34.94400
H  24.71700 2.56200 33.95500
H  24.00000 0.61200 35.62600
H  23.14600 0.02000 34.17300
H  22.83100 1.62700 34.72700
H  26.39200 2.96900 35.35200
H  27.93800 2.50000 34.64500
H  28.62300 1.64100 36.35200
H  27.17800 0.70600 36.85000
H  20.44600 2.33000 29.59900
H  21.03200 2.03000 31.13500
H  20.04800 0.76300 30.36400
H  19.38200 0.02800 27.92200
H  19.39300 0.71200 26.28000
H  19.85300 1.77400 27.66900
H  26.30000 0.31600 24.65800
H  28.57000 -1.15400 25.36300
H  25.98900 -2.48800 25.61200
H  26.97900 -2.27000 24.32300
H  25.30400 -1.66200 24.18700
H  29.82800 1.02400 25.88200
H  28.36000 1.77700 25.33600
H  30.35400 1.05800 23.74500
H  28.78500 1.40100 23.03300
H  29.30300 -0.24600 23.36600
H  32.50800 -1.36600 30.64000
H  32.17200 -0.84800 28.92200
H  31.63100 -2.40300 29.33600
H  29.62800 0.74900 34.20500
H  30.61100 -1.75300 37.46900
H  30.13700 -2.91200 36.35600
H  28.83100 -2.10500 37.35600
Mg -11.91400 37.73000 42.20400
C  -9.20800 35.42900 41.85300
C  -9.95900 40.14900 40.56000
C  -14.59000 39.77200 41.98200
C  -13.94400 34.94000 42.97300
N  -9.91100 37.68800 41.12200
C  -8.98200 36.68800 41.30500
C  -7.65500 37.18200 40.75400
C  -7.82500 38.70000 40.63200
C  -9.33000 38.91000 40.78200
C  -6.91600 39.48200 41.60000
C  -7.22900 36.55800 39.40000
C  -5.69600 36.39400 39.24500
H  -5.07000 37.21800 38.12800
N  -12.23900 39.74500 41.47100
C  -11.29800 40.57100 40.90500
C  -11.86400 41.88700 40.64300
C  -13.29200 41.78200 40.90900
C  -13.47400 40.39000 41.47000
C  -11.23700 43.02500 39.93800
C  -14.35400 42.84100 40.50800
O  -14.02600 43.98000 40.12700
C  -15.79000 42.63400 40.59100
N  -13.90100 37.40200 42.34400
C  -14.79400 38.45900 42.46400
C  -16.11100 38.01400 43.03200
C  -15.91000 36.47700 43.24700
C  -14.48100 36.21300 42.76700
C  -16.56700 38.67500 44.30700
C  -16.89800 35.52700 42.42800
C  -18.07200 35.01100 43.28800
N  -11.69600 35.56000 42.56400
C  -12.58400 34.60200 42.89100
C  -11.85400 33.40200 43.17200
C  -10.51500 33.61600 42.78600
C  -10.49700 34.94300 42.40100
C  -12.43500 32.08900 43.66800
C  -9.19100 33.13400 42.81000
O  -8.73100 32.13000 43.25500
C  -8.22900 34.25700 42.16100
C  -7.18200 34.57700 43.13600
O  -6.01500 34.71600 42.89400
O  -7.70700 34.74500 44.40300
C  -6.65000 35.22900 45.35700
H  -9.24700 40.90200 40.21500
H  -15.46300 40.42600 42.03900
H  -14.62400 34.16900 43.34100
H  -6.90100 36.84800 41.46600
H  -7.47800 39.08600 39.67300
H  -6.13900 38.83400 42.00700
H  -7.52100 39.88400 42.41300
H  -6.41900 40.35100 41.17000
H  -7.57300 37.08400 38.51000
H  -7.61300 35.54400 39.29200
H  -5.39500 35.34700 39.26100
H  -5.25000 36.82600 40.14100
H  -11.57600 43.93600 40.43100
H  -11.42100 43.03400 38.86400
H  -10.14900 43.05100 39.99300
H  -16.31700 43.50500 40.20300
H  -16.09100 42.51200 41.63100
H  -16.05700 41.72700 40.04900
H  -16.87900 38.24200 42.29400
H  -15.83000 36.18000 44.29300
H  -16.74300 37.87900 45.03000
H  -17.40300 39.33100 44.06400
H  -15.81700 39.30700 44.78100
H  -16.48700 34.66400 41.90300
H  -17.39200 36.15000 41.68200
H  -18.19700 33.93800 43.14300
H  -19.03500 35.39900 42.95600
H  -17.89900 35.20300 44.34700
H  -12.49500 31.29400 42.92400
H  -13.41900 32.25700 44.10400
H  -11.75400 31.73800 44.44400
H  -7.74900 33.89600 41.25100
H  -7.18000 35.42000 46.29000
H  -6.21900 36.18600 45.06200
H  -5.95000 34.50200 45.76800

