158

Mg 41.83000 40.72500 26.40200
C  41.02500 43.13800 28.80700
C  42.77400 38.56200 28.73800
C  42.63700 38.76800 23.92800
C  41.26200 43.35300 24.02100
N  42.00100 40.90200 28.52600
C  41.56900 41.94700 29.33600
C  41.56800 41.50100 30.79500
C  42.23200 40.05800 30.74400
C  42.27300 39.81300 29.24700
C  43.59100 39.83200 31.38700
C  40.14600 41.68900 31.46100
C  39.74000 40.80100 32.67500
H  39.03000 41.40500 33.83900
N  42.46100 38.87900 26.38500
C  42.84300 38.08100 27.43800
C  43.18100 36.77500 26.93900
C  43.08600 36.79900 25.46200
C  42.75300 38.17000 25.18000
C  43.52500 35.62000 27.88400
C  43.32900 35.71000 24.48700
O  43.05900 35.73600 23.31400
C  43.67900 34.35100 24.98400
N  42.10900 41.08000 24.20900
C  42.30200 40.00300 23.44400
C  42.16800 40.35700 21.92000
C  41.41900 41.77100 21.96400
C  41.53000 42.11000 23.53900
C  43.58500 40.44700 21.27400
C  40.01200 41.73100 21.32500
C  39.09500 40.73000 22.07000
N  41.25100 42.77000 26.33600
C  41.07900 43.63700 25.34700
C  40.66000 44.98700 25.84200
C  40.64800 44.80300 27.24000
C  40.93800 43.43900 27.47900
C  40.50700 46.21000 25.00400
C  40.27900 45.43700 28.54500
O  39.74000 46.50800 28.84300
C  40.52400 44.33700 29.65200
C  41.38000 44.77600 30.77000
O  42.58500 44.81100 30.67000
O  40.53000 45.10000 31.85200
C  41.37200 45.60700 32.89100
H  42.95300 37.92500 29.60700
H  42.75200 37.98500 23.17500
H  40.93800 44.13200 23.32800
H  42.22200 42.27300 31.20100
H  41.55000 39.34300 31.20600
H  43.85100 40.84800 31.68400
H  44.28400 39.32900 30.71200
H  43.44300 39.10900 32.19000
H  39.32600 41.58300 30.75000
H  40.15000 42.68000 31.91500
H  40.65400 40.32700 33.03200
H  39.16300 39.95000 32.31200
H  44.54500 35.23900 27.85100
H  42.91000 34.77500 27.57400
H  43.25000 35.80400 28.92300
H  44.46300 34.44400 25.73600
H  44.12000 33.82000 24.14100
H  42.92100 33.83700 25.57600
H  41.50600 39.61900 21.46700
H  42.11400 42.47500 21.50700
H  44.21400 39.70800 21.77100
H  44.03100 41.43600 21.37600
H  43.42400 40.16600 20.23300
H  40.06400 41.33700 20.31000
H  39.51500 42.69900 21.26300
H  39.57200 40.19100 22.88900
H  38.57700 40.04600 21.39900
H  38.28200 41.30600 22.51200
H  41.16600 46.24300 24.13600
H  40.80600 47.01000 25.68100
H  39.51500 46.42300 24.60400
H  39.56100 44.12100 30.11500
H  42.17300 46.24700 32.52100
H  41.84000 44.78800 33.43800
H  40.80000 46.28500 33.52400
Mg -6.50800 25.53600 26.22900
C  -5.26900 27.06100 29.01900
C  -7.91900 23.17000 28.18500
C  -7.70800 24.09000 23.43400
C  -4.96400 28.09300 24.16600
N  -6.46600 25.13000 28.29700
C  -6.12600 26.00700 29.27600
C  -6.69600 25.67300 30.59200
C  -7.40400 24.29600 30.31900
C  -7.26100 24.15400 28.81700
C  -7.10000 23.13700 31.26800
C  -7.59100 26.83700 31.11800
C  -7.59800 27.03900 32.67300
H  -7.23200 25.79700 33.67300
N  -7.54100 23.77800 25.86500
C  -8.10800 22.99800 26.81500
C  -9.02800 22.06200 26.16000
C  -8.90300 22.25800 24.78700
C  -8.04000 23.42600 24.65400
C  -10.07000 21.07300 26.80800
C  -9.53900 21.46600 23.60900
O  -9.42300 21.70600 22.40900
C  -10.37100 20.20400 23.90100
N  -6.32000 26.04000 24.16700
C  -6.99300 25.26900 23.20800
C  -6.83500 25.79000 21.78500
C  -6.31200 27.28600 22.18000
C  -5.85200 27.12600 23.63200
C  -5.64800 25.02400 21.01700
C  -7.47300 28.31800 21.98000
C  -7.32900 29.05100 20.64700
N  -5.32500 27.33800 26.50700
C  -4.75200 28.17900 25.61200
C  -3.96800 29.12600 26.35900
C  -4.03500 28.79300 27.77800
C  -4.95600 27.69900 27.76200
C  -3.39800 30.30900 25.70400
C  -3.69500 29.03300 29.17100
O  -2.93700 29.81500 29.69700
C  -4.52300 27.94100 30.02800
C  -3.54100 27.19000 30.91600
O  -2.65600 26.48300 30.49600
O  -3.77300 27.37900 32.26100
C  -2.85900 26.73200 33.24100
H  -8.51900 22.46900 28.76900
H  -8.11900 23.67200 22.51200
H  -4.56800 28.86600 23.50400
H  -5.81300 25.39200 31.16600
H  -8.47400 24.47100 30.42800
H  -6.53500 22.29800 30.86200
H  -7.95300 22.55100 31.61200
H  -6.42500 23.54200 32.02200
H  -8.63400 26.81900 30.80200
H  -7.38500 27.82300 30.70000
H  -8.56600 27.36300 33.05600
H  -6.88600 27.84200 32.86600
H  -11.05300 21.09900 26.33900
H  -10.34400 21.51500 27.76600
H  -9.68000 20.05700 26.86800
H  -11.41200 20.28600 24.21300
H  -9.81900 19.47300 24.49300
H  -10.53700 19.88100 22.87300
H  -7.79200 25.61900 21.29200
H  -5.53400 27.62400 21.49600
H  -5.04600 25.71700 20.42900
H  -6.15700 24.34500 20.33300
H  -4.95300 24.55800 21.71600
H  -7.33200 29.13200 22.69200
H  -8.51300 28.02100 22.11600
H  -8.30500 29.18100 20.18000
H  -6.80300 28.46300 19.89500
H  -6.81700 30.01000 20.72600
H  -2.76900 30.04000 24.85500
H  -2.84700 30.89500 26.43900
H  -4.18000 30.95600 25.30900
H  -5.22000 28.43700 30.70400
H  -3.45600 26.64800 34.14800
H  -2.04700 27.43300 33.44000
H  -2.66100 25.73900 32.83900

