158

Mg 1.61000 -0.95100 44.32000
C  4.99900 -0.46000 43.52600
C  0.85400 1.72800 42.45900
C  -1.48500 -2.13100 44.24600
C  2.64500 -3.89400 46.04900
N  2.75900 0.42500 43.07900
C  4.09400 0.36900 42.87200
C  4.58300 1.55400 41.99400
C  3.25700 2.35900 41.74200
C  2.22100 1.51300 42.58600
C  3.25300 3.94800 42.00900
C  5.35400 1.24400 40.69500
C  6.50700 2.29600 40.39400
H  6.38000 3.15600 39.16400
N  -0.09000 -0.21000 43.55300
C  -0.22400 0.95600 42.81500
C  -1.61200 1.25000 42.57500
C  -2.34200 0.16100 43.16600
C  -1.28700 -0.82100 43.69700
C  -2.04900 2.53500 41.97700
C  -3.82700 0.05800 43.30400
O  -4.55600 0.94000 42.87100
C  -4.44700 -0.96600 44.19500
N  0.72000 -2.82000 44.97100
C  -0.58400 -3.02600 44.78400
C  -0.92700 -4.47400 45.26100
C  0.21400 -4.73800 46.22200
C  1.28100 -3.81400 45.72800
C  -2.39400 -4.66900 45.96700
C  0.61700 -6.27300 46.42000
C  0.73200 -6.63100 47.94800
N  3.40400 -1.98400 44.79600
C  3.65600 -3.19100 45.46100
C  5.08400 -3.26300 45.62900
C  5.68500 -2.19000 44.96200
C  4.59600 -1.48600 44.43100
C  5.73800 -4.36200 46.41200
C  6.94200 -1.54800 44.53000
O  8.11200 -1.82700 44.76300
C  6.50500 -0.46400 43.53900
C  7.02600 0.72400 44.08800
O  6.60400 1.36700 45.03400
O  8.16400 1.13500 43.31000
C  8.52700 2.57600 43.70800
H  0.60700 2.60900 41.86300
H  -2.53800 -2.40700 44.33700
H  2.89100 -4.72400 46.71600
H  5.14200 2.26400 42.60300
H  2.89500 2.08800 40.75100
H  2.67600 4.55800 41.31400
H  4.27300 4.31600 42.12000
H  2.72800 4.05000 42.95800
H  4.80800 1.20300 39.75200
H  5.82200 0.27800 40.88000
H  7.39000 1.66400 40.29800
H  6.55700 3.09300 41.13600
H  -3.10100 2.62700 41.70800
H  -1.57300 2.83800 41.04400
H  -1.80200 3.25800 42.75300
H  -5.47100 -0.68400 44.43900
H  -3.87900 -0.99800 45.12500
H  -4.44100 -1.90200 43.63600
H  -0.90300 -5.12800 44.38900
H  -0.13900 -4.32100 47.16500
H  -3.20000 -4.35200 45.30400
H  -2.38400 -4.24500 46.97200
H  -2.69900 -5.70300 46.12600
H  1.58500 -6.61400 46.05300
H  -0.13500 -6.87500 45.91100
H  -0.16600 -7.13500 48.30500
H  0.99700 -5.71600 48.47700
H  1.61800 -7.26200 48.01000
H  6.76300 -4.65200 46.18400
H  5.16400 -5.26100 46.18800
H  5.63300 -4.11800 47.46900
H  6.97300 -0.52100 42.55500
H  9.09500 3.08800 42.93100
H  9.08300 2.46000 44.63800
H  7.71000 3.29200 43.80200
Mg 26.36600 1.00100 29.09900
C  28.17800 0.44000 32.02700
C  23.39700 0.89300 30.92100
C  24.53400 1.36000 26.25200
C  29.17700 0.53700 27.22900
N  25.92700 0.59300 31.20500
C  26.78500 0.59700 32.22300
C  26.05700 0.73200 33.57500
C  24.55000 0.52400 33.21100
C  24.63800 0.78100 31.66100
C  24.02400 -0.90800 33.44500
C  26.39500 2.03600 34.29200
C  26.77800 1.98700 35.79000
H  26.17300 3.02600 36.77900
N  24.15600 1.04300 28.64700
C  23.18300 0.99100 29.54900
C  21.95300 0.98600 28.83800
C  22.20600 1.29000 27.47700
C  23.70900 1.29100 27.40500
C  20.70000 0.63800 29.58600
C  21.20700 1.62600 26.35400
O  21.58800 1.85300 25.19700
C  19.67900 1.63100 26.53300
N  26.80600 1.04200 27.05800
C  25.88800 1.28900 26.05900
C  26.57300 1.19600 24.65800
C  28.05400 1.11000 25.00600
C  28.04900 0.89400 26.54300
C  25.94000 -0.00600 23.90300
C  29.01500 2.37200 24.69700
C  30.47000 2.04900 24.29600
N  28.38800 0.63700 29.48300
C  29.44400 0.41500 28.59200
C  30.64100 0.01600 29.45500
C  30.15600 0.13500 30.80800
C  28.78300 0.38400 30.74300
C  32.04800 -0.36800 29.04700
C  30.57800 0.11100 32.17900
O  31.70800 -0.08500 32.58300
C  29.23700 0.29300 33.09200
C  29.09700 -0.99500 33.84300
O  28.84100 -2.07900 33.43200
O  29.26200 -0.75000 35.21200
C  29.13300 -1.88300 36.17000
H  22.47300 0.83700 31.49900
H  24.04900 1.54000 25.29000
H  30.05700 0.35700 26.60800
H  26.41000 -0.08300 34.20700
H  23.93500 1.15600 33.85200
H  23.80900 -1.09700 34.49700
H  24.88400 -1.56800 33.33500
H  23.32300 -1.22800 32.67400
H  25.57500 2.75400 34.32500
H  27.16900 2.60800 33.78000
H  27.84200 2.17700 35.65200
H  26.69300 0.97300 36.18300
H  20.67800 1.33500 30.42400
H  20.54900 -0.38800 29.92000
H  19.82000 0.91200 29.00300
H  19.37500 0.62400 26.81900
H  19.13300 2.05900 25.69200
H  19.38700 2.34100 27.30700
H  26.26100 2.11500 24.16200
H  28.45100 0.16300 24.63800
H  26.62100 -0.77400 23.53800
H  25.46600 0.31900 22.97700
H  25.12200 -0.48500 24.44000
H  28.94600 3.07400 25.52800
H  28.67800 2.86600 23.78600
H  30.61300 2.31500 23.24800
H  30.55700 0.96300 24.33900
H  31.16000 2.56700 24.96200
H  32.68900 0.21500 29.70800
H  32.25200 -0.16900 27.99500
H  32.30600 -1.41600 29.20500
H  29.24100 1.15500 33.75800
H  29.95000 -1.93000 36.89000
H  29.07000 -2.84000 35.65100
H  28.26600 -1.72100 36.81000

