158

Mg 8.87900 48.60200 26.32100
C  6.50600 48.47700 28.90800
C  11.28200 49.55500 28.53700
C  11.07100 49.01600 23.72800
C  6.20800 48.50400 23.98200
N  8.78400 49.08600 28.51600
C  7.75000 48.89300 29.40600
C  8.23200 49.21800 30.82300
C  9.68200 49.73500 30.60100
C  9.97700 49.48200 29.10700
C  10.08800 51.04700 31.20500
C  8.09900 48.03300 31.83000
C  8.99500 48.00800 33.14000
H  8.68600 47.05900 34.34800
N  10.92500 49.04000 26.19800
C  11.75300 49.23800 27.24900
C  13.11100 49.14200 26.76900
C  13.01600 49.04800 25.41400
C  11.58500 49.07300 25.07000
C  14.35900 49.31700 27.74900
C  14.08400 48.87900 24.37000
O  13.98300 49.05300 23.17000
C  15.47700 48.41400 24.89600
N  8.62900 48.75500 24.24900
C  9.69100 49.06700 23.39600
C  9.20300 49.40400 21.97700
C  7.67500 48.95200 22.05200
C  7.47200 48.62100 23.52900
C  9.47100 50.95500 21.66900
C  7.14800 47.89600 21.08500
C  7.15100 48.31000 19.60400
N  6.83000 48.38600 26.37500
C  5.84600 48.31500 25.37500
C  4.66000 47.94700 25.97200
C  4.85800 48.02300 27.32700
C  6.21000 48.28400 27.57900
C  3.41500 47.77100 25.18900
C  4.12000 47.93200 28.53400
O  2.94700 47.64900 28.77300
C  5.15300 48.37300 29.58300
C  5.03200 47.29600 30.62300
O  5.49500 46.19200 30.50400
O  4.42100 47.81600 31.72100
C  4.20700 46.90200 32.81800
H  12.08600 49.92600 29.17600
H  11.78900 49.14500 22.91500
H  5.35700 48.46000 23.29900
H  7.54100 49.97600 31.19100
H  10.36500 48.99800 31.02400
H  10.99100 50.96800 31.81100
H  9.35300 51.43400 31.91100
H  10.32900 51.72600 30.38700
H  8.34000 47.23700 31.12500
H  7.06600 48.00700 32.17400
H  8.93000 48.97700 33.63600
H  10.04500 47.85600 32.89200
H  15.02400 50.12100 27.43500
H  14.99000 48.43400 27.65100
H  13.96900 49.38200 28.76500
H  15.35500 47.44600 25.38300
H  15.94200 49.16400 25.53700
H  16.22100 48.30800 24.10700
H  9.77400 48.77400 21.29400
H  7.01300 49.79000 21.83400
H  10.27600 51.02500 20.93800
H  9.76800 51.51300 22.55700
H  8.53300 51.36700 21.29700
H  6.15400 47.49200 21.27500
H  7.75700 46.99200 21.10000
H  6.19300 48.03900 19.15900
H  7.81900 47.62900 19.07900
H  7.39600 49.35500 19.41100
H  3.74900 47.18000 24.33700
H  3.08700 48.70600 24.73500
H  2.60000 47.32200 25.75600
H  4.81700 49.32500 29.99400
H  3.53300 47.34100 33.55300
H  5.18200 46.85100 33.30400
H  3.84300 45.89300 32.62200
Mg 0.08500 44.06900 25.13900
C  2.14200 44.01100 28.10700
C  -2.45000 42.98600 27.13200
C  -1.70700 44.24600 22.42700
C  2.95300 44.71200 23.27000
N  -0.08000 43.48800 27.39900
C  0.86500 43.66800 28.41200
C  0.22100 43.34200 29.82600
C  -1.13600 42.67800 29.36500
C  -1.23900 43.13800 27.87100
C  -1.34900 41.16900 29.53700
C  -0.05600 44.66600 30.55500
C  0.06000 44.62400 32.04600
H  -0.29200 43.30200 32.75200
N  -1.77600 43.72700 24.84300
C  -2.71300 43.35100 25.75800
C  -3.98400 43.20500 25.08700
C  -3.83100 43.55900 23.71900
C  -2.43800 43.97700 23.63500
C  -5.25200 42.93200 25.85300
C  -4.85100 43.60200 22.50900
O  -4.49100 43.97500 21.39800
C  -6.31200 43.26000 22.69800
N  0.65200 44.02200 22.96000
C  -0.37600 44.36800 22.09200
C  0.17000 44.96000 20.73400
C  1.69300 45.29600 21.17500
C  1.73100 44.66400 22.59000
C  0.12800 43.95500 19.55900
C  2.10900 46.76800 21.10900
C  1.37000 47.73200 22.05900
N  2.11700 44.23700 25.50600
C  3.13100 44.49000 24.67900
C  4.39200 44.47900 25.35300
C  4.02600 44.36000 26.71400
C  2.58800 44.20300 26.74300
C  5.85200 44.69100 24.75500
C  4.53900 44.29700 28.03700
O  5.73200 44.23000 28.31600
C  3.28900 44.08500 28.99400
C  3.58100 42.90200 29.88900
O  3.67000 41.74100 29.44400
O  3.63200 43.27500 31.20700
C  3.87800 42.13700 32.15000
H  -3.21700 42.68100 27.84700
H  -2.29900 44.55600 21.56300
H  3.78100 45.06500 22.65300
H  0.79700 42.67500 30.46700
H  -1.93500 43.19900 29.89300
H  -0.58300 40.87500 30.25500
H  -1.10500 40.63500 28.61900
H  -2.28400 40.86300 30.00500
H  -1.05000 45.05200 30.33100
H  0.65900 45.42600 30.23900
H  -0.44300 45.46000 32.53200
H  1.11900 44.74400 32.27500
H  -5.48800 43.88500 26.32600
H  -4.89300 42.26700 26.63800
H  -5.96300 42.47100 25.16800
H  -6.74400 43.67300 23.61000
H  -6.23400 42.17400 22.75400
H  -6.98400 43.63300 21.92500
H  -0.45500 45.84100 20.58800
H  2.37000 44.71800 20.54600
H  -0.58600 44.32000 18.82100
H  -0.18400 42.99100 19.96100
H  1.00100 43.93100 18.90700
H  1.72700 47.00800 20.11700
H  3.19800 46.81500 21.11500
H  1.97800 48.23900 22.80800
H  0.74600 47.01800 22.59700
H  0.65100 48.35500 21.52600
H  5.82700 45.43300 23.95700
H  6.37400 43.78400 24.45000
H  6.45500 45.07300 25.57800
H  3.18800 44.95900 29.63600
H  2.87000 41.81200 32.41100
H  4.49700 42.45400 32.99000
H  4.43800 41.29500 31.74300

