158

Mg 54.13400 24.45100 45.43500
C  51.58300 26.51100 44.59300
C  52.26800 21.68500 44.20700
C  56.83000 22.48200 45.22900
C  56.10400 27.11000 46.36900
N  52.37400 24.19000 44.33700
C  51.38200 25.15400 44.26700
C  50.18100 24.62600 43.54900
C  50.12800 23.16400 43.87900
C  51.68800 22.98200 44.17300
C  49.22200 22.78800 45.06700
C  50.12500 24.96500 42.03000
C  51.40400 25.29800 41.37600
H  52.31900 24.15400 40.94900
N  54.48800 22.31600 45.01000
C  53.58500 21.36200 44.49900
C  54.29100 20.14000 44.34100
C  55.59100 20.32100 44.59500
C  55.73800 21.75200 44.94900
C  53.51900 18.95600 43.72800
C  56.72200 19.27200 44.48200
O  56.35900 18.14900 44.11700
C  58.14100 19.49800 44.88400
N  56.16500 24.77400 45.53800
C  57.02300 23.78100 45.61100
C  58.44800 24.30800 45.94800
C  58.26300 25.80900 46.33600
C  56.78000 25.93500 46.05300
C  59.23400 23.43700 46.97800
C  59.23000 26.78200 45.50100
C  60.35700 27.43900 46.23900
N  53.96500 26.41900 45.34100
C  54.76800 27.40600 45.99500
C  53.98900 28.61500 46.15200
C  52.76800 28.32100 45.53900
C  52.78800 26.99500 45.18700
C  54.35800 29.86700 46.89000
C  51.37400 28.85000 45.27200
O  50.94100 29.95800 45.43300
C  50.65000 27.71100 44.43900
C  50.55800 28.25600 43.04900
O  51.46900 28.81300 42.45000
O  49.30700 28.03200 42.49500
C  49.26400 28.47800 41.08400
H  51.51300 20.93700 43.95600
H  57.80200 21.98800 45.29800
H  56.72300 27.85800 46.86900
H  49.31700 25.06900 44.04600
H  49.89400 22.60300 42.97400
H  49.90000 22.64700 45.90800
H  48.65300 21.89800 44.80000
H  48.51000 23.55400 45.37600
H  49.40700 25.77300 41.89000
H  49.74900 24.15500 41.40500
H  51.93300 26.07000 41.93400
H  51.20500 25.69100 40.37900
H  53.93800 18.88800 42.72400
H  52.44600 19.12600 43.63900
H  53.57200 18.06900 44.36000
H  58.67200 18.54800 44.85000
H  58.07400 19.81600 45.92500
H  58.60000 20.26200 44.25600
H  59.05400 24.33400 45.04200
H  58.39400 25.93700 47.41100
H  58.53600 22.71900 47.40800
H  59.46100 23.98500 47.89300
H  60.04000 22.82000 46.58100
H  58.68400 27.64600 45.12300
H  59.51400 26.32300 44.55400
H  60.42500 27.12300 47.28000
H  60.18200 28.51500 46.25300
H  61.28600 27.26600 45.69700
H  53.86000 29.75900 47.85300
H  53.98500 30.77700 46.41900
H  55.42900 29.93700 47.07600
H  49.65400 27.51900 44.83600
H  50.11800 27.99400 40.61100
H  49.23000 29.56800 41.06300
H  48.36500 27.97000 40.73700
Mg 47.18100 17.12600 28.28000
C  45.33000 16.81500 31.26500
C  49.27100 19.50300 29.86300
C  48.28700 18.11100 25.32900
C  44.51500 15.47000 26.70000
N  47.18400 18.10600 30.26600
C  46.49400 17.63300 31.33300
C  47.08200 18.17900 32.62300
C  48.22400 19.15600 32.16400
C  48.27200 18.92800 30.64900
C  48.08100 20.66600 32.61300
C  47.48600 16.98400 33.53900
C  46.97900 17.01900 34.94400
H  46.73100 18.43800 35.66000
N  48.89600 18.34100 27.70900
C  49.53400 19.26800 28.44500
C  50.47800 19.82200 27.61000
C  50.36300 19.34000 26.29500
C  49.13700 18.55500 26.38200
C  51.35800 20.87500 27.98000
C  51.22200 19.55400 25.09700
O  50.91500 19.17200 23.94100
C  52.47000 20.43200 25.20600
N  46.53300 16.79300 26.32700
C  47.14400 17.38300 25.24500
C  46.41700 16.99600 23.98100
C  45.16400 16.22000 24.42700
C  45.40800 16.18900 25.93000
C  46.17200 18.27900 23.14800
C  44.92400 14.85100 23.79500
C  44.51500 14.82600 22.33600
N  45.40200 16.21100 28.82600
C  44.46200 15.55900 28.11000
C  43.40900 15.07700 28.99100
C  43.76200 15.47600 30.27500
C  44.96600 16.24400 30.15400
C  42.21500 14.12800 28.54900
C  43.38100 15.40600 31.67400
O  42.45600 14.83500 32.23100
C  44.38100 16.30700 32.36900
C  43.62800 17.53000 33.01800
O  43.27300 18.53400 32.46500
O  43.36500 17.26300 34.30400
C  42.67300 18.27800 35.08000
H  49.97200 20.13100 30.41700
H  48.72900 18.36300 24.36300
H  43.69300 15.02700 26.13400
H  46.31500 18.74500 33.15200
H  49.18900 18.86200 32.57400
H  48.07800 21.46300 31.87000
H  48.90800 20.88000 33.29000
H  47.15700 20.78800 33.17700
H  48.56800 16.93500 33.41700
H  47.14200 16.03000 33.13800
H  47.67400 16.47900 35.58600
H  46.01300 16.51400 34.92700
H  52.36700 20.48200 27.85500
H  51.47300 21.07900 29.04500
H  50.97500 21.76100 27.47300
H  53.27900 19.84400 25.63800
H  52.28400 21.33100 25.79500
H  52.65900 20.72600 24.17400
H  47.15200 16.40500 23.43300
H  44.26500 16.78300 24.17400
H  45.11900 18.39800 22.89400
H  46.64300 18.32100 22.16600
H  46.47700 19.19900 23.64700
H  43.94400 14.52600 24.14400
H  45.62100 14.09700 24.15700
H  44.48800 15.84100 21.94100
H  43.52700 14.36700 22.30400
H  45.21400 14.23000 21.74800
H  42.39800 13.20600 27.99700
H  41.46200 14.64700 27.95600
H  41.72000 13.83500 29.47600
H  44.75700 15.81700 33.26700
H  42.55500 18.03300 36.13600
H  41.66100 18.40100 34.69400
H  43.26100 19.19000 34.98300

