158

Mg 53.59300 22.68000 44.78700
C  51.61400 25.34900 43.62800
C  51.53900 20.63300 43.17600
C  55.93900 20.35400 44.88300
C  55.93400 25.15500 45.90900
N  51.76400 22.99600 43.39700
C  51.10400 24.13800 43.20300
C  49.71000 23.89400 42.49400
C  49.52500 22.32400 42.91600
C  51.00700 21.95100 43.10900
C  48.72800 22.17200 44.21900
C  49.71400 24.01300 40.92500
C  51.09400 24.07000 40.28900
H  51.06700 24.61600 38.91300
N  53.62500 20.75300 44.27500
C  52.69400 20.03900 43.60000
C  53.04600 18.61300 43.48700
C  54.36000 18.50800 44.00800
C  54.73500 19.96300 44.36600
C  52.17000 17.48600 42.89400
C  55.07700 17.23000 44.36600
O  54.65500 16.14100 44.06300
C  56.39600 17.21700 45.04700
N  55.69500 22.78100 45.23600
C  56.41700 21.64400 45.20700
C  57.83800 21.93300 45.65000
C  57.79000 23.44500 46.00900
C  56.41300 23.85800 45.69300
C  58.41600 20.99300 46.75400
C  58.70100 24.28900 45.07800
C  59.14500 25.68400 45.65600
N  53.68700 24.78700 44.93700
C  54.67600 25.61500 45.45200
C  54.09600 26.93700 45.57800
C  52.93900 26.91000 44.78300
C  52.78700 25.57200 44.36900
C  54.71800 28.10300 46.39600
C  51.80700 27.70000 44.21700
O  51.58800 28.88100 44.22400
C  50.90100 26.70400 43.55300
C  50.68100 27.14400 42.15000
O  51.50700 27.38400 41.30100
O  49.32100 27.08600 41.99600
C  48.81000 27.80600 40.86600
H  50.74500 20.00900 42.76200
H  56.78100 19.66200 44.95600
H  56.59500 25.84400 46.43900
H  48.88700 24.50400 42.86600
H  48.86300 21.80700 42.22200
H  47.81100 21.64900 43.94700
H  48.38600 23.18600 44.42400
H  49.28500 21.66100 45.00500
H  49.20700 24.93500 40.63900
H  49.27800 23.12000 40.47600
H  51.40400 23.02500 40.26400
H  51.83000 24.62600 40.87000
H  52.39000 17.24400 41.85400
H  51.14400 17.78500 43.11200
H  52.29600 16.49900 43.34000
H  56.31700 17.90600 45.88800
H  57.14300 17.50800 44.30700
H  56.86100 16.26300 45.29300
H  58.42700 21.78900 44.74400
H  57.93600 23.74600 47.04700
H  58.69100 21.60500 47.61200
H  59.35200 20.53700 46.43100
H  57.73400 20.16200 46.93600
H  58.19000 24.44400 44.12700
H  59.58200 23.69900 44.82700
H  60.23500 25.69800 45.66700
H  58.79500 25.85000 46.67500
H  58.78300 26.40300 44.92100
H  54.21900 29.02800 46.10400
H  55.77200 28.20400 46.13900
H  54.54400 27.77100 47.42000
H  49.96800 26.82400 44.10300
H  47.99100 27.32900 40.32900
H  49.49300 27.91300 40.02300
H  48.44000 28.78200 41.18100
Mg 5.83900 54.62000 40.64400
C  5.73800 51.03600 40.43900
C  9.19500 54.29800 39.62800
C  5.85700 57.86500 40.10400
C  2.50600 54.69000 41.29400
N  7.26600 52.81800 40.00500
C  6.99200 51.50100 39.97600
C  8.22500 50.67400 39.51900
C  9.38200 51.72400 39.60900
C  8.57500 53.04700 39.70100
C  10.32000 51.62700 40.92900
C  8.16700 49.88700 38.15800
C  7.99400 50.72800 36.83200
H  6.72300 50.58200 36.02000
N  7.30200 55.90800 40.05400
C  8.63600 55.61900 39.82100
C  9.42800 56.83700 39.64100
C  8.52600 57.84700 39.84500
C  7.15300 57.27800 39.96000
C  10.83800 56.93100 39.14100
C  8.86800 59.29400 39.97500
O  10.06400 59.56200 39.94200
C  7.82900 60.31600 40.22300
N  4.24000 56.06500 40.32800
C  4.58500 57.34800 40.36300
C  3.35900 58.25000 40.69400
C  2.24900 57.16200 40.79100
C  3.02700 55.89200 40.89500
C  3.67800 59.00400 42.11000
C  1.26300 57.11900 39.56900
C  -0.16300 57.61600 39.87000
N  4.33400 53.17100 40.88900
C  3.03500 53.38500 41.26100
C  2.44800 52.04900 41.50600
C  3.49600 51.14700 41.25100
C  4.61800 51.83800 40.83700
C  1.19000 51.58400 42.09300
C  3.90300 49.70200 41.26200
O  3.23800 48.71200 41.64500
C  5.34300 49.57700 40.64700
C  5.00100 48.88500 39.34200
O  4.58100 49.39000 38.28300
O  5.29000 47.54500 39.50400
C  4.81700 46.64300 38.37400
H  10.18700 54.34900 39.17400
H  5.83000 58.95200 40.00000
H  1.49000 54.72000 41.69400
H  8.37800 49.93100 40.30200
H  10.02000 51.73500 38.72600
H  11.33100 51.51100 40.53800
H  10.06700 50.79400 41.58500
H  10.31700 52.51400 41.56200
H  7.39600 49.12200 38.24200
H  9.09600 49.33100 38.02700
H  8.90300 50.53000 36.26300
H  7.95800 51.79200 37.06400
H  10.97500 57.70300 38.38300
H  11.35000 56.00100 38.89200
H  11.49300 57.23500 39.95800
H  8.29900 61.26800 40.47000
H  7.22200 60.01400 41.07700
H  7.19800 60.39800 39.33800
H  3.18300 58.89600 39.83400
H  1.62800 57.36300 41.66500
H  2.92900 59.79500 42.13400
H  4.69600 59.38500 42.19500
H  3.42500 58.44600 43.01100
H  1.10900 56.07600 39.29400
H  1.80000 57.69000 38.81100
H  -0.85400 56.83700 39.54700
H  -0.37500 58.55300 39.35500
H  -0.23900 57.82300 40.93800
H  0.62400 52.50400 42.24400
H  1.36700 51.06600 43.03600
H  0.84700 50.92500 41.29600
H  6.06200 48.98100 41.20900
H  3.73900 46.64300 38.21600
H  5.04500 45.60400 38.61100
H  5.27000 47.06100 37.47400

