158

Mg 49.92000 45.91500 43.19900
C  46.57300 46.26300 42.31800
C  49.78200 42.60900 42.26800
C  53.32700 45.73200 43.66000
C  50.15400 49.43900 43.84400
N  48.33600 44.65700 42.26000
C  47.03000 44.96400 42.17100
C  46.21500 43.79000 41.71600
C  47.20600 42.56300 41.83800
C  48.52400 43.28700 42.16300
C  46.90200 41.45800 42.93300
C  45.77000 43.94500 40.14300
C  44.39300 43.60500 39.81400
H  43.86500 44.45000 38.63100
N  51.44500 44.40500 42.87200
C  51.12300 43.07900 42.53600
C  52.32800 42.27100 42.61000
C  53.33400 43.15000 43.07200
C  52.73200 44.51100 43.19300
C  52.40500 40.77100 42.24800
C  54.84800 42.75900 43.28700
O  55.12400 41.59100 43.02100
C  55.89500 43.70200 43.79500
N  51.51700 47.41700 43.62900
C  52.74100 47.00300 43.83500
C  53.58300 48.27500 44.14800
C  52.57700 49.51800 44.17400
C  51.32900 48.76000 43.89100
C  54.49500 48.19700 45.40900
C  52.89400 50.57100 43.00700
C  53.62200 51.89300 43.48600
N  48.62000 47.53800 43.18000
C  48.88400 48.86900 43.43900
C  47.55900 49.55600 43.31600
C  46.65300 48.58300 42.89100
C  47.37400 47.39100 42.79900
C  47.20800 50.94700 43.53700
C  45.27400 48.26800 42.47300
O  44.32700 49.02900 42.33500
C  45.14900 46.81600 42.10100
C  44.14600 46.32600 43.14900
O  44.30200 46.18000 44.36200
O  42.96300 45.94000 42.49100
C  41.92100 45.21300 43.26400
H  49.58700 41.54400 42.12500
H  54.35700 45.62700 44.00800
H  50.03800 50.49500 44.09500
H  45.30900 43.58000 42.28300
H  47.19700 42.10500 40.84900
H  46.51100 40.51300 42.55500
H  46.05800 41.85800 43.49500
H  47.71100 41.25100 43.63400
H  46.35700 43.32500 39.46600
H  46.04300 44.93700 39.78200
H  43.79500 43.68600 40.72100
H  44.51800 42.56500 39.51300
H  51.45700 40.25200 42.38700
H  53.17500 40.23600 42.80400
H  52.66900 40.76900 41.19000
H  56.07000 44.45200 43.02400
H  56.84800 43.17200 43.78600
H  55.69900 44.18400 44.75300
H  54.19700 48.39800 43.25600
H  52.67600 49.95600 45.16700
H  54.24100 47.48600 46.19600
H  54.56800 49.18100 45.87200
H  55.52200 47.99500 45.10300
H  51.93600 50.78600 42.53500
H  53.48300 50.16300 42.18600
H  54.49200 52.02300 42.84300
H  53.92900 51.72900 44.51900
H  53.02600 52.80600 43.45700
H  47.67800 51.56900 42.77500
H  47.60200 51.20900 44.51900
H  46.12300 51.04200 43.57100
H  44.73500 46.84600 41.09300
H  42.08900 44.17000 42.99500
H  40.91500 45.54600 43.00700
H  41.97800 45.18600 44.35200
Mg 5.96400 54.82500 42.01200
C  5.80300 51.26800 41.57500
C  9.01400 54.76900 40.47700
C  5.76000 58.12800 41.82300
C  2.74900 54.63700 43.42700
N  7.08300 53.19900 40.91200
C  6.92900 51.78000 40.96600
C  8.12500 51.04900 40.33500
C  9.17800 52.23900 40.18700
C  8.43100 53.48500 40.61600
C  10.49700 51.97700 40.93100
C  7.84700 50.30000 39.04200
C  6.91000 50.96900 38.06400
H  7.02100 50.51600 36.58500
N  7.18900 56.31000 41.22800
C  8.45000 56.06100 40.67500
C  8.98800 57.38700 40.30100
C  8.04800 58.40300 40.64700
C  6.92800 57.60200 41.23300
C  10.28800 57.52900 39.62600
C  8.30800 59.88200 40.50200
O  9.43200 60.29100 40.19400
C  7.25900 60.96300 40.81500
N  4.44200 56.12100 42.50500
C  4.68200 57.49900 42.49800
C  3.64900 58.33300 43.28600
C  2.69300 57.17900 43.76900
C  3.32200 55.86700 43.15300
C  4.20200 59.27300 44.38700
C  1.12700 57.31100 43.57600
C  0.34300 56.76900 42.33800
N  4.54800 53.28000 42.49800
C  3.30000 53.38200 43.10500
C  2.91400 52.10400 43.46700
C  3.74600 51.15300 42.80600
C  4.74700 51.97900 42.22000
C  1.77800 51.74800 44.35900
C  4.17200 49.76400 42.65500
O  3.74000 48.68900 43.01800
C  5.41600 49.80300 41.78300
C  5.20800 49.05900 40.46200
O  4.30100 49.40400 39.68200
O  5.98800 47.91400 40.29300
C  5.83600 47.10900 39.07200
H  10.07500 54.63600 40.25500
H  5.69700 59.21800 41.83900
H  1.88600 54.71900 44.09100
H  8.45400 50.34000 41.09500
H  9.32700 52.35700 39.11300
H  11.36200 51.96000 40.26800
H  10.56500 50.99100 41.39000
H  10.65400 52.66700 41.76000
H  7.54500 49.29100 39.32200
H  8.79800 50.08700 38.55400
H  6.99800 52.05600 38.08500
H  5.95400 50.63300 38.46400
H  10.21600 57.87600 38.59500
H  10.80900 56.57300 39.58700
H  10.90600 58.19400 40.23000
H  6.46200 60.74200 40.10400
H  7.66800 61.96400 40.67300
H  7.05500 60.88200 41.88300
H  3.15500 59.05300 42.63400
H  2.89200 57.04100 44.83200
H  5.28600 59.16800 44.40700
H  3.81000 58.90100 45.33300
H  3.92300 60.30400 44.16700
H  0.98100 58.38700 43.47400
H  0.64600 56.98800 44.50000
H  -0.43400 56.10200 42.71000
H  1.02400 56.28000 41.64100
H  -0.17100 57.54500 41.77100
H  1.86400 52.39200 45.23400
H  1.86900 50.72900 44.73700
H  0.87500 51.89700 43.76700
H  6.20900 49.31500 42.35000
H  6.65600 46.39300 39.13000
H  5.83700 47.76400 38.20100
H  4.88000 46.58500 39.05200

