158

Mg 29.75300 58.10300 40.92200
C  26.99600 56.11000 39.76400
C  31.84300 55.54800 39.66900
C  32.30600 60.27500 41.12100
C  27.43700 60.81900 41.20200
N  29.48000 56.02800 39.82600
C  28.26100 55.43200 39.56800
C  28.42300 53.97700 39.06300
C  30.00600 53.76300 39.25700
C  30.49800 55.16400 39.64000
C  30.40900 52.81200 40.38800
C  28.00300 53.84000 37.56100
C  28.33100 54.97600 36.47300
H  27.13400 55.64800 35.69800
N  31.76200 57.88500 40.55900
C  32.46300 56.82300 40.06600
C  33.87100 57.12200 39.89000
C  34.00600 58.44100 40.36200
C  32.68000 59.00300 40.69500
C  34.97100 56.21600 39.23000
C  35.33900 59.21300 40.31300
O  36.31600 58.61800 39.86700
C  35.56500 60.61800 40.91900
N  29.79800 60.24200 40.98400
C  31.03900 60.80600 41.30000
C  30.84300 62.26900 41.72400
C  29.31100 62.43300 41.75500
C  28.79800 61.08000 41.27600
C  31.45900 62.63500 43.11400
C  28.67500 63.59100 41.03000
C  28.16400 64.73400 42.02200
N  27.60400 58.43700 40.69700
C  26.86300 59.56100 40.86200
C  25.47200 59.19300 40.78600
C  25.45900 57.87100 40.29300
C  26.83000 57.45100 40.23200
C  24.26400 60.16300 41.04000
C  24.58900 56.78800 39.80500
O  23.39100 56.63100 39.69500
C  25.58900 55.67000 39.35000
C  25.08500 54.42500 39.98400
O  25.12700 54.25200 41.19400
O  24.60500 53.55500 39.04400
C  23.90900 52.31800 39.61900
H  32.51200 54.73800 39.36900
H  32.96400 61.13700 41.24900
H  26.75100 61.63500 41.43900
H  27.84600 53.25900 39.64400
H  30.43400 53.47000 38.29900
H  29.48600 52.39000 40.78600
H  30.95700 53.28100 41.20600
H  30.89900 51.94400 39.94600
H  26.92300 53.69900 37.51900
H  28.36000 52.93800 37.06500
H  29.01000 54.51500 35.75600
H  28.89900 55.72300 37.02700
H  35.57300 56.66500 38.44100
H  34.50900 55.33000 38.79300
H  35.68900 55.91900 39.99500
H  35.13000 61.37100 40.26100
H  36.61100 60.89700 41.04300
H  35.11200 60.54700 41.90800
H  31.20800 62.98100 40.98400
H  28.99200 62.38200 42.79600
H  32.07000 61.78200 43.41000
H  30.76500 62.84600 43.92800
H  32.18100 63.45100 43.09400
H  27.76100 63.23500 40.55600
H  29.33000 63.95200 40.23700
H  28.82500 65.01800 42.84100
H  27.15300 64.55100 42.38400
H  28.05500 65.59000 41.35500
H  24.42300 61.17500 41.41200
H  23.59000 59.67600 41.74500
H  23.82200 60.38100 40.06800
H  25.49600 55.52100 38.27400
H  22.84100 52.50100 39.73400
H  24.40800 51.96900 40.52300
H  23.90600 51.63400 38.77000
Mg 8.61100 48.31400 26.12200
C  6.43900 48.75200 28.86600
C  11.25800 49.20900 28.14100
C  10.60100 47.91900 23.52200
C  5.79500 47.66500 24.06300
N  8.83300 48.75800 28.26600
C  7.77000 48.91900 29.18400
C  8.36000 49.37100 30.54200
C  9.89400 49.60400 30.28600
C  10.02200 49.16300 28.77700
C  10.44400 51.06600 30.48700
C  7.90200 48.47300 31.76100
C  8.90800 48.40600 32.96200
H  8.31200 47.75800 34.23300
N  10.65300 48.74400 25.84000
C  11.62000 49.04300 26.80600
C  12.91100 49.05600 26.14700
C  12.69100 48.74600 24.77900
C  11.24400 48.42300 24.68200
C  14.18500 49.41400 26.90100
C  13.71400 48.60100 23.68300
O  13.38200 48.25100 22.58400
C  15.20000 48.73300 24.02800
N  8.15600 48.11300 23.92400
C  9.22700 47.76600 23.13400
C  8.76800 47.14900 21.82000
C  7.23800 47.03000 22.03300
C  7.03200 47.72900 23.37700
C  9.15600 48.02000 20.56400
C  6.76600 45.60600 21.97600
C  7.32100 44.62600 23.04000
N  6.55200 48.13600 26.36600
C  5.55700 47.86800 25.48000
C  4.30100 47.87200 26.16700
C  4.57000 48.27100 27.46300
C  5.97300 48.44900 27.53400
C  2.88500 47.43500 25.55100
C  3.97700 48.58600 28.71900
O  2.85000 48.56300 29.10500
C  5.16000 49.00200 29.65900
C  4.87200 48.28800 30.93800
O  4.74300 47.10700 31.13600
O  4.41900 49.20600 31.84300
C  4.16400 48.66800 33.17000
H  12.10700 49.61900 28.69200
H  11.25100 47.60600 22.70200
H  5.04200 47.06300 23.55000
H  7.78100 50.28900 30.44400
H  10.48000 48.91200 30.89000
H  9.74900 51.63000 31.10900
H  10.54900 51.57800 29.53100
H  11.39000 51.08600 31.02800
H  7.87800 47.43700 31.42500
H  6.93500 48.63100 32.23900
H  9.34600 49.31600 33.37100
H  9.71900 47.73500 32.67900
H  14.02400 49.57900 27.96600
H  14.52700 50.37900 26.52700
H  14.97300 48.66600 26.81700
H  15.54400 47.82700 24.52600
H  15.23900 49.62300 24.65700
H  15.87500 48.83500 23.17800
H  9.23500 46.18100 21.63900
H  6.70300 47.59700 21.27200
H  8.30600 48.43100 20.02000
H  9.72100 47.43500 19.83800
H  9.75500 48.89900 20.80000
H  6.83600 45.21000 20.96300
H  5.69000 45.58800 22.15300
H  6.56300 43.89200 23.31500
H  7.56000 45.12500 23.97900
H  8.16300 44.12000 22.56800
H  3.15400 46.71300 24.78000
H  2.34100 48.36600 25.38900
H  2.41300 46.85500 26.34400
H  4.99000 50.07400 29.75000
H  4.18800 49.56900 33.78300
H  4.87200 47.88800 33.45100
H  3.15200 48.26200 33.16600

