158

Mg 43.05300 42.24400 26.24800
C  41.81700 44.60000 28.62200
C  43.52300 40.06600 28.66700
C  44.34200 40.31200 23.87400
C  42.50300 44.77200 23.75600
N  42.69700 42.39200 28.33200
C  42.19900 43.41900 29.18500
C  42.25700 43.02400 30.65700
C  42.91700 41.55400 30.68700
C  43.08900 41.31500 29.15700
C  44.19500 41.34000 31.49900
C  40.83700 43.05800 31.30500
C  40.63100 44.00200 32.47700
H  41.44600 43.87800 33.77700
N  43.75700 40.43700 26.29100
C  43.85700 39.62700 27.36600
C  44.40900 38.33600 27.01800
C  44.64300 38.42300 25.60400
C  44.26500 39.82200 25.18600
C  44.52300 37.19900 27.98200
C  45.14600 37.39000 24.62400
O  45.48900 37.62900 23.51200
C  45.52100 36.04000 25.25800
N  43.60700 42.56700 24.13400
C  44.00700 41.54200 23.42800
C  44.01000 41.92100 21.87300
C  43.42400 43.29400 21.80400
C  43.14800 43.64400 23.30800
C  45.35000 41.82900 21.13600
C  42.14100 43.32400 20.89100
C  40.93000 42.51000 21.38500
N  42.34000 44.24400 26.15000
C  42.19400 45.09700 25.03800
C  41.64100 46.39800 25.56100
C  41.47800 46.17700 26.92900
C  41.95000 44.90100 27.26900
C  41.43200 47.69000 24.76700
C  40.95800 46.82200 28.14200
O  40.33600 47.85900 28.33400
C  41.11300 45.73500 29.29600
C  41.90900 46.39600 30.35300
O  43.09900 46.28800 30.48200
O  41.01500 47.16200 31.04900
C  41.62400 47.72900 32.27900
H  43.70700 39.38800 29.50400
H  44.50800 39.66100 23.01400
H  42.31200 45.50600 22.97000
H  42.99400 43.71600 31.06300
H  42.22000 40.80000 31.05200
H  44.95800 40.81600 30.92300
H  43.93500 40.68800 32.33300
H  44.71200 42.25400 31.79000
H  40.54300 42.05400 31.60800
H  40.11100 43.34200 30.54300
H  39.56900 43.92100 32.70500
H  40.50900 45.01100 32.08300
H  44.22500 37.50700 28.98400
H  45.51000 36.73900 28.04000
H  43.79400 36.43600 27.71100
H  44.58200 35.64100 25.64200
H  46.26000 36.16400 26.05100
H  45.93000 35.36100 24.51100
H  43.26800 41.18900 21.55200
H  44.12700 44.05100 21.45500
H  45.58200 40.79900 20.86500
H  46.20200 42.24600 21.67300
H  45.27700 42.28800 20.15000
H  42.40700 43.09800 19.85800
H  41.85800 44.37500 20.83000
H  41.20800 42.11200 22.36100
H  40.69300 41.69700 20.69800
H  40.12800 43.22700 21.55600
H  41.99800 47.80600 23.84300
H  41.46700 48.51900 25.47300
H  40.37200 47.77400 24.52600
H  40.11500 45.52900 29.68300
H  42.60300 48.18800 32.13700
H  41.90600 46.93700 32.97300
H  40.92600 48.41800 32.75300
Mg 10.67900 47.86800 25.37800
C  8.78500 47.91100 28.37600
C  13.16400 49.61500 27.03900
C  12.46100 47.56700 22.75000
C  7.68900 46.59000 23.75400
N  10.93300 48.58400 27.54000
C  10.08500 48.46900 28.59200
C  10.67900 49.05300 29.85700
C  11.85000 49.98900 29.26100
C  12.01100 49.34300 27.86300
C  11.35700 51.45500 29.09400
C  11.38200 47.97400 30.76200
C  11.16500 48.26200 32.27600
H  10.96700 47.07500 33.26500
N  12.58800 48.47100 24.93600
C  13.46300 49.19200 25.76700
C  14.76800 49.34300 25.12800
C  14.58100 48.78900 23.82100
C  13.16100 48.22400 23.79300
C  16.00500 49.84200 25.81100
C  15.70400 48.65500 22.68100
O  15.35100 48.39500 21.49400
C  17.13300 48.98900 22.91100
N  10.00000 47.39800 23.49800
C  11.08400 47.21800 22.60900
C  10.65500 46.62900 21.27500
C  9.14400 46.24900 21.57000
C  8.88500 46.71200 23.04200
C  10.72300 47.59100 20.00000
C  8.93600 44.68000 21.33700
C  9.82600 43.69900 22.15500
N  8.61100 47.43300 25.89100
C  7.59200 46.93100 25.10900
C  6.44300 46.74100 25.97400
C  6.83800 47.14800 27.31500
C  8.16000 47.57500 27.12600
C  5.06000 46.29000 25.50400
C  6.47800 47.32100 28.72800
O  5.38700 47.03400 29.25000
C  7.75300 47.72300 29.49100
C  8.06600 46.59200 30.38700
O  8.80000 45.63300 30.12500
O  7.42600 46.75000 31.59700
C  7.62200 45.81900 32.69700
H  13.75500 50.36500 27.56900
H  13.14300 47.41700 21.91100
H  6.94500 46.12500 23.10500
H  9.96500 49.68100 30.38900
H  12.83200 49.85800 29.71500
H  11.96200 52.09400 29.73700
H  10.28500 51.51400 29.27900
H  11.43000 51.81700 28.06800
H  12.46900 47.96500 30.69400
H  11.01600 46.96200 30.59000
H  10.27000 48.87200 32.40100
H  12.11600 48.63500 32.65600
H  16.84700 49.15900 25.69500
H  15.84900 50.04400 26.87100
H  16.19900 50.80600 25.34100
H  17.15400 49.83000 23.60500
H  17.56800 49.15400 21.92500
H  17.58500 48.13900 23.42200
H  11.31500 45.79000 21.05300
H  8.45300 46.89100 21.02400
H  11.10900 48.56700 20.29400
H  9.75600 47.86300 19.57900
H  11.36200 47.05300 19.30000
H  9.18000 44.48600 20.29200
H  7.92000 44.35500 21.55900
H  10.09400 44.24100 23.06200
H  10.64800 43.23400 21.61000
H  9.11800 42.91800 22.43200
H  5.11200 45.82200 24.52000
H  4.48400 47.21600 25.52300
H  4.59800 45.61900 26.22700
H  7.73200 48.63400 30.08900
H  7.24800 44.84800 32.37200
H  7.17300 46.19100 33.61800
H  8.68800 45.68900 32.88200

