158

Mg 1.45500 8.38700 27.49200
C  1.59300 10.21900 30.54800
C  1.17900 5.64700 29.15600
C  1.52100 6.79900 24.47200
C  1.77300 11.44600 25.81400
N  1.50200 7.93600 29.60200
C  1.33800 8.79800 30.71400
C  1.07500 8.09500 31.98800
C  1.29400 6.60700 31.57700
C  1.43400 6.67300 30.01100
C  2.49900 5.89300 32.32800
C  -0.21600 8.60700 32.64900
C  -0.06000 9.24200 34.03700
H  1.00700 8.78600 34.98800
N  1.56600 6.41100 26.87900
C  1.31800 5.42300 27.72300
C  1.14500 4.20500 27.02400
C  1.33100 4.45900 25.64500
C  1.55700 5.93700 25.58200
C  0.92200 2.83300 27.74000
C  1.49700 3.52200 24.32900
O  1.75300 4.00500 23.26000
C  1.18700 2.06400 24.42600
N  1.91600 9.00100 25.44700
C  1.88500 8.09700 24.38400
C  1.94600 8.94900 23.10800
C  1.90900 10.36500 23.48300
C  1.82000 10.25200 25.01200
C  3.00400 8.61100 22.00600
C  0.72100 11.10200 22.89900
C  -0.62800 10.92200 23.54200
N  1.67600 10.38600 28.00500
C  1.78200 11.58900 27.20200
C  1.92600 12.79600 28.02100
C  1.80900 12.25400 29.34800
C  1.75800 10.81500 29.27800
C  2.06000 14.22900 27.53200
C  1.67600 12.69100 30.71800
O  1.67600 13.79000 31.22200
C  1.63500 11.39400 31.51300
C  2.80500 11.46900 32.42800
O  3.94600 11.22000 32.05800
O  2.41200 11.79800 33.69800
C  3.38800 12.18900 34.67500
H  0.84200 4.73700 29.65600
H  1.17000 6.37700 23.52800
H  1.75100 12.39900 25.28100
H  1.90100 8.45200 32.60200
H  0.44700 5.96400 31.81400
H  2.79200 6.57800 33.12400
H  3.41400 5.62600 31.80000
H  2.18300 4.95700 32.78700
H  -0.90300 7.77200 32.77900
H  -0.71500 9.39800 32.08900
H  -0.96000 9.20400 34.65100
H  0.11600 10.30700 33.88700
H  -0.15000 2.78600 27.93000
H  1.48100 2.71900 28.66900
H  1.11900 1.96500 27.11100
H  1.38800 1.53900 23.49200
H  0.20500 2.04000 24.89800
H  1.89500 1.66900 25.15400
H  0.96500 8.64900 22.74100
H  2.81400 10.91400 23.22000
H  3.84000 7.98400 22.31900
H  3.38600 9.53900 21.58000
H  2.53900 8.02900 21.21000
H  0.57500 11.04500 21.82000
H  0.92200 12.15800 23.07800
H  -0.98100 11.86400 23.96100
H  -0.55100 10.08400 24.23600
H  -1.37400 10.66000 22.79200
H  1.31600 14.74800 26.92800
H  3.03700 14.51400 27.14200
H  1.92400 14.79800 28.45200
H  0.76100 11.37700 32.16500
H  2.85700 12.74000 35.45100
H  4.03700 12.94700 34.23500
H  3.85900 11.27300 35.03100
Mg 44.76700 5.03200 47.85000
C  42.47600 7.58500 47.69300
C  42.21200 2.76500 47.78000
C  46.97500 2.64600 47.33300
C  47.35700 7.49400 47.25600
N  42.67300 5.22500 47.50800
C  41.87400 6.36000 47.56900
C  40.34800 6.05600 47.28100
C  40.35100 4.46100 47.58400
C  41.85900 4.10900 47.63800
C  39.34200 3.93400 48.70900
C  39.81300 6.43900 45.89500
C  40.72800 7.06400 44.78500
H  40.39000 6.56200 43.33400
N  44.59600 2.92200 47.58900
C  43.46400 2.21300 47.65700
C  43.82700 0.81900 47.51400
C  45.25900 0.69100 47.58900
C  45.68600 2.12000 47.49000
C  42.84300 -0.21600 47.37500
C  45.97700 -0.68800 47.56900
O  45.37700 -1.76200 47.53700
C  47.49800 -0.80900 47.60400
N  46.91800 5.06800 47.53500
C  47.57300 3.88200 47.35000
C  49.05700 4.16600 47.12500
C  49.19900 5.72600 46.95100
C  47.77300 6.16100 47.33100
C  49.95900 3.68700 48.20700
C  49.64200 6.14200 45.51400
C  48.92000 5.45700 44.33500
N  44.96000 7.15900 47.65500
C  46.04600 8.00800 47.50100
C  45.61700 9.32800 47.45700
C  44.19900 9.25600 47.63000
C  43.89500 7.89400 47.68600
C  46.51700 10.47400 47.12900
C  42.99500 10.02800 47.68300
O  42.69400 11.24300 47.62100
C  41.81700 8.94100 47.75800
C  40.96400 9.26000 48.97600
O  40.93800 8.67600 50.07700
O  40.10700 10.25100 48.58900
C  38.98400 10.46900 49.48100
H  41.35800 2.09900 47.63500
H  47.77600 1.90600 47.26500
H  48.13100 8.21700 46.99300
H  39.73300 6.53800 48.04100
H  39.94700 3.92700 46.72300
H  38.49500 4.58600 48.92000
H  39.90800 3.64300 49.59400
H  39.02800 2.98200 48.28100
H  39.05500 7.19200 46.11100
H  39.39900 5.52300 45.47500
H  41.69200 6.66500 45.10100
H  40.70000 8.15400 44.79400
H  42.76800 -0.85300 48.25600
H  43.12100 -1.04500 46.72400
H  41.79700 0.00100 47.15700
H  47.86000 -0.26200 48.47500
H  47.88000 -0.34500 46.69400
H  47.79300 -1.85800 47.57000
H  49.29600 3.67300 46.18300
H  49.92900 6.12600 47.65400
H  49.36800 3.58100 49.11700
H  50.70100 4.38400 48.59500
H  50.38400 2.71200 47.97100
H  50.72200 5.99100 45.52300
H  49.53500 7.21300 45.34600
H  47.95000 5.02100 44.57200
H  49.42900 4.60300 43.88800
H  48.67200 6.09300 43.48500
H  47.23900 10.10400 46.40000
H  47.00700 10.79100 48.04900
H  45.92000 11.28300 46.70900
H  41.17300 8.96800 46.87900
H  39.28400 10.64600 50.51400
H  38.28600 9.63300 49.44200
H  38.35200 11.31100 49.19600

