158

Mg 1.27600 6.95100 25.87600
C  1.87500 8.95600 28.69400
C  1.35400 4.25800 27.88300
C  1.47800 5.10100 23.13600
C  1.65300 9.94800 23.86300
N  1.62500 6.70600 27.94800
C  1.67100 7.66000 28.96900
C  1.44200 7.00400 30.36400
C  1.63100 5.49800 30.02800
C  1.44900 5.50700 28.54400
C  2.92300 4.81500 30.41800
C  0.01900 7.39600 30.86300
C  -0.18200 7.53300 32.40400
H  0.87700 6.79900 33.26000
N  1.16200 4.99000 25.56400
C  1.29400 4.02400 26.51700
C  1.22400 2.71600 25.88000
C  1.16400 3.00200 24.43100
C  1.20900 4.41100 24.32100
C  1.12200 1.46900 26.67300
C  1.06900 2.07100 23.30300
O  0.77900 2.38600 22.14200
C  1.25100 0.57300 23.59700
N  1.54100 7.44500 23.78700
C  1.52700 6.47300 22.87000
C  1.62600 7.10900 21.42300
C  1.40600 8.57700 21.71800
C  1.55800 8.65000 23.19700
C  3.03900 6.77500 20.90800
C  -0.04400 9.03800 21.34700
C  -0.03800 10.38000 20.38900
N  1.66500 9.09000 26.14300
C  1.78600 10.13400 25.24700
C  2.06300 11.30900 25.96900
C  2.09300 10.90100 27.31600
C  1.88500 9.53600 27.37400
C  2.27800 12.72700 25.44700
C  2.31200 11.40200 28.64900
O  2.71100 12.51200 29.03700
C  2.01300 10.24800 29.59300
C  3.12100 10.17000 30.64100
O  4.26400 9.88700 30.37300
O  2.64400 10.51200 31.87400
C  3.63300 10.50000 32.94300
H  1.17100 3.37800 28.50300
H  1.47200 4.47600 22.24100
H  1.68200 10.76600 23.14000
H  2.24200 7.45600 30.95000
H  0.86000 4.92600 30.54300
H  3.62400 5.57300 30.76900
H  3.46700 4.47400 29.53800
H  2.81300 4.09200 31.22700
H  -0.66500 6.64000 30.47800
H  -0.12000 8.34500 30.34500
H  -1.19200 7.19500 32.63700
H  -0.18300 8.59700 32.63900
H  0.10400 1.16800 26.92000
H  1.61700 1.53100 27.64200
H  1.68000 0.78800 26.03000
H  2.20800 0.51200 24.11500
H  1.30500 0.15000 22.59300
H  0.37300 0.21600 24.13500
H  0.87500 6.64500 20.78300
H  1.98800 9.26600 21.10500
H  3.67400 6.36200 21.69200
H  3.49800 7.64700 20.44400
H  3.07000 6.07600 20.07200
H  -0.52100 9.45400 22.23500
H  -0.64700 8.28300 20.84300
H  -0.13300 10.11600 19.33600
H  0.88400 10.95000 20.50400
H  -0.96300 10.88400 20.67200
H  1.34200 13.28400 25.40600
H  2.73800 12.71000 24.45900
H  2.86400 13.27500 26.18500
H  1.07700 10.51700 30.08200
H  3.61900 11.46800 33.44300
H  4.64700 10.43500 32.54700
H  3.35000 9.74600 33.67700
Mg 16.93900 52.21500 26.33500
C  18.53500 50.72300 28.99500
C  14.41100 53.04900 28.34600
C  15.19900 53.24200 23.56600
C  19.40700 51.03800 24.20700
N  16.49400 51.81000 28.37200
C  17.38200 51.40100 29.33100
C  16.85900 51.70400 30.77000
C  15.40100 52.03600 30.43300
C  15.41200 52.32400 28.96000
C  14.49000 50.78700 30.83800
C  17.69200 52.83600 31.36200
C  17.68600 53.01000 32.95000
H  16.72400 52.08400 33.76400
N  15.11200 53.08400 25.99000
C  14.20400 53.41000 26.96400
C  13.04200 54.09700 26.46700
C  13.32400 54.18200 25.04600
C  14.61800 53.37000 24.84100
C  11.84700 54.60600 27.30500
C  12.58300 54.90300 23.94000
O  12.76500 54.77800 22.75000
C  11.36100 55.61000 24.25700
N  17.17500 51.89900 24.08500
C  16.41500 52.58100 23.22900
C  17.07900 52.73700 21.82400
C  18.51600 52.26900 22.16100
C  18.38100 51.73300 23.56700
C  16.35000 51.73000 20.75100
C  19.52200 53.43300 22.00500
C  20.66700 53.09500 21.06100
N  18.64000 51.04700 26.46100
C  19.59300 50.67200 25.56500
C  20.67800 49.96900 26.26800
C  20.29200 49.94200 27.59500
C  18.96200 50.50200 27.66800
C  21.83600 49.26900 25.54800
C  20.72700 49.49800 28.92200
O  21.66500 48.84900 29.27800
C  19.56400 50.01500 29.92000
C  19.09400 48.87900 30.83100
O  18.35200 48.01600 30.40700
O  19.50500 49.11000 32.14600
C  18.92400 48.25300 33.20400
H  13.56600 53.32300 28.98100
H  14.62700 53.58100 22.70000
H  20.24400 50.71200 23.58600
H  16.80500 50.83500 31.42600
H  15.04900 52.85400 31.06100
H  13.77500 50.68600 30.02200
H  13.78300 50.87300 31.66300
H  15.08200 49.88000 30.71000
H  17.39300 53.73600 30.82600
H  18.69100 52.56900 31.01500
H  17.30000 54.01900 33.09400
H  18.72900 52.80200 33.19200
H  12.09100 55.61000 27.65200
H  11.75300 53.94800 28.16900
H  10.89500 54.58900 26.77400
H  11.62100 56.50000 24.83100
H  10.73400 54.85200 24.72600
H  10.82400 55.93800 23.36700
H  17.05400 53.78000 21.51000
H  18.81500 51.47600 21.47600
H  15.32500 51.54800 21.07200
H  16.82400 50.74900 20.70300
H  16.41300 52.14000 19.74300
H  19.86900 53.71800 22.99700
H  19.00400 54.30600 21.60800
H  21.19500 54.02400 20.84600
H  20.19400 52.55200 20.24300
H  21.44300 52.47800 21.51300
H  22.55800 48.91200 26.28200
H  22.30900 49.98800 24.87800
H  21.32000 48.42500 25.08900
H  20.10000 50.76400 30.50300
H  17.86500 48.11600 32.98500
H  18.93900 48.73400 34.18100
H  19.49200 47.33500 33.05200

