158

Mg 1.87700 -2.38200 45.73700
C  5.11100 -1.24900 44.76600
C  0.61500 0.06900 43.53500
C  -1.30400 -3.62200 46.14900
C  3.33500 -5.26900 46.98300
N  2.78300 -0.96400 44.12000
C  4.06400 -0.55400 44.10600
C  4.31900 0.65100 43.16300
C  2.84900 0.99200 42.85000
C  2.03700 -0.00200 43.60700
C  2.46400 2.46000 43.21900
C  5.17100 0.35100 41.82900
C  6.61700 0.96000 41.69100
H  7.45500 0.32800 40.61200
N  -0.06300 -1.74500 45.08400
C  -0.33400 -0.73200 44.21700
C  -1.77900 -0.51500 44.21500
C  -2.40300 -1.59100 44.98500
C  -1.25900 -2.42800 45.39400
C  -2.41700 0.65200 43.47700
C  -3.85700 -1.70700 45.22900
O  -4.61700 -0.76400 45.02200
C  -4.35800 -2.95900 45.84500
N  1.16100 -4.20500 46.51400
C  -0.22100 -4.48400 46.57600
C  -0.42200 -5.91700 47.01900
C  1.04200 -6.50000 47.22300
C  1.90600 -5.28900 46.85900
C  -1.35900 -6.24900 48.18400
C  1.38200 -7.81100 46.38300
C  1.43800 -9.04300 47.28300
N  3.82400 -3.06000 46.04800
C  4.25100 -4.25500 46.60600
C  5.70100 -4.17200 46.77200
C  6.09800 -3.00800 46.13300
C  4.91200 -2.40200 45.62300
C  6.55000 -5.22200 47.46200
C  7.26100 -2.18200 45.78000
O  8.45000 -2.15600 46.09000
C  6.58200 -1.07900 44.82600
C  6.96100 0.20000 45.35100
O  6.25700 0.87800 46.11700
O  8.19500 0.51100 44.92500
C  8.57700 1.87000 45.29500
H  0.11600 0.83800 42.94200
H  -2.27400 -4.11000 46.26600
H  3.70400 -6.16300 47.49000
H  4.73500 1.43100 43.80100
H  2.47600 0.98500 41.82600
H  1.63800 2.78800 42.58800
H  3.29300 3.12800 42.99000
H  2.13300 2.54800 44.25400
H  4.59500 0.74300 40.99100
H  5.29400 -0.72900 41.74400
H  7.22100 0.89400 42.59600
H  6.32600 2.00200 41.56300
H  -2.31200 0.45500 42.41000
H  -1.92700 1.59000 43.73800
H  -3.45800 0.79400 43.76800
H  -4.08300 -3.75400 45.15200
H  -5.44400 -2.94500 45.94200
H  -3.88300 -3.00100 46.82500
H  -0.97500 -6.38200 46.20200
H  1.28200 -6.57100 48.28400
H  -2.34500 -6.53100 47.81500
H  -1.63500 -5.38800 48.79200
H  -1.05700 -7.03600 48.87600
H  2.26200 -7.65700 45.75900
H  0.63100 -8.00900 45.61800
H  1.23700 -8.79600 48.32500
H  2.46600 -9.40300 47.24300
H  0.70000 -9.81700 47.07000
H  5.98300 -5.69000 48.26700
H  7.42700 -4.83200 47.97900
H  6.65200 -6.03100 46.74000
H  7.00400 -1.08400 43.82100
H  7.69900 2.39200 44.91400
H  9.42000 2.21400 44.69500
H  8.96600 2.03300 46.30000
Mg 15.71800 -2.10700 27.34000
C  15.08800 -0.05800 30.05600
C  17.88600 -3.95700 29.34600
C  16.88400 -3.76800 24.63700
C  14.07200 0.12200 25.16100
N  16.57200 -1.93300 29.41200
C  15.93500 -1.11800 30.41900
C  16.41000 -1.55800 31.81400
C  17.50600 -2.66200 31.47600
C  17.40700 -2.85200 29.93200
C  19.04400 -2.34400 31.86400
C  15.23500 -1.92200 32.74900
C  15.29300 -1.19100 34.10300
H  16.52800 -0.37500 34.47300
N  16.97800 -3.68900 27.04900
C  17.78400 -4.32700 27.98700
C  18.21100 -5.61800 27.48600
C  18.02300 -5.58000 26.07700
C  17.26700 -4.31500 25.85000
C  18.87900 -6.69200 28.36400
C  18.35900 -6.52600 25.00300
O  18.04600 -6.40700 23.79500
C  19.17100 -7.76300 25.38000
N  15.58300 -1.71700 25.13200
C  16.20700 -2.58700 24.28300
C  15.83800 -2.20900 22.85600
C  14.63200 -1.25900 22.98100
C  14.77800 -0.88200 24.48700
C  16.96500 -1.60000 22.06000
C  13.22000 -1.84600 22.69700
C  12.62100 -1.71500 21.25000
N  14.75300 -0.36800 27.48700
C  14.03200 0.36900 26.55300
C  13.42500 1.51100 27.20200
C  13.68100 1.29700 28.61700
C  14.56900 0.20300 28.70000
C  12.56900 2.60600 26.55800
C  13.46400 1.82000 29.90500
O  12.76400 2.83400 30.23600
C  14.35700 0.94300 30.93200
C  15.31400 1.78800 31.68000
O  16.54900 1.87500 31.52100
O  14.61800 2.69300 32.41700
C  15.40100 3.66600 33.18700
H  18.52200 -4.56700 29.99100
H  16.99300 -4.43900 23.78300
H  13.40300 0.71000 24.53000
H  16.88200 -0.63800 32.15800
H  17.19800 -3.56100 32.01100
H  19.41400 -3.00200 32.65000
H  19.01300 -1.31600 32.22400
H  19.58600 -2.34900 30.91800
H  15.28800 -2.96500 33.06100
H  14.30300 -1.61500 32.27500
H  15.32500 -1.97200 34.86300
H  14.40600 -0.62900 34.39500
H  18.67400 -7.72100 28.06800
H  18.71700 -6.66200 29.44200
H  19.94700 -6.58900 28.17600
H  19.63700 -8.04300 24.43500
H  18.60900 -8.60700 25.78000
H  19.96500 -7.35200 26.00200
H  15.46100 -3.11800 22.38700
H  14.88600 -0.42000 22.33400
H  16.57500 -1.05400 21.20000
H  17.61000 -2.44700 21.82500
H  17.54700 -0.81900 22.54800
H  12.48700 -1.50100 23.42500
H  13.22600 -2.92200 22.87100
H  11.61600 -1.29500 21.28400
H  12.47200 -2.70400 20.81700
H  13.24300 -1.04800 20.65200
H  12.97800 3.11400 25.68500
H  12.42400 3.42000 27.26900
H  11.68900 2.02600 26.27900
H  13.63900 0.52800 31.63900
H  16.22400 4.12900 32.64200
H  15.78900 3.22400 34.10500
H  14.69600 4.46500 33.41700

