158

Mg 45.37000 3.96000 47.44300
C  43.43900 6.69500 46.81000
C  42.63100 1.85000 47.16800
C  47.51700 1.34200 47.46300
C  48.17900 6.10200 47.40800
N  43.30100 4.18800 46.94800
C  42.77100 5.46000 46.73800
C  41.19900 5.26900 46.42000
C  40.89800 3.87700 47.07800
C  42.34300 3.24400 47.14600
C  40.34800 3.92100 48.55500
C  40.91500 5.28400 44.92000
C  39.81500 6.31500 44.46700
H  40.23700 7.18100 43.31000
N  45.09000 1.87200 47.33500
C  43.91100 1.20400 47.21600
C  44.22500 -0.25000 47.14400
C  45.62900 -0.45400 47.49200
C  46.15500 0.94700 47.48900
C  43.16100 -1.27000 46.96400
C  46.31500 -1.73100 47.69600
O  45.72800 -2.79600 47.62100
C  47.79900 -1.78000 48.01000
N  47.53900 3.75100 47.26300
C  48.12800 2.56700 47.42300
C  49.71500 2.65700 47.68800
C  49.89000 4.21700 47.67500
C  48.47500 4.70400 47.38200
C  50.30800 1.88800 48.92500
C  50.87900 4.72000 46.62200
C  51.76800 5.95700 46.94400
N  45.75200 5.98100 47.26500
C  46.98100 6.70500 47.38100
C  46.65500 8.11300 47.22200
C  45.28700 8.15900 46.98900
C  44.77600 6.88000 47.03200
C  47.69800 9.13500 47.11700
C  44.08900 8.96600 46.67300
O  43.95300 10.17500 46.53100
C  42.87500 8.04500 46.63200
C  41.91000 8.50700 47.76400
O  41.88200 8.21200 48.92200
O  41.04700 9.37600 47.16500
C  39.90500 10.00200 47.87200
H  41.85300 1.08600 47.11700
H  48.29000 0.64200 47.78500
H  48.98700 6.83700 47.41800
H  40.63100 5.99400 47.00200
H  40.27300 3.15300 46.55500
H  39.90200 4.87900 48.81900
H  41.13300 3.64000 49.25800
H  39.55500 3.18300 48.68000
H  40.65100 4.29900 44.53500
H  41.78500 5.59900 44.34500
H  39.55800 6.96700 45.30200
H  38.92600 5.74300 44.19900
H  42.84200 -1.32500 45.92300
H  42.35200 -1.11600 47.67700
H  43.57300 -2.27400 47.06400
H  48.15300 -2.79400 48.19200
H  48.04300 -1.20200 48.90100
H  48.31400 -1.41500 47.12100
H  50.13500 2.22100 46.78100
H  50.21400 4.55700 48.65800
H  49.48200 1.59500 49.57300
H  51.02500 2.56400 49.39000
H  50.92900 1.05100 48.60600
H  50.31000 4.94100 45.71900
H  51.64000 3.95300 46.47800
H  52.83400 5.79900 46.78100
H  51.65200 6.34900 47.95400
H  51.39100 6.74300 46.29000
H  48.45600 9.20000 47.89800
H  47.28300 10.11700 46.89000
H  48.36700 8.88300 46.29400
H  42.31000 8.05500 45.70000
H  39.87500 11.08600 47.98200
H  39.58700 9.48300 48.77700
H  39.05700 9.86600 47.20000
Mg 35.75800 3.40700 29.64000
C  33.27200 3.98600 31.98800
C  38.11200 3.65600 32.30200
C  38.14800 2.65700 27.43200
C  33.42600 3.70000 27.06400
N  35.76300 3.91000 31.90900
C  34.55500 3.99900 32.59200
C  34.82200 4.11600 34.13200
C  36.43800 4.27900 34.16200
C  36.83300 3.91700 32.72400
C  36.93100 5.72300 34.45400
C  34.26700 2.88800 34.92500
C  33.86500 3.13700 36.38500
H  34.52300 4.15300 37.27700
N  37.81200 3.16500 29.80600
C  38.56900 3.25200 30.97400
C  39.94300 2.84300 30.71800
C  40.02700 2.50800 29.31600
C  38.66300 2.81600 28.77400
C  40.94000 2.90900 31.88300
C  41.16300 2.03200 28.48500
O  41.07600 1.74800 27.25400
C  42.53600 1.82100 29.08500
N  35.81200 3.42500 27.54000
C  36.90200 2.92500 26.89700
C  36.64900 2.63900 25.44500
C  35.12900 2.74800 25.45600
C  34.77600 3.38300 26.73200
C  37.29100 3.61300 24.44800
C  34.42200 1.37800 25.12400
C  33.27700 1.46200 24.15600
N  33.71600 3.81300 29.47900
C  32.92400 3.91400 28.35900
C  31.60200 4.24600 28.89600
C  31.67600 4.21300 30.28600
C  33.02900 3.93700 30.61900
C  30.32200 4.47500 28.11700
C  30.92400 4.43700 31.50800
O  29.74400 4.74400 31.64000
C  31.94000 4.25400 32.68700
C  31.88000 5.52100 33.44600
O  32.16700 6.64700 33.03500
O  31.40500 5.26400 34.68900
C  31.65500 6.34700 35.64100
H  38.79300 3.80900 33.14200
H  38.98600 2.40800 26.77800
H  32.67900 3.55700 26.27900
H  34.39500 5.04300 34.51200
H  36.85500 3.60000 34.90600
H  37.18600 6.28800 33.55700
H  37.91800 5.73600 34.91500
H  36.22500 6.22400 35.11600
H  35.03700 2.12600 34.80400
H  33.30300 2.62500 34.49100
H  34.00200 2.17400 36.87700
H  32.80000 3.34500 36.47900
H  41.94800 3.09600 31.51300
H  40.83600 1.93500 32.36200
H  40.68300 3.66100 32.62900
H  42.65900 1.21300 29.98100
H  42.88600 2.79900 29.41800
H  43.24100 1.44500 28.34500
H  37.11300 1.67300 25.24600
H  34.84800 3.37800 24.61200
H  38.04300 3.26900 23.73800
H  37.87500 4.36300 24.98100
H  36.58600 4.14900 23.81200
H  34.06000 0.98300 26.07400
H  35.09900 0.59600 24.78100
H  32.41300 0.91400 24.53100
H  33.66400 0.89300 23.31100
H  32.97300 2.48100 23.91400
H  30.29400 5.33100 27.44300
H  29.64700 4.77700 28.91800
H  30.03100 3.51400 27.69100
H  31.53400 3.47800 33.33600
H  32.60200 6.84000 35.42000
H  31.71500 5.97600 36.66400
H  30.81200 7.03700 35.61900

