158

Mg 7.56900 2.50500 27.73200
C  9.18000 0.90800 30.58000
C  5.55700 4.09000 29.88400
C  5.90500 3.55400 25.09400
C  9.43000 0.21700 25.72800
N  7.37700 2.43200 29.92100
C  8.15100 1.81400 30.89400
C  7.95200 2.53100 32.17500
C  6.63500 3.38100 32.01100
C  6.50300 3.29400 30.53000
C  5.39800 2.89400 32.82900
C  9.17200 3.38100 32.65500
C  9.02600 3.52000 34.19100
H  10.23200 3.04300 35.03800
N  6.05600 3.81600 27.51300
C  5.33400 4.30800 28.53600
C  4.28500 5.05000 27.98900
C  4.45300 5.13800 26.59800
C  5.49300 4.15000 26.32200
C  3.20700 5.73700 28.73900
C  3.71100 5.92100 25.53900
O  4.02100 5.92700 24.38600
C  2.49300 6.81600 25.84800
N  7.66300 1.87900 25.70700
C  6.91000 2.56700 24.82500
C  7.06900 1.90500 23.41500
C  8.28700 0.95700 23.58300
C  8.53400 0.99500 25.09000
C  5.82100 1.24800 22.89700
C  9.56300 1.29700 22.77100
C  9.87200 0.45000 21.54700
N  8.86600 0.80100 28.06200
C  9.53400 0.02600 27.08700
C  10.48200 -0.86600 27.72300
C  10.40500 -0.56300 29.10700
C  9.33600 0.40600 29.27500
C  11.39500 -1.81300 27.05300
C  10.95600 -0.87000 30.49000
O  11.84200 -1.57800 30.91800
C  10.15600 0.10500 31.48300
C  9.46900 -0.68200 32.61200
O  8.39000 -1.27000 32.49000
O  10.21300 -0.70200 33.75400
C  9.49500 -1.17000 34.95400
H  5.09500 4.74300 30.62800
H  5.27400 3.86300 24.25800
H  10.03600 -0.41500 25.07500
H  7.70100 1.78800 32.93200
H  6.79400 4.40400 32.35300
H  5.55200 1.93300 33.32000
H  4.54100 2.82600 32.15900
H  5.24300 3.74500 33.49200
H  9.21100 4.37500 32.20900
H  10.10700 2.90200 32.36500
H  8.14300 2.98400 34.54000
H  8.85100 4.56100 34.46000
H  3.23100 5.49800 29.80200
H  2.21800 5.43900 28.39100
H  3.26900 6.81900 28.62100
H  1.66800 6.20700 26.21600
H  2.21500 7.35700 24.94400
H  2.70600 7.56100 26.61500
H  7.34200 2.69000 22.70900
H  8.03700 -0.06100 23.28500
H  5.04600 1.27900 23.66300
H  6.13400 0.24200 22.61900
H  5.51000 1.79800 22.00800
H  10.42200 1.19600 23.43400
H  9.41400 2.29300 22.35600
H  10.23000 -0.49300 21.96100
H  10.60800 1.01900 20.98000
H  9.00600 0.22000 20.92600
H  10.98100 -2.78400 26.78200
H  12.16300 -2.04500 27.79100
H  11.84900 -1.26700 26.22600
H  10.84400 0.75200 32.02700
H  8.85200 -2.03100 34.77500
H  8.92600 -0.33500 35.36200
H  10.33300 -1.53900 35.54600
Mg -0.94300 33.61300 26.39600
C  -2.78800 32.18800 28.98000
C  0.63900 35.59500 28.69300
C  0.44300 35.25200 23.80600
C  -3.22000 32.05000 24.19500
N  -1.19100 33.96900 28.59400
C  -1.83300 33.12200 29.47200
C  -1.47900 33.46600 30.95700
C  -0.50700 34.64600 30.71100
C  -0.28300 34.71600 29.22000
C  -1.03800 35.94900 31.40600
C  -0.81600 32.18200 31.74900
C  -1.30000 31.89800 33.18600
H  -0.26500 32.07600 34.27500
N  0.32200 35.22400 26.27400
C  0.98500 35.81000 27.34800
C  2.02200 36.67100 26.84000
C  1.84300 36.67500 25.45800
C  0.80500 35.73500 25.09500
C  2.78700 37.77200 27.76700
C  2.55700 37.56500 24.47700
O  2.35300 37.62800 23.29000
C  3.65900 38.51900 25.00900
N  -1.36100 33.63400 24.30400
C  -0.55400 34.34800 23.41600
C  -1.14100 34.15200 21.99400
C  -2.23200 33.07600 22.16300
C  -2.33000 32.93400 23.65000
C  -1.71400 35.48900 21.38700
C  -1.79100 31.73400 21.30300
C  -1.20800 30.51400 22.01900
N  -2.55900 32.26000 26.45400
C  -3.33600 31.64000 25.48200
C  -4.15000 30.64900 26.13700
C  -4.04100 30.85500 27.48900
C  -3.03400 31.86000 27.61600
C  -5.07600 29.74900 25.37500
C  -4.49000 30.40300 28.74700
O  -5.24600 29.49600 28.99600
C  -3.72900 31.23200 29.79300
C  -4.72000 31.91700 30.69000
O  -5.40700 32.89900 30.49400
O  -4.70800 31.08600 31.83000
C  -5.68700 31.49700 32.81900
H  1.12700 36.23000 29.43600
H  0.99600 35.51300 22.90100
H  -3.78000 31.44800 23.47600
H  -2.37900 33.70600 31.52200
H  0.44900 34.47600 31.20600
H  -1.57300 35.73500 32.33100
H  -1.68600 36.42200 30.66900
H  -0.18300 36.59400 31.61300
H  0.25500 32.37400 31.69400
H  -1.05600 31.25100 31.23700
H  -1.56300 30.84100 33.16600
H  -2.28200 32.33800 33.36200
H  3.85400 37.88500 27.57500
H  2.75800 37.27700 28.73800
H  2.16200 38.64600 27.95100
H  3.17400 39.24200 25.66500
H  4.33500 38.96600 24.28100
H  4.27400 37.76500 25.50100
H  -0.36600 33.88000 21.27800
H  -3.22500 33.36000 21.81500
H  -1.75500 36.17000 22.23600
H  -2.76300 35.30800 21.15100
H  -1.24600 35.87800 20.48200
H  -1.04900 31.98100 20.54400
H  -2.70500 31.37700 20.82900
H  -1.77700 29.60700 21.81600
H  -1.10700 30.60700 23.10100
H  -0.17700 30.35300 21.70400
H  -5.97700 30.22400 24.98900
H  -5.27800 28.91100 26.04200
H  -4.49000 29.27100 24.58900
H  -3.17500 30.53500 30.42200
H  -6.63700 31.87100 32.43700
H  -5.15900 32.30000 33.33300
H  -5.94700 30.65600 33.46300

