158

Mg 42.74700 41.92000 25.97000
C  41.83400 44.21300 28.43500
C  43.82700 39.82700 28.29700
C  43.43400 39.83500 23.44500
C  42.05600 44.42400 23.65400
N  42.74400 42.09200 28.15000
C  42.22900 42.99300 28.94100
C  42.37700 42.68800 30.43400
C  43.27900 41.39400 30.35200
C  43.26800 41.03000 28.86100
C  44.73400 41.64600 30.87200
C  41.01100 42.34300 31.14000
C  41.13400 41.86300 32.63000
H  40.36000 42.54900 33.76200
N  43.47100 40.06200 25.88400
C  43.86500 39.31000 26.93900
C  44.31600 38.02400 26.56600
C  44.07700 37.90000 25.13600
C  43.61500 39.29500 24.73100
C  44.73400 36.98000 27.60600
C  44.21200 36.74500 24.20900
O  44.08200 36.76000 22.95300
C  44.50100 35.37100 24.82600
N  42.77700 42.10700 23.81200
C  43.07600 41.11200 22.95600
C  42.85700 41.40200 21.44900
C  42.14800 42.80400 21.63700
C  42.36800 43.18500 23.09600
C  44.18000 41.33100 20.57700
C  40.67100 42.72200 21.17500
C  39.73600 41.71900 21.87000
N  42.25300 44.00900 25.97500
C  41.99300 44.83200 24.94000
C  41.48200 46.05400 25.39600
C  41.42800 45.89600 26.79000
C  41.80500 44.60400 27.09500
C  41.06700 47.24400 24.52500
C  41.00100 46.53800 28.06000
O  40.53700 47.60400 28.30900
C  41.24500 45.43700 29.17300
C  42.20800 45.96900 30.18600
O  43.41800 45.77600 30.29200
O  41.48600 46.67200 31.08400
C  41.80900 46.34200 32.44800
H  44.26000 39.20600 29.08400
H  43.60400 39.14300 22.61800
H  41.86700 45.12800 22.84000
H  42.76200 43.55500 30.97100
H  42.91600 40.61700 31.02500
H  44.90700 42.72200 30.89000
H  45.54100 41.26600 30.24600
H  44.83700 41.31500 31.90500
H  40.47300 41.55600 30.61100
H  40.48700 43.29700 31.17600
H  42.14800 41.74900 33.01300
H  40.71100 40.86600 32.50800
H  44.08000 36.11400 27.50500
H  44.62300 37.36200 28.62100
H  45.77800 36.66800 27.64500
H  45.20400 35.53600 25.64300
H  44.98200 34.70700 24.10700
H  43.55700 34.97300 25.19800
H  42.09300 40.72200 21.07300
H  42.66600 43.53700 21.01900
H  45.07000 41.15900 21.18100
H  44.33900 42.29200 20.08600
H  44.07600 40.68300 19.70600
H  40.71900 42.34600 20.15200
H  40.32200 43.75400 21.17100
H  38.94400 42.20600 22.44000
H  40.30000 41.03200 22.50100
H  39.30600 41.10500 21.07900
H  40.45000 46.93100 23.68400
H  42.00700 47.69300 24.20300
H  40.61700 47.98900 25.18100
H  40.28900 45.23500 29.65600
H  40.93500 45.80600 32.82000
H  41.86700 47.27600 33.00700
H  42.75700 45.81300 32.54200
Mg 36.44300 50.16600 24.66700
C  36.71500 48.00500 27.37700
C  34.96200 52.44900 26.51200
C  35.51500 51.80800 21.84200
C  37.42300 47.44900 22.53800
N  35.94600 50.21900 26.76400
C  36.18700 49.29100 27.74600
C  35.74900 49.87100 29.10700
C  34.95500 51.19100 28.70800
C  35.27400 51.34200 27.20800
C  33.42500 51.25800 29.19300
C  37.05300 50.15100 29.90000
C  37.07300 49.83900 31.45900
H  35.66900 49.86000 32.13800
N  35.66300 51.99100 24.24500
C  35.12400 52.81800 25.13500
C  34.77200 54.09000 24.58000
C  34.99500 53.95400 23.15600
C  35.42300 52.51700 23.04100
C  34.31600 55.37300 25.38700
C  34.96300 54.99300 22.09400
O  35.21900 54.74500 20.87200
C  34.63100 56.44900 22.49600
N  36.25300 49.58800 22.48400
C  36.03000 50.58700 21.57500
C  36.32800 50.04700 20.18100
C  36.94600 48.59300 20.39100
C  36.91600 48.51800 21.90400
C  35.15100 50.05000 19.20500
C  38.36200 48.39500 19.76600
C  38.64000 47.03100 19.17000
N  37.03000 48.21700 24.90300
C  37.36400 47.19300 23.94600
C  37.79100 46.03800 24.65800
C  37.53200 46.32500 25.94100
C  37.07600 47.63100 26.08700
C  38.37500 44.83600 24.10800
C  37.59200 45.72400 27.30400
O  37.97400 44.64800 27.60400
C  37.15600 46.82900 28.24000
C  36.18000 46.24800 29.15500
O  35.04200 45.95700 28.85200
O  36.68200 46.07200 30.40300
C  35.75600 45.53800 31.40400
H  34.34500 53.17100 27.05100
H  35.43700 52.38300 20.91700
H  37.94000 46.65400 21.99600
H  35.07700 49.19700 29.63900
H  35.37100 51.99300 29.31800
H  32.80500 51.53300 28.34000
H  33.39300 52.10900 29.87400
H  33.12300 50.32600 29.67100
H  37.32500 51.20100 29.79600
H  37.90400 49.61600 29.47800
H  37.73800 50.61400 31.84000
H  37.63300 48.92100 31.63700
H  35.02400 56.16300 25.63700
H  33.93800 55.24500 26.40100
H  33.45900 55.85700 24.91800
H  33.62100 56.54300 22.89500
H  34.76800 57.00000 21.56600
H  35.33900 56.88500 23.20200
H  37.04200 50.73700 19.73300
H  36.29200 47.80500 20.01800
H  34.26500 50.37700 19.74900
H  34.87400 49.03800 18.91100
H  35.24000 50.72300 18.35300
H  39.04100 48.65600 20.57700
H  38.43200 49.18900 19.02200
H  37.84600 46.29200 19.27400
H  39.57200 46.70500 19.63200
H  38.64400 47.30300 18.11500
H  39.07100 44.95500 23.27700
H  37.61800 44.14000 23.74700
H  38.96300 44.28200 24.83900
H  38.06300 46.99700 28.82100
H  34.91600 46.17400 31.68300
H  36.39500 45.45700 32.28400
H  35.30800 44.60200 31.07200

