158

Mg -2.11900 17.57100 26.62100
C  -2.31900 15.12400 29.19700
C  -2.59300 19.92300 29.01200
C  -2.34200 19.85700 23.99800
C  -2.47100 15.03600 24.30500
N  -2.22500 17.53600 28.94600
C  -2.27900 16.47500 29.77400
C  -2.39500 16.85300 31.26500
C  -2.80400 18.34500 31.08300
C  -2.53200 18.68200 29.57500
C  -4.24200 18.62200 31.53300
C  -1.17200 16.54400 32.17900
C  -1.01300 17.30500 33.47000
H  -0.64400 16.57500 34.80400
N  -2.31900 19.58100 26.61700
C  -2.47800 20.41200 27.68000
C  -2.60500 21.75800 27.26700
C  -2.70100 21.66200 25.82800
C  -2.47100 20.29600 25.44400
C  -2.67600 22.99100 28.20700
C  -2.92700 22.82500 24.88400
O  -2.87900 22.71400 23.63100
C  -3.06100 24.22500 25.35900
N  -2.29200 17.41500 24.52900
C  -2.22300 18.50200 23.64500
C  -2.21300 18.00700 22.19700
C  -2.52400 16.46900 22.27200
C  -2.33800 16.27200 23.77000
C  -3.13900 18.81300 21.18600
C  -1.50900 15.60800 21.42200
C  -2.16100 14.59200 20.45300
N  -2.19800 15.54900 26.69100
C  -2.37300 14.67100 25.66500
C  -2.41300 13.31600 26.15000
C  -2.46000 13.50500 27.57300
C  -2.36000 14.83100 27.83400
C  -2.45100 12.12900 25.29400
C  -2.59600 12.74800 28.79400
O  -2.68300 11.55100 28.96600
C  -2.50300 13.78300 29.93300
C  -1.33300 13.45000 30.76800
O  -0.22500 13.84700 30.52200
O  -1.64600 12.60300 31.85300
C  -0.50100 12.16800 32.67300
H  -2.81700 20.63200 29.81200
H  -2.57100 20.51200 23.15500
H  -2.60700 14.33300 23.48000
H  -3.19500 16.23000 31.66700
H  -2.22000 19.03500 31.69200
H  -4.60300 17.95200 32.31300
H  -5.00300 18.52900 30.75800
H  -4.34600 19.64300 31.90100
H  -0.28600 16.56800 31.54400
H  -1.22800 15.49600 32.47400
H  -1.92900 17.87900 33.60500
H  -0.14200 17.93600 33.29000
H  -3.66800 23.43300 28.10500
H  -1.95000 23.79000 28.05700
H  -2.53600 22.50300 29.17100
H  -4.01400 24.18300 25.88600
H  -2.98900 24.97100 24.56700
H  -2.18600 24.38000 25.99000
H  -1.18100 18.16200 21.88000
H  -3.54800 16.25900 21.96200
H  -3.79400 19.49300 21.73100
H  -3.65500 18.07100 20.57800
H  -2.47500 19.48900 20.64700
H  -0.77500 15.25000 22.14500
H  -1.09900 16.30300 20.69000
H  -2.02000 15.04300 19.47100
H  -3.23000 14.55500 20.66100
H  -1.62300 13.66300 20.64700
H  -1.69500 12.18500 24.51100
H  -3.46500 11.98000 24.92500
H  -2.24000 11.24800 25.90000
H  -3.41000 13.77300 30.53700
H  -0.90400 11.68600 33.56400
H  0.16800 13.02100 32.78500
H  0.06600 11.41500 32.12600
Mg 8.97800 3.70300 27.35800
C  10.30600 2.42200 30.25100
C  7.04100 5.84700 29.27100
C  7.42700 4.60800 24.56000
C  10.43200 1.08900 25.53900
N  8.63800 3.99800 29.56500
C  9.51200 3.50300 30.52800
C  9.16300 4.10800 31.93700
C  8.03300 5.20600 31.65100
C  7.81200 4.98200 30.05700
C  6.72900 4.95900 32.47100
C  10.36800 4.71500 32.70900
C  10.73600 3.99200 34.03900
H  10.36300 4.83300 35.29600
N  7.49900 5.04200 26.96300
C  6.81600 5.87600 27.85800
C  5.91300 6.76300 27.14400
C  6.05200 6.44700 25.75600
C  7.05700 5.34900 25.69700
C  5.03100 7.80600 27.70000
C  5.37800 7.00400 24.46000
O  5.57800 6.61000 23.31600
C  4.19700 7.97800 24.71400
N  9.06300 3.00300 25.22100
C  8.31400 3.60000 24.29600
C  8.45000 2.87300 22.93000
C  9.43100 1.68300 23.20200
C  9.73300 1.96700 24.71500
C  7.09900 2.54700 22.19000
C  10.78300 1.71800 22.44600
C  11.37600 0.31800 22.05100
N  10.13100 2.01500 27.68000
C  10.66000 1.10800 26.88400
C  11.48400 0.25200 27.67300
C  11.36400 0.65800 29.03400
C  10.61600 1.83600 28.94000
C  12.33400 -0.84800 27.22800
C  11.72200 0.40600 30.37800
O  12.50500 -0.44700 30.75900
C  11.05500 1.50700 31.22300
C  10.01900 0.86400 32.11200
O  8.85800 0.68700 31.76900
O  10.54900 0.60300 33.37300
C  9.56000 0.14000 34.32900
H  6.63500 6.66400 29.87100
H  6.91700 4.87500 23.63200
H  10.92300 0.21100 25.11200
H  8.84600 3.23800 32.51300
H  8.28200 6.24900 31.84800
H  5.87900 5.00800 31.79000
H  6.70700 5.77700 33.19100
H  6.74900 4.02400 33.03100
H  10.12400 5.75700 32.91500
H  11.26200 4.66900 32.08800
H  11.81500 3.84400 34.07900
H  10.20600 3.05300 34.20300
H  4.01500 7.54900 27.40200
H  5.22700 8.83200 27.38600
H  5.01000 7.78000 28.79000
H  4.65000 8.89300 25.09500
H  3.43800 7.61700 25.40800
H  3.77300 8.20200 23.73500
H  8.93100 3.59600 22.27200
H  8.92000 0.72700 23.09900
H  6.19700 3.02500 22.57300
H  7.03700 1.46100 22.13000
H  7.10600 2.91400 21.16400
H  11.61100 2.18900 22.97500
H  10.57700 2.19200 21.48600
H  12.18300 0.06900 22.74000
H  11.83200 0.59200 21.10000
H  10.62600 -0.46900 21.98800
H  13.10300 -1.08700 27.96300
H  12.83700 -0.41000 26.36600
H  11.76200 -1.69500 26.84900
H  11.76000 2.13600 31.76700
H  8.83900 0.95000 34.44700
H  10.09600 -0.04600 35.25900
H  8.93100 -0.73700 34.17400

