158

Mg -1.98700 17.73000 27.37400
C  -2.84200 15.50200 30.10100
C  -2.61300 20.23200 29.43800
C  -1.67000 19.50500 24.77900
C  -1.93700 14.74700 25.31700
N  -2.92700 17.84300 29.45000
C  -2.97200 16.86100 30.44200
C  -2.99300 17.46100 31.84400
C  -3.15200 18.97800 31.58700
C  -2.83100 19.04200 30.03800
C  -4.62800 19.45600 31.90200
C  -1.71100 16.94600 32.62900
C  -1.25000 17.82500 33.78200
H  -0.92200 17.04500 35.10800
N  -2.08900 19.66300 27.14400
C  -2.36100 20.57200 28.08500
C  -2.26100 21.91500 27.55700
C  -2.05200 21.71500 26.18100
C  -1.89800 20.27700 26.05400
C  -2.37500 23.15400 28.33700
C  -1.90200 22.76800 25.07300
O  -1.65800 22.46300 23.88300
C  -2.28500 24.12100 25.35600
N  -1.76900 17.22200 25.38000
C  -1.72300 18.15300 24.48600
C  -1.67800 17.60600 23.07000
C  -1.45000 16.11400 23.24700
C  -1.65900 16.01800 24.75800
C  -2.89300 17.85700 22.14200
C  -0.02600 15.56800 22.63800
C  1.27000 16.31800 22.89900
N  -2.23700 15.64400 27.54800
C  -2.19700 14.58700 26.64900
C  -2.44800 13.31900 27.29200
C  -2.69300 13.66600 28.62300
C  -2.56500 15.06000 28.76800
C  -2.51600 11.92400 26.64200
C  -3.08400 13.12700 29.93100
O  -3.28400 12.00200 30.26900
C  -2.98200 14.26200 30.96700
C  -1.80600 13.98100 31.77300
O  -0.61800 14.28200 31.43200
O  -2.19900 13.37600 32.93000
C  -1.12300 12.99900 33.79200
H  -2.57000 21.05200 30.15800
H  -1.59100 20.13900 23.89300
H  -1.79800 13.87200 24.67900
H  -3.78700 17.16000 32.52700
H  -2.44500 19.60200 32.13300
H  -5.31400 19.46900 31.05500
H  -4.62100 20.45100 32.34600
H  -5.05800 18.85500 32.70300
H  -0.94400 16.81400 31.86600
H  -1.95000 16.01200 33.13700
H  -1.95400 18.60800 34.06600
H  -0.35400 18.31700 33.40100
H  -1.61000 23.84600 27.98500
H  -2.40800 23.08200 29.42400
H  -3.29200 23.68800 28.08800
H  -2.30600 24.78100 24.48900
H  -1.51300 24.42500 26.06200
H  -3.29500 24.05400 25.76000
H  -0.82900 18.05900 22.55900
H  -2.22000 15.43400 22.88200
H  -3.46300 16.98700 21.81300
H  -2.47000 18.39000 21.29100
H  -3.60600 18.58200 22.53300
H  -0.19600 15.41900 21.57200
H  0.04400 14.60700 23.14800
H  1.62200 16.56300 21.89700
H  1.89200 15.62300 23.46300
H  1.00800 17.20400 23.47900
H  -1.50600 11.51700 26.61100
H  -3.00700 12.02600 25.67400
H  -3.10700 11.37400 27.37400
H  -3.89900 14.43100 31.53200
H  -1.44100 12.12100 34.35400
H  -0.77800 13.75400 34.49800
H  -0.27400 12.74700 33.15600
Mg 0.96000 42.95900 26.10500
C  2.08000 43.03600 29.43400
C  -2.25900 42.75100 27.35700
C  -0.13600 42.49900 22.92000
C  4.14400 43.05200 25.01800
N  0.08300 42.91000 28.27100
C  0.68600 42.99300 29.41200
C  -0.30700 42.79200 30.57500
C  -1.67600 42.82200 29.88800
C  -1.27700 42.80800 28.41000
C  -2.69000 41.74300 30.18200
C  -0.21300 43.89700 31.67000
C  -0.15600 43.36000 33.11600
H  -0.95300 42.10100 33.55200
N  -0.94700 42.73400 25.30000
C  -2.15000 42.72800 25.92800
C  -3.23500 42.54600 24.99400
C  -2.65500 42.60900 23.63500
C  -1.17600 42.66200 23.88900
C  -4.64200 42.47800 25.33200
C  -3.27900 42.46800 22.28400
O  -2.69800 42.58300 21.15400
C  -4.76900 42.24100 22.19500
N  1.82100 42.89600 24.17900
C  1.22300 42.65900 22.98200
C  2.24700 42.46100 21.85500
C  3.53900 42.87700 22.58100
C  3.19400 42.90600 24.04600
C  2.17500 40.94900 21.37600
C  4.11800 44.16000 22.01200
C  3.21200 45.42600 21.95200
N  2.75900 43.10800 26.95800
C  3.96300 43.16000 26.42800
C  5.03800 43.28000 27.40800
C  4.30700 43.24900 28.55900
C  2.92200 43.12800 28.30500
C  6.47600 43.37700 27.33200
C  4.45100 43.24300 29.99100
O  5.50800 43.30000 30.64200
C  3.07700 43.05800 30.66500
C  3.22100 41.76400 31.49100
O  3.48100 40.69400 31.00400
O  2.90900 41.92200 32.84000
C  3.05000 40.76200 33.73800
H  -3.31600 42.84500 27.61500
H  -0.35000 42.29800 21.86800
H  5.15200 43.17400 24.61400
H  -0.01200 41.85600 31.04900
H  -2.22000 43.73900 30.11100
H  -2.32600 40.75800 30.47500
H  -3.30000 41.56800 29.29600
H  -3.32800 42.18300 30.94800
H  -1.08700 44.54800 31.62700
H  0.63600 44.53700 31.42900
H  -0.46600 44.17400 33.77100
H  0.92100 43.23300 33.22000
H  -5.02400 41.47300 25.15400
H  -5.26900 43.15600 24.75200
H  -4.85700 42.87300 26.32400
H  -4.94000 42.26700 21.11900
H  -5.36100 43.07400 22.57700
H  -4.80200 41.25400 22.65600
H  1.94100 43.08500 21.01500
H  4.27000 42.07500 22.48100
H  3.10800 40.41500 21.20100
H  1.76200 40.97100 20.36700
H  1.62400 40.42200 22.15400
H  4.44900 44.01800 20.98300
H  4.94200 44.52200 22.62700
H  2.30800 45.22900 22.52800
H  3.03000 45.71200 20.91600
H  3.72900 46.32700 22.28200
H  6.75500 44.41000 27.12500
H  6.90200 42.78700 26.52000
H  6.77600 43.03300 28.32100
H  2.91500 43.93000 31.29900
H  2.94500 41.01200 34.79400
H  3.92200 40.13100 33.56500
H  2.14200 40.20600 33.50700

