158

Mg 47.42500 15.89300 27.98500
C  45.81200 15.60800 31.13000
C  49.46600 18.19100 29.26800
C  48.64500 16.31100 24.86500
C  44.89900 13.91100 26.68000
N  47.63300 16.67500 30.02700
C  46.97300 16.38400 31.15200
C  47.56200 17.25900 32.27400
C  48.51500 18.19600 31.64700
C  48.60700 17.61100 30.22100
C  48.11300 19.65400 31.64000
C  48.03100 16.43000 33.44600
C  47.96500 17.05500 34.85100
H  49.05300 16.59800 35.81300
N  48.92900 16.94300 27.18300
C  49.60100 17.91000 27.87900
C  50.53300 18.62700 26.99800
C  50.42600 17.98500 25.72200
C  49.27700 17.03900 25.87000
C  51.39600 19.76900 27.42900
C  51.24700 18.21500 24.50000
O  51.01100 17.64000 23.43900
C  52.38000 19.11700 24.54400
N  46.89600 15.22000 26.00100
C  47.59800 15.38200 24.90800
C  47.01000 14.61400 23.68500
C  45.98900 13.70200 24.42700
C  45.91400 14.27500 25.78600
C  46.48000 15.49600 22.50300
C  46.41100 12.22000 24.26900
C  47.64400 11.79800 25.08500
N  45.69700 15.01900 28.71000
C  44.73700 14.34900 28.00200
C  43.60900 14.03800 28.82100
C  44.02600 14.45700 30.07900
C  45.31200 15.08200 29.94000
C  42.45100 13.15000 28.44300
C  43.64500 14.54300 31.47900
O  42.62300 14.17500 32.04800
C  44.74900 15.31100 32.21400
C  44.27300 16.58900 32.82600
O  43.84800 17.55300 32.13800
O  44.43200 16.59900 34.13700
C  43.95300 17.80700 34.79400
H  50.19200 18.90800 29.65800
H  48.96700 16.42800 23.82800
H  44.18400 13.21400 26.23700
H  46.79800 17.95400 32.62300
H  49.46400 18.04200 32.16200
H  47.29800 19.93500 32.30700
H  47.80100 19.99200 30.65200
H  49.02600 20.16800 31.94300
H  49.07900 16.19300 33.26500
H  47.56100 15.45800 33.59600
H  46.99700 16.75600 35.25300
H  47.96800 18.14400 34.80500
H  52.48000 19.65200 27.40700
H  51.00300 20.19200 28.35300
H  51.20800 20.61700 26.77000
H  53.13800 18.65900 25.18000
H  51.94700 20.09500 24.75600
H  52.77200 19.25600 23.53700
H  47.87600 14.07800 23.29700
H  44.98500 13.73300 24.00200
H  46.45300 16.56100 22.73300
H  45.44500 15.30700 22.21600
H  47.23000 15.29000 21.74000
H  46.46700 11.98700 23.20500
H  45.57800 11.58100 24.56200
H  47.84100 12.34300 26.00800
H  48.51000 12.09800 24.49400
H  47.56400 10.73900 25.32900
H  41.73800 13.69000 27.82000
H  42.01100 12.73600 29.35000
H  43.01500 12.46100 27.81500
H  45.09600 14.69800 33.04600
H  44.27100 18.69800 34.25300
H  44.49100 17.91700 35.73500
H  42.91800 17.79800 35.13400
Mg 47.33600 44.54500 44.11300
C  43.91400 44.20000 43.59600
C  47.65900 41.16400 43.05900
C  50.69000 44.94400 43.88600
C  46.85800 48.03300 44.41100
N  45.87700 42.94800 43.49400
C  44.56900 42.98000 43.43300
C  43.92300 41.73700 42.91800
C  45.09100 40.76800 43.26000
C  46.32100 41.69300 43.27000
C  45.04800 39.95100 44.63100
C  43.65400 41.78800 41.36700
C  42.28500 41.38400 40.87900
H  42.18500 40.93600 39.36500
N  48.95800 43.20500 43.53400
C  48.88000 41.89600 43.16900
C  50.20200 41.35400 42.92100
C  51.06000 42.46600 43.09700
C  50.26600 43.57400 43.59900
C  50.39800 39.88200 42.58400
C  52.58400 42.44900 42.77100
O  53.07000 41.48000 42.15900
C  53.46700 43.56700 43.10400
N  48.58700 46.27000 44.07300
C  49.90100 46.14000 44.05100
C  50.61600 47.47900 44.05400
C  49.39800 48.40400 44.41000
C  48.19000 47.54400 44.25500
C  51.87800 47.62800 44.87600
C  49.28900 49.77900 43.67400
C  49.21800 51.01000 44.67200
N  45.74800 45.92600 44.12000
C  45.68600 47.25900 44.35000
C  44.29000 47.72900 44.29400
C  43.57300 46.52800 44.02500
C  44.50400 45.48300 43.93200
C  43.83400 49.02600 44.66600
C  42.25600 45.99100 43.91200
O  41.17000 46.56000 43.98800
C  42.43200 44.47100 43.43400
C  41.48800 43.62300 44.18100
O  40.33000 43.49200 43.90400
O  42.02400 43.11200 45.34900
C  41.02900 42.43500 46.19500
H  47.61200 40.09300 42.85000
H  51.75800 45.05200 44.09200
H  46.60000 49.06900 44.63900
H  43.06800 41.56500 43.57300
H  45.15600 40.08200 42.41500
H  45.47300 40.60600 45.39200
H  45.56000 38.99600 44.51600
H  43.99200 39.74000 44.80100
H  44.42200 41.28600 40.77700
H  43.69200 42.85300 41.13800
H  41.61800 42.23600 41.01000
H  41.89300 40.56200 41.47800
H  50.57200 39.91100 41.50800
H  49.52800 39.23900 42.71400
H  51.22400 39.43300 43.13500
H  52.96500 44.36100 42.55100
H  54.44100 43.37900 42.65200
H  53.49100 43.63300 44.19200
H  50.84300 47.66500 43.00400
H  49.49500 48.50000 45.49100
H  52.32000 46.67100 45.15600
H  51.64300 48.34800 45.65900
H  52.60000 48.01100 44.15400
H  48.39000 49.75700 43.05800
H  50.13300 49.81700 42.98600
H  49.30300 50.62400 45.68700
H  48.23900 51.44000 44.45800
H  49.90200 51.83000 44.45200
H  44.30400 49.69000 43.94000
H  44.08800 49.24200 45.70400
H  42.75100 49.07200 44.55100
H  42.07400 44.41600 42.40600
H  40.46000 41.67300 45.66200
H  40.28000 43.09700 46.63000
H  41.57900 41.99500 47.02600

