158

Mg 35.66700 2.76100 30.20900
C  33.28400 3.87500 32.74400
C  37.88400 2.61300 32.79300
C  37.97800 2.40700 27.95600
C  33.16700 3.17500 27.85600
N  35.58400 3.35900 32.58500
C  34.53400 3.68800 33.34600
C  34.91400 3.57800 34.84600
C  36.52800 3.57300 34.78200
C  36.65900 3.07500 33.30800
C  37.22400 4.90900 35.18700
C  34.20500 2.31900 35.47000
C  33.62500 2.56500 36.91700
H  34.21800 3.71200 37.88300
N  37.67100 2.40300 30.32300
C  38.40200 2.43100 31.46400
C  39.76400 2.08500 31.04800
C  39.89500 2.12100 29.69800
C  38.48900 2.32800 29.23700
C  40.90000 1.83500 32.08900
C  41.03000 1.85300 28.76800
O  40.87600 1.83100 27.60900
C  42.46400 1.55800 29.32000
N  35.55100 2.90300 28.11900
C  36.66900 2.66000 27.42100
C  36.30800 2.33700 25.94000
C  34.80900 2.73400 25.86300
C  34.43600 2.93100 27.36600
C  37.10300 3.14800 24.80900
C  33.95100 1.73300 25.02100
C  33.21500 2.49000 23.98500
N  33.62000 3.29200 30.23800
C  32.76700 3.43800 29.20300
C  31.48000 3.77400 29.76000
C  31.61400 3.82900 31.10800
C  32.96400 3.69400 31.38400
C  30.16400 3.89300 29.04800
C  30.86900 4.12900 32.34400
O  29.71300 4.37500 32.56400
C  31.96800 4.07100 33.40700
C  31.93900 5.29600 34.23900
O  32.44100 6.39700 33.90900
O  31.23000 5.02200 35.37500
C  31.10800 6.09700 36.35900
H  38.70000 2.54100 33.51500
H  38.72600 2.21400 27.18400
H  32.39000 3.19800 27.08900
H  34.61400 4.49400 35.35500
H  37.01400 2.83400 35.41900
H  38.00700 5.09000 34.45100
H  37.66400 4.90700 36.18400
H  36.53800 5.75600 35.18500
H  34.83400 1.42900 35.49100
H  33.32800 1.99700 34.90800
H  33.73800 1.60200 37.41400
H  32.58100 2.79100 36.69900
H  41.17900 0.78100 32.09700
H  40.63100 1.95000 33.13900
H  41.82000 2.41300 32.00000
H  42.51000 0.60200 29.84300
H  42.84400 2.41200 29.87900
H  43.02300 1.60400 28.38500
H  36.34900 1.24900 25.88800
H  34.70000 3.77800 25.57100
H  37.57700 4.03900 25.22000
H  36.43200 3.57400 24.06200
H  37.69200 2.34200 24.37200
H  33.23100 1.10000 25.53900
H  34.67000 1.08700 24.51600
H  32.38900 1.86000 23.65600
H  33.92300 2.64100 23.17000
H  32.84300 3.41500 24.42500
H  30.30300 4.87700 28.60000
H  29.28000 3.99200 29.67800
H  30.02100 3.20300 28.21600
H  31.68300 3.24600 34.05900
H  30.79000 5.60900 37.28100
H  30.41100 6.88000 36.06100
H  32.09300 6.47700 36.63100
Mg 26.83400 49.91600 26.48000
C  24.68300 51.28200 28.84700
C  28.93100 49.14500 29.07200
C  29.16100 48.88000 24.24800
C  24.73100 51.08400 23.98700
N  26.78700 50.22600 28.80100
C  25.72000 50.64800 29.49800
C  25.90500 50.48700 31.02500
C  27.42900 49.95000 31.07900
C  27.73000 49.75900 29.49100
C  28.44500 50.92700 31.72500
C  24.95200 49.57200 31.66100
C  24.97500 49.15000 33.18700
H  25.80700 49.80400 34.28700
N  28.79400 49.17200 26.64400
C  29.42000 48.86300 27.77700
C  30.67400 48.27500 27.48400
C  30.79400 48.12400 26.04900
C  29.54700 48.69900 25.53200
C  31.74700 47.94400 28.55400
C  31.80000 47.42200 25.21100
O  31.63000 47.24500 24.02200
C  33.09200 46.88000 25.80700
N  26.95700 50.04500 24.46300
C  27.97700 49.48700 23.72200
C  27.76500 49.68200 22.16300
C  26.26400 50.14100 22.14900
C  25.95800 50.48900 23.62500
C  28.82100 50.50500 21.43200
C  25.33800 49.11200 21.47300
C  25.17300 47.73300 22.12000
N  25.00500 50.82400 26.37300
C  24.30900 51.37000 25.27200
C  23.15000 52.11200 25.71200
C  23.23000 52.06000 27.11400
C  24.39000 51.32100 27.47900
C  22.13500 52.78400 24.87800
C  22.65600 52.51300 28.36700
O  21.73700 53.32300 28.54500
C  23.47400 51.88200 29.54300
C  23.71800 52.84000 30.64400
O  24.42900 53.84200 30.59100
O  23.14200 52.44400 31.78800
C  23.39900 53.11300 33.06700
H  29.60100 48.78000 29.85300
H  29.82000 48.61400 23.41800
H  24.05200 51.45900 23.21800
H  25.71900 51.41500 31.56500
H  27.43100 48.97900 31.57400
H  27.99000 51.86500 32.04300
H  29.32300 51.07400 31.09700
H  28.79500 50.48300 32.65700
H  24.95200 48.68700 31.02500
H  23.95400 49.99900 31.56400
H  25.24700 48.10200 33.31400
H  23.93200 49.23800 33.49200
H  31.69600 48.63200 29.39700
H  32.81800 47.92500 28.35100
H  31.62700 46.93200 28.94100
H  33.72500 47.72800 26.07000
H  33.62700 46.25500 25.09300
H  33.02300 46.41500 26.79100
H  27.70900 48.72700 21.64000
H  26.13500 51.11200 21.67100
H  29.49700 50.91000 22.18400
H  28.33200 51.38100 21.00500
H  29.31900 49.88800 20.68400
H  25.58400 49.00100 20.41700
H  24.34500 49.56000 21.49500
H  24.15700 47.34300 22.05000
H  25.40800 47.68500 23.18300
H  25.72900 47.01200 21.52100
H  21.14900 52.88700 25.32900
H  21.99200 52.10100 24.04100
H  22.41100 53.81300 24.64600
H  22.89700 51.03900 29.92400
H  23.76000 54.12400 32.87900
H  24.11800 52.58000 33.69000
H  22.47400 53.30000 33.61100

