158

Mg 46.31200 24.80400 28.56800
C  47.09500 27.21200 31.22900
C  45.17600 22.77200 30.86500
C  46.81400 22.32200 26.37200
C  47.91000 26.96600 26.41800
N  46.35000 24.92300 30.85400
C  46.48800 26.04500 31.72700
C  45.92500 25.75600 33.04800
C  45.35800 24.31000 32.94700
C  45.63400 23.96500 31.44400
C  45.81900 23.27000 33.93700
C  44.92600 26.85900 33.57400
C  45.34600 27.57100 34.86100
H  44.23100 27.83500 35.85600
N  45.74500 22.86700 28.56300
C  45.19900 22.18400 29.64200
C  44.74200 20.93600 29.18300
C  45.35300 20.72600 27.82900
C  46.11900 21.96800 27.54100
C  43.85500 19.93500 30.00400
C  45.39900 19.43100 26.98200
O  45.90100 19.47600 25.82800
C  44.79900 18.15700 27.52300
N  47.23800 24.67800 26.62300
C  47.33200 23.55600 25.93700
C  47.80000 23.80100 24.49100
C  47.92000 25.39100 24.40100
C  47.63600 25.76800 25.92400
C  49.08200 22.97400 24.05000
C  46.96900 26.01100 23.31700
C  45.60000 26.61600 23.71500
N  47.29100 26.78200 28.74700
C  47.75500 27.50600 27.70400
C  48.20900 28.75400 28.29200
C  47.99100 28.68800 29.67200
C  47.42500 27.45200 29.90100
C  48.67300 29.98300 27.52000
C  48.16500 29.45900 30.91100
O  48.60600 30.55000 31.19300
C  47.51300 28.46000 31.96200
C  48.62800 28.15100 32.92200
O  49.59400 27.42100 32.64500
O  48.44300 28.70200 34.11700
C  49.11300 28.00200 35.24900
H  44.66700 22.14700 31.60100
H  46.78500 21.52100 25.63100
H  48.30500 27.70000 25.71300
H  46.81800 25.73500 33.67300
H  44.30800 24.59700 33.00900
H  46.81800 22.98600 33.60800
H  45.07400 22.48300 34.04800
H  45.86100 23.70700 34.93500
H  43.95800 26.39600 33.76200
H  44.98400 27.57300 32.75300
H  45.62700 28.61500 34.72300
H  46.16900 27.06300 35.36400
H  42.99300 19.57800 29.44000
H  43.42700 20.49900 30.83200
H  44.53800 19.17400 30.38200
H  45.05400 17.92700 28.55700
H  45.15000 17.40100 26.82100
H  43.71200 18.07700 27.55000
H  46.88800 23.55600 23.94700
H  48.90600 25.68300 24.03900
H  48.83000 22.11100 23.43400
H  49.66500 22.50300 24.84200
H  49.78200 23.60200 23.49900
H  46.71200 25.27000 22.56000
H  47.56300 26.71200 22.73000
H  45.35300 26.34900 24.74300
H  44.79600 26.20400 23.10500
H  45.63400 27.68700 23.51300
H  47.92300 30.08400 26.73500
H  49.69500 29.80600 27.18600
H  48.52500 30.87800 28.12400
H  46.72400 28.84700 32.60600
H  48.23400 27.72300 35.83000
H  49.72000 28.66900 35.86100
H  49.51800 27.00100 35.09900
Mg -10.14400 17.54500 42.65300
C  -6.72300 16.53400 42.24600
C  -9.22600 20.65300 41.89100
C  -13.36800 18.00700 41.99900
C  -10.86900 13.95100 42.76000
N  -8.13500 18.44500 41.93500
C  -6.89100 17.90700 41.99300
C  -5.79000 19.10800 41.85700
C  -6.66100 20.33400 41.98000
C  -8.09000 19.78600 41.96200
C  -6.52500 21.40500 43.13600
C  -4.97800 19.04500 40.55400
C  -5.72000 18.52700 39.32000
H  -5.38700 19.01500 37.88900
N  -11.15900 19.14200 42.04700
C  -10.62700 20.36100 41.76800
C  -11.64700 21.26500 41.37200
C  -12.87700 20.50600 41.39800
C  -12.51300 19.18500 41.85600
C  -11.34900 22.69000 40.97900
C  -14.14400 21.12400 40.95800
O  -14.16400 22.25500 40.55700
C  -15.52200 20.44000 40.90600
N  -11.88700 16.17500 42.63000
C  -13.10500 16.69900 42.34000
C  -14.18800 15.59600 42.30200
C  -13.27600 14.33000 42.17700
C  -11.90200 14.86100 42.59800
C  -15.13700 15.46200 43.52000
C  -13.13700 13.71100 40.69900
C  -14.36900 12.89800 40.28000
N  -9.06200 15.62200 42.74500
C  -9.50900 14.30500 42.80600
C  -8.33600 13.49400 42.99900
C  -7.23500 14.34200 42.88200
C  -7.72800 15.63600 42.63700
C  -8.29900 12.07000 43.21000
C  -5.72300 14.42600 42.88500
O  -4.93100 13.55000 43.03200
C  -5.40300 15.88400 42.61400
C  -4.82600 16.51200 43.81100
O  -5.37800 16.76600 44.89800
O  -3.52200 16.89600 43.60100
C  -2.81800 17.50400 44.73200
H  -8.86500 21.66400 41.69600
H  -14.43600 18.12100 41.80000
H  -11.15100 12.89800 42.82900
H  -5.18300 19.06800 42.76200
H  -6.51300 20.96700 41.10500
H  -5.60100 21.16300 43.66200
H  -7.36600 21.34600 43.82700
H  -6.46100 22.43000 42.77000
H  -4.07400 18.46300 40.73300
H  -4.77400 20.09200 40.33100
H  -6.79600 18.51800 39.49400
H  -5.38000 17.50900 39.12700
H  -11.35600 22.79800 39.89400
H  -10.35500 23.02300 41.27800
H  -12.05800 23.42600 41.35800
H  -15.95500 20.46600 41.90600
H  -15.28400 19.48000 40.44900
H  -16.12300 20.98300 40.17700
H  -14.79100 15.68900 41.39900
H  -13.59700 13.54700 42.86400
H  -15.00200 14.52700 44.06400
H  -16.19700 15.55700 43.28700
H  -14.88500 16.31600 44.14900
H  -12.18100 13.21100 40.54600
H  -13.25900 14.53100 39.99100
H  -14.87400 13.54100 39.55800
H  -15.03700 12.63100 41.09900
H  -14.03600 11.93300 39.90000
H  -7.32000 11.59500 43.15000
H  -8.93500 11.63600 42.43900
H  -8.62400 11.83900 44.22400
H  -4.71400 15.97300 41.77400
H  -2.51000 18.39700 44.18900
H  -2.08300 16.75100 45.01700
H  -3.41500 17.76800 45.60500

