158

Mg 7.50200 53.52500 41.44200
C  6.77700 50.00500 41.05100
C  10.51400 52.96200 40.09100
C  7.86200 56.87500 40.85100
C  4.20900 54.01900 42.25500
N  8.38300 51.69400 40.50900
C  8.08400 50.38500 40.54200
C  9.20600 49.44700 40.07200
C  10.48500 50.40900 40.21500
C  9.75600 51.79900 40.23600
C  11.49700 50.26900 41.35700
C  9.05000 48.81500 38.70500
C  8.31200 49.54800 37.57000
H  7.70600 48.72700 36.46900
N  9.05500 54.73700 40.90800
C  10.21900 54.28200 40.32600
C  11.10100 55.42200 40.17200
C  10.40000 56.58200 40.48100
C  9.02100 56.11000 40.76300
C  12.51300 55.25200 39.58200
C  10.92300 58.04300 40.30200
O  12.08100 58.17400 39.99500
C  10.00100 59.21400 40.49600
N  6.17600 55.20800 41.24800
C  6.56900 56.47300 41.11700
C  5.42600 57.49600 41.18300
C  4.25200 56.57500 41.74900
C  4.93500 55.15400 41.79600
C  5.70700 58.66000 42.22700
C  2.92400 56.55300 40.99700
C  2.87000 55.99300 39.57100
N  5.85500 52.27100 41.75900
C  4.59700 52.65300 42.10900
C  3.79900 51.47200 42.30700
C  4.63300 50.40600 41.95500
C  5.88400 50.97700 41.55800
C  2.35200 51.43100 42.46900
C  4.73000 48.97900 41.78900
O  3.88600 48.12800 41.93000
C  6.12100 48.61500 41.23900
C  5.87100 47.95100 39.88800
O  5.23900 48.53500 39.01400
O  6.28100 46.62500 39.84700
C  5.86900 45.82200 38.68900
H  11.55600 52.76900 39.82600
H  7.84200 57.91900 40.53000
H  3.17600 54.10400 42.59600
H  9.43800 48.61100 40.73300
H  11.08300 50.32900 39.30800
H  12.45100 49.92400 40.95900
H  11.22000 49.40300 41.95900
H  11.46500 51.22600 41.87800
H  8.55300 47.88200 38.97100
H  10.05300 48.58500 38.34600
H  9.00700 50.21100 37.05500
H  7.52000 50.13100 38.04000
H  13.06500 54.33600 39.79100
H  13.24900 55.92700 40.01900
H  12.53400 55.61100 38.55300
H  9.28200 59.34100 39.68700
H  10.69000 60.01600 40.76000
H  9.56900 59.07500 41.48700
H  5.21900 57.82200 40.16400
H  4.04500 56.88800 42.77200
H  6.69000 59.06500 41.99000
H  5.60900 58.23300 43.22500
H  5.06500 59.54000 42.19800
H  2.55200 57.57500 41.06400
H  2.24700 55.96800 41.61900
H  3.81800 55.59500 39.21100
H  2.53600 56.74700 38.85800
H  2.13900 55.18500 39.60100
H  1.82600 51.97800 41.68700
H  1.97700 51.78100 43.43100
H  2.11800 50.37900 42.30800
H  6.80600 48.05400 41.87500
H  6.70600 45.26100 38.27500
H  5.43200 46.41500 37.88500
H  5.18100 44.99900 38.88000
Mg -5.68600 24.26200 25.54900
C  -4.23000 26.03800 28.18700
C  -7.54600 22.47300 27.83700
C  -6.79700 22.39000 22.97200
C  -3.85400 26.24900 23.28600
N  -5.78100 24.26900 27.70300
C  -5.15700 25.08800 28.59900
C  -5.64400 24.79900 30.12900
C  -6.20500 23.31000 29.94600
C  -6.56100 23.35300 28.40000
C  -5.25900 22.14100 30.33000
C  -6.71300 25.83700 30.58500
C  -6.58400 26.41500 31.95300
H  -5.92800 25.50400 32.98600
N  -7.05400 22.66300 25.43000
C  -7.78600 22.08200 26.48500
C  -8.63800 21.02200 25.96500
C  -8.54800 21.11500 24.52900
C  -7.45300 22.05900 24.25100
C  -9.44800 20.24800 26.87600
C  -9.32200 20.42800 23.39100
O  -9.14700 20.64400 22.20400
C  -10.46400 19.43300 23.72900
N  -5.42300 24.33900 23.49200
C  -5.99700 23.39700 22.66000
C  -5.55200 23.68300 21.14100
C  -5.10800 25.09300 21.29700
C  -4.70800 25.22100 22.75700
C  -4.43500 22.71000 20.68000
C  -6.07600 26.23700 20.92300
C  -5.50000 27.16400 19.87100
N  -4.30000 25.87200 25.64100
C  -3.67900 26.56900 24.66800
C  -2.70100 27.47300 25.31300
C  -2.91300 27.33700 26.65800
C  -3.88500 26.31400 26.85400
C  -1.68900 28.25300 24.53000
C  -2.53700 27.90900 28.00900
O  -1.90400 28.86600 28.37200
C  -3.42400 27.01500 29.06500
C  -2.46900 26.32900 29.95900
O  -1.88700 25.27400 29.69200
O  -2.30500 27.08300 31.13300
C  -1.36900 26.56100 32.16300
H  -8.10500 21.91900 28.59400
H  -7.08500 21.85400 22.06500
H  -3.25600 26.82400 22.57600
H  -4.82800 24.75200 30.85000
H  -7.18200 23.13300 30.39600
H  -4.30000 22.48900 30.71500
H  -5.04200 21.61800 29.39900
H  -5.82300 21.52300 31.02900
H  -7.74200 25.49700 30.47300
H  -6.60900 26.69300 29.91800
H  -7.63700 26.50200 32.22200
H  -6.02000 27.34700 31.90400
H  -9.11700 19.23300 27.09700
H  -10.49600 20.16900 26.59000
H  -9.46300 20.70100 27.86700
H  -11.28300 20.01500 24.15000
H  -9.95700 18.72100 24.38000
H  -10.81300 18.92900 22.82800
H  -6.47800 23.56400 20.58000
H  -4.19700 25.30400 20.73600
H  -4.88900 22.33600 19.76200
H  -4.21400 21.94900 21.42800
H  -3.48200 23.18100 20.43700
H  -6.35500 26.81800 21.80200
H  -7.02600 25.78200 20.64300
H  -4.70900 27.75600 20.33300
H  -6.25000 27.88600 19.54900
H  -5.07400 26.76900 18.94900
H  -0.93400 27.62800 24.05300
H  -1.20000 28.88600 25.27100
H  -2.12000 28.92800 23.79000
H  -4.00800 27.61000 29.76700
H  -1.78000 26.81700 33.13900
H  -0.40900 27.05700 32.02100
H  -1.19300 25.49800 31.99700

