158

Mg 25.15100 1.88800 29.82100
C  27.32500 1.64300 32.54800
C  22.48600 1.70500 32.03500
C  23.04500 1.80700 27.19900
C  27.85300 1.17900 27.73000
N  24.94000 1.77900 31.96700
C  26.00300 1.84800 32.84300
C  25.50000 2.15100 34.24300
C  23.97700 1.86000 34.19400
C  23.79100 1.86800 32.62700
C  23.56200 0.47300 34.82400
C  25.91700 3.53400 34.72800
C  26.51800 3.77500 36.11400
H  26.13000 2.81900 37.28100
N  23.05800 1.76500 29.64800
C  22.17400 1.66400 30.65200
C  20.86400 1.59300 30.18800
C  20.98600 1.55200 28.76600
C  22.39700 1.72600 28.46400
C  19.68500 1.40400 31.04700
C  19.84300 1.60400 27.75900
O  20.15100 1.78500 26.56900
C  18.46000 1.32400 28.22500
N  25.43400 1.70300 27.77700
C  24.42300 1.86600 26.89200
C  24.99300 2.10700 25.44700
C  26.47400 1.67800 25.57400
C  26.65100 1.51900 27.14700
C  24.14900 1.45200 24.32800
C  27.33300 2.90100 25.09800
C  27.53300 2.93600 23.55900
N  27.13200 1.48000 30.00500
C  28.08900 1.13600 29.04700
C  29.31000 0.90600 29.73500
C  29.11200 1.20600 31.07800
C  27.73500 1.42100 31.23000
C  30.61600 0.68500 29.02500
C  29.77300 1.23000 32.40000
O  30.97900 1.18300 32.71300
C  28.55100 1.55300 33.45800
C  28.43900 0.49700 34.50500
O  27.62800 -0.39300 34.47800
O  29.31900 0.61900 35.49600
C  28.99800 -0.38200 36.57400
H  21.76600 1.84500 32.84300
H  22.39100 1.85100 26.32500
H  28.67200 1.04300 27.02100
H  25.93700 1.44500 34.94900
H  23.15600 2.53800 34.42800
H  23.04500 -0.13700 34.08400
H  22.82300 0.71700 35.58700
H  24.42200 -0.14700 35.07600
H  25.09000 4.24300 34.77000
H  26.64600 3.97800 34.05000
H  26.05600 4.70800 36.43700
H  27.60700 3.79400 36.06500
H  19.08500 2.21400 30.63100
H  19.86600 1.59200 32.10500
H  19.19200 0.43300 31.01900
H  18.46400 0.55700 28.99900
H  17.72100 1.13700 27.44600
H  18.18700 2.23100 28.76500
H  24.71100 3.15300 25.33300
H  26.70900 0.74500 25.06300
H  24.86000 1.24400 23.52800
H  23.31400 2.10700 24.08100
H  23.67900 0.60200 24.82300
H  28.28800 2.77800 25.60900
H  26.82700 3.83900 25.32900
H  28.61100 2.90600 23.39700
H  27.18000 3.87400 23.13100
H  26.98700 2.14300 23.04900
H  30.50000 0.02600 28.16500
H  31.19200 0.24200 29.83800
H  30.98700 1.63400 28.63700
H  28.90200 2.50100 33.86800
H  29.63900 -0.29700 37.45100
H  28.99200 -1.38700 36.15300
H  28.06200 -0.28100 37.12400
Mg 5.94300 52.94100 40.56700
C  5.88300 49.33400 40.12300
C  9.21200 52.93400 39.75100
C  5.67700 56.22200 40.31300
C  2.34700 52.67200 41.08900
N  7.29500 51.27400 39.82000
C  7.16800 49.87900 39.93500
C  8.56400 49.21500 39.86600
C  9.54300 50.42700 40.14500
C  8.63300 51.68900 39.99200
C  10.15000 50.49100 41.62400
C  8.86500 48.54300 38.48000
C  8.76100 49.47500 37.20200
H  7.65700 49.14900 36.23000
N  7.25500 54.39500 39.96700
C  8.56500 54.16100 39.65700
C  9.17100 55.40100 39.29600
C  8.17900 56.43900 39.54400
C  6.95500 55.75000 39.90400
C  10.52200 55.53800 38.67500
C  8.39000 57.85500 39.31800
O  9.47700 58.25500 38.91600
C  7.34300 58.91400 39.66900
N  4.20900 54.29000 40.77300
C  4.44000 55.62200 40.66800
C  3.12800 56.31200 40.84200
C  2.02900 55.20100 41.02000
C  2.87200 53.94100 40.97200
C  3.15200 57.43100 41.98900
C  0.85900 55.23100 39.97300
C  -0.54600 55.69000 40.53400
N  4.42600 51.42900 40.72100
C  3.03500 51.44900 40.86800
C  2.48200 50.08400 40.88200
C  3.58400 49.27900 40.58700
C  4.74200 50.07900 40.48900
C  0.95400 49.82000 40.99800
C  3.92300 47.83000 40.32800
O  3.20400 46.83400 40.47900
C  5.44100 47.86400 39.95000
C  5.53000 47.32000 38.64100
O  5.11400 47.87000 37.65300
O  6.19500 46.12100 38.61000
C  6.33100 45.55300 37.27800
H  10.29900 52.83300 39.70900
H  5.55700 57.30600 40.26400
H  1.27000 52.51100 41.17500
H  8.58300 48.41400 40.60500
H  10.48900 50.44000 39.60500
H  10.52100 49.57900 42.09200
H  9.46700 51.00600 42.30000
H  11.03500 51.12800 41.63700
H  8.11400 47.75300 38.49800
H  9.83900 48.05400 38.50500
H  9.74100 49.18400 36.82400
H  8.85100 50.53700 37.42800
H  10.46500 56.36000 37.96200
H  10.69100 54.59600 38.15300
H  11.25200 55.68300 39.47100
H  7.67900 59.93000 39.46400
H  7.09600 58.77900 40.72200
H  6.42600 58.69500 39.12200
H  3.04200 56.80100 39.87200
H  1.64900 55.26300 42.04000
H  3.59500 58.36900 41.65400
H  3.68700 57.00900 42.84000
H  2.19100 57.71200 42.42100
H  0.66700 54.25000 39.53900
H  1.13200 55.85500 39.12200
H  -0.43700 56.02200 41.56600
H  -1.20800 54.82500 40.49300
H  -0.81800 56.54900 39.92000
H  0.46800 49.93400 40.02900
H  0.47100 50.52900 41.67000
H  0.82700 48.85000 41.47700
H  5.90000 47.17600 40.66000
H  7.19100 45.96000 36.74600
H  5.51900 45.61000 36.55300
H  6.46100 44.50600 37.55000

