158

Mg 0.81800 8.88200 26.71900
C  1.26700 10.91500 29.41600
C  0.55200 6.13500 28.98800
C  0.74700 6.75100 24.06000
C  1.09600 11.58100 24.59400
N  0.85400 8.58600 28.97800
C  1.08200 9.58900 29.84200
C  1.11400 9.08200 31.30700
C  1.13700 7.50700 31.14100
C  0.78100 7.37800 29.64200
C  2.45400 6.78000 31.43600
C  -0.01100 9.63800 32.23500
C  -0.28400 8.88500 33.61800
H  0.86800 8.42500 34.46100
N  0.61000 6.80600 26.54900
C  0.47700 5.90200 27.57500
C  0.22100 4.57800 26.98800
C  0.47100 4.61300 25.57400
C  0.57400 6.10800 25.35500
C  -0.00100 3.33500 27.82100
C  0.45900 3.45100 24.57500
O  0.54600 3.74300 23.42100
C  0.22400 1.99300 25.01300
N  0.79600 9.16300 24.63800
C  0.82300 8.14500 23.76800
C  0.92600 8.77700 22.33700
C  0.53400 10.18200 22.56400
C  0.83300 10.31200 23.98900
C  2.37300 8.56100 21.74400
C  -0.97900 10.44900 22.26700
C  -1.36800 11.35700 21.10100
N  1.23400 10.84800 26.89900
C  1.27500 11.85400 26.01300
C  1.69200 13.09600 26.67100
C  1.54400 12.76100 27.99300
C  1.34900 11.39300 28.06000
C  1.84200 14.43000 25.96300
C  1.73100 13.33000 29.30400
O  1.93700 14.46100 29.59600
C  1.45900 12.12100 30.24300
C  2.53400 11.96700 31.22400
O  3.67900 11.67500 30.94300
O  2.04500 12.25200 32.46300
C  2.93800 12.06500 33.63300
H  0.59200 5.25200 29.63000
H  0.60900 6.20500 23.12500
H  1.06300 12.41500 23.89100
H  2.10400 9.39000 31.64500
H  0.35500 7.00700 31.71100
H  3.30700 7.37400 31.76300
H  2.88100 6.53600 30.46400
H  2.27000 5.96900 32.14100
H  -0.89800 9.41900 31.64000
H  0.22000 10.66400 32.52100
H  -1.08300 8.15000 33.51500
H  -0.84500 9.67300 34.12100
H  -0.95700 2.91600 27.50500
H  -0.23900 3.57400 28.85800
H  0.85500 2.66000 27.83900
H  0.54600 1.24400 24.29000
H  -0.81300 1.88600 25.33200
H  0.93700 1.75000 25.80100
H  0.28500 8.26400 21.62000
H  1.27200 10.74900 21.99800
H  2.23500 8.06500 20.78300
H  3.00400 7.92600 22.36600
H  2.92600 9.48600 21.58100
H  -1.30200 11.09500 23.08300
H  -1.61200 9.56200 22.29100
H  -0.57900 11.46500 20.35700
H  -1.74700 12.31000 21.47200
H  -2.21000 10.81800 20.66600
H  2.40900 14.35500 25.03500
H  2.19800 15.10600 26.74000
H  0.84600 14.77400 25.68500
H  0.56000 12.36500 30.80900
H  3.57400 12.94000 33.76600
H  3.47100 11.11400 33.60800
H  2.31200 12.16100 34.52000
Mg 48.73000 45.91200 43.11300
C  45.54700 46.67700 42.12600
C  48.20100 42.60200 41.73300
C  52.12600 45.41600 42.84900
C  49.28400 49.15400 44.00400
N  46.96900 44.75200 42.04200
C  45.82300 45.33600 41.66500
C  44.91000 44.44700 40.83100
C  45.60700 42.98800 41.11000
C  46.99500 43.41000 41.72200
C  44.78200 42.13300 42.16600
C  44.90100 44.96500 39.32700
C  43.51300 44.96500 38.59000
H  43.43800 44.17700 37.25800
N  49.93100 44.15100 42.71200
C  49.51300 42.92900 42.14700
C  50.66000 42.07400 41.96500
C  51.79800 42.85100 42.41200
C  51.35500 44.21300 42.62400
C  50.55800 40.65600 41.44400
C  53.15500 42.29400 42.50300
O  53.35400 41.12400 42.35300
C  54.32000 43.22300 42.94600
N  50.43600 47.15900 43.29200
C  51.70800 46.69000 43.23300
C  52.69500 47.73000 43.63800
C  51.83600 48.87200 44.21300
C  50.43300 48.38500 43.84300
C  53.91800 47.29800 44.59400
C  52.12400 50.30400 43.63800
C  53.58000 50.85500 43.60800
N  47.66600 47.61200 43.14300
C  47.96100 48.87600 43.59600
C  46.79100 49.69000 43.60600
C  45.82000 48.91300 42.96400
C  46.39600 47.60600 42.74800
C  46.75600 51.11400 44.04300
C  44.44400 48.91700 42.41800
O  43.57200 49.76700 42.33200
C  44.27300 47.53300 41.83700
C  42.95100 46.91400 42.25800
O  41.89700 47.09300 41.66700
O  43.08900 46.11200 43.36500
C  41.84000 45.43300 43.88400
H  47.93200 41.57900 41.46600
H  53.19000 45.19100 42.75000
H  49.47100 50.12100 44.47500
H  43.89200 44.62600 41.17600
H  45.79400 42.46500 40.17200
H  45.09700 41.94000 43.19200
H  44.65700 41.20700 41.60500
H  43.77300 42.54500 42.13600
H  45.53500 44.25300 38.79800
H  45.34900 45.95600 39.25100
H  43.23600 46.00200 38.40100
H  42.87900 44.61800 39.40500
H  49.54200 40.29000 41.59400
H  51.33500 40.06900 41.93400
H  50.69500 40.60800 40.36400
H  54.16100 43.73400 43.89500
H  54.59000 43.95900 42.19000
H  55.21000 42.59600 43.00400
H  53.03800 48.14100 42.68900
H  51.84800 48.97800 45.29800
H  54.06500 46.22300 44.69900
H  53.89300 47.76200 45.58000
H  54.76800 47.75100 44.08400
H  51.54700 50.91900 44.32900
H  51.58900 50.53000 42.71500
H  53.86700 51.34800 42.68000
H  54.32000 50.14300 43.97600
H  53.38700 51.70200 44.26600
H  46.04800 51.18300 44.87000
H  46.42600 51.84000 43.30000
H  47.70300 51.37300 44.51800
H  44.27900 47.73600 40.76600
H  41.27400 44.78900 43.21000
H  41.24900 46.15400 44.44900
H  42.21700 44.71800 44.61500

