158

Mg -1.71700 17.62200 26.94700
C  -1.91100 15.39600 29.61200
C  -2.73600 20.22000 29.09600
C  -1.66000 19.73800 24.29000
C  -1.29100 14.86600 24.69700
N  -1.94800 17.79300 29.11900
C  -2.04400 16.73700 30.04200
C  -2.38100 17.25300 31.46000
C  -2.96500 18.69000 31.16300
C  -2.46300 18.96500 29.64900
C  -4.51600 18.92300 31.30700
C  -1.30500 17.13200 32.56300
C  -1.72100 16.93600 34.00100
H  -0.63300 16.57300 35.03400
N  -2.18100 19.67800 26.73200
C  -2.48600 20.56600 27.71600
C  -2.54200 21.83800 27.11700
C  -2.01200 21.77500 25.82900
C  -1.92700 20.35100 25.55000
C  -3.13800 22.95600 27.96600
C  -1.57400 22.86000 24.81300
O  -1.04500 22.67700 23.70900
C  -1.73400 24.28800 25.26900
N  -1.48300 17.29900 24.88200
C  -1.47000 18.38200 23.96800
C  -1.33400 17.82900 22.55600
C  -0.95300 16.33600 22.71100
C  -1.17000 16.14500 24.20500
C  -2.54300 18.09100 21.58700
C  0.45900 16.05300 22.19600
C  1.51700 16.80200 23.01900
N  -1.62700 15.61800 27.07700
C  -1.50300 14.62100 26.04200
C  -1.53400 13.27400 26.63600
C  -1.64200 13.54400 28.01400
C  -1.68900 14.96600 28.26300
C  -1.38400 11.97600 25.86200
C  -1.65500 12.87700 29.20800
O  -1.59700 11.68200 29.45700
C  -2.14500 13.97600 30.24100
C  -1.41600 13.70000 31.54500
O  -0.23500 13.63400 31.78200
O  -2.44200 13.60200 32.52200
C  -1.84700 13.28600 33.92000
H  -3.11800 20.92400 29.83900
H  -1.79800 20.32600 23.38000
H  -1.27300 13.98800 24.04800
H  -3.25100 16.63100 31.67100
H  -2.58300 19.44900 31.84500
H  -4.80300 19.88100 31.74000
H  -4.82300 18.20900 32.07200
H  -4.99200 18.73800 30.34500
H  -0.84500 18.12000 32.51700
H  -0.59800 16.33900 32.32000
H  -2.44300 16.12000 34.01800
H  -2.07900 17.91400 34.32400
H  -4.01400 22.71000 28.56600
H  -3.62800 23.66600 27.29900
H  -2.41800 23.52500 28.55300
H  -1.27800 24.49200 26.23800
H  -2.80200 24.45600 25.40800
H  -1.31500 24.87800 24.45400
H  -0.55300 18.48200 22.16600
H  -1.73600 15.84100 22.13500
H  -3.44700 18.42600 22.09500
H  -2.82700 17.19900 21.02800
H  -2.34500 18.92300 20.91100
H  0.67300 16.51100 21.23000
H  0.62900 14.97700 22.16500
H  1.21600 16.96000 24.05400
H  1.86600 17.75100 22.61100
H  2.30900 16.05400 23.04300
H  -0.63100 12.23500 25.11800
H  -2.27900 11.56000 25.39900
H  -1.02500 11.19400 26.53100
H  -3.17900 13.77400 30.52300
H  -1.36200 12.33000 33.72300
H  -2.70700 13.10500 34.56500
H  -1.09900 13.96600 34.32600
Mg 16.86600 -2.47700 27.31700
C  16.20800 -0.32000 30.00400
C  18.51100 -4.57900 29.37200
C  17.58600 -4.27600 24.64600
C  15.06700 -0.08700 25.21300
N  17.47200 -2.27600 29.38400
C  17.00600 -1.38700 30.32100
C  17.44500 -1.80400 31.78900
C  18.30700 -3.14500 31.56200
C  18.08400 -3.38400 30.04200
C  19.78300 -3.13100 31.96900
C  16.31700 -2.02900 32.88400
C  16.55500 -1.79700 34.40700
H  18.04700 -1.39000 34.90500
N  17.95700 -4.16600 27.03200
C  18.50700 -4.93600 27.95400
C  18.94400 -6.21600 27.36600
C  18.79400 -6.10300 26.00700
C  18.10900 -4.80700 25.83200
C  19.43400 -7.32900 28.20700
C  19.19500 -7.11900 24.89300
O  19.07700 -6.82900 23.65700
C  19.75900 -8.50600 25.16900
N  16.37300 -2.15300 25.25100
C  16.94000 -3.02700 24.37200
C  16.63600 -2.53400 22.84900
C  15.45200 -1.55700 23.09800
C  15.62300 -1.21500 24.53000
C  17.92800 -1.87700 22.39000
C  14.04100 -2.21300 22.95100
C  13.16000 -1.60600 21.90400
N  15.94500 -0.54800 27.57300
C  15.22100 0.17600 26.65300
C  14.64900 1.27800 27.36400
C  15.04000 1.19000 28.70900
C  15.67400 -0.03500 28.80000
C  13.98000 2.33000 26.71600
C  14.97200 1.76400 30.05500
O  14.44700 2.82000 30.41700
C  15.73100 0.81100 30.94700
C  16.75600 1.58500 31.74000
O  17.87000 1.87300 31.33900
O  16.11100 2.14900 32.87500
C  16.87200 3.26100 33.52300
H  19.00000 -5.25500 30.07600
H  17.91800 -4.83500 23.76900
H  14.36000 0.59600 24.73700
H  18.14100 -1.07300 32.19800
H  17.78100 -3.98000 32.02600
H  19.94300 -3.81100 32.80600
H  20.08100 -2.13200 32.28600
H  20.38400 -3.49000 31.13300
H  16.07200 -3.08200 32.74700
H  15.37000 -1.56600 32.60600
H  16.34200 -2.68000 35.00900
H  15.86600 -0.98800 34.65000
H  20.28600 -7.80600 27.72300
H  18.66700 -8.07800 28.40700
H  19.90600 -6.93700 29.10800
H  19.14700 -9.03800 25.89600
H  20.80100 -8.40400 25.47200
H  19.71800 -9.04500 24.22200
H  16.40100 -3.32300 22.13500
H  15.58000 -0.61800 22.55900
H  17.79800 -0.79600 22.33100
H  18.14700 -2.20700 21.37500
H  18.77600 -2.07400 23.04500
H  13.54100 -2.39100 23.90300
H  14.34100 -3.18900 22.56900
H  12.08900 -1.58600 22.10400
H  13.31900 -2.17500 20.98800
H  13.51500 -0.58500 21.76800
H  13.67800 3.07300 27.45400
H  13.16700 1.95900 26.09100
H  14.72300 2.76300 26.04600
H  15.09300 0.38000 31.71900
H  17.55200 2.75800 34.21100
H  16.25900 3.91000 34.14800
H  17.59400 3.85600 32.96500

