158

Mg 42.55300 41.45000 26.49900
C  41.58000 43.91900 28.91400
C  43.35800 39.36300 29.12400
C  43.84600 39.34900 24.24000
C  42.12100 43.91900 24.02100
N  42.56200 41.68400 28.78900
C  42.02600 42.69400 29.54600
C  41.94700 42.31000 31.07500
C  42.75100 41.02900 31.07400
C  42.89400 40.60000 29.58800
C  44.15100 41.11100 31.79200
C  40.41500 42.21500 31.41200
C  39.96700 43.18500 32.47600
H  39.14200 42.64200 33.63400
N  43.37900 39.56300 26.69200
C  43.70300 38.91300 27.86700
C  44.22000 37.55200 27.51100
C  44.34700 37.52500 26.07300
C  43.83500 38.86500 25.58700
C  44.60500 36.64900 28.60300
C  44.93200 36.43400 25.14500
O  44.93100 36.56500 23.93000
C  45.57500 35.25200 25.75200
N  42.90900 41.63600 24.47700
C  43.40400 40.56600 23.76100
C  43.49700 40.92000 22.26400
C  42.84600 42.36600 22.07400
C  42.62500 42.66200 23.60100
C  44.84400 40.77200 21.62900
C  41.46900 42.43400 21.41900
C  41.28900 43.70000 20.58300
N  42.07200 43.49300 26.46000
C  41.90400 44.38100 25.36700
C  41.32600 45.65500 25.80800
C  41.16400 45.48600 27.18600
C  41.64500 44.19800 27.54800
C  40.93300 46.83100 25.06300
C  40.71300 46.18100 28.35700
O  40.24400 47.34600 28.44300
C  40.92400 45.15300 29.53900
C  41.64600 45.82800 30.68400
O  42.85000 45.98400 30.73400
O  40.72900 46.41000 31.59900
C  41.31900 47.10100 32.80400
H  43.76400 38.70600 29.89600
H  44.28800 38.74300 23.44600
H  41.84300 44.57000 23.18900
H  42.49500 43.12100 31.55500
H  42.30900 40.20600 31.63500
H  43.88800 41.00100 32.84400
H  44.59100 42.07000 31.51800
H  44.87900 40.36400 31.47500
H  40.27800 41.27200 31.94100
H  39.68000 42.41100 30.63200
H  39.32600 43.87800 31.93200
H  40.76200 43.78100 32.92400
H  45.67900 36.50700 28.48200
H  44.06900 35.74000 28.32700
H  44.19800 36.83500 29.59700
H  45.67900 34.41200 25.06500
H  44.97700 34.85700 26.57400
H  46.48700 35.54800 26.27100
H  42.87700 40.20000 21.72900
H  43.49300 43.14500 21.67200
H  44.91800 39.83400 21.07800
H  45.72300 40.91600 22.25600
H  44.83600 41.53600 20.85200
H  40.65100 42.26200 22.11800
H  41.43600 41.60500 20.71200
H  42.18000 43.84200 19.97200
H  41.11400 44.58300 21.19800
H  40.49900 43.62900 19.83500
H  40.28100 46.63500 24.21100
H  41.88600 47.25900 24.75100
H  40.42500 47.49000 25.76700
H  39.92800 44.88500 29.89400
H  40.68600 47.98200 32.90600
H  42.30100 47.54900 32.64800
H  41.32400 46.35100 33.59600
Mg 6.39700 53.81000 42.00700
C  3.92900 51.46200 41.69300
C  8.64300 51.49000 40.62400
C  8.67900 56.28300 41.66600
C  4.09400 56.06600 42.94200
N  6.21800 51.81500 41.06700
C  5.10000 51.04100 41.04600
C  5.32100 49.76000 40.20200
C  6.90700 49.59100 40.36400
C  7.33200 51.05800 40.64900
C  7.52700 48.47800 41.35100
C  4.90300 49.78400 38.74800
C  4.09300 48.51100 38.25400
H  4.56700 47.83100 37.01600
N  8.38800 53.91100 41.41200
C  9.08700 52.79700 40.93200
C  10.41800 53.21300 40.74600
C  10.44900 54.64600 40.77100
C  9.15100 55.03700 41.23500
C  11.45900 52.26100 40.24200
C  11.69500 55.49100 40.27300
O  12.64200 54.91000 39.73600
C  11.60200 57.01800 40.31400
N  6.39300 55.93400 42.17600
C  7.45800 56.72100 42.10500
C  7.16300 58.25300 42.44400
C  5.62500 58.13400 42.68200
C  5.34100 56.66900 42.63700
C  8.01200 58.83600 43.61900
C  4.79700 58.91300 41.66100
C  4.37700 60.31900 42.20500
N  4.37300 53.82400 42.25300
C  3.56200 54.79900 42.81600
C  2.24500 54.26900 43.04300
C  2.43900 52.91900 42.68400
C  3.67800 52.73500 42.16800
C  1.02100 55.03800 43.56700
C  1.76700 51.63500 42.65400
O  0.66000 51.35600 43.03900
C  2.76000 50.55300 42.17600
C  2.22700 49.66700 41.12900
O  1.70100 50.04600 40.05900
O  2.40300 48.33600 41.40400
C  1.62100 47.30600 40.59500
H  9.32200 50.69100 40.31800
H  9.35000 57.12900 41.50200
H  3.39700 56.78300 43.38100
H  4.82500 48.92100 40.69100
H  7.30500 49.29100 39.39400
H  8.10500 47.79900 40.72500
H  6.82300 47.76200 41.77500
H  8.22200 48.89300 42.08100
H  5.72300 49.89600 38.03900
H  4.24400 50.65200 38.70800
H  3.07500 48.86800 38.09600
H  4.16400 47.67800 38.95300
H  11.95100 52.63100 39.34200
H  11.19100 51.20500 40.20300
H  12.20200 52.38200 41.03000
H  10.70300 57.44200 39.86800
H  12.46700 57.45400 39.81500
H  11.68200 57.35700 41.34700
H  7.47900 58.90000 41.62600
H  5.39400 58.37600 43.71900
H  7.37400 59.03300 44.48000
H  8.53900 59.77600 43.45400
H  8.71300 58.06600 43.94100
H  3.87700 58.35700 41.48000
H  5.33000 58.95300 40.71100
H  4.66000 60.65400 43.20200
H  3.29200 60.22900 42.15200
H  4.67100 61.16000 41.57600
H  0.52300 54.50300 44.37600
H  0.19800 54.83700 42.88000
H  1.22200 56.08800 43.77900
H  3.13700 49.95300 43.00400
H  0.68600 47.05300 41.09500
H  2.20500 46.38900 40.51500
H  1.30900 47.60400 39.59500

