158

Mg 36.37600 49.31100 24.73200
C  36.52500 47.56000 27.68100
C  34.79800 51.90600 26.29000
C  36.13000 50.91300 21.71200
C  37.60800 46.61100 23.04900
N  35.72800 49.64100 26.78500
C  35.91900 48.81100 27.84300
C  35.55300 49.55600 29.10500
C  34.86600 50.85800 28.60500
C  35.15900 50.81300 27.13900
C  33.35000 50.93100 28.93400
C  36.84500 49.81700 30.04000
C  36.70400 49.69900 31.59000
H  36.51000 51.00800 32.32400
N  35.69800 51.25300 24.11900
C  35.04500 52.15900 24.93700
C  34.63800 53.33600 24.19600
C  35.05800 53.08800 22.79000
C  35.65800 51.68900 22.77500
C  34.01700 54.56700 24.84000
C  34.94000 54.02400 21.60600
O  35.55600 53.87100 20.59400
C  34.09300 55.25400 21.67700
N  36.71100 48.82900 22.62400
C  36.66100 49.64300 21.60500
C  36.93200 49.00100 20.26300
C  37.64500 47.69800 20.67900
C  37.30200 47.69800 22.17200
C  35.57800 48.64700 19.57800
C  39.15100 47.83600 20.23200
C  39.43800 47.23700 18.90900
N  36.93000 47.43900 25.24900
C  37.44700 46.43000 24.43200
C  37.79200 45.34200 25.31800
C  37.43400 45.71800 26.59800
C  36.87200 46.97200 26.47200
C  38.44200 44.09800 24.76200
C  37.41400 45.27800 27.92300
O  37.79300 44.24300 28.46200
C  36.86400 46.53900 28.73000
C  35.67100 46.15500 29.56000
O  34.63300 45.71000 29.09200
O  36.00400 46.01800 30.86900
C  34.85300 45.62700 31.75500
H  34.22600 52.65600 26.84000
H  35.99700 51.41600 20.75200
H  38.04000 45.73800 22.55500
H  34.82400 48.96600 29.66000
H  35.34300 51.76200 28.98200
H  33.02900 51.86500 29.39400
H  33.00400 50.11800 29.57300
H  32.75100 50.92200 28.02400
H  37.04900 50.87400 29.86800
H  37.64800 49.13100 29.77000
H  37.64000 49.27800 31.95700
H  35.85800 49.03500 31.76700
H  32.95300 54.70100 24.64500
H  34.51100 55.43500 24.40400
H  34.27200 54.57400 25.90000
H  33.65800 55.42900 20.69300
H  34.75800 56.05500 21.99900
H  33.24000 55.15200 22.34700
H  37.50700 49.70900 19.66600
H  37.14100 46.82000 20.27600
H  34.80000 49.12000 20.17800
H  35.50200 47.56600 19.45800
H  35.55900 49.14400 18.60800
H  39.88200 47.54200 20.98600
H  39.40000 48.88900 20.10500
H  39.45700 48.06000 18.19500
H  38.73700 46.46000 18.60300
H  40.46200 46.86500 18.90600
H  39.43600 43.82700 25.11800
H  38.44400 44.06400 23.67200
H  37.87000 43.20700 25.02100
H  37.66700 46.86600 29.39100
H  33.96800 46.26100 31.70100
H  35.19400 45.67200 32.79000
H  34.59700 44.57600 31.62000
Mg 27.02100 51.27600 25.26000
C  25.08600 52.05200 28.09600
C  29.38700 49.99900 27.43400
C  28.92100 50.58900 22.52000
C  24.55800 52.48900 23.29600
N  27.25900 51.22900 27.57800
C  26.30300 51.48700 28.48600
C  26.77100 51.12400 29.90900
C  28.23200 50.64900 29.68300
C  28.37200 50.58700 28.15000
C  29.45100 51.46200 30.31500
C  25.93300 50.01400 30.56100
C  25.48600 50.24300 32.05800
H  26.54100 50.62300 33.12900
N  28.90000 50.59900 25.03900
C  29.67400 49.95500 26.01200
C  30.88200 49.43800 25.44900
C  30.81700 49.74600 24.04600
C  29.52300 50.42400 23.79400
C  31.93600 48.77200 26.22200
C  31.87100 49.47800 22.97900
O  31.83300 49.96900 21.88400
C  33.04800 48.64400 23.28700
N  26.83100 51.56900 23.16400
C  27.66900 51.06400 22.21800
C  27.18200 51.23500 20.81200
C  25.81000 51.95300 21.05800
C  25.63400 51.99200 22.60300
C  28.09300 51.99800 19.79400
C  24.54600 51.41000 20.29800
C  23.50800 50.50500 21.04400
N  25.21300 52.19900 25.57900
C  24.30500 52.57400 24.64500
C  23.16600 53.18300 25.32300
C  23.33600 52.92400 26.66500
C  24.68500 52.31000 26.78900
C  21.98900 53.80600 24.60100
C  22.83500 53.10500 28.01400
O  21.81500 53.63400 28.43800
C  23.87900 52.43600 29.01900
C  24.28800 53.40500 30.02100
O  25.20600 54.16500 29.86900
O  23.61100 53.13700 31.13600
C  24.07700 53.65000 32.41900
H  30.13200 49.57700 28.11100
H  29.50100 50.39800 21.61400
H  23.73700 52.88000 22.69200
H  26.77700 52.04000 30.49900
H  28.47700 49.62000 29.94400
H  30.12100 51.78400 29.51800
H  30.07400 50.75000 30.85700
H  29.01500 52.24300 30.93800
H  26.49200 49.08100 30.49900
H  25.07400 49.73200 29.95200
H  24.82400 49.41300 32.30400
H  24.81600 51.10100 32.00200
H  32.10900 47.72400 25.97600
H  31.74500 48.76500 27.29500
H  32.86100 49.30500 26.00200
H  33.77400 49.13500 23.93600
H  33.54500 48.28500 22.38600
H  32.69700 47.75500 23.81100
H  27.06800 50.22700 20.41300
H  25.82400 53.03100 20.89500
H  27.48000 52.71600 19.24900
H  28.44000 51.27200 19.05900
H  28.99600 52.44700 20.21000
H  24.90200 50.83300 19.44400
H  24.06400 52.29700 19.88500
H  23.90800 50.01500 21.93200
H  23.21100 49.76200 20.30400
H  22.59000 51.03300 21.30100
H  21.04800 53.77800 25.15100
H  21.83700 53.29300 23.65200
H  22.16500 54.86100 24.39200
H  23.47400 51.57000 29.54300
H  24.05500 52.88500 33.19400
H  23.42900 54.46200 32.75200
H  25.10000 54.02400 32.44100

