158

Mg 30.03900 58.26600 40.15600
C  27.35800 56.08500 39.07000
C  32.21900 56.09900 38.69600
C  32.23900 60.60200 40.36100
C  27.35800 60.63000 40.78600
N  29.79900 56.39600 38.87400
C  28.68600 55.64700 38.71900
C  29.04100 54.20100 38.14200
C  30.57300 54.20700 38.10500
C  30.91500 55.65200 38.70200
C  31.37500 52.98400 38.71500
C  28.32800 53.80600 36.80500
C  27.96300 55.03800 35.90900
H  28.21600 54.76400 34.44400
N  32.07100 58.27200 39.74600
C  32.77100 57.27400 39.22000
C  34.15000 57.63300 39.19500
C  34.23200 59.03100 39.52500
C  32.82900 59.38100 39.90600
C  35.15600 56.67500 38.73800
C  35.47600 59.96700 39.51800
O  36.50300 59.51000 39.10000
C  35.45300 61.33000 40.09600
N  29.75300 60.38500 40.33500
C  30.91700 61.03900 40.55200
C  30.60900 62.45600 41.26000
C  29.10400 62.41400 41.38400
C  28.66300 61.09000 40.77900
C  31.28100 62.68900 42.60400
C  28.42000 63.59500 40.65700
C  27.68400 64.64000 41.48500
N  27.82100 58.35800 40.15800
C  27.00900 59.34100 40.45300
C  25.58300 58.87100 40.28300
C  25.70800 57.54900 39.80300
C  27.08500 57.36500 39.64900
C  24.31300 59.71600 40.50600
C  24.89100 56.39600 39.33000
O  23.64700 56.30500 39.26100
C  26.03500 55.40200 38.89800
C  25.80100 54.17000 39.72000
O  25.41600 54.16200 40.88000
O  25.72200 53.08400 38.86900
C  24.96100 51.92100 39.43100
H  32.88200 55.31200 38.33000
H  32.87900 61.40100 40.74200
H  26.68100 61.43300 41.08300
H  28.74600 53.48200 38.90500
H  30.92100 54.25400 37.07400
H  31.80800 53.37200 39.63600
H  32.15200 52.60400 38.05100
H  30.86500 52.07900 39.04400
H  27.60300 52.99500 36.87800
H  29.17000 53.32300 36.30900
H  28.54400 55.91800 36.18800
H  26.89900 55.25100 36.00900
H  35.09200 56.83000 37.66100
H  34.89500 55.68200 39.10300
H  36.11000 56.93000 39.19900
H  36.42000 61.78100 39.87300
H  35.38800 61.13200 41.16600
H  34.66900 61.91400 39.61400
H  30.88100 63.27600 40.59500
H  28.69800 62.48000 42.39300
H  32.00400 61.89300 42.77900
H  30.61600 62.55500 43.45700
H  31.94300 63.55000 42.70000
H  27.75200 63.20900 39.88700
H  29.12700 64.19500 40.08400
H  27.92400 65.59800 41.02200
H  27.64900 64.54800 42.57000
H  26.63900 64.48600 41.21500
H  24.52800 60.26200 41.42500
H  23.36200 59.21400 40.68600
H  24.12000 60.43800 39.71300
H  26.00100 55.05000 37.86700
H  25.56500 51.39600 40.17100
H  24.80400 51.15900 38.66700
H  23.97400 52.08700 39.86300
Mg -2.40400 34.22200 27.74500
C  -4.20300 32.37600 30.02300
C  -0.86100 35.84500 30.38500
C  -0.90500 36.12300 25.45800
C  -4.29400 32.74800 25.14500
N  -2.61700 34.21500 29.94200
C  -3.34500 33.32300 30.63800
C  -2.96900 33.24700 32.10200
C  -2.01700 34.47500 32.20800
C  -1.84900 34.92700 30.72800
C  -2.49000 35.63900 33.06600
C  -2.36200 31.89100 32.68800
C  -3.08400 31.13900 33.91800
H  -2.32100 31.18300 35.27600
N  -1.09200 35.73200 27.87500
C  -0.53600 36.28500 29.06300
C  0.36600 37.36700 28.70800
C  0.37600 37.40200 27.30400
C  -0.56300 36.40500 26.79900
C  1.13300 38.13900 29.80400
C  1.27900 38.26000 26.43000
O  1.26200 38.12500 25.23600
C  2.23000 39.08400 27.04500
N  -2.74500 34.44100 25.67300
C  -1.98000 35.35200 24.95200
C  -2.28400 35.31500 23.45000
C  -3.30500 34.14100 23.33600
C  -3.45800 33.75600 24.80300
C  -2.88200 36.67600 22.96200
C  -2.90000 32.96200 22.37900
C  -1.98400 31.86300 22.84600
N  -3.92300 32.85000 27.61900
C  -4.52700 32.26600 26.48800
C  -5.39100 31.14000 26.94300
C  -5.34100 31.16100 28.35700
C  -4.45200 32.31900 28.66600
C  -6.22300 30.19800 26.04900
C  -5.66900 30.55300 29.62400
O  -6.33600 29.53200 29.92300
C  -5.04500 31.34400 30.72000
C  -6.09200 31.83800 31.66300
O  -6.81600 32.75600 31.49200
O  -6.19000 30.98800 32.79000
C  -7.21600 31.36300 33.72400
H  -0.41400 36.37800 31.22700
H  -0.53600 36.74700 24.64100
H  -4.78000 32.18200 24.34700
H  -3.94500 33.47300 32.53300
H  -1.05000 34.11100 32.55700
H  -1.74100 36.30300 33.49800
H  -3.02200 35.18700 33.90200
H  -3.15500 36.26100 32.46700
H  -1.36300 32.16800 33.02400
H  -2.25500 31.09900 31.94700
H  -3.17500 30.11100 33.56900
H  -4.04300 31.61500 34.12400
H  2.16100 37.78600 29.72800
H  0.80800 38.05500 30.84100
H  0.99300 39.16800 29.47200
H  2.74000 38.57600 27.86400
H  1.86400 40.01500 27.47900
H  3.04000 39.14200 26.31800
H  -1.38800 35.14400 22.85400
H  -4.26400 34.50500 22.96700
H  -2.59600 37.49800 23.61800
H  -3.97100 36.64400 23.01100
H  -2.51400 36.90500 21.96200
H  -2.39100 33.47300 21.56200
H  -3.77600 32.53000 21.89600
H  -1.14400 31.60700 22.19900
H  -2.53000 30.92100 22.88100
H  -1.53100 32.05900 23.81700
H  -5.74700 30.00500 25.08700
H  -7.22700 30.52000 25.77300
H  -6.31200 29.24100 26.56300
H  -4.44800 30.71700 31.38200
H  -8.01500 31.88300 33.19700
H  -6.79800 31.91600 34.56600
H  -7.68500 30.50900 34.21300

