158

Mg 24.20600 -6.07900 44.78400
C  26.50200 -3.68500 43.59200
C  21.69600 -4.54500 43.27600
C  22.30800 -8.83900 45.40000
C  27.04200 -7.61700 46.35000
N  24.17900 -4.36000 43.44500
C  25.19100 -3.48700 43.11500
C  24.69300 -2.39700 42.12400
C  23.13000 -2.62500 42.35100
C  22.94500 -3.92800 43.08400
C  22.42300 -1.50300 43.15300
C  25.26600 -2.64100 40.68200
C  25.44800 -1.37000 39.77400
H  24.73900 -1.35200 38.36600
N  22.26500 -6.58000 44.34200
C  21.38800 -5.80000 43.76700
C  20.07900 -6.39500 43.69400
C  20.29500 -7.68000 44.29500
C  21.67700 -7.74400 44.71000
C  18.86100 -5.70200 43.09400
C  19.16000 -8.81000 44.39400
O  18.04500 -8.69200 43.84900
C  19.41600 -10.10100 45.20400
N  24.62400 -7.92300 45.62200
C  23.62200 -8.86600 45.81200
C  24.20600 -10.14200 46.38100
C  25.55600 -9.65100 47.02700
C  25.79900 -8.32200 46.24200
C  23.32800 -10.88900 47.44800
C  26.75600 -10.65200 46.97900
C  27.35600 -10.91000 48.35600
N  26.39800 -5.69100 45.10700
C  27.36900 -6.35100 45.74900
C  28.59800 -5.72200 45.63400
C  28.29700 -4.59900 44.78100
C  26.92500 -4.59900 44.51900
C  29.98700 -6.22300 46.05400
C  28.90100 -3.56300 44.02700
O  30.05300 -3.17200 44.02700
C  27.79800 -2.86200 43.28000
C  27.67600 -1.43700 43.73200
O  27.49600 -1.06200 44.86400
O  27.78300 -0.61100 42.65200
C  27.77900 0.80200 43.00100
H  20.85600 -4.01800 42.81800
H  21.76800 -9.76700 45.60100
H  27.80000 -8.06000 47.00000
H  25.14800 -1.48600 42.51200
H  22.63000 -2.63100 41.38300
H  23.07900 -0.63400 43.21100
H  22.20800 -1.85200 44.16300
H  21.48100 -1.14200 42.74100
H  24.48500 -3.20800 40.17600
H  26.17800 -3.23900 40.67900
H  26.52200 -1.30100 39.59700
H  25.22200 -0.43300 40.28200
H  19.06000 -5.20700 42.14300
H  18.53400 -4.99900 43.86000
H  18.03400 -6.37300 42.86500
H  18.54800 -10.74800 45.33100
H  19.76400 -9.67400 46.14400
H  20.23600 -10.71000 44.82400
H  24.52300 -10.81800 45.58600
H  25.50300 -9.22900 48.03100
H  22.55000 -10.23200 47.83500
H  23.90600 -11.25700 48.29600
H  22.85600 -11.72500 46.93300
H  27.55100 -10.35400 46.29500
H  26.34100 -11.61300 46.67400
H  27.53400 -11.98400 48.40900
H  26.60700 -10.68900 49.11700
H  28.25700 -10.33100 48.55500
H  30.44300 -6.62500 45.14900
H  29.89300 -7.00200 46.81000
H  30.68400 -5.46700 46.41700
H  28.05500 -2.81400 42.22200
H  28.80900 1.08900 43.21500
H  27.09700 1.08500 43.80200
H  27.49100 1.32200 42.08700
Mg -5.29100 24.99500 26.01400
C  -3.71000 26.32600 28.93000
C  -7.15200 23.14700 28.18800
C  -6.30800 23.34600 23.29700
C  -3.10600 26.91600 24.11500
N  -5.26900 24.67500 28.30500
C  -4.65600 25.39300 29.24200
C  -5.05300 25.05200 30.65300
C  -6.02200 23.83800 30.40100
C  -6.18700 23.85600 28.88800
C  -5.48400 22.45100 30.87400
C  -5.79400 26.32900 31.25300
C  -5.62700 26.51200 32.70600
H  -6.67800 25.79600 33.54400
N  -6.56200 23.44000 25.78000
C  -7.22300 22.82700 26.80900
C  -8.03500 21.80300 26.20000
C  -7.86400 21.91400 24.77900
C  -6.87600 22.91100 24.52400
C  -8.92500 20.88700 27.02300
C  -8.51300 21.21700 23.66300
O  -8.33600 21.48400 22.49700
C  -9.53300 20.14500 24.01900
N  -4.68400 25.08000 23.94000
C  -5.31600 24.35300 23.02100
C  -4.86700 24.75100 21.57800
C  -3.90000 25.94800 21.85100
C  -3.92400 26.00600 23.37100
C  -4.29600 23.53400 20.81700
C  -4.25300 27.27600 21.22200
C  -3.43200 27.53400 19.94500
N  -3.81000 26.46200 26.37600
C  -2.93700 27.04800 25.50300
C  -2.04300 28.01100 26.21100
C  -2.25800 27.72800 27.55000
C  -3.31700 26.72800 27.59700
C  -1.05900 28.99300 25.66200
C  -1.90600 28.02900 28.92900
O  -1.07500 28.79100 29.41400
C  -2.74100 27.08200 29.84600
C  -1.69900 26.27600 30.62600
O  -1.30300 25.15600 30.36400
O  -1.57100 26.86000 31.84500
C  -1.03100 26.00800 32.95600
H  -7.88200 22.60500 28.79400
H  -6.56700 22.92500 22.32400
H  -2.56100 27.69600 23.57800
H  -4.14500 24.80200 31.20200
H  -6.97700 24.10200 30.85500
H  -4.55200 22.73600 31.36200
H  -5.23200 21.81200 30.02800
H  -6.23300 22.06800 31.56700
H  -6.86800 26.24600 31.08900
H  -5.52600 27.26500 30.76300
H  -5.76700 27.56700 32.94200
H  -4.60900 26.26900 33.00900
H  -9.97900 20.96100 26.75400
H  -8.71200 21.01400 28.08400
H  -8.70900 19.86300 26.72000
H  -10.14400 19.77100 23.19700
H  -10.24800 20.62900 24.68400
H  -9.00000 19.38600 24.59200
H  -5.72700 25.02800 20.96800
H  -2.87000 25.70000 21.59300
H  -4.98500 22.97000 20.18900
H  -4.02900 22.80300 21.58000
H  -3.40500 23.90200 20.30700
H  -4.03300 28.19400 21.76500
H  -5.26400 27.35000 20.82000
H  -4.04600 27.67700 19.05600
H  -2.70700 26.76300 19.68600
H  -2.81300 28.42900 20.00300
H  -1.29700 29.23100 24.62500
H  -0.07300 28.58200 25.87900
H  -1.10900 29.89600 26.27100
H  -3.17600 27.71100 30.62300
H  -0.60400 25.05100 32.65500
H  -1.85700 25.69900 33.59600
H  -0.26100 26.49400 33.55500

