158

Mg 1.84900 -1.32500 44.32600
C  5.19300 -0.19600 44.16900
C  0.89800 1.79000 43.25500
C  -1.28700 -2.40500 44.22500
C  2.92000 -4.51600 45.21500
N  2.94900 0.51400 43.70000
C  4.31700 0.82500 43.78700
C  4.59400 2.22100 43.16300
C  3.20900 2.94200 43.08600
C  2.32000 1.69100 43.33300
C  2.93900 4.07400 44.20000
C  5.24100 2.02700 41.79200
C  6.48500 2.93200 41.55900
H  7.55700 2.21100 40.79500
N  0.06500 -0.48000 43.64900
C  -0.14800 0.83200 43.33700
C  -1.52600 1.05100 43.10100
C  -2.20800 -0.17600 43.29100
C  -1.11800 -1.10000 43.76300
C  -2.03500 2.35700 42.68600
C  -3.66900 -0.51400 43.05000
O  -4.41100 0.35300 42.65900
C  -4.21100 -1.84700 43.29200
N  0.96600 -3.20300 44.50500
C  -0.40400 -3.32300 44.67500
C  -0.76600 -4.72400 44.96000
C  0.54300 -5.23800 45.58500
C  1.59900 -4.29500 45.02000
C  -2.11000 -4.98300 45.72900
C  0.76400 -6.73600 45.30900
C  1.16300 -7.70300 46.45000
N  3.63400 -2.19500 44.75300
C  3.89700 -3.54900 44.95200
C  5.30700 -3.59900 45.21600
C  5.86900 -2.38000 44.87400
C  4.81600 -1.55400 44.52800
C  5.99100 -4.77700 45.80300
C  7.18800 -1.58000 44.87100
O  8.34500 -1.94300 45.08300
C  6.68000 -0.09000 44.32900
C  7.17900 0.85000 45.37600
O  6.63500 1.05000 46.43800
O  8.24100 1.49000 44.84600
C  8.45700 2.77900 45.37300
H  0.52500 2.79500 43.04900
H  -2.25200 -2.91500 44.19100
H  3.18100 -5.50800 45.58800
H  5.18600 2.83100 43.84500
H  2.94900 3.41300 42.13800
H  3.79200 4.34300 44.82300
H  2.06600 3.75900 44.77200
H  2.54400 4.93200 43.65500
H  4.54400 2.17500 40.96700
H  5.52500 0.97700 41.72500
H  6.79900 3.36100 42.51100
H  6.21000 3.80700 40.97000
H  -3.06300 2.54500 42.99400
H  -1.86000 2.62700 41.64500
H  -1.61400 3.18500 43.25800
H  -3.78600 -2.68300 42.73700
H  -5.28200 -1.96300 43.12400
H  -4.12200 -2.11500 44.34500
H  -0.84000 -5.09900 43.93900
H  0.29700 -5.09200 46.63700
H  -2.70500 -4.11800 46.02000
H  -1.96700 -5.56600 46.63900
H  -2.81800 -5.37600 45.00000
H  1.60300 -6.89000 44.63000
H  -0.21400 -7.08100 44.97300
H  1.00200 -7.15800 47.38000
H  2.23500 -7.89900 46.43700
H  0.76500 -8.71700 46.39900
H  6.49300 -5.30300 44.99100
H  5.32800 -5.47600 46.31200
H  6.81400 -4.58600 46.49100
H  7.15900 0.16400 43.38300
H  7.49100 3.22800 45.60500
H  8.93600 3.43000 44.64200
H  8.93000 2.79000 46.35500
Mg 26.44100 49.11600 26.91300
C  24.35600 50.27900 29.48500
C  28.81400 48.38800 29.27900
C  28.50100 48.23700 24.42200
C  24.06600 50.43900 24.58400
N  26.56200 49.28400 29.15300
C  25.55100 49.65300 29.96700
C  25.91700 49.40900 31.44500
C  27.44900 49.01000 31.40000
C  27.64800 48.85700 29.83800
C  28.39600 50.04300 32.07400
C  25.07600 48.26000 32.12600
C  24.72800 48.18200 33.64800
H  25.55200 49.02100 34.58400
N  28.38400 48.36600 26.83000
C  29.18600 48.12500 27.91300
C  30.46100 47.60900 27.46700
C  30.42700 47.66500 26.02800
C  29.02600 48.10500 25.68100
C  31.47700 46.98000 28.43900
C  31.46500 47.26800 25.00500
O  31.28800 47.48400 23.81100
C  32.68500 46.73200 25.57100
N  26.26800 49.36200 24.82000
C  27.21100 48.76200 24.04600
C  26.66000 48.77500 22.62700
C  25.22900 49.40800 22.67100
C  25.14600 49.73800 24.11300
C  27.58600 49.47300 21.59000
C  23.99900 48.44200 22.28900
C  22.92000 49.19000 21.42600
N  24.63700 50.20900 26.95000
C  23.79300 50.65200 25.95800
C  22.75900 51.42900 26.52300
C  22.95400 51.33300 27.92700
C  24.11100 50.59200 28.13100
C  21.68900 52.29900 25.76000
C  22.39700 51.71100 29.18100
O  21.48900 52.49100 29.45400
C  23.24700 50.92200 30.32600
C  23.77400 51.89900 31.35900
O  24.72500 52.62100 31.24300
O  23.08700 51.62300 32.53300
C  23.17400 52.73600 33.39300
H  29.55500 48.22300 30.06300
H  28.98200 47.65800 23.63000
H  23.38500 50.85400 23.83800
H  25.78600 50.34500 31.98700
H  27.62400 48.01500 31.80700
H  29.07300 50.44200 31.31800
H  29.04500 49.51400 32.77200
H  27.94100 50.76800 32.74900
H  25.65400 47.35200 31.95500
H  24.14700 48.32700 31.56000
H  24.83100 47.15500 33.99800
H  23.69200 48.47400 33.82000
H  31.37100 47.20200 29.50100
H  32.48100 47.34700 28.22800
H  31.59200 45.89700 28.38800
H  33.20000 46.51400 24.63500
H  32.56300 45.74100 26.00800
H  33.09100 47.44200 26.29100
H  26.57300 47.72700 22.33900
H  25.35800 50.36700 22.17000
H  28.44700 49.92100 22.08600
H  27.19300 50.26200 20.94900
H  27.83400 48.79600 20.77300
H  23.51700 48.08300 23.19800
H  24.24900 47.61000 21.63100
H  23.30600 50.18300 21.19800
H  21.97400 49.24500 21.96600
H  22.72800 48.57500 20.54600
H  22.15300 52.46400 24.78800
H  21.66300 53.24900 26.29300
H  20.79600 51.68000 25.67100
H  22.71700 50.09000 30.79100
H  23.42500 53.72000 32.99600
H  23.77400 52.46600 34.26200
H  22.17000 52.95700 33.75400

