158

Mg 16.39300 -1.68200 28.10600
C  15.61400 0.61000 30.80600
C  18.21700 -3.55300 30.17700
C  17.45900 -3.29300 25.39600
C  14.66200 0.65000 26.05100
N  17.03200 -1.38100 30.19000
C  16.40000 -0.57300 31.17800
C  16.86200 -0.99300 32.48100
C  17.75100 -2.24300 32.34100
C  17.64200 -2.43900 30.78900
C  19.26600 -2.07100 32.75900
C  15.73500 -1.16700 33.48300
C  15.87300 -0.52700 34.85400
H  17.18400 0.06200 35.26900
N  17.53000 -3.26000 27.86300
C  18.16400 -3.96800 28.82600
C  18.85100 -5.10900 28.26500
C  18.63300 -5.11500 26.81300
C  17.80200 -3.86500 26.64200
C  19.61000 -6.05500 29.10200
C  18.98100 -6.06500 25.64400
O  18.47100 -5.89200 24.54700
C  19.96300 -7.14800 25.86600
N  15.85100 -1.54400 25.94600
C  16.61900 -2.23600 25.02400
C  16.35100 -1.69200 23.62300
C  15.28200 -0.57600 23.87400
C  15.21200 -0.47500 25.35700
C  17.47400 -1.22600 22.68300
C  13.85800 -0.91400 23.33300
C  13.31400 -0.03500 22.14000
N  15.27000 0.18800 28.30900
C  14.61700 0.91300 27.42700
C  13.95300 2.04400 28.06300
C  14.31100 1.88800 29.42600
C  15.13500 0.77500 29.49300
C  13.26600 3.13600 27.45100
C  14.09900 2.53500 30.69600
O  13.51900 3.54100 31.03500
C  14.86400 1.57800 31.72400
C  15.75700 2.53900 32.55800
O  16.81500 3.02600 32.14900
O  15.07700 2.84300 33.64400
C  15.58500 4.00500 34.34300
H  18.53100 -4.31200 30.89700
H  17.91200 -3.77100 24.52500
H  14.11500 1.35100 25.41600
H  17.47100 -0.17900 32.87400
H  17.34500 -3.10500 32.87100
H  19.84000 -2.25500 31.85100
H  19.50100 -2.78300 33.55000
H  19.56300 -1.10600 33.16900
H  15.55400 -2.24000 33.55400
H  14.85100 -0.78800 32.96900
H  15.61000 -1.37300 35.48900
H  15.21700 0.34300 34.86300
H  19.83200 -6.98200 28.57400
H  19.02800 -6.28300 29.99500
H  20.52500 -5.59000 29.46800
H  20.88200 -6.75100 26.29600
H  19.99000 -7.62700 24.88700
H  19.34200 -7.77500 26.50700
H  15.97000 -2.59000 23.13600
H  15.69800 0.39100 23.59300
H  18.33500 -0.74200 23.14300
H  17.20900 -0.50100 21.91300
H  17.75900 -2.14900 22.17800
H  13.08000 -0.97100 24.09500
H  13.91200 -1.91900 22.91300
H  12.25400 0.15200 22.31300
H  13.42800 -0.56200 21.19300
H  13.82000 0.92600 22.04300
H  13.84000 3.52500 26.61000
H  13.18400 3.90300 28.22100
H  12.30100 2.74400 27.12900
H  14.09000 1.13600 32.35300
H  14.90300 4.83200 34.14700
H  16.51500 4.50800 34.07800
H  15.58200 3.87300 35.42500
Mg -2.10000 33.87400 27.48800
C  -3.98000 32.11300 30.05700
C  -0.82300 35.86700 29.72100
C  -0.63300 35.46700 24.92100
C  -3.66700 31.73800 25.08800
N  -2.21800 33.72400 29.65400
C  -2.98000 32.98900 30.53000
C  -2.84800 33.51400 31.96000
C  -2.20300 34.90300 31.71300
C  -1.64900 34.84300 30.23600
C  -3.09900 36.15900 32.02000
C  -2.05400 32.48000 32.86500
C  -2.64800 32.19900 34.24300
H  -1.81900 32.45900 35.59400
N  -0.81600 35.39400 27.34800
C  -0.39500 36.05200 28.40400
C  0.56300 37.01800 28.00700
C  0.73100 36.95500 26.60900
C  -0.29800 35.91800 26.23000
C  1.24600 37.94600 28.93500
C  1.54700 37.69600 25.69000
O  1.49000 37.60300 24.44900
C  2.70900 38.63500 26.22200
N  -2.24100 33.66400 25.27100
C  -1.50900 34.44900 24.50400
C  -1.52300 33.94100 22.98700
C  -2.25400 32.57900 23.09800
C  -2.76100 32.68500 24.52600
C  -2.17900 34.93000 21.95300
C  -1.33800 31.32700 22.87600
C  -2.09000 30.14700 22.18700
N  -3.58300 32.35200 27.48800
C  -4.15400 31.59900 26.44100
C  -5.01900 30.62300 26.95900
C  -5.07000 30.85700 28.37200
C  -4.16700 31.85400 28.66900
C  -5.78200 29.51500 26.25800
C  -5.65400 30.36700 29.61600
O  -6.41200 29.44300 29.83300
C  -4.91200 31.14300 30.73400
C  -5.84900 31.79600 31.66500
O  -6.51100 32.75900 31.41700
O  -5.84800 31.14800 32.86000
C  -6.73100 31.73500 33.89700
H  -0.38900 36.44400 30.54100
H  -0.09100 35.99400 24.13200
H  -4.01100 30.90400 24.47300
H  -3.83200 33.73800 32.37100
H  -1.28600 35.13700 32.25500
H  -3.04100 36.83600 31.16700
H  -2.61200 36.67000 32.85000
H  -4.12200 35.87500 32.26600
H  -1.02100 32.83000 32.84700
H  -2.10100 31.51900 32.35200
H  -2.90200 31.13900 34.24100
H  -3.52500 32.84100 34.32500
H  1.23800 37.61400 29.97300
H  0.62500 38.82500 28.76200
H  2.24500 38.21100 28.58900
H  3.42500 39.00800 25.48800
H  3.20500 38.14100 27.05700
H  2.29300 39.57900 26.57500
H  -0.49800 33.87900 22.62100
H  -3.06700 32.51000 22.37500
H  -3.05300 34.54000 21.43100
H  -1.41800 35.31100 21.27200
H  -2.47800 35.74700 22.61000
H  -1.06400 30.99300 23.87700
H  -0.40900 31.44100 22.31700
H  -1.70100 29.86000 21.20900
H  -3.17500 30.24300 22.20800
H  -2.02500 29.27500 22.83800
H  -5.81400 29.65300 25.17700
H  -6.82700 29.54700 26.56700
H  -5.35600 28.56600 26.58300
H  -4.35700 30.42900 31.34200
H  -7.37200 32.56700 33.60600
H  -6.02800 32.21900 34.57500
H  -7.27400 30.90100 34.34100

