158

Mg 34.96400 49.04700 25.41800
C  34.89000 47.37400 28.47000
C  33.81800 51.88500 27.00800
C  34.53700 50.35100 22.40000
C  36.08800 46.11500 23.88200
N  34.61200 49.56600 27.54800
C  34.65400 48.78100 28.60900
C  34.50600 49.51200 29.98800
C  33.98000 50.89200 29.41200
C  34.13800 50.78100 27.84600
C  32.56400 51.34400 29.90500
C  35.81700 49.63500 30.82800
C  35.66600 49.90700 32.32400
H  34.32200 49.95900 33.01300
N  34.35500 50.88800 24.81900
C  33.94200 51.93400 25.60100
C  33.48500 53.04500 24.80300
C  33.72100 52.67800 23.43700
C  34.26000 51.22700 23.49100
C  32.88500 54.35000 25.33000
C  33.63700 53.53800 22.15500
O  34.05100 53.06300 21.07300
C  33.12000 54.93400 22.07800
N  35.08200 48.22200 23.48300
C  35.01400 49.04100 22.39700
C  35.18500 48.32300 21.02900
C  35.86700 47.05900 21.52700
C  35.74500 47.13700 23.05600
C  33.86000 48.06800 20.15200
C  37.29000 46.79300 20.93700
C  38.47300 47.34600 21.78800
N  35.48800 47.16000 26.01700
C  35.96200 46.01300 25.26000
C  36.18900 44.93000 26.14500
C  35.77600 45.42200 27.41900
C  35.32000 46.73800 27.30300
C  36.64600 43.50700 25.78600
C  35.52900 44.96600 28.78600
O  35.77300 43.95700 29.48000
C  34.97300 46.27700 29.51900
C  33.74600 45.87500 30.27100
O  32.64000 45.80200 29.78400
O  34.03000 45.59800 31.63100
C  32.92800 45.04700 32.44800
H  33.46800 52.76600 27.55000
H  34.35100 50.85100 21.44700
H  36.45700 45.25800 23.31500
H  33.71700 49.06700 30.59400
H  34.59200 51.73600 29.73200
H  32.23500 50.51900 30.53700
H  31.89600 51.52500 29.06300
H  32.58700 52.24000 30.52600
H  36.54100 50.36200 30.46200
H  36.40800 48.72700 30.70800
H  36.21800 50.82600 32.52200
H  36.24000 49.16300 32.87700
H  32.67700 54.52700 26.38500
H  31.96900 54.44400 24.74600
H  33.53600 55.15900 24.99700
H  33.73200 55.59400 22.69500
H  32.05800 54.89400 22.31900
H  33.10200 55.36400 21.07700
H  35.79300 48.86100 20.30100
H  35.22400 46.21100 21.29200
H  33.48500 47.04900 20.05600
H  34.02700 48.37300 19.11900
H  33.03000 48.51100 20.70300
H  37.38600 47.32900 19.99200
H  37.44700 45.73000 20.75500
H  39.07900 46.50500 22.12600
H  38.30100 47.92200 22.69700
H  39.06900 47.91200 21.07200
H  37.30600 43.52000 24.91900
H  35.78600 42.87500 25.56700
H  37.27100 43.13500 26.59800
H  35.69200 46.59600 30.27300
H  32.18900 44.47600 31.88700
H  32.41300 45.95100 32.77300
H  33.23100 44.38300 33.25800
Mg -11.45900 17.16700 42.83400
C  -8.10600 17.46700 43.15800
C  -11.72900 20.52600 42.09400
C  -14.83800 16.75600 42.13800
C  -11.03200 13.70100 42.90600
N  -10.09300 18.68800 42.54600
C  -8.74500 18.61100 42.76500
C  -8.03300 19.89200 42.24300
C  -9.18600 20.88900 42.03000
C  -10.43800 20.04900 42.27800
C  -9.16100 22.21600 42.91600
C  -7.10800 19.62000 41.03600
C  -5.63000 20.15700 41.10000
H  -5.15700 21.01000 39.96900
N  -13.04700 18.51200 42.47000
C  -12.96500 19.88400 42.23400
C  -14.25400 20.45600 42.03500
C  -15.15900 19.38700 42.07700
C  -14.34700 18.10900 42.15000
C  -14.46300 21.87500 41.57300
C  -16.69800 19.54100 41.96900
O  -17.28200 20.60500 41.77100
C  -17.70500 18.35700 42.13400
N  -12.79800 15.52100 42.56400
C  -14.13300 15.59900 42.46400
C  -14.77400 14.20500 42.67600
C  -13.50700 13.31600 42.31200
C  -12.34400 14.22200 42.49500
C  -15.27500 14.01100 44.17500
C  -13.38500 12.72400 40.85400
C  -13.58100 11.23200 40.83000
N  -9.86100 15.76200 42.84300
C  -9.86900 14.41700 42.97300
C  -8.55100 13.91100 43.18900
C  -7.80700 15.08300 43.34100
C  -8.65700 16.17400 43.09400
C  -8.01200 12.53600 43.21500
C  -6.46000 15.59200 43.49600
O  -5.42300 14.99100 43.56900
C  -6.59700 17.15400 43.44600
C  -6.21500 17.76100 44.75300
O  -6.66300 17.39400 45.82800
O  -5.30500 18.72000 44.59400
C  -4.92600 19.51400 45.71700
H  -11.78900 21.61100 41.98800
H  -15.89200 16.58000 41.91300
H  -10.83600 12.63100 43.00000
H  -7.42200 20.35000 43.02100
H  -9.29400 21.16800 40.98200
H  -9.64400 22.93200 42.25100
H  -8.16000 22.60000 43.11200
H  -9.71100 22.15200 43.85500
H  -7.62500 19.96000 40.13800
H  -7.00100 18.53900 40.94400
H  -5.04600 19.23700 41.13700
H  -5.59500 20.75100 42.01300
H  -13.57900 22.50100 41.45300
H  -15.16700 22.41700 42.20500
H  -14.92900 21.79600 40.59100
H  -17.77400 17.80000 41.20000
H  -18.69900 18.74200 42.36100
H  -17.27500 17.79600 42.96400
H  -15.52800 14.02700 41.90900
H  -13.48500 12.47600 43.00600
H  -15.37000 15.01400 44.59000
H  -14.65800 13.29900 44.72300
H  -16.24800 13.51900 44.17200
H  -12.42600 12.80400 40.34300
H  -14.17700 13.25700 40.32800
H  -14.01000 10.74200 41.70400
H  -12.62900 10.76500 40.58000
H  -14.33700 11.15700 40.04800
H  -6.92600 12.53700 43.11500
H  -8.44300 12.07400 42.32700
H  -8.30100 12.21500 44.21600
H  -5.85400 17.41800 42.69300
H  -5.63800 20.33800 45.76900
H  -4.05500 20.09200 45.40900
H  -4.74400 19.12500 46.71800

