158

Mg 26.50000 -0.44200 29.11800
C  28.12900 -0.89700 32.12300
C  23.53000 -0.60000 30.87100
C  24.77100 -0.21900 26.17200
C  29.25900 -1.06200 27.37100
N  25.94800 -0.72000 31.22300
C  26.80100 -0.76500 32.31200
C  26.11600 -0.79200 33.70600
C  24.57400 -0.67900 33.25000
C  24.67300 -0.62200 31.69000
C  23.68200 -1.79000 33.84800
C  26.49100 0.33100 34.68500
C  25.67200 0.38000 35.99100
H  26.47100 0.22800 37.27000
N  24.50500 -0.25500 28.63400
C  23.41300 -0.43800 29.48900
C  22.14500 -0.27500 28.75200
C  22.45400 0.01600 27.37800
C  24.00900 -0.15700 27.35200
C  20.77100 -0.43900 29.39600
C  21.49300 0.30600 26.19500
O  21.85100 0.48200 25.02700
C  20.06000 0.34900 26.44500
N  26.96600 -0.75700 27.07000
C  26.15100 -0.39900 26.05900
C  26.85900 -0.23600 24.71500
C  28.36800 -0.40000 25.10100
C  28.22000 -0.69600 26.62400
C  26.26900 -1.36600 23.69700
C  29.31800 0.84900 24.91100
C  30.76200 0.62400 24.65600
N  28.32900 -0.87500 29.59100
C  29.36100 -1.12300 28.76800
C  30.53700 -1.45400 29.51500
C  30.10300 -1.35500 30.87600
C  28.75900 -0.97800 30.87300
C  31.91000 -1.76400 28.94400
C  30.54200 -1.46300 32.19700
O  31.67800 -1.63700 32.70500
C  29.30200 -1.09400 33.13200
C  29.08800 -2.25300 34.04900
O  28.68900 -3.38100 33.76800
O  29.40800 -1.82300 35.29700
C  29.19800 -2.82500 36.43900
H  22.62000 -0.58300 31.47400
H  24.15800 -0.16200 25.27000
H  30.20200 -1.20300 26.83900
H  26.34800 -1.75300 34.16600
H  24.12500 0.29100 33.46300
H  23.55700 -2.53200 33.05900
H  22.72900 -1.33200 34.11200
H  24.13500 -2.14100 34.77600
H  26.59500 1.38200 34.41400
H  27.55000 0.14300 34.86600
H  24.81200 -0.29000 36.01000
H  25.16900 1.33400 36.15000
H  20.14600 -1.11700 28.81400
H  20.22400 0.50400 29.43200
H  21.00100 -0.89700 30.35800
H  19.62700 0.79000 25.54700
H  20.01700 1.11800 27.21600
H  19.47400 -0.55300 26.62300
H  26.61100 0.78400 24.42100
H  28.88700 -1.25500 24.66700
H  25.90900 -2.11100 24.40600
H  27.08600 -1.83100 23.14500
H  25.39500 -1.01300 23.14900
H  29.42100 1.47700 25.79600
H  29.08500 1.54300 24.10400
H  31.34800 1.36100 25.20600
H  31.06500 0.80100 23.62400
H  31.07700 -0.41900 24.69600
H  32.11400 -1.51600 27.90300
H  32.03700 -2.83700 29.08900
H  32.70500 -1.33300 29.55200
H  29.56500 -0.20200 33.70000
H  29.53800 -3.80200 36.09500
H  28.17100 -2.94300 36.78500
H  29.87900 -2.79300 37.29000
Mg 0.17700 43.47400 25.51700
C  2.37400 43.05500 28.22600
C  -2.51400 42.91100 27.70300
C  -2.01600 43.36100 22.98800
C  2.81900 43.92900 23.40300
N  0.03500 43.09300 27.64400
C  0.98500 43.10000 28.56900
C  0.43700 42.97700 30.00700
C  -0.99500 42.54900 29.76700
C  -1.19100 42.94000 28.30900
C  -1.31800 41.02800 30.01300
C  0.44600 44.29500 30.87500
C  -0.14100 44.22800 32.32000
H  -0.14500 42.74900 32.93300
N  -1.98300 43.07800 25.35700
C  -2.88400 42.87600 26.37900
C  -4.25500 42.78600 25.86300
C  -4.12900 42.87000 24.44600
C  -2.69300 43.09600 24.18400
C  -5.43200 42.47900 26.72100
C  -5.22100 42.75600 23.43800
O  -5.00400 43.00600 22.26600
C  -6.63500 42.41600 23.86000
N  0.37500 43.54500 23.50300
C  -0.70000 43.52200 22.66400
C  -0.12500 43.55600 21.26400
C  1.31300 43.97500 21.38200
C  1.53800 43.73500 22.83900
C  -0.36400 42.12100 20.64800
C  1.63100 45.42000 20.93900
C  1.01800 46.58800 21.71700
N  2.21300 43.44800 25.72900
C  3.20400 43.70200 24.78200
C  4.55700 43.46200 25.40300
C  4.21800 43.29400 26.76300
C  2.79300 43.36100 26.90200
C  5.89900 43.31400 24.79200
C  4.76400 42.99300 28.02800
O  5.94100 42.71300 28.37700
C  3.66100 43.04300 29.05200
C  3.65600 41.86900 29.89300
O  3.59600 40.71200 29.51900
O  3.93300 42.34500 31.15700
C  4.23700 41.27400 32.09900
H  -3.26700 42.74900 28.47700
H  -2.61800 43.23400 22.08600
H  3.64900 44.13200 22.72300
H  0.97000 42.20200 30.55800
H  -1.71600 43.20300 30.25800
H  -1.53600 40.50500 29.08200
H  -2.14700 40.89700 30.70800
H  -0.38300 40.59700 30.37200
H  -0.03100 45.10700 30.32600
H  1.44400 44.72300 30.96200
H  -1.09800 44.74400 32.39700
H  0.42500 44.85500 33.00900
H  -5.92400 43.35000 27.15400
H  -4.97200 41.90700 27.52600
H  -6.03600 41.67100 26.30700
H  -7.04400 43.01900 24.67100
H  -6.60600 41.38200 24.20500
H  -7.30000 42.52200 23.00300
H  -0.73500 44.27100 20.71300
H  1.99800 43.28000 20.89700
H  0.57500 41.57200 20.57700
H  -0.82000 42.24100 19.66500
H  -0.97800 41.59100 21.37600
H  1.27500 45.39700 19.90900
H  2.71400 45.53300 20.98800
H  1.83200 47.30900 21.78300
H  0.50900 46.39700 22.66200
H  0.35300 47.12800 21.04400
H  5.80800 42.81100 23.82900
H  6.56600 42.81800 25.49700
H  6.28200 44.31800 24.61000
H  3.70100 44.00300 29.56600
H  4.64200 41.73000 33.00200
H  4.94600 40.61200 31.60300
H  3.31000 40.74200 32.31500

