158

Mg 1.80800 -1.55000 44.24400
C  5.23900 -0.95200 43.57600
C  1.02900 0.96000 42.28400
C  -1.41100 -2.66300 44.38300
C  2.89900 -4.57200 45.87700
N  3.01800 -0.25100 43.10000
C  4.36400 -0.10200 42.93700
C  4.81400 0.93300 41.92700
C  3.43000 1.74100 41.73200
C  2.40600 0.78200 42.40400
C  3.42800 3.13500 42.28500
C  5.46800 0.39700 40.62800
C  6.73200 1.21800 40.29400
H  7.04700 1.41900 38.80500
N  -0.06100 -0.86300 43.59300
C  -0.11200 0.22100 42.79900
C  -1.49200 0.47300 42.48800
C  -2.23700 -0.50500 43.20200
C  -1.25900 -1.36900 43.85500
C  -2.07400 1.63900 41.59400
C  -3.77100 -0.60700 43.19600
O  -4.39800 0.23300 42.59700
C  -4.43200 -1.84500 43.92500
N  0.95600 -3.47400 44.89000
C  -0.42300 -3.59300 44.87700
C  -0.85200 -4.87600 45.54700
C  0.48400 -5.31400 46.26800
C  1.53300 -4.43700 45.65900
C  -2.00900 -4.79100 46.57500
C  0.76900 -6.88200 46.30500
C  1.04100 -7.63800 47.65700
N  3.70300 -2.62500 44.70400
C  4.01000 -3.77400 45.34800
C  5.40000 -3.98400 45.48800
C  5.94100 -2.88000 44.79100
C  4.90600 -2.09100 44.31900
C  6.11700 -5.19200 46.15600
C  7.16700 -2.23600 44.41400
O  8.36400 -2.53500 44.61900
C  6.77000 -0.93400 43.64100
C  7.21200 0.23800 44.51100
O  6.68600 0.65200 45.58200
O  8.32800 0.72000 43.82600
C  8.71500 2.01700 44.30100
H  0.77200 1.80600 41.64300
H  -2.38500 -3.12700 44.55400
H  3.15400 -5.34900 46.60100
H  5.56500 1.56200 42.40500
H  3.25300 1.82500 40.66000
H  2.44600 3.61000 42.28800
H  4.16800 3.77400 41.80200
H  3.71700 3.19500 43.33400
H  4.85200 0.64800 39.76500
H  5.75700 -0.65000 40.72100
H  7.62000 0.70100 40.65700
H  6.71400 2.23300 40.69200
H  -2.73900 1.27800 40.81000
H  -1.30700 2.30100 41.19200
H  -2.70300 2.23200 42.25900
H  -5.50000 -1.63100 43.90000
H  -3.99100 -1.92800 44.91900
H  -4.26600 -2.76100 43.35900
H  -1.16300 -5.63200 44.82700
H  0.44400 -4.92600 47.28600
H  -2.86800 -5.21400 46.05500
H  -2.28700 -3.79200 46.91200
H  -1.70800 -5.37200 47.44700
H  1.60700 -7.06300 45.63200
H  -0.06800 -7.40100 45.83800
H  0.62600 -8.64500 47.71000
H  0.71400 -6.97800 48.46100
H  2.10700 -7.79600 47.81900
H  6.08900 -5.04500 47.23500
H  7.18700 -5.27500 45.96400
H  5.56300 -6.10600 45.94400
H  7.14900 -0.83400 42.62400
H  8.02500 2.80800 44.00700
H  9.69200 2.22800 43.86500
H  8.80200 2.12900 45.38200
Mg 30.45800 57.72700 39.68600
C  27.82300 55.68600 38.58000
C  32.61900 55.13400 38.73000
C  33.19300 59.76800 40.15000
C  28.28600 60.31500 40.10000
N  30.22700 55.69200 38.70600
C  29.06700 55.05400 38.51500
C  29.13500 53.55400 38.10300
C  30.74600 53.39200 38.21200
C  31.26700 54.81000 38.60700
C  31.22600 52.25100 39.26500
C  28.66500 53.18700 36.71500
C  29.26000 53.86800 35.52100
H  28.28800 54.52000 34.54300
N  32.57300 57.49500 39.52500
C  33.22100 56.33800 39.08100
C  34.66700 56.62300 38.94200
C  34.88200 57.88500 39.51700
C  33.50700 58.42800 39.79300
C  35.63700 55.69900 38.35200
C  36.27000 58.60800 39.67700
O  37.30800 58.08100 39.32600
C  36.37600 59.81200 40.56800
N  30.65200 59.78400 39.96100
C  31.86500 60.31500 40.29300
C  31.65800 61.73800 40.76800
C  30.17200 62.04400 40.63300
C  29.65400 60.64700 40.27800
C  32.37600 62.14300 42.05600
C  29.79800 63.11800 39.56900
C  28.80000 64.20500 40.06500
N  28.45200 58.01200 39.33600
C  27.68500 59.18400 39.59000
C  26.26400 58.77400 39.31000
C  26.31900 57.42400 38.98100
C  27.61500 56.98300 38.94600
C  25.09700 59.76800 39.33800
C  25.49800 56.27900 38.64000
O  24.29800 56.13500 38.44600
C  26.42600 55.12000 38.34400
C  26.06800 53.88900 39.07900
O  26.36000 53.67400 40.21000
O  25.37200 53.01400 38.36200
C  24.60300 51.95000 39.07700
H  33.24800 54.28800 38.44400
H  33.92400 60.57200 40.25900
H  27.61700 61.17400 40.18800
H  28.62300 52.95800 38.85800
H  31.36000 53.27200 37.32000
H  31.98500 51.71600 38.69300
H  30.43000 51.54300 39.49700
H  31.47600 52.60400 40.26500
H  27.57900 53.28700 36.72500
H  28.98200 52.14800 36.63700
H  29.64100 53.02200 34.94900
H  29.99800 54.62600 35.78300
H  36.48100 56.29000 37.99600
H  35.11000 55.07400 37.63100
H  35.91500 55.06000 39.19000
H  37.43700 60.00300 40.72600
H  35.92800 59.55000 41.52600
H  36.02400 60.72900 40.09500
H  32.22400 62.21300 39.96600
H  29.72000 62.26700 41.60000
H  33.03400 61.31700 42.32400
H  31.69300 62.41900 42.86000
H  33.07000 62.92500 41.75100
H  29.21200 62.70200 38.74900
H  30.66300 63.60700 39.12100
H  28.62600 63.97800 41.11600
H  27.95600 64.00700 39.40400
H  29.08400 65.24400 39.89200
H  25.46100 60.78900 39.45200
H  24.36900 59.38000 40.05100
H  24.59600 59.76100 38.37100
H  26.35000 54.96400 37.26800
H  25.20900 51.42800 39.81800
H  24.18600 51.19300 38.41300
H  23.77800 52.49900 39.53100

