158

Mg 24.74500 -7.80600 46.18700
C  27.55300 -5.63100 45.62200
C  23.02100 -5.86500 44.04800
C  22.66400 -10.33600 45.85800
C  27.01900 -9.87800 47.97300
N  25.23700 -5.94500 45.06800
C  26.39800 -5.26600 44.94300
C  26.21700 -4.05800 44.03400
C  24.68500 -3.82900 44.17800
C  24.24700 -5.29800 44.39300
C  24.14500 -2.80300 45.22600
C  26.75500 -4.24100 42.61000
C  26.98400 -3.01200 41.66800
H  26.09100 -2.97800 40.45500
N  22.94600 -8.06200 45.19800
C  22.42500 -7.13700 44.35700
C  21.13200 -7.60800 43.99600
C  20.94400 -8.96000 44.53000
C  22.24500 -9.20800 45.19300
C  20.12900 -6.72800 43.23200
C  19.74300 -9.84400 44.45300
O  18.70500 -9.49200 43.87300
C  19.75500 -11.23400 45.05900
N  24.94000 -9.78700 46.80000
C  23.83300 -10.59800 46.59100
C  23.98500 -11.99700 47.30200
C  25.33300 -11.83300 48.13400
C  25.77500 -10.40300 47.64600
C  22.67300 -12.49000 48.11600
C  26.47200 -12.94000 47.90700
C  27.41100 -13.28100 49.06700
N  26.85800 -7.72300 46.91300
C  27.54600 -8.62700 47.59600
C  28.91200 -8.10100 47.80600
C  28.95300 -6.86400 47.05500
C  27.72600 -6.73800 46.50200
C  30.04100 -8.76100 48.48100
C  29.82300 -5.78200 46.56700
O  30.98400 -5.58100 46.90100
C  28.92100 -5.00100 45.46300
C  29.00500 -3.55700 45.70200
O  28.37400 -2.91000 46.51800
O  29.77000 -3.07300 44.68500
C  29.35900 -1.75500 44.21900
H  22.41300 -5.18500 43.44700
H  22.06300 -11.24600 45.80100
H  27.64700 -10.49800 48.61700
H  26.65900 -3.18100 44.50700
H  24.34500 -3.36500 43.25200
H  24.94200 -2.40900 45.85600
H  23.53600 -3.40100 45.90400
H  23.49900 -2.04900 44.77700
H  26.02400 -4.89800 42.13900
H  27.73200 -4.72400 42.61400
H  27.99500 -3.18000 41.29800
H  26.99700 -1.98400 42.03200
H  20.23400 -5.70200 43.58400
H  19.11100 -7.11200 43.30200
H  20.36500 -6.58800 42.17700
H  19.91700 -11.22900 46.13700
H  20.58400 -11.65000 44.48800
H  18.82300 -11.76600 44.86700
H  24.12800 -12.71900 46.49800
H  25.03500 -11.75600 49.18000
H  21.79000 -11.88400 47.90900
H  22.77200 -12.50100 49.20100
H  22.40000 -13.46100 47.70300
H  26.98900 -12.79100 46.96000
H  25.86400 -13.84000 47.81400
H  26.97800 -14.00900 49.75200
H  27.68500 -12.47500 49.74700
H  28.30100 -13.77500 48.67500
H  30.53900 -7.94300 49.00000
H  30.75200 -9.12400 47.74000
H  29.63800 -9.61800 49.02100
H  29.22900 -5.24400 44.44600
H  28.37400 -1.46800 44.58700
H  29.22500 -1.79900 43.13800
H  30.12900 -1.07100 44.57800
Mg 7.07400 54.22500 40.81200
C  6.66300 50.63600 40.62400
C  10.26100 53.76300 39.79800
C  7.19800 57.43000 40.18500
C  3.63900 54.31400 41.59600
N  8.21500 52.46500 40.31700
C  7.86600 51.12700 40.21300
C  9.08000 50.30000 39.84700
C  10.31000 51.26600 40.05200
C  9.55700 52.58700 40.14400
C  11.11500 50.96300 41.35300
C  8.89200 49.74500 38.41000
C  8.45800 50.84200 37.29300
H  7.18200 50.55000 36.54700
N  8.57200 55.49400 40.02100
C  9.83100 55.09600 39.65700
C  10.52500 56.33200 39.28700
C  9.66700 57.41300 39.33300
C  8.42300 56.82000 39.86400
C  11.95100 56.32300 38.76000
C  9.88600 58.85900 38.90200
O  11.03300 59.21700 38.65000
C  8.85700 59.94600 38.93400
N  5.55800 55.58600 40.60600
C  5.93600 56.91600 40.49000
C  4.65800 57.74100 40.53200
C  3.60300 56.81700 41.03500
C  4.28900 55.46000 41.11200
C  4.73700 59.09200 41.41600
C  2.37700 56.82600 40.13000
C  1.07900 57.31700 40.86800
N  5.51700 52.81000 41.35200
C  4.21600 53.04100 41.75000
C  3.67500 51.77000 42.17100
C  4.57400 50.80200 41.72100
C  5.64700 51.47100 41.18800
C  2.28900 51.38600 42.68100
C  4.76700 49.37200 41.61600
O  4.15000 48.38500 41.89400
C  6.18300 49.26000 40.76300
C  5.87600 48.48300 39.50000
O  5.21000 48.86600 38.53200
O  6.52700 47.25200 39.56900
C  6.36500 46.47400 38.30400
H  11.33000 53.59500 39.65200
H  7.22000 58.51000 40.03000
H  2.59700 54.48400 41.87400
H  9.18100 49.42200 40.48400
H  10.97600 51.18500 39.19200
H  10.49700 50.46900 42.10200
H  11.50700 51.87800 41.79800
H  11.91800 50.24200 41.19900
H  8.34800 48.80400 38.33000
H  9.94200 49.45600 38.35800
H  9.27900 50.72900 36.58500
H  8.47200 51.87100 37.65400
H  12.47100 57.03200 39.40400
H  11.93800 56.65500 37.72200
H  12.44500 55.35800 38.87800
H  7.97300 59.76500 38.32300
H  9.29300 60.77300 38.37300
H  8.70500 60.36300 39.93000
H  4.34300 57.99400 39.51900
H  3.35400 56.87000 42.09500
H  5.51600 59.01800 42.17400
H  3.79500 59.20400 41.95400
H  4.94900 59.95600 40.78600
H  2.11300 55.86300 39.69300
H  2.52200 57.48600 39.27400
H  0.67000 58.21400 40.40400
H  1.14400 57.54600 41.93200
H  0.29700 56.58000 40.68600
H  1.66500 52.19500 43.06100
H  2.52900 50.74700 43.53100
H  1.86000 50.70400 41.94800
H  6.87000 48.63500 41.33400
H  7.01700 45.60200 38.35600
H  6.64900 46.97500 37.37800
H  5.31100 46.20800 38.22800

