158

Mg 8.68400 3.39100 27.33100
C  10.24100 1.96200 30.11100
C  7.14200 5.65100 29.52700
C  6.67700 4.58400 24.74400
C  9.86900 0.88900 25.31900
N  8.54500 3.60700 29.61600
C  9.42400 3.02100 30.53400
C  9.17800 3.57200 31.92600
C  8.13500 4.78700 31.73400
C  7.92000 4.68700 30.15600
C  6.84500 4.70400 32.67300
C  10.53200 4.08100 32.56800
C  10.36000 4.98100 33.80200
H  11.19700 4.54700 34.99900
N  7.22000 4.97100 27.13400
C  6.80900 5.85600 28.16100
C  5.90400 6.83300 27.58800
C  5.78200 6.54400 26.18400
C  6.60500 5.35100 25.92600
C  5.24800 7.95600 28.39000
C  4.86000 7.21100 25.18200
O  4.47200 6.62200 24.17400
C  4.16200 8.47900 25.42600
N  8.30600 2.87100 25.32000
C  7.46400 3.49600 24.42000
C  7.61200 2.94700 22.97500
C  8.69700 1.81400 23.21800
C  8.94000 1.76900 24.74500
C  6.20000 2.49900 22.39300
C  10.06100 2.03600 22.43100
C  10.24000 1.18400 21.23200
N  9.78300 1.76200 27.51600
C  10.31400 0.88800 26.61500
C  11.37700 0.10000 27.16400
C  11.31000 0.45400 28.54000
C  10.31800 1.44800 28.72100
C  12.21000 -0.93200 26.55200
C  11.93200 0.13900 29.80500
O  12.77700 -0.75000 30.11800
C  11.29600 1.14600 30.85500
C  10.66900 0.55300 32.05000
O  9.57300 -0.01600 32.00500
O  11.38900 0.86600 33.16900
C  10.76000 0.60500 34.48200
H  6.80400 6.35200 30.29400
H  6.15000 4.88500 23.83600
H  10.39200 0.25900 24.59700
H  8.69500 2.71500 32.39500
H  8.60700 5.74700 31.94100
H  7.22300 4.18200 33.55300
H  6.13900 4.03400 32.18200
H  6.48300 5.68400 32.98200
H  11.10400 4.57100 31.78000
H  10.98000 3.12900 32.85200
H  9.36500 5.07000 34.23800
H  10.66800 5.99200 33.53700
H  4.17300 7.78600 28.34000
H  5.48800 8.95700 28.03100
H  5.64500 7.73200 29.38000
H  4.74100 9.26000 25.91900
H  3.39900 8.09100 26.10100
H  3.69300 8.98900 24.58500
H  8.05400 3.73800 22.36900
H  8.31100 0.81200 23.02900
H  6.21500 1.70200 21.65000
H  5.78400 3.40400 21.95300
H  5.61200 2.10700 23.22300
H  10.94500 1.86600 23.04600
H  10.17400 3.08800 22.16700
H  11.19300 0.67400 21.37600
H  10.42900 1.83100 20.37500
H  9.44700 0.44800 21.10000
H  13.14400 -1.20800 27.04100
H  12.51400 -0.62700 25.55000
H  11.47300 -1.73500 26.59100
H  12.11000 1.82900 31.09700
H  9.72600 0.29800 34.32600
H  10.80600 1.52500 35.06500
H  11.35700 -0.13600 35.01300
Mg 46.50400 24.86600 28.21500
C  47.35700 27.10000 30.88500
C  46.06500 22.35200 30.35600
C  46.56300 22.79400 25.53200
C  47.59100 27.52900 26.07900
N  46.72100 24.75500 30.30200
C  46.78900 25.81700 31.21000
C  46.39800 25.44700 32.62500
C  46.18200 23.89900 32.42100
C  46.24800 23.64700 30.93000
C  47.12800 22.96500 33.24500
C  45.11200 26.21000 33.18100
C  45.40200 27.00100 34.47900
H  44.54600 26.82100 35.70900
N  46.24700 22.85000 27.91900
C  46.07400 21.96200 28.98300
C  46.05100 20.58700 28.42000
C  46.30600 20.67400 26.98100
C  46.40700 22.16100 26.74300
C  45.79200 19.36100 29.37200
C  46.44400 19.62400 25.90900
O  46.82200 19.78000 24.74200
C  46.25900 18.19900 26.46000
N  46.85900 25.18000 26.11100
C  46.63800 24.18100 25.22100
C  47.13200 24.61700 23.87700
C  47.03900 26.17300 24.00400
C  47.26600 26.31800 25.50100
C  48.58000 24.14100 23.48200
C  45.73900 26.81000 23.50600
C  44.39000 26.38900 24.08400
N  47.36300 26.88200 28.36500
C  47.73100 27.80000 27.43600
C  48.18900 29.00100 28.06800
C  48.01100 28.82400 29.47100
C  47.56500 27.44900 29.61200
C  48.60800 30.27100 27.42100
C  48.18600 29.33300 30.78800
O  48.56300 30.44200 31.24900
C  47.79500 28.22400 31.76900
C  48.89600 27.95900 32.75600
O  49.95400 27.50600 32.46400
O  48.46400 28.43500 33.99600
C  49.38200 28.12400 35.13100
H  45.86000 21.57500 31.09600
H  46.53500 22.21100 24.61000
H  47.86500 28.37400 25.44400
H  47.24700 25.49500 33.30700
H  45.12600 23.69300 32.59500
H  46.52500 22.39100 33.95000
H  48.03700 23.44800 33.60300
H  47.60300 22.20600 32.62300
H  44.38500 25.43100 33.41000
H  44.71800 26.83500 32.38100
H  45.36800 28.07500 34.29700
H  46.42300 26.74400 34.75900
H  45.00100 18.74900 28.93800
H  45.50300 19.79000 30.33200
H  46.68000 18.74100 29.48800
H  47.09800 18.02000 27.13300
H  46.34900 17.38700 25.73800
H  45.30100 18.12800 26.97500
H  46.49500 24.42500 23.01300
H  47.87000 26.60200 23.44200
H  48.95300 23.56700 24.33000
H  49.36500 24.89600 23.43300
H  48.50000 23.57800 22.55200
H  45.72700 26.50500 22.46000
H  45.76500 27.89800 23.44300
H  43.95700 27.27800 24.54400
H  44.55800 25.53000 24.73400
H  43.75800 26.11100 23.24100
H  49.57000 30.53800 27.85900
H  47.87600 31.07200 27.51700
H  48.88900 30.05500 26.39000
H  46.84800 28.45200 32.25700
H  50.42800 27.95800 34.87500
H  49.14800 27.11900 35.48200
H  49.19000 28.74700 36.00600

