158

Mg 0.64900 43.01000 25.34700
C  2.56000 43.08700 28.27400
C  -2.13800 42.81900 27.26600
C  -1.11400 42.72600 22.57000
C  3.58000 43.48200 23.41700
N  0.29900 43.02200 27.52400
C  1.19200 43.01000 28.63000
C  0.56100 42.87600 29.99800
C  -0.95200 42.68500 29.54400
C  -0.93200 42.89700 28.02900
C  -1.53400 41.29100 29.91400
C  0.90200 44.03000 30.94700
C  1.11800 43.72200 32.44100
H  0.75700 42.27900 32.85600
N  -1.34000 42.65300 24.98600
C  -2.33000 42.72600 25.91200
C  -3.58400 42.73800 25.21600
C  -3.43300 42.58800 23.79200
C  -1.92700 42.59700 23.73000
C  -4.91500 42.68800 25.95500
C  -4.41800 42.42000 22.67700
O  -4.09600 42.18300 21.51800
C  -5.87800 42.56400 23.02600
N  1.10000 43.17600 23.26700
C  0.21200 42.96800 22.32400
C  0.74500 43.31500 20.88000
C  2.20300 43.73600 21.22300
C  2.33300 43.46700 22.75300
C  0.71100 42.03700 19.93500
C  2.44900 45.22300 20.85800
C  3.76900 45.51000 20.09400
N  2.65400 43.26400 25.76200
C  3.71600 43.41800 24.84800
C  4.94800 43.54500 25.63500
C  4.57700 43.32800 27.02200
C  3.16300 43.20700 26.96300
C  6.36100 43.63100 25.08100
C  5.08300 43.10600 28.33000
O  6.21000 43.10600 28.77400
C  3.81300 42.94900 29.21400
C  3.88000 41.77000 30.13200
O  3.57600 40.65100 29.76100
O  4.51200 42.01700 31.33300
C  5.03600 40.89000 32.10600
H  -2.96600 42.63700 27.95500
H  -1.72500 42.77600 21.66600
H  4.41800 43.55300 22.72000
H  0.87700 41.90700 30.38700
H  -1.57800 43.45000 30.00400
H  -2.42300 41.40700 30.53300
H  -0.85900 40.78000 30.60000
H  -1.70100 40.64100 29.05500
H  0.12000 44.78300 30.84800
H  1.75500 44.58800 30.56000
H  0.44700 44.36000 33.01500
H  2.15000 44.03100 32.60700
H  -5.43500 43.41000 25.32500
H  -4.94200 43.01900 26.99300
H  -5.31500 41.69300 25.76100
H  -6.20700 41.96200 23.87400
H  -6.46000 42.17700 22.19000
H  -6.24600 43.58900 23.07300
H  0.09600 44.10200 20.49700
H  2.94500 43.04300 20.82600
H  0.30000 41.17600 20.46200
H  1.65700 41.84500 19.42900
H  -0.09000 42.20200 19.21500
H  2.42300 45.85400 21.74600
H  1.75200 45.69800 20.16600
H  4.38500 44.62100 20.23200
H  4.25000 46.39500 20.50900
H  3.56900 45.69700 19.03900
H  6.81100 44.60200 25.28500
H  6.38700 43.39600 24.01700
H  6.91400 42.78900 25.49700
H  3.85100 43.81500 29.87500
H  6.10200 41.03800 32.28200
H  4.82400 39.91700 31.66300
H  4.53400 40.93700 33.07200
Mg -11.19600 16.32300 42.95600
C  -8.08400 14.70700 42.76300
C  -9.54400 19.24900 41.89300
C  -14.14800 17.64800 41.96400
C  -12.62700 13.36000 43.77500
N  -9.12100 16.85200 42.14100
C  -8.03000 16.04500 42.27700
C  -6.72500 16.69900 41.76800
C  -7.20000 18.28200 42.01500
C  -8.70900 18.11900 41.91400
C  -6.78900 18.91700 43.32400
C  -6.40900 16.37400 40.32500
C  -5.20500 15.38100 40.02000
H  -5.52700 14.40400 38.88400
N  -11.75800 18.16300 42.16300
C  -10.92100 19.26000 41.85700
C  -11.75400 20.31000 41.33400
C  -13.12100 19.91700 41.38500
C  -13.05200 18.47000 41.79800
C  -11.05900 21.52100 40.77600
C  -14.27200 20.70600 40.88800
O  -14.12900 21.82300 40.43000
C  -15.69400 20.26500 40.80600
N  -13.10700 15.63200 42.78900
C  -14.19600 16.30300 42.37700
C  -15.49300 15.37300 42.39200
C  -14.97700 14.13900 43.17600
C  -13.46300 14.39700 43.26300
C  -16.71600 16.03300 43.05800
C  -15.48500 12.81700 42.55300
C  -15.83500 11.65400 43.54500
N  -10.53800 14.43700 43.43500
C  -11.20800 13.30600 43.81700
C  -10.27600 12.24400 44.06100
C  -9.00000 12.77300 43.68200
C  -9.23700 14.07300 43.26300
C  -10.71000 10.86000 44.44600
C  -7.62000 12.51700 43.63000
O  -6.98100 11.50300 43.99000
C  -6.94900 13.76200 43.01600
C  -6.05000 14.20800 44.07500
O  -6.43100 14.57500 45.20700
O  -4.83100 14.19900 43.60600
C  -3.83000 14.85900 44.47100
H  -9.04500 20.19500 41.67500
H  -15.10100 18.03100 41.59200
H  -13.03400 12.42200 44.15900
H  -5.88000 16.56100 42.44300
H  -6.86400 18.89500 41.17800
H  -6.23800 19.84100 43.15000
H  -6.20100 18.27600 43.98000
H  -7.62000 19.09600 44.00700
H  -6.08800 17.28100 39.81300
H  -7.27200 15.92100 39.83800
H  -4.93300 14.82300 40.91600
H  -4.29300 15.94900 39.84000
H  -11.81000 22.31100 40.80000
H  -10.61500 21.39300 39.78900
H  -10.40000 21.96800 41.52100
H  -15.78000 19.46800 40.06700
H  -16.36900 21.02600 40.41300
H  -15.96700 19.96400 41.81700
H  -15.69900 15.17400 41.34100
H  -15.39400 14.24700 44.17800
H  -16.29400 16.84800 43.64500
H  -17.34600 15.32400 43.59600
H  -17.37100 16.46300 42.30000
H  -14.79700 12.33200 41.86000
H  -16.40800 13.06800 42.03100
H  -16.67500 11.01600 43.27000
H  -15.73700 11.99700 44.57500
H  -15.04800 10.92100 43.37000
H  -10.75100 10.25500 43.54000
H  -11.70300 10.81900 44.89600
H  -9.96200 10.43400 45.11500
H  -6.39300 13.43800 42.13600
H  -3.14300 15.40500 43.82400
H  -3.33600 14.16400 45.14900
H  -4.29200 15.60100 45.12300

