158

Mg 47.90600 16.31800 28.54700
C  45.79200 16.85100 31.49900
C  50.23600 18.26300 30.14200
C  49.30500 16.71100 25.65200
C  44.97700 15.07200 27.01500
N  48.03700 17.41600 30.64800
C  47.06600 17.37800 31.69100
C  47.63800 18.04000 32.94100
C  48.98800 18.66900 32.41600
C  49.13600 18.08300 30.98500
C  49.06800 20.20600 32.53900
C  47.89900 16.96900 34.05700
C  47.64800 17.27200 35.57800
H  47.50200 18.77800 36.02200
N  49.68600 17.20300 28.01300
C  50.55300 17.93600 28.81000
C  51.72100 18.35000 28.03300
C  51.49700 17.85600 26.74700
C  50.16200 17.16400 26.76500
C  52.90900 19.18100 28.71300
C  52.39300 17.95500 25.50200
O  51.99400 17.53400 24.40800
C  53.75400 18.66300 25.60600
N  47.11700 16.10000 26.57600
C  47.97200 16.25200 25.53200
C  47.36900 15.82500 24.18800
C  46.14700 15.00400 24.66000
C  46.06900 15.35500 26.18100
C  47.11700 16.98800 23.13600
C  46.25500 13.48300 24.44800
C  45.50200 12.90500 23.21900
N  45.83500 15.87900 29.14500
C  44.80900 15.42000 28.38500
C  43.56600 15.27400 29.15600
C  43.87900 15.88300 30.34200
C  45.27500 16.27100 30.35600
C  42.25300 14.68400 28.68500
C  43.36500 16.30200 31.63700
O  42.18800 16.17000 32.04700
C  44.60700 16.78200 32.49800
C  44.22800 18.06600 33.19500
O  44.04900 19.20600 32.70500
O  43.92500 17.69500 34.47200
C  43.24400 18.63700 35.35500
H  51.09000 18.70900 30.65500
H  49.73400 16.75900 24.64900
H  44.10000 14.56700 26.60400
H  46.87100 18.74800 33.25500
H  49.74800 18.21700 33.05300
H  48.11500 20.71000 32.70100
H  49.53400 20.77100 31.73200
H  49.65500 20.39200 33.43700
H  48.93100 16.62000 34.04200
H  47.27400 16.17100 33.65700
H  48.48100 16.83600 36.13000
H  46.76200 16.75500 35.94700
H  52.89000 20.19600 28.31600
H  53.88500 18.74400 28.49800
H  52.75200 19.26000 29.78900
H  54.24000 18.73700 24.63300
H  54.27900 18.02200 26.31500
H  53.68800 19.67800 25.99800
H  48.06400 15.07600 23.80700
H  45.23800 15.45600 24.26100
H  47.31300 17.93900 23.63000
H  46.05800 16.96900 22.88100
H  47.72700 16.87100 22.23900
H  45.92700 13.06000 25.39700
H  47.31500 13.26300 24.31900
H  45.00800 13.76400 22.76200
H  44.75200 12.24300 23.65200
H  46.09400 12.23200 22.59900
H  41.60000 14.46600 29.53000
H  42.30300 13.77800 28.08100
H  41.90900 15.54200 28.10700
H  44.84000 15.95900 33.17300
H  42.26100 18.83900 34.92900
H  43.76300 19.58300 35.20600
H  43.18400 18.38200 36.41400
Mg -1.49600 33.91800 27.27000
C  -3.43300 32.47200 29.88100
C  0.05300 35.91400 29.63000
C  -0.51100 35.93100 24.78300
C  -3.66100 32.27100 24.98500
N  -1.85900 34.33500 29.48100
C  -2.51100 33.45800 30.40100
C  -2.20400 33.85900 31.83700
C  -1.14300 35.03500 31.73100
C  -0.95700 35.06700 30.24800
C  -1.65500 36.37500 32.38900
C  -1.68800 32.72200 32.76100
C  -0.90200 33.01400 34.05700
H  -1.28300 32.25600 35.30700
N  -0.22600 35.54400 27.19100
C  0.39900 36.13400 28.27900
C  1.27700 37.13000 27.79800
C  1.05600 37.26700 26.38900
C  0.06200 36.23100 26.04600
C  2.04500 37.97800 28.70900
C  1.64600 38.21800 25.36600
O  1.41900 38.19000 24.16200
C  2.72700 39.22600 25.86000
N  -2.03200 34.11500 25.24000
C  -1.38300 34.98400 24.37100
C  -1.84800 34.81300 22.91200
C  -2.58000 33.40800 22.98200
C  -2.81300 33.30000 24.50500
C  -2.73700 35.93100 22.38800
C  -1.80600 32.14600 22.52200
C  -0.30000 32.18900 22.76300
N  -3.17300 32.61800 27.32800
C  -3.82600 31.94900 26.32700
C  -4.70200 30.98600 27.00400
C  -4.52900 31.12000 28.36600
C  -3.67000 32.19600 28.53500
C  -5.56300 30.06100 26.27400
C  -4.98100 30.58600 29.62200
O  -5.77400 29.67600 29.89300
C  -4.20800 31.38700 30.66100
C  -5.21200 31.98900 31.62500
O  -6.09000 32.75700 31.34800
O  -5.04500 31.40000 32.85800
C  -6.03100 31.65200 33.90800
H  0.64500 36.41400 30.40000
H  -0.24700 36.51900 23.90100
H  -4.14100 31.65600 24.22000
H  -3.06600 34.26700 32.36400
H  -0.15500 34.73500 32.08100
H  -1.84200 36.94900 31.48200
H  -0.90400 36.92500 32.95600
H  -2.57700 36.22800 32.95200
H  -0.89700 32.18600 32.23700
H  -2.44800 32.03900 33.14000
H  -1.20100 34.03500 34.29400
H  0.18300 32.91400 34.02000
H  2.20900 37.65400 29.73700
H  1.66100 38.99400 28.79800
H  3.00100 38.09600 28.19900
H  3.02500 39.94900 25.10100
H  3.54300 38.51300 25.97800
H  2.46400 39.70000 26.80500
H  -1.09100 34.74500 22.13100
H  -3.51000 33.40800 22.41300
H  -3.69700 35.60900 21.98500
H  -2.23000 36.59900 21.69200
H  -2.90400 36.69200 23.15000
H  -1.98100 32.30300 21.45800
H  -2.31300 31.22500 22.81000
H  0.14900 32.50500 21.82200
H  0.14800 31.20300 22.88800
H  0.08800 32.77700 23.59500
H  -5.99100 30.68800 25.49200
H  -6.22500 29.53300 26.96000
H  -4.96600 29.31100 25.75500
H  -3.56600 30.78400 31.30200
H  -5.56100 32.24500 34.69200
H  -6.55900 30.80200 34.33900
H  -6.90000 32.16600 33.49600

