158

Mg 3.07800 -0.60000 44.50500
C  6.39100 0.37600 43.56600
C  1.85200 2.04500 42.73500
C  0.08200 -2.13900 44.52200
C  4.58000 -3.60900 45.94300
N  4.01000 1.12900 43.34300
C  5.35800 1.31100 43.10000
C  5.56000 2.59000 42.19100
C  4.11900 3.25100 42.17500
C  3.22700 2.09600 42.83100
C  3.91900 4.56600 42.91700
C  6.01100 2.16300 40.82200
C  7.40900 2.59300 40.29000
H  7.40900 3.29200 38.87800
N  1.17400 -0.04400 43.91200
C  0.90800 1.10000 43.17100
C  -0.52000 1.20800 43.03000
C  -1.12200 -0.01200 43.52100
C  0.06700 -0.83900 44.02400
C  -1.24200 2.36300 42.19900
C  -2.56700 -0.36900 43.59400
O  -3.46800 0.28300 43.08200
C  -3.05200 -1.73300 44.23100
N  2.51200 -2.56000 45.14400
C  1.18500 -2.91500 45.02100
C  0.92400 -4.36500 45.53600
C  2.36200 -4.87000 45.78100
C  3.24000 -3.59700 45.63300
C  0.17200 -4.32000 46.92100
C  2.77900 -6.00600 44.71700
C  2.67700 -7.43200 45.32400
N  5.11000 -1.49100 44.77400
C  5.50500 -2.62300 45.46500
C  6.91700 -2.54700 45.61200
C  7.33500 -1.45000 44.83100
C  6.16300 -0.80200 44.39500
C  7.73200 -3.46600 46.43100
C  8.48200 -0.72300 44.32000
O  9.64500 -0.87300 44.53400
C  7.96400 0.41400 43.44400
C  8.54400 1.63100 43.97400
O  9.31600 2.35800 43.35200
O  8.02600 1.97200 45.22200
C  8.24300 3.27800 45.76300
H  1.41800 2.84500 42.13200
H  -0.81700 -2.72900 44.71100
H  4.89900 -4.51900 46.45400
H  6.36700 3.13200 42.68400
H  3.78600 3.43200 41.15300
H  4.77000 4.94000 43.48600
H  3.00400 4.42100 43.49200
H  3.76400 5.30200 42.12800
H  5.29400 2.45100 40.05300
H  5.95600 1.07400 40.80300
H  8.11500 1.76400 40.23500
H  7.67800 3.37900 40.99700
H  -1.89100 1.83900 41.49700
H  -0.56400 3.09100 41.75300
H  -1.88200 3.02900 42.77800
H  -4.11600 -1.66800 44.46000
H  -2.62500 -1.96200 45.20800
H  -2.86400 -2.47500 43.45500
H  0.33900 -4.97700 44.85000
H  2.47600 -5.26800 46.78900
H  -0.71600 -3.79000 46.57500
H  0.61300 -3.63000 47.64000
H  -0.10600 -5.24700 47.42200
H  3.80600 -5.74600 44.45800
H  2.13800 -5.93700 43.83900
H  2.20200 -7.37800 46.30300
H  3.68000 -7.83600 45.46500
H  2.07300 -7.97900 44.60000
H  7.16500 -3.55500 47.35700
H  8.75700 -3.15200 46.62800
H  7.85500 -4.43100 45.94000
H  8.26100 0.40700 42.39500
H  7.41700 3.95500 45.54300
H  9.14600 3.70800 45.33000
H  8.24700 3.24300 46.85300
Mg 40.96300 41.58700 27.13700
C  39.77500 43.78900 29.56700
C  41.41800 39.31700 29.61400
C  42.20500 39.41100 24.82400
C  40.53200 44.05400 24.72000
N  40.58100 41.59100 29.37700
C  40.05000 42.55200 30.12100
C  40.15900 42.18100 31.70500
C  40.64400 40.74400 31.58300
C  40.95300 40.53400 30.11700
C  41.74800 40.17900 32.47400
C  38.82300 42.49600 32.42300
C  38.27400 41.54000 33.45300
H  37.56900 42.31900 34.54200
N  41.76100 39.58100 27.14600
C  41.81900 38.85800 28.32000
C  42.23100 37.50500 28.00800
C  42.37600 37.44800 26.59700
C  42.15400 38.87100 26.07200
C  42.33900 36.36000 29.01800
C  42.87200 36.32300 25.63500
O  42.97500 36.42300 24.38400
C  43.17600 35.07500 26.18000
N  41.39100 41.72100 25.06300
C  41.92000 40.73500 24.36300
C  41.89100 41.03800 22.86700
C  41.32600 42.49600 22.81100
C  41.01700 42.82900 24.25100
C  43.20900 40.73700 21.99500
C  40.13900 42.58300 21.85400
C  38.87100 41.79600 22.22600
N  40.30500 43.46700 27.12900
C  40.19400 44.40800 26.04000
C  39.72100 45.67100 26.46500
C  39.46600 45.46400 27.82500
C  39.88700 44.12000 28.19700
C  39.67700 46.94600 25.67700
C  38.99800 46.10200 29.06500
O  38.58700 47.18500 29.33000
C  39.26200 45.10100 30.22600
C  40.26300 45.76500 31.15200
O  41.44800 45.96900 30.86900
O  39.61900 46.09700 32.28800
C  40.36900 46.72700 33.36900
H  41.24100 38.60100 30.41900
H  42.53700 38.79900 23.98300
H  40.39100 44.94000 24.09900
H  40.98300 42.70900 32.18600
H  39.74600 40.14800 31.74700
H  42.70800 40.18900 31.95900
H  41.39300 39.21100 32.82800
H  41.83700 40.70100 33.42600
H  38.09500 42.52900 31.61300
H  38.85600 43.52800 32.77300
H  39.01600 40.96700 34.00800
H  37.51700 40.86200 33.05800
H  41.81400 36.63600 29.93300
H  43.40400 36.12900 29.02300
H  41.84100 35.44400 28.69900
H  43.89900 35.11900 26.99400
H  43.58000 34.45100 25.38300
H  42.27400 34.58700 26.54900
H  41.11900 40.40800 22.42400
H  42.03200 43.22700 22.41800
H  43.89700 40.64500 22.83500
H  43.24100 41.55600 21.27600
H  43.14100 39.81800 21.41300
H  40.46200 42.12200 20.92100
H  39.84700 43.60700 21.61900
H  38.04400 42.37700 21.81900
H  38.74200 41.59000 23.28900
H  38.84200 40.79500 21.79700
H  40.66600 47.21800 25.31000
H  39.33200 47.71700 26.36600
H  39.00900 46.91600 24.81600
H  38.28700 44.90500 30.67300
H  41.43800 46.84800 33.19500
H  40.20400 46.14300 34.27500
H  39.98700 47.73800 33.51300

