158

Mg 2.06200 -2.26400 43.92300
C  5.41000 -1.57600 43.38500
C  1.14000 0.55200 42.26700
C  -1.25000 -3.29000 43.95400
C  3.04800 -5.39300 45.20800
N  3.22600 -0.75900 42.77400
C  4.58500 -0.59600 42.81000
C  5.05000 0.75700 42.15300
C  3.63800 1.45500 41.96100
C  2.57500 0.38500 42.34200
C  3.35400 2.81900 42.67900
C  5.94500 0.44800 40.89100
C  7.05300 1.51400 40.61900
H  6.79400 2.51200 39.54800
N  0.15000 -1.46600 43.27900
C  0.05500 -0.29400 42.59700
C  -1.32000 0.04400 42.40600
C  -2.06500 -0.90900 43.07500
C  -1.07400 -2.03800 43.33100
C  -1.79300 1.33900 41.75900
C  -3.58000 -0.98400 43.42500
O  -4.32900 -0.16700 42.93700
C  -4.11100 -1.98700 44.37400
N  1.01900 -4.20600 44.35600
C  -0.32000 -4.33100 44.28600
C  -0.76100 -5.70500 44.91800
C  0.63500 -6.33400 45.33400
C  1.65400 -5.26700 44.98700
C  -1.76500 -5.55300 46.18100
C  0.99100 -7.70300 44.83000
C  1.86000 -8.68900 45.66800
N  3.85100 -3.38300 44.22400
C  4.10100 -4.60900 44.77500
C  5.54300 -4.83500 44.78200
C  6.05600 -3.65800 44.30900
C  5.00700 -2.79700 43.94800
C  6.22100 -5.97500 45.37100
C  7.32900 -2.92300 44.10500
O  8.45900 -3.24500 44.35000
C  6.88800 -1.57700 43.46700
C  7.39800 -0.32400 44.22000
O  8.25600 0.41800 43.87000
O  6.72500 -0.02500 45.38000
C  6.96800 1.28800 46.08300
H  0.88500 1.41700 41.65200
H  -2.28800 -3.62500 44.01400
H  3.25300 -6.37800 45.63200
H  5.58700 1.30600 42.92700
H  3.49300 1.60400 40.89200
H  2.45000 2.84100 43.28700
H  3.23500 3.58000 41.90800
H  4.23500 2.97300 43.30200
H  5.25700 0.42500 40.04600
H  6.41200 -0.53200 40.99300
H  7.94200 1.00900 40.24100
H  7.29900 2.01400 41.55600
H  -0.99300 2.03100 41.49700
H  -2.57600 1.83400 42.33300
H  -2.14000 0.92200 40.81300
H  -3.29400 -2.20600 45.06200
H  -4.34700 -2.93100 43.88300
H  -5.06600 -1.66100 44.78700
H  -1.27300 -6.27600 44.14300
H  0.74700 -6.25200 46.41500
H  -1.40700 -5.91700 47.14400
H  -2.73900 -6.02000 46.03400
H  -1.93300 -4.49600 46.39100
H  1.42100 -7.44500 43.86200
H  0.01700 -8.18600 44.76100
H  2.61200 -9.11700 45.00400
H  1.32000 -9.59300 45.94600
H  2.44700 -8.13800 46.40300
H  6.36400 -6.79000 44.66200
H  5.63500 -6.26500 46.24300
H  7.21800 -5.70800 45.72200
H  7.51300 -1.39300 42.59300
H  6.52200 1.45600 47.06400
H  6.57900 2.03400 45.39000
H  8.01700 1.56300 46.18600
Mg 46.94500 25.25700 29.04800
C  47.79900 27.49700 31.74600
C  45.77400 23.04700 31.39400
C  46.96300 22.87300 26.73200
C  49.20300 27.13600 27.02600
N  46.72400 25.35200 31.25300
C  47.16700 26.27700 32.10500
C  46.77100 25.91900 33.57800
C  46.30600 24.42000 33.42400
C  46.16100 24.27100 31.93100
C  47.26000 23.35600 34.04600
C  45.60500 26.93500 34.15400
C  45.92300 27.48300 35.57700
H  46.27700 26.52900 36.74100
N  46.25600 23.35900 29.00500
C  45.79300 22.57400 30.05000
C  45.43900 21.29500 29.53700
C  45.58900 21.31200 28.11200
C  46.33500 22.50600 27.94200
C  44.93900 20.16500 30.40200
C  45.25500 20.28900 27.01300
O  45.40500 20.42500 25.76000
C  44.46700 19.07200 27.50700
N  47.92200 25.04100 27.15300
C  47.66200 24.05300 26.32200
C  48.40600 24.24400 24.97000
C  48.93900 25.68800 24.97200
C  48.65700 25.99700 26.44700
C  49.39000 23.14100 24.72100
C  48.46600 26.66900 23.90400
C  49.52600 27.49700 23.22400
N  48.17800 27.00800 29.19600
C  48.90200 27.64800 28.31100
C  49.38000 28.93900 28.89000
C  48.89600 28.89800 30.20100
C  48.21600 27.69000 30.39800
C  50.12100 29.95600 28.18100
C  49.00300 29.60400 31.48600
O  49.47400 30.68900 31.84600
C  48.28200 28.67200 32.54700
C  49.18500 28.41900 33.64800
O  49.95300 27.44800 33.64300
O  49.17700 29.35700 34.62900
C  50.14000 29.14200 35.73000
H  45.38000 22.27400 32.05800
H  46.99700 22.18600 25.88400
H  49.86900 27.75900 26.42400
H  47.64400 25.95500 34.22900
H  45.31200 24.31300 33.85700
H  47.47600 22.58700 33.30400
H  46.82400 22.88800 34.92800
H  48.22400 23.75600 34.36200
H  44.66200 26.38900 34.17200
H  45.47800 27.78000 33.47700
H  44.96900 27.93000 35.85500
H  46.67900 28.26000 35.46000
H  45.47300 19.22500 30.26600
H  43.92600 19.96900 30.05000
H  44.88700 20.36600 31.47200
H  43.45400 19.42800 27.69500
H  44.85000 18.66600 28.44300
H  44.49600 18.26500 26.77500
H  47.64100 24.15900 24.19800
H  50.02300 25.80400 24.97000
H  49.79000 22.66500 25.61700
H  50.24600 23.48700 24.14100
H  48.89500 22.36300 24.14000
H  47.72000 27.29100 24.39900
H  47.93100 26.13100 23.12200
H  49.24500 27.90800 22.25400
H  50.48200 26.99400 23.08000
H  49.69300 28.46100 23.70500
H  49.54600 30.10900 27.26800
H  51.10300 29.55000 27.93900
H  50.10100 30.88800 28.74700
H  47.39200 29.14700 32.96000
H  49.74000 28.39800 36.41900
H  50.36800 30.08200 36.23200
H  51.11800 28.72900 35.48400

