158

Mg 25.37700 0.99700 29.92300
C  27.56200 0.70400 32.53400
C  22.85700 1.73900 32.06500
C  23.29100 1.03200 27.36600
C  27.99700 0.17900 27.66800
N  25.16800 1.02500 32.14600
C  26.27100 1.12700 32.95500
C  25.81000 1.62400 34.31000
C  24.19400 1.70500 34.26500
C  24.00600 1.50800 32.75200
C  23.32100 0.84300 35.16400
C  26.49900 2.86800 34.75600
C  27.24600 2.70700 36.09600
H  26.90700 3.78900 37.15500
N  23.28600 1.26700 29.69900
C  22.46200 1.56800 30.72700
C  21.09700 1.69000 30.25100
C  21.17900 1.50000 28.79500
C  22.65700 1.29300 28.54300
C  19.93600 1.89200 31.12600
C  20.06500 1.54000 27.77300
O  20.21400 1.29600 26.59900
C  18.67400 1.79600 28.21900
N  25.60200 0.87300 27.82300
C  24.55300 0.89500 26.98100
C  25.10300 0.89300 25.54000
C  26.62800 0.58600 25.63700
C  26.76100 0.58800 27.13000
C  24.37400 -0.09100 24.60000
C  27.56300 1.66600 24.90800
C  28.37000 1.16300 23.73100
N  27.34900 0.46600 30.04400
C  28.33500 0.17100 29.07100
C  29.55500 -0.11800 29.78100
C  29.30500 0.14300 31.18400
C  27.97800 0.44200 31.22100
C  30.84100 -0.41400 29.09100
C  29.95900 0.24700 32.44700
O  31.11800 0.11200 32.73400
C  28.79000 0.58300 33.46200
C  28.67800 -0.55300 34.41000
O  27.77300 -1.41200 34.45700
O  29.60700 -0.35800 35.43800
C  29.54100 -1.14700 36.68300
H  22.20600 2.13400 32.84700
H  22.58700 1.05300 26.53100
H  28.74800 -0.14200 26.94300
H  26.07000 0.81700 34.99600
H  23.80300 2.70400 34.45900
H  22.70000 1.39700 35.86700
H  23.96100 0.12800 35.68200
H  22.63300 0.38200 34.45600
H  25.75200 3.66200 34.73100
H  27.31200 3.10100 34.06800
H  28.30300 2.93200 35.95200
H  27.15000 1.67300 36.42600
H  19.41200 2.77800 30.76800
H  20.29100 2.01900 32.14900
H  19.31000 1.00000 31.13000
H  17.96800 1.70800 27.39400
H  18.76400 2.77900 28.68200
H  18.37600 1.12600 29.02500
H  24.90100 1.88500 25.13800
H  26.90900 -0.36700 25.18700
H  23.72500 -0.76600 25.15900
H  25.03500 -0.74300 24.02900
H  23.75200 0.46100 23.89500
H  28.23800 2.06700 25.66400
H  26.94900 2.38000 24.35900
H  27.80900 1.34500 22.81500
H  28.62300 0.13100 23.97200
H  29.31100 1.71300 23.69500
H  31.67200 0.18100 29.47000
H  30.75400 -0.14200 28.03900
H  31.01000 -1.49000 29.07900
H  29.02500 1.48800 34.02200
H  30.49800 -1.01700 37.18800
H  29.39800 -2.20600 36.46700
H  28.70200 -0.83400 37.30500
Mg 35.12100 2.23400 29.72900
C  32.97000 3.34000 32.07800
C  37.66900 2.32800 31.97200
C  37.60100 1.86900 27.15900
C  32.65000 2.54700 27.39200
N  35.28200 2.79500 31.72700
C  34.28600 3.12500 32.58000
C  34.82700 3.51800 33.93300
C  36.30400 3.40000 33.79000
C  36.42600 2.74200 32.43500
C  37.17000 4.61600 33.90900
C  34.21200 2.58600 35.10900
C  34.03000 3.20400 36.43400
H  35.14200 4.23300 36.97100
N  37.28200 1.95300 29.65200
C  38.07100 1.91600 30.69300
C  39.40200 1.49500 30.28500
C  39.39500 1.37900 28.85400
C  38.04500 1.70900 28.47600
C  40.53100 1.38100 31.31500
C  40.45100 1.05600 27.91800
O  40.31000 0.85400 26.68900
C  41.89200 0.92800 28.50400
N  35.18100 2.60500 27.59900
C  36.24600 2.24000 26.79500
C  35.81000 1.98500 25.35600
C  34.24900 1.84500 25.42800
C  34.00600 2.51000 26.82300
C  36.30700 3.13300 24.37300
C  33.67500 0.44300 25.30800
C  32.19000 0.22200 24.84700
N  33.15500 2.75100 29.67100
C  32.31700 2.80600 28.64100
C  30.99900 3.19100 29.10100
C  31.16600 3.37100 30.48600
C  32.48900 3.17500 30.79900
C  29.76600 3.25700 28.27500
C  30.54500 3.74000 31.75200
O  29.35900 3.92500 32.00600
C  31.69100 3.75700 32.86500
C  31.74200 5.07800 33.39500
O  31.86000 6.11100 32.76000
O  31.54300 5.02600 34.74500
C  31.13700 6.23200 35.48300
H  38.46700 2.22000 32.71000
H  38.13300 1.65600 26.22900
H  31.92500 2.42700 26.58500
H  34.57700 4.55400 34.15900
H  36.75400 2.76200 34.55000
H  36.63800 5.39800 34.45100
H  37.32000 5.12000 32.95400
H  38.06900 4.21600 34.37600
H  34.76500 1.64900 35.17500
H  33.20400 2.32800 34.78700
H  34.13800 2.31600 37.05700
H  33.06600 3.69100 36.29000
H  40.75300 0.31400 31.33300
H  40.14000 1.74200 32.26600
H  41.47000 1.79700 30.94900
H  42.00900 0.01000 29.07900
H  42.23100 1.88600 28.89900
H  42.51400 0.84600 27.61200
H  36.23900 1.02000 25.08500
H  33.73600 2.53500 24.75700
H  36.57600 4.03200 24.92700
H  35.46200 3.37700 23.72900
H  37.16200 2.72900 23.83100
H  33.80900 -0.09400 26.24700
H  34.30400 -0.09500 24.59800
H  32.24900 -0.26200 23.87200
H  31.62200 1.15200 24.81200
H  31.63000 -0.37500 25.56800
H  29.40500 4.27000 28.10000
H  28.97500 2.75500 28.83200
H  29.88800 2.78600 27.29900
H  31.59500 2.91300 33.54900
H  30.87200 7.06400 34.83100
H  32.04500 6.53700 36.00300
H  30.33400 5.97500 36.17400

