158

Mg 8.18400 2.94300 27.65600
C  9.32800 1.26600 30.50100
C  6.27300 4.92200 29.66900
C  6.87700 4.16200 25.01500
C  9.73000 0.38200 25.63700
N  7.76800 3.06000 29.83100
C  8.45700 2.38900 30.83400
C  8.04900 2.85500 32.23200
C  6.98500 3.98200 31.89100
C  6.90400 3.94300 30.35400
C  5.56300 3.84900 32.57700
C  9.24400 3.26900 33.12800
C  8.83900 4.16500 34.31600
H  9.77000 4.03500 35.61900
N  6.91400 4.48200 27.35300
C  6.23500 5.16700 28.25400
C  5.46600 6.18400 27.55600
C  5.76700 6.13200 26.19100
C  6.56300 4.90800 26.14700
C  4.65700 7.14200 28.25900
C  5.25100 6.91800 24.95500
O  5.66500 6.68200 23.84200
C  4.20100 7.94800 25.26800
N  8.17600 2.24400 25.58800
C  7.58900 3.04500 24.75800
C  7.78900 2.56200 23.25900
C  8.75100 1.31700 23.40500
C  8.98600 1.36200 24.95100
C  6.53900 2.22800 22.45900
C  10.06000 1.44400 22.69600
C  10.11100 0.48400 21.51900
N  9.19300 1.08700 27.96500
C  9.83000 0.28200 27.04400
C  10.61800 -0.67700 27.86300
C  10.43500 -0.30900 29.19300
C  9.60600 0.80400 29.19600
C  11.55300 -1.72100 27.38100
C  10.78200 -0.63600 30.51500
O  11.41900 -1.57500 30.97900
C  10.09900 0.37200 31.43300
C  9.14200 -0.37400 32.37100
O  8.04500 -0.90200 32.03100
O  9.64700 -0.29000 33.65600
C  8.66900 -0.90400 34.59100
H  5.59200 5.60100 30.18600
H  6.50000 4.61700 24.09800
H  10.44400 -0.15500 25.01000
H  7.59600 1.93200 32.59200
H  7.41500 4.95500 32.12600
H  4.78900 4.15600 31.87500
H  5.48500 4.70300 33.24900
H  5.49200 2.84300 32.99300
H  9.99700 3.63600 32.43000
H  9.80700 2.40600 33.48300
H  7.81400 3.98200 34.64000
H  8.81100 5.19500 33.96000
H  4.86400 8.18100 28.00000
H  4.70300 7.16600 29.34700
H  3.62900 6.93600 27.95800
H  4.66100 8.67800 25.93500
H  3.32600 7.41800 25.64200
H  3.82600 8.39800 24.34800
H  8.29400 3.35400 22.70600
H  8.16400 0.40300 23.30600
H  5.62400 2.42100 23.01800
H  6.57100 1.27200 21.93700
H  6.35000 3.01400 21.72900
H  10.92200 1.32000 23.35200
H  10.23200 2.46100 22.34600
H  10.77500 0.86100 20.74100
H  9.13500 0.26500 21.08700
H  10.51900 -0.47900 21.82700
H  12.34600 -1.62900 28.12400
H  11.89200 -1.44300 26.38300
H  11.08500 -2.70500 27.39600
H  10.95600 0.76600 31.98100
H  7.99000 -1.67800 34.23300
H  8.10000 -0.01900 34.87600
H  9.17900 -1.36100 35.43800
Mg 49.58500 47.68900 42.79900
C  46.33300 48.34200 41.40100
C  49.60000 44.77300 40.84500
C  52.82000 47.32600 43.52300
C  49.70900 51.06700 43.74900
N  48.15300 46.76300 41.25200
C  46.82800 47.12900 40.93700
C  46.17400 46.11000 39.95800
C  47.21500 44.95400 39.88700
C  48.41400 45.49900 40.71500
C  46.73100 43.50300 40.29600
C  45.64100 46.74500 38.59800
C  44.11000 46.48700 38.32000
H  43.50900 45.95500 37.02000
N  51.07000 46.28600 42.22300
C  50.88200 45.12000 41.50600
C  52.11600 44.41300 41.47500
C  53.04100 45.08100 42.32000
C  52.30800 46.26800 42.73500
C  52.32300 43.12600 40.72700
C  54.43300 44.62600 42.71800
O  54.92500 43.56800 42.21600
C  55.52700 45.35100 43.60800
N  51.08500 49.08600 43.50700
C  52.29800 48.55900 43.92000
C  52.99800 49.54100 44.85900
C  52.15300 50.88300 44.80700
C  50.91600 50.41200 43.94300
C  53.35800 49.05100 46.28800
C  52.88600 52.08100 44.03700
C  52.50500 53.53800 44.45500
N  48.25100 49.34700 42.73700
C  48.51700 50.63700 43.10800
C  47.33000 51.43500 42.84200
C  46.37500 50.54700 42.17600
C  47.02700 49.31500 42.13800
C  47.14000 52.88200 43.06200
C  45.04300 50.40600 41.57400
O  44.08700 51.18400 41.54600
C  44.93400 48.89400 41.29100
C  43.99000 48.18500 42.26600
O  44.17500 48.09600 43.46600
O  42.87900 47.82700 41.59100
C  41.93500 46.87500 42.09600
H  49.53800 43.78800 40.37700
H  53.80600 47.22600 43.98200
H  49.70400 52.05200 44.22100
H  45.29500 45.82500 40.53500
H  47.59300 44.96100 38.86500
H  45.65100 43.64900 40.25700
H  47.21900 43.25600 41.23800
H  47.12300 42.81800 39.54400
H  46.07900 46.22500 37.74600
H  45.85600 47.81400 38.57700
H  43.82500 47.53700 38.25500
H  43.64600 46.10800 39.23100
H  52.88200 43.42000 39.83900
H  51.36600 42.69800 40.43000
H  52.99800 42.43600 41.23300
H  55.60000 46.39500 43.30300
H  56.49700 44.89200 43.42000
H  55.34100 45.17000 44.66700
H  54.01100 49.62100 44.46300
H  51.79200 51.25900 45.76500
H  54.23700 49.57300 46.66600
H  53.49500 47.97100 46.22500
H  52.57600 49.22100 47.02700
H  52.60500 52.04900 42.98400
H  53.97000 51.96300 44.01000
H  51.96800 54.13100 43.71600
H  53.31800 54.10200 44.91400
H  51.84400 53.43400 45.31600
H  48.07600 53.38100 42.81300
H  46.84700 52.98200 44.10700
H  46.35300 53.37400 42.49100
H  44.61300 48.71000 40.26500
H  42.02400 46.53600 43.12800
H  41.74100 46.09900 41.35600
H  41.12700 47.60300 42.17000

