158

Mg 48.45600 13.81500 27.81700
C  46.65500 14.21500 30.66200
C  50.94100 15.91100 29.14800
C  50.42400 13.37400 24.92000
C  45.92700 12.15800 26.40700
N  48.76200 14.89300 29.70000
C  47.83600 14.89100 30.71400
C  48.39100 15.59600 31.90500
C  49.45800 16.48000 31.23600
C  49.80700 15.64400 29.96500
C  49.03300 17.91100 30.94200
C  48.98100 14.56800 32.99800
C  48.37800 14.88100 34.38300
H  49.37300 14.85500 35.56900
N  50.35700 14.61600 27.14400
C  51.20200 15.45500 27.84700
C  52.43600 15.74900 27.11800
C  52.21400 15.11500 25.84200
C  50.97400 14.33700 25.88300
C  53.57300 16.45300 27.68200
C  53.08300 15.08400 24.60500
O  52.76500 14.78100 23.49000
C  54.53500 15.69600 24.62400
N  48.16900 12.99000 25.84900
C  49.14200 12.80200 24.88200
C  48.58500 12.04800 23.69200
C  47.12700 11.73600 24.21700
C  47.09300 12.28300 25.66400
C  48.72000 12.69700 22.31500
C  46.59000 10.26700 23.96500
C  46.91300 9.25800 25.01400
N  46.60100 13.33900 28.30700
C  45.68000 12.61700 27.65900
C  44.56100 12.34800 28.52700
C  44.89600 12.92900 29.73400
C  46.12500 13.58400 29.56600
C  43.25700 11.67200 28.13700
C  44.39000 13.23800 31.09100
O  43.34000 12.98500 31.71200
C  45.60900 13.94900 31.73500
C  45.04800 15.18300 32.27900
O  44.53200 16.12800 31.63400
O  45.16800 15.21700 33.61700
C  44.55900 16.32500 34.42400
H  51.60300 16.59600 29.68300
H  50.95500 13.23500 23.97500
H  45.08800 11.62000 25.95900
H  47.64300 16.33300 32.19800
H  50.39500 16.40000 31.78700
H  48.73200 18.46400 31.83200
H  48.23200 17.82800 30.20700
H  49.76300 18.48700 30.37300
H  50.06600 14.67500 33.00000
H  48.72200 13.52000 32.84700
H  47.68500 14.06500 34.59200
H  47.90900 15.85900 34.49400
H  53.45000 16.91000 28.66400
H  53.88500 17.33200 27.11700
H  54.42100 15.77100 27.73300
H  55.08300 15.20900 25.43100
H  54.39700 16.77500 24.68900
H  55.06700 15.54000 23.68500
H  49.11600 11.10300 23.57300
H  46.61300 12.46200 23.58800
H  49.27300 12.05700 21.62700
H  49.19000 13.63800 22.60100
H  47.75200 12.96100 21.88800
H  47.09600 9.87300 23.08300
H  45.51100 10.32600 23.82200
H  47.29100 9.69900 25.93700
H  47.71500 8.60900 24.66300
H  46.02900 8.67200 25.26600
H  42.36700 12.16700 28.52500
H  43.31100 10.61400 28.39300
H  43.02600 11.85700 27.08800
H  46.10600 13.41900 32.54700
H  43.48700 16.16700 34.54600
H  44.79300 17.30400 34.00700
H  45.03800 16.24900 35.40000
Mg -5.57300 25.24900 26.22100
C  -3.79000 26.69500 28.85700
C  -6.88200 23.00800 28.28700
C  -7.03200 23.83300 23.47400
C  -3.71100 27.27100 24.00100
N  -5.46700 25.07500 28.36800
C  -4.69300 25.72900 29.25000
C  -5.11200 25.29700 30.70200
C  -5.82700 23.90400 30.45400
C  -6.18000 24.05600 28.97300
C  -4.98500 22.65200 30.80200
C  -6.10500 26.35700 31.32400
C  -5.86400 26.63100 32.84500
H  -5.35700 25.30700 33.71000
N  -6.97100 23.78900 25.97900
C  -7.30200 22.86700 26.95800
C  -8.21800 21.88000 26.40100
C  -8.30800 22.16500 24.98900
C  -7.42900 23.33500 24.77500
C  -8.73800 20.72500 27.17100
C  -9.04000 21.49600 23.91900
O  -9.12200 21.85300 22.72700
C  -9.69000 20.23100 24.24400
N  -5.40000 25.44700 24.03200
C  -6.12100 24.79100 23.14300
C  -5.82200 25.17400 21.65700
C  -4.95200 26.41400 21.90900
C  -4.64400 26.38800 23.39000
C  -5.06300 24.02800 20.88600
C  -5.61300 27.76300 21.46100
C  -5.43300 28.14600 20.00500
N  -3.98200 26.67800 26.36500
C  -3.33600 27.37800 25.33000
C  -2.36600 28.22700 26.00100
C  -2.55600 28.02500 27.37400
C  -3.48100 27.05600 27.53400
C  -1.40400 29.31000 25.34200
C  -2.06100 28.41100 28.68700
O  -1.28700 29.29200 29.02000
C  -2.87600 27.51100 29.73200
C  -2.01300 26.66300 30.62800
O  -1.57000 25.55500 30.34400
O  -1.83900 27.22400 31.82700
C  -1.07600 26.58900 32.86400
H  -7.24500 22.15600 28.86600
H  -7.40700 23.30800 22.59300
H  -3.37900 27.99800 23.25700
H  -4.20700 25.15700 31.29400
H  -6.81100 23.79500 30.90900
H  -5.56600 21.93500 31.38100
H  -4.07100 22.99800 31.28500
H  -4.63500 22.23200 29.85900
H  -7.13100 25.99100 31.28400
H  -6.14400 27.33800 30.85100
H  -6.74900 27.10000 33.27400
H  -5.05500 27.35900 32.91500
H  -9.82000 20.82000 27.26000
H  -8.42400 20.58500 28.20500
H  -8.48500 19.78800 26.67500
H  -8.95600 19.50800 24.59800
H  -10.27600 19.83000 23.41700
H  -10.39100 20.45100 25.04900
H  -6.70600 25.50800 21.11200
H  -4.02600 26.38200 21.33600
H  -4.05000 24.34900 20.64300
H  -5.76000 23.81900 20.07500
H  -4.98400 23.11900 21.48200
H  -5.12000 28.63200 21.89700
H  -6.65500 27.91000 21.74400
H  -6.47500 28.30900 19.72700
H  -5.06200 27.28800 19.44400
H  -4.98900 29.12100 19.80300
H  -0.78600 28.97200 24.51100
H  -0.76600 29.75100 26.10800
H  -2.00200 30.09700 24.88300
H  -3.44400 28.17000 30.38900
H  -0.70000 25.57500 32.73100
H  -1.68800 26.67500 33.76200
H  -0.24300 27.29200 32.85100

