158

Mg 3.67700 0.40500 44.14900
C  6.33500 2.54100 44.10300
C  1.75300 2.89800 42.48800
C  1.32900 -2.03300 43.31200
C  5.55100 -1.95900 45.66200
N  4.01600 2.43600 43.36600
C  5.20700 3.12200 43.41100
C  5.13600 4.55600 42.75200
C  3.61800 4.61200 42.43600
C  3.06200 3.21900 42.75900
C  2.88800 5.69200 43.22900
C  6.11800 4.77900 41.61200
C  6.52800 3.63600 40.67700
H  7.35800 3.92200 39.44600
N  1.73200 0.41300 43.06400
C  1.09700 1.60200 42.63100
C  -0.23100 1.24400 42.24600
C  -0.40800 -0.20500 42.52300
C  0.95200 -0.70400 42.97300
C  -1.21200 2.23300 41.70300
C  -1.69500 -0.91600 42.14700
O  -2.66000 -0.25400 41.75800
C  -1.94000 -2.40400 42.16000
N  3.57400 -1.75600 44.15900
C  2.50400 -2.49900 43.94600
C  2.74200 -3.99500 44.16400
C  4.09000 -3.91700 44.97100
C  4.41400 -2.42500 44.95500
C  1.65300 -4.70000 44.94600
C  5.18700 -4.82400 44.31900
C  5.94500 -5.61000 45.39700
N  5.55900 0.29900 44.76000
C  6.19200 -0.75200 45.40200
C  7.44600 -0.27000 45.83100
C  7.61200 1.01700 45.29800
C  6.38700 1.29100 44.67600
C  8.40000 -0.98900 46.73900
C  8.51900 2.18800 45.12700
O  9.69800 2.29000 45.45700
C  7.70800 3.26300 44.40700
C  7.46400 4.39300 45.44700
O  8.36000 5.03900 45.97200
O  6.15500 4.54500 45.77800
C  5.76500 5.70900 46.59600
H  1.18400 3.65000 41.93800
H  0.50100 -2.73400 43.18800
H  6.10600 -2.66700 46.28000
H  5.56900 5.23400 43.48800
H  3.42800 4.63800 41.36300
H  3.54800 6.52100 43.48200
H  2.29100 5.28900 44.04600
H  2.20800 6.07300 42.46700
H  6.96900 5.16400 42.17400
H  5.75100 5.59700 40.99300
H  5.63700 3.13500 40.29900
H  7.06100 2.97400 41.35900
H  -1.20100 2.02400 40.63400
H  -0.93100 3.27200 41.87600
H  -2.22300 2.13200 42.09900
H  -2.10500 -2.88200 43.12600
H  -1.07400 -2.92600 41.75200
H  -2.77000 -2.51900 41.46200
H  2.85100 -4.52700 43.21900
H  3.83600 -4.26600 45.97200
H  1.16600 -3.87200 45.46100
H  1.92800 -5.45300 45.68500
H  0.94400 -5.19300 44.28100
H  5.94100 -4.14300 43.92400
H  4.78600 -5.39300 43.48000
H  7.01600 -5.59100 45.19700
H  5.71000 -6.67000 45.30600
H  5.78200 -5.13700 46.36600
H  9.16400 -0.32500 47.14400
H  9.07000 -1.72400 46.29200
H  7.87900 -1.57000 47.50000
H  8.27900 3.53400 43.51900
H  4.70000 5.93800 46.55900
H  6.24200 6.66200 46.36800
H  5.94000 5.50400 47.65200
Mg -9.54400 42.46400 42.48500
C  -8.32100 39.12600 41.72800
C  -6.51100 43.51700 40.94400
C  -10.78200 45.43300 42.24700
C  -12.53900 40.96400 43.48000
N  -7.51900 41.38200 41.56400
C  -7.30100 40.06000 41.40000
C  -6.02300 39.76100 40.62600
C  -5.32900 41.23800 40.63700
C  -6.53300 42.14700 41.10500
C  -4.04600 41.36500 41.41100
C  -6.23600 39.16000 39.21800
C  -5.39200 37.92200 38.82700
H  -4.32700 38.29200 37.76500
N  -8.69200 44.19600 41.72800
C  -7.47800 44.43800 41.12200
C  -7.35100 45.88700 40.93100
C  -8.56700 46.48400 41.32100
C  -9.41000 45.35100 41.81200
C  -6.21000 46.55500 40.21600
C  -8.86800 48.01500 41.28500
O  -7.98100 48.78000 40.90100
C  -10.23300 48.58600 41.57200
N  -11.44300 43.07900 42.77700
C  -11.71200 44.43800 42.73100
C  -13.05700 44.70800 43.54500
C  -13.57400 43.25000 43.98200
C  -12.46500 42.36100 43.37700
C  -12.78200 45.63900 44.80000
C  -15.04300 42.89400 43.55700
C  -16.07900 42.96000 44.68900
N  -10.26500 40.49200 42.72800
C  -11.51400 40.07900 43.07700
C  -11.59700 38.65000 42.99300
C  -10.41800 38.25000 42.44900
C  -9.60300 39.39800 42.25000
C  -12.79400 37.86000 43.31000
C  -9.69500 37.03500 42.03400
O  -10.00200 35.82500 42.09200
C  -8.30100 37.61200 41.56500
C  -7.27600 36.73300 42.21100
O  -6.91100 36.73200 43.40500
O  -6.62000 35.97500 41.23400
C  -5.74200 34.99900 41.82200
H  -5.52900 43.87000 40.62100
H  -11.09000 46.46500 42.42800
H  -13.38900 40.39600 43.86400
H  -5.37300 39.05600 41.14500
H  -5.18400 41.61800 39.62600
H  -3.42000 40.49000 41.23800
H  -4.43400 41.46700 42.42400
H  -3.66000 42.31500 41.03900
H  -5.95800 40.00600 38.58900
H  -7.29200 38.93700 39.06200
H  -6.06100 37.18900 38.37700
H  -4.88700 37.48500 39.68800
H  -5.69600 47.32900 40.78600
H  -6.67100 47.02400 39.34700
H  -5.52700 45.81400 39.80200
H  -10.28900 48.50400 42.65700
H  -10.93200 47.99000 40.98500
H  -10.42800 49.63500 41.34700
H  -13.83800 45.27500 43.03700
H  -13.49100 43.18000 45.06600
H  -11.85500 46.17200 44.59000
H  -12.70200 45.06000 45.72000
H  -13.54700 46.41500 44.78800
H  -15.08000 41.95000 43.01400
H  -15.35200 43.70600 42.89900
H  -16.70000 43.84400 44.54600
H  -15.61800 43.06500 45.67100
H  -16.81500 42.15600 44.67200
H  -12.42200 36.90000 43.66700
H  -13.41600 37.77400 42.41900
H  -13.27700 38.33400 44.16400
H  -8.27400 37.41900 40.49300
H  -4.96800 35.53800 42.36700
H  -5.21300 34.52500 40.99500
H  -6.27700 34.19400 42.32700

