158

Mg 47.71500 16.43400 28.63100
C  45.76500 15.98700 31.47300
C  49.74300 18.64700 30.49300
C  49.32100 17.07900 25.92200
C  45.04700 15.09400 26.74500
N  47.79900 17.19000 30.73500
C  46.94200 16.74700 31.74200
C  47.48200 17.23800 33.11100
C  48.56800 18.23200 32.67300
C  48.71800 18.02800 31.16500
C  48.19700 19.74100 32.96600
C  48.05200 16.02300 33.86500
C  48.06200 16.10100 35.38100
H  47.88800 17.38600 36.11900
N  49.43600 17.53400 28.32500
C  50.11000 18.45700 29.14200
C  51.21600 19.02700 28.45000
C  51.13900 18.43700 27.12900
C  49.94600 17.65200 27.09300
C  52.33400 19.73100 29.15900
C  51.96500 18.79600 25.96000
O  51.92600 18.24400 24.86800
C  52.86200 19.88500 25.93700
N  47.12400 16.26800 26.58100
C  48.11200 16.50700 25.67400
C  47.64900 16.15500 24.25000
C  46.40700 15.20600 24.50400
C  46.12200 15.62000 26.02600
C  47.30200 17.36700 23.32900
C  46.65000 13.69300 24.48600
C  45.89800 12.92200 23.35700
N  45.82000 15.68600 28.99400
C  44.88400 15.10500 28.11300
C  43.79600 14.58900 28.88300
C  44.12400 14.97700 30.21500
C  45.31200 15.59700 30.20600
C  42.58800 13.75900 28.33600
C  43.65100 14.95800 31.57600
O  42.60900 14.54500 32.08400
C  44.69200 15.64600 32.44300
C  43.97200 16.76900 33.10500
O  43.34300 17.65700 32.54100
O  44.06700 16.59300 34.48300
C  43.31100 17.46800 35.36500
H  50.44500 19.22800 31.09500
H  49.94900 17.23500 25.04200
H  44.26600 14.72900 26.07400
H  46.74700 17.82700 33.65800
H  49.53200 18.09000 33.16200
H  47.12600 19.83600 33.14300
H  48.47500 20.32800 32.09100
H  48.74800 20.12100 33.82700
H  49.09300 15.90400 33.56200
H  47.60400 15.08300 33.54100
H  48.95900 15.59600 35.74100
H  47.24900 15.48400 35.76300
H  53.33800 19.60400 28.75200
H  52.55200 19.24500 30.11000
H  52.13400 20.79400 29.29000
H  52.85700 20.48100 26.85000
H  52.75200 20.48400 25.03300
H  53.88900 19.53200 25.85000
H  48.39600 15.49900 23.80200
H  45.71800 15.47300 23.70300
H  46.47300 16.99400 22.72700
H  48.19300 17.51400 22.71800
H  47.11800 18.30100 23.85900
H  46.39100 13.31500 25.47500
H  47.72500 13.52600 24.41500
H  46.42800 11.99700 23.13100
H  45.89000 13.50700 22.43700
H  44.88700 12.74800 23.72600
H  42.64000 12.71200 28.63400
H  42.66000 13.97900 27.27100
H  41.63600 14.24300 28.55600
H  44.98100 14.89300 33.17600
H  43.22500 16.97900 36.33500
H  42.30000 17.42700 34.95800
H  43.58400 18.50900 35.53900
Mg -10.63400 39.24900 41.07300
C  -9.16700 36.23100 39.80600
C  -8.15900 40.88300 39.39400
C  -12.61400 41.93300 41.06000
C  -13.21400 37.21300 42.19600
N  -8.98400 38.62300 39.77900
C  -8.56600 37.36800 39.31300
C  -7.47200 37.42500 38.30700
C  -6.97200 38.84700 38.43100
C  -8.07300 39.48000 39.27800
C  -5.67800 39.04500 39.25100
C  -7.92500 36.91800 36.82100
C  -7.06000 35.91500 35.94900
H  -6.66400 36.37100 34.54000
N  -10.35900 41.20500 40.55600
C  -9.27100 41.71000 39.91000
C  -9.35500 43.13600 39.78200
C  -10.68800 43.49700 40.07900
C  -11.27100 42.20600 40.64000
C  -8.27500 44.00500 39.24700
C  -11.29000 44.91300 39.94000
O  -10.55500 45.88500 39.64800
C  -12.67100 45.16900 40.47200
N  -12.66400 39.54100 41.57500
C  -13.25400 40.79500 41.53500
C  -14.67300 40.76200 42.02100
C  -14.83400 39.26500 42.48000
C  -13.49200 38.57500 41.94800
C  -15.09400 41.73000 43.14300
C  -16.01500 38.33500 42.01000
C  -16.76000 37.52700 43.00100
N  -10.99600 37.13400 41.28300
C  -12.12400 36.49200 41.78700
C  -11.86500 35.03300 41.77100
C  -10.76100 34.89900 40.94000
C  -10.31400 36.26500 40.58600
C  -12.76700 33.89700 42.30700
C  -9.90000 33.93100 40.30700
O  -9.95700 32.68100 40.35400
C  -8.82500 34.77400 39.44800
C  -7.42300 34.32400 39.88600
O  -6.54700 34.02400 39.07600
O  -7.31800 34.18200 41.28100
C  -6.10400 33.46800 41.75800
H  -7.27900 41.28200 38.88500
H  -13.15500 42.88100 41.03700
H  -14.06600 36.60300 42.50100
H  -6.66200 36.77200 38.63200
H  -6.90400 39.38400 37.48400
H  -5.51000 38.13700 39.82900
H  -5.69700 39.88200 39.94900
H  -4.78400 39.18300 38.64300
H  -7.93800 37.82300 36.21300
H  -8.94600 36.55300 36.93700
H  -7.57300 34.97800 35.73300
H  -6.15700 35.69400 36.51900
H  -8.79300 44.78100 38.68400
H  -7.68700 43.42300 38.53700
H  -7.67600 44.57500 39.95700
H  -13.53200 44.73900 39.96100
H  -12.88000 46.23900 40.45600
H  -12.63300 44.87600 41.52100
H  -15.33400 40.89600 41.16500
H  -14.66800 39.13300 43.54900
H  -15.52100 42.60300 42.64900
H  -14.18900 42.05200 43.65800
H  -15.80100 41.34100 43.87600
H  -15.67800 37.76900 41.14200
H  -16.65100 39.07600 41.52600
H  -16.36700 36.51300 42.93100
H  -17.82800 37.49500 42.78300
H  -16.66800 37.89100 44.02400
H  -12.91900 34.07800 43.37100
H  -12.16700 32.98700 42.29100
H  -13.65900 33.68400 41.71800
H  -8.88300 34.70600 38.36200
H  -6.17600 33.16000 42.80100
H  -5.16500 34.00400 41.61900
H  -6.09800 32.60300 41.09500

