158

Mg 35.39600 47.86500 24.88200
C  35.58900 46.15000 27.95600
C  33.74600 50.54000 26.52100
C  34.77000 49.38800 21.85400
C  36.64400 45.09800 23.36800
N  34.68900 48.22800 26.98800
C  35.00200 47.42300 28.10300
C  34.70100 48.24300 29.36400
C  33.94600 49.48300 28.86500
C  34.15200 49.47900 27.35500
C  32.48000 49.61700 29.38600
C  36.01400 48.50600 30.11900
C  36.10300 47.89200 31.50700
H  35.79700 48.80300 32.76400
N  34.52000 49.82400 24.28500
C  33.94700 50.75800 25.12600
C  33.50700 51.91600 24.33300
C  33.83700 51.62100 22.92300
C  34.40300 50.22700 22.93700
C  32.83600 53.15800 24.95500
C  33.56200 52.42200 21.61200
O  33.80100 52.06800 20.44200
C  33.00200 53.79900 21.72000
N  35.55700 47.24400 22.85800
C  35.31300 48.05900 21.83100
C  35.66800 47.37700 20.52500
C  36.36000 46.06000 21.02700
C  36.16600 46.08900 22.49600
C  34.41600 47.15800 19.66800
C  37.86800 45.95000 20.67600
C  38.80000 46.95400 21.28000
N  36.13000 46.01600 25.49600
C  36.61900 45.03200 24.74300
C  37.19100 43.94600 25.60600
C  36.75500 44.33300 26.87200
C  36.05800 45.56800 26.75500
C  37.80400 42.57600 25.08600
C  36.66600 43.88900 28.25300
O  37.15100 43.00000 28.93400
C  36.06000 45.20700 29.06000
C  34.95900 44.61300 29.79400
O  33.85100 44.31100 29.41300
O  35.37400 44.36200 31.05700
C  34.52200 43.48400 31.86200
H  33.16300 51.33500 26.99000
H  34.57800 49.90000 20.90800
H  37.28600 44.33800 22.91900
H  34.03400 47.59500 29.93100
H  34.38300 50.40100 29.25900
H  31.77200 49.26400 28.63600
H  32.26700 50.66400 29.60500
H  32.32300 49.10900 30.33800
H  36.02900 49.59500 30.12700
H  36.94500 48.16800 29.66500
H  37.00500 47.30300 31.67300
H  35.39100 47.06600 31.50500
H  31.82200 53.25000 24.56500
H  33.35600 54.11300 24.88700
H  32.81700 53.17400 26.04500
H  32.95000 54.31900 20.76400
H  33.69100 54.43000 22.28100
H  32.08900 53.78500 22.31500
H  36.30600 48.02200 19.92100
H  35.88400 45.14500 20.67500
H  34.49000 46.15200 19.25400
H  34.43400 47.80700 18.79300
H  33.49100 47.31800 20.22000
H  37.91300 46.11300 19.59900
H  38.27500 44.96000 20.87700
H  39.67800 47.15700 20.66700
H  39.15300 46.44100 22.17500
H  38.29400 47.89100 21.51000
H  38.70300 42.35400 25.66200
H  37.86900 42.56500 23.99800
H  36.94900 41.96000 25.36400
H  36.83600 45.59800 29.71700
H  33.80600 44.04400 32.46200
H  35.09400 43.02000 32.66500
H  34.05500 42.68800 31.28200
Mg 6.08600 53.50600 40.68300
C  5.20200 50.10000 40.50800
C  9.34300 52.66700 39.83300
C  6.64300 56.76800 39.82400
C  2.67000 54.30700 41.17400
N  7.12900 51.56800 40.12900
C  6.60100 50.30100 40.17000
C  7.57400 49.27100 39.74700
C  8.94300 50.05500 39.83900
C  8.46700 51.53300 39.90500
C  9.83800 49.60900 41.07600
C  7.40000 48.58400 38.35500
C  6.98000 49.46500 37.12600
H  6.00200 48.89400 36.10600
N  7.70600 54.60300 39.96800
C  9.03900 54.06200 39.76400
C  9.95100 55.14600 39.32800
C  9.12800 56.35300 39.41800
C  7.75000 55.93700 39.76100
C  11.34600 55.08000 38.80500
C  9.58700 57.80000 39.00300
O  10.76200 57.99200 38.75400
C  8.65800 58.96300 38.94800
N  4.77200 55.28100 40.38600
C  5.28100 56.45700 40.18800
C  4.22300 57.59800 40.25200
C  2.99100 56.81800 40.74400
C  3.47600 55.35400 40.84200
C  4.64200 58.81100 41.22600
C  1.75500 56.97200 39.71200
C  0.46800 57.63300 40.26700
N  4.30900 52.44000 40.98300
C  2.99100 52.90300 41.12100
C  2.08700 51.75900 41.28100
C  2.89800 50.63400 41.05500
C  4.26100 51.13600 40.86100
C  0.61200 51.88300 41.52200
C  2.97000 49.20400 40.94300
O  2.09300 48.38600 41.17700
C  4.44300 48.78400 40.71000
C  4.38500 47.86200 39.55400
O  4.14200 48.21800 38.42700
O  4.75100 46.53400 39.88700
C  5.07300 45.71200 38.72200
H  10.38900 52.47800 39.58200
H  6.77800 57.83900 39.65700
H  1.67100 54.61300 41.49200
H  7.49900 48.53500 40.54800
H  9.55000 49.87600 38.95100
H  10.71100 49.07800 40.69600
H  9.28000 48.88900 41.67400
H  10.23400 50.42600 41.67900
H  6.62100 47.83800 38.51100
H  8.33200 48.07100 38.11700
H  7.87800 49.82000 36.62000
H  6.59300 50.42100 37.48100
H  11.50900 55.26100 37.74200
H  11.76900 54.10900 39.06500
H  12.01700 55.75100 39.34100
H  9.22100 59.87200 38.73500
H  8.35300 59.24900 39.95500
H  7.81900 58.93100 38.25300
H  4.10100 58.04300 39.26400
H  2.76300 57.11100 41.76900
H  3.89100 58.99800 41.99400
H  4.74100 59.78100 40.73800
H  5.56400 58.50000 41.71700
H  1.49700 55.96000 39.40100
H  1.97800 57.52000 38.79700
H  -0.24800 56.82400 40.41600
H  0.04800 58.40100 39.61900
H  0.68200 58.08100 41.23800
H  0.19100 51.50800 40.58900
H  0.23600 52.89900 41.63800
H  0.54900 51.24100 42.40100
H  4.80500 48.22700 41.57400
H  5.94900 46.02800 38.15500
H  4.17900 45.74500 38.09800
H  5.21400 44.66700 38.99900

