158

Mg 17.68800 -2.35000 28.90500
C  16.05500 -0.64000 31.44000
C  19.64100 -3.84500 31.21600
C  19.37700 -3.61600 26.21100
C  16.04000 -0.12700 26.49800
N  17.75400 -2.32000 31.09100
C  16.98600 -1.54100 31.98600
C  17.34200 -1.85700 33.44000
C  18.50900 -2.86400 33.38300
C  18.75400 -2.98400 31.80200
C  19.72900 -2.46900 34.16200
C  16.04100 -2.36600 34.21500
C  15.68200 -1.52900 35.44900
H  16.82500 -0.77800 36.23900
N  19.02100 -3.75300 28.71200
C  19.78400 -4.24200 29.80500
C  20.71400 -5.23500 29.23900
C  20.54600 -5.22500 27.84100
C  19.63500 -4.10200 27.58400
C  21.77000 -5.88100 30.11000
C  21.17200 -6.20200 26.84300
O  20.91800 -6.10200 25.65500
C  22.00300 -7.38500 27.33400
N  17.81500 -1.90400 26.66600
C  18.57800 -2.62600 25.83300
C  18.30000 -2.19200 24.43200
C  17.14300 -1.11300 24.50700
C  16.97600 -1.03300 26.01700
C  19.54300 -1.84900 23.67600
C  15.83600 -1.33100 23.69800
C  15.47800 -0.10300 22.74500
N  16.34200 -0.72500 28.94600
C  15.74500 0.04800 27.89600
C  14.85700 0.93600 28.48500
C  14.91100 0.72600 29.91900
C  15.87200 -0.28600 30.09400
C  13.97700 1.83000 27.73400
C  14.42700 1.24700 31.14900
O  13.63900 2.13700 31.39500
C  15.30500 0.43800 32.19500
C  16.21300 1.41300 32.81100
O  17.20100 1.80600 32.27300
O  15.68100 1.86400 34.03400
C  16.27300 3.01100 34.70200
H  20.31900 -4.33000 31.92100
H  19.86100 -4.02800 25.32300
H  15.41500 0.48200 25.84200
H  17.63200 -0.86500 33.78600
H  18.22600 -3.84600 33.76200
H  19.42200 -1.63100 34.78800
H  20.67900 -2.34900 33.64200
H  19.97600 -3.26800 34.86200
H  16.25900 -3.35800 34.61000
H  15.14200 -2.35100 33.59900
H  15.36900 -2.27200 36.18300
H  14.84100 -0.89000 35.18100
H  22.36100 -5.18300 30.70300
H  22.62400 -6.31600 29.59000
H  21.36900 -6.68000 30.73400
H  21.33400 -7.77900 28.09900
H  22.99700 -7.11700 27.69100
H  22.12700 -8.08300 26.50600
H  17.90300 -3.09200 23.96200
H  17.53500 -0.10900 24.33900
H  19.41300 -0.94700 23.07800
H  19.84000 -2.61500 22.95900
H  20.46000 -1.66100 24.23500
H  15.04600 -1.45300 24.44000
H  15.94100 -2.20400 23.05500
H  16.25100 0.64800 22.58400
H  14.58200 0.36300 23.15300
H  15.36200 -0.46100 21.72100
H  13.07800 2.04300 28.31200
H  13.60600 1.32400 26.84300
H  14.32200 2.83800 27.50100
H  14.63700 -0.03000 32.91800
H  15.45900 3.71400 34.52300
H  17.16900 3.34700 34.17900
H  16.46000 2.95700 35.77500
Mg 41.78900 41.38000 25.80000
C  40.68000 43.69000 28.14600
C  42.69000 39.28100 28.39000
C  42.97500 39.39600 23.41100
C  41.06300 43.80900 23.20300
N  41.40800 41.38300 28.08600
C  41.02600 42.51700 28.74900
C  40.92100 42.14100 30.32600
C  41.82600 40.88900 30.30500
C  41.94100 40.44000 28.85700
C  43.23800 41.18100 30.85900
C  39.52000 41.94700 30.93500
C  39.56600 41.52000 32.46800
H  38.79700 42.39000 33.40900
N  42.55800 39.53700 25.88400
C  42.85900 38.79800 27.01900
C  43.27000 37.52000 26.55100
C  43.42500 37.55400 25.16900
C  43.00200 38.88700 24.76400
C  43.54700 36.32300 27.48400
C  43.92500 36.53300 24.13500
O  43.89800 36.68500 22.92500
C  44.21700 35.24200 24.56100
N  41.90100 41.51400 23.57500
C  42.56900 40.65600 22.84100
C  42.72300 41.07900 21.36600
C  41.68200 42.22200 21.30400
C  41.52000 42.56000 22.78500
C  44.09700 41.45500 20.88900
C  40.30700 41.87500 20.62700
C  39.31100 40.94800 21.48800
N  41.08700 43.31900 25.67000
C  40.88800 44.16000 24.56900
C  40.37000 45.48100 25.01600
C  40.26300 45.28600 26.40200
C  40.75300 44.00500 26.76100
C  39.85600 46.57200 24.11800
C  39.81100 45.94800 27.64600
O  39.22700 47.00900 27.74500
C  40.07600 44.96100 28.79900
C  40.96700 45.56000 29.74400
O  42.09500 46.02900 29.51300
O  40.46200 45.32100 31.00300
C  41.41000 45.40400 32.15400
H  42.93100 38.61400 29.22100
H  43.49800 38.95900 22.55700
H  40.78000 44.48500 22.39400
H  41.36900 42.99500 30.83400
H  41.35400 40.03700 30.79400
H  44.03200 40.97900 30.14100
H  43.56000 40.41500 31.56400
H  43.35000 42.14700 31.35200
H  38.88600 41.43600 30.21000
H  39.05600 42.92600 31.05300
H  40.55100 41.54200 32.93400
H  39.07800 40.54500 32.46700
H  43.47600 36.69600 28.50600
H  44.60000 36.04500 27.46300
H  43.07500 35.35800 27.29200
H  44.96900 35.37800 25.33800
H  44.57600 34.64000 23.72700
H  43.32300 34.80300 25.00400
H  42.36800 40.28700 20.70500
H  42.06100 43.01400 20.65900
H  44.91800 41.30300 21.58900
H  44.25600 42.47300 20.53500
H  44.33300 40.86700 20.00200
H  40.61000 41.25300 19.78400
H  39.72200 42.67400 20.17200
H  39.85900 40.27800 22.15000
H  38.60600 40.47000 20.80800
H  38.66000 41.66700 21.98500
H  39.61900 46.11900 23.15600
H  40.69400 47.20500 23.82500
H  39.07700 47.27800 24.40400
H  39.08400 44.86200 29.23900
H  42.43400 45.74900 32.01000
H  41.34300 44.49200 32.74700
H  40.88400 46.17400 32.71800

