158

Mg 25.14400 -6.75200 48.29800
C  26.35700 -3.95600 46.55100
C  22.32500 -6.63300 46.24000
C  24.10500 -9.60900 49.61600
C  28.08200 -6.77800 50.07000
N  24.51900 -5.56800 46.45200
C  25.21000 -4.52100 45.99100
C  24.55300 -3.94600 44.69200
C  23.12300 -4.69500 44.78400
C  23.23500 -5.67700 45.89600
C  21.91000 -3.75800 44.78000
C  25.32600 -4.14700 43.42200
C  25.71900 -2.85000 42.67300
H  25.33400 -2.72600 41.13700
N  23.37800 -7.99000 48.02800
C  22.41100 -7.76200 47.14400
C  21.46100 -8.87100 47.29100
C  21.96800 -9.71100 48.29000
C  23.20800 -9.16600 48.71400
C  20.19100 -8.98900 46.50800
C  21.29500 -10.95000 48.79800
O  20.18100 -11.20300 48.35700
C  21.77000 -12.02700 49.77400
N  26.04600 -8.08800 49.60100
C  25.40600 -9.20700 50.07300
C  26.37900 -10.05000 50.92600
C  27.71800 -9.13700 50.94100
C  27.20000 -7.91400 50.17700
C  25.81200 -10.35300 52.41800
C  29.01200 -9.69700 50.35000
C  30.30000 -9.57300 51.12800
N  26.85900 -5.50000 48.43100
C  27.94100 -5.63800 49.23300
C  28.82600 -4.44300 49.00500
C  28.21100 -3.77900 47.92400
C  27.05400 -4.43400 47.63300
C  30.08200 -4.06500 49.72400
C  28.32200 -2.67500 47.06900
O  29.17600 -1.81100 46.96400
C  27.08700 -2.64000 46.14700
C  26.27200 -1.32500 46.20100
O  26.63900 -0.24900 45.78400
O  25.00500 -1.63800 46.71700
C  24.22000 -0.47600 47.12000
H  21.43200 -6.50700 45.62300
H  23.89700 -10.53800 50.15200
H  28.95800 -6.80900 50.72000
H  24.28500 -2.90600 44.87500
H  22.81300 -5.23100 43.88700
H  22.25500 -2.77500 44.46100
H  21.37600 -3.78700 45.72900
H  21.12000 -4.05000 44.08800
H  24.88400 -4.82600 42.69300
H  26.25700 -4.63600 43.70600
H  26.80300 -2.73200 42.67700
H  25.18900 -2.03000 43.15700
H  19.22000 -9.06000 46.99800
H  20.40600 -9.83700 45.85800
H  19.94500 -8.15100 45.85500
H  22.70200 -12.42600 49.37300
H  21.05700 -12.84400 49.88100
H  21.89900 -11.44900 50.68900
H  26.59900 -11.01000 50.45900
H  27.95200 -8.84300 51.96500
H  24.83300 -10.80900 52.27100
H  25.50100 -9.37500 52.78400
H  26.52700 -10.86800 53.06000
H  29.04300 -9.26700 49.34900
H  28.88800 -10.77200 50.22400
H  31.11800 -9.32000 50.45400
H  30.51400 -10.47300 51.70400
H  30.11600 -8.74900 51.81700
H  30.71600 -3.38400 49.15500
H  30.76700 -4.86000 50.01800
H  29.89400 -3.58300 50.68300
H  27.43200 -2.67900 45.11300
H  24.29700 0.32400 46.38300
H  24.56000 -0.04300 48.06100
H  23.27000 -0.91800 47.41900
Mg 41.90000 41.33000 26.56200
C  41.24400 43.63600 28.93000
C  43.25500 39.20400 29.17500
C  43.04800 39.02400 24.28600
C  41.27400 43.56700 24.09800
N  42.27700 41.45500 28.81200
C  41.64000 42.43100 29.54600
C  41.71800 42.09300 31.06000
C  42.54100 40.75200 31.04200
C  42.66500 40.41800 29.56500
C  43.95900 40.80400 31.68300
C  40.40300 42.12100 31.88600
C  40.23100 43.23900 32.91000
H  39.33000 42.97900 34.10200
N  42.94600 39.30800 26.67200
C  43.37700 38.65900 27.85500
C  43.91700 37.35200 27.42800
C  43.72800 37.18800 26.00300
C  43.13700 38.51600 25.58700
C  44.39800 36.32100 28.42400
C  44.11200 35.99400 25.04300
O  43.98000 35.97600 23.83600
C  44.71500 34.82100 25.60800
N  42.01200 41.30000 24.58900
C  42.59100 40.23600 23.82500
C  42.70700 40.69500 22.39300
C  41.76200 41.88700 22.25200
C  41.70800 42.32200 23.70800
C  44.17300 41.11200 22.02300
C  40.37500 41.72500 21.60000
C  39.42300 40.80600 22.41900
N  41.31400 43.32500 26.40700
C  41.14200 44.11600 25.35200
C  40.83200 45.42200 25.80500
C  40.85200 45.32200 27.25600
C  41.16000 44.00400 27.54300
C  40.63900 46.60900 24.95000
C  40.70200 46.04000 28.53600
O  40.43100 47.20600 28.76300
C  40.87200 44.91400 29.70400
C  41.92900 45.40300 30.65700
O  43.14100 45.35500 30.52300
O  41.28600 45.90500 31.75500
C  42.23500 46.32000 32.85400
H  43.44200 38.50500 29.99300
H  43.38800 38.27300 23.57000
H  41.26400 44.31800 23.30500
H  42.50500 42.78400 31.36200
H  42.00000 39.94900 31.54300
H  43.83700 40.08400 32.49300
H  44.24900 41.77100 32.09400
H  44.76600 40.50500 31.01400
H  40.23900 41.23300 32.49600
H  39.55500 42.23500 31.21100
H  39.70800 44.06900 32.43400
H  41.18800 43.67000 33.20500
H  45.36400 35.96100 28.06900
H  43.77400 35.42700 28.39400
H  44.43000 36.79500 29.40500
H  45.65900 35.18700 26.01100
H  44.95200 34.13100 24.79800
H  44.05900 34.28900 26.29700
H  42.31900 39.98100 21.66700
H  42.22400 42.77700 21.82500
H  44.54900 42.00200 22.52700
H  44.03300 41.32600 20.96300
H  44.90900 40.32000 22.15800
H  40.51400 41.33300 20.59200
H  39.97100 42.72400 21.43700
H  38.40700 41.19900 22.38300
H  39.59800 40.79700 23.49500
H  39.32500 39.81200 21.98200
H  39.61000 46.87000 25.19700
H  40.84300 46.52100 23.88200
H  41.21200 47.43600 25.36900
H  39.94100 44.84800 30.26700
H  43.09500 46.90000 32.52000
H  42.48900 45.48200 33.50300
H  41.55800 46.97500 33.40200

