158

Mg 2.85300 -1.81200 44.27600
C  6.39300 -1.21800 43.79300
C  2.25600 0.86800 42.17100
C  -0.20800 -2.93400 43.84300
C  3.78500 -5.07400 45.44400
N  4.20000 -0.42500 42.99500
C  5.59200 -0.34300 43.04400
C  6.16600 0.68800 42.09700
C  4.84800 1.54100 41.80400
C  3.68700 0.65200 42.42000
C  4.79100 2.93600 42.47900
C  6.83500 -0.03800 40.87900
C  8.29100 0.28000 40.65400
H  8.66500 0.68100 39.24500
N  1.14300 -0.99200 43.39400
C  1.07400 0.10900 42.52900
C  -0.26600 0.33300 42.10700
C  -1.03000 -0.66000 42.71200
C  -0.03400 -1.62000 43.33500
C  -0.62800 1.50300 41.11800
C  -2.51300 -0.76900 42.53700
O  -3.04600 -0.08900 41.65600
C  -3.32600 -1.77500 43.33900
N  1.97200 -3.86700 44.38300
C  0.62900 -3.91600 44.38500
C  0.06700 -5.10500 45.17500
C  1.35800 -5.90400 45.51100
C  2.49500 -4.91800 45.07600
C  -0.75300 -4.74900 46.41700
C  1.57300 -7.13300 44.71500
C  1.27000 -8.43200 45.52100
N  4.66000 -2.85200 44.68200
C  4.87000 -4.13200 45.28300
C  6.26900 -4.26700 45.65900
C  6.84700 -3.12400 45.12900
C  5.86500 -2.35100 44.44100
C  6.94600 -5.35600 46.51200
C  8.16700 -2.52600 45.02600
O  9.23500 -2.90600 45.56000
C  7.97200 -1.24200 44.14200
C  8.34100 0.00400 44.98300
O  7.86800 0.31300 46.04400
O  9.19400 0.73400 44.22800
C  9.26200 2.11800 44.78700
H  2.06200 1.62100 41.40400
H  -1.19800 -3.35400 43.65300
H  3.99200 -6.05000 45.88800
H  6.92200 1.21700 42.67700
H  4.74100 1.66800 40.72700
H  4.02300 3.01000 43.24900
H  4.43100 3.62800 41.71800
H  5.71300 3.28900 42.94100
H  6.37100 0.15700 39.91200
H  6.61700 -1.10600 40.84900
H  8.89800 -0.62200 40.72800
H  8.65600 1.05800 41.32400
H  -1.39200 1.27300 40.37500
H  0.24100 1.80400 40.53300
H  -1.02400 2.35600 41.66700
H  -2.90300 -1.60300 44.32900
H  -3.16000 -2.75500 42.89200
H  -4.36600 -1.47300 43.21400
H  -0.60200 -5.56900 44.45000
H  1.40000 -6.13400 46.57600
H  -0.89800 -5.56800 47.12100
H  -1.74200 -4.50100 46.03000
H  -0.32000 -3.87500 46.90200
H  2.58600 -7.23100 44.32600
H  0.89700 -7.10100 43.86000
H  2.12900 -9.10400 45.52400
H  0.50700 -8.82100 44.84800
H  0.77300 -8.25200 46.47400
H  7.35400 -5.94900 45.69200
H  6.22500 -5.89200 47.12800
H  7.65700 -4.84300 47.15900
H  8.68600 -1.43700 43.34200
H  8.33000 2.66700 44.65400
H  9.87400 2.86000 44.27500
H  9.57400 1.87600 45.80300
Mg 16.97300 -0.89500 27.45400
C  16.11600 1.17200 30.16300
C  18.74300 -2.95700 29.75700
C  18.36400 -2.58900 24.95300
C  15.29800 1.23100 25.28300
N  17.46800 -0.75700 29.68100
C  16.95200 0.16800 30.58100
C  17.38300 -0.25500 32.07200
C  18.34300 -1.42400 31.71700
C  18.05200 -1.80600 30.27200
C  19.80000 -1.03600 31.85700
C  16.25200 -0.59000 33.06300
C  16.32000 -0.21500 34.53200
H  17.72500 0.21500 34.99800
N  18.39400 -2.49300 27.37200
C  18.94600 -3.21600 28.36400
C  19.70800 -4.28100 27.78500
C  19.63400 -4.23700 26.34600
C  18.83300 -3.04100 26.13700
C  20.38500 -5.33700 28.68100
C  20.15700 -5.14600 25.23300
O  20.05600 -4.96000 24.01700
C  20.77700 -6.39600 25.65000
N  16.86500 -0.75200 25.48000
C  17.56900 -1.53800 24.57700
C  17.22200 -1.20700 23.11200
C  16.21900 -0.05900 23.25900
C  16.11000 0.17500 24.75600
C  18.52800 -0.82600 22.42600
C  14.86700 -0.31700 22.54400
C  13.75100 -1.01000 23.35800
N  15.81200 0.78600 27.67300
C  15.24400 1.58600 26.70000
C  14.48200 2.63400 27.34600
C  14.82800 2.53400 28.72400
C  15.69800 1.45600 28.82100
C  13.68500 3.69400 26.58200
C  14.60200 3.13200 30.05600
O  14.01500 4.15000 30.37500
C  15.45900 2.22300 31.07400
C  16.48600 3.10000 31.75500
O  17.53600 3.57100 31.25100
O  16.06200 3.45900 33.02300
C  16.68200 4.59300 33.70400
H  19.24300 -3.57500 30.50600
H  18.62500 -3.12800 24.03900
H  14.66900 1.83300 24.62300
H  17.94400 0.63900 32.34300
H  18.07300 -2.25300 32.37000
H  19.85300 -0.01100 32.22300
H  20.37900 -1.01400 30.93400
H  20.28700 -1.68000 32.58900
H  16.21800 -1.67700 33.13500
H  15.33100 -0.29800 32.55700
H  15.96000 -1.03300 35.15700
H  15.63300 0.62300 34.65100
H  19.58200 -5.91500 29.13900
H  20.87800 -4.79500 29.48800
H  21.13200 -5.93200 28.15500
H  21.77900 -6.30300 26.06800
H  20.76600 -7.16800 24.88000
H  20.03000 -6.72500 26.37300
H  16.75100 -2.03000 22.57600
H  16.55300 0.85900 22.77600
H  18.51400 0.18900 22.02700
H  18.75700 -1.47500 21.58100
H  19.41600 -0.86000 23.05600
H  14.95800 -0.82400 21.58300
H  14.41400 0.60500 22.17900
H  12.91300 -1.38500 22.77000
H  13.32700 -0.19800 23.94900
H  14.17900 -1.79200 23.98400
H  14.25000 4.14100 25.76400
H  13.34800 4.53200 27.19200
H  12.81200 3.33300 26.03900
H  14.84400 1.74400 31.83600
H  17.74700 4.61400 33.47200
H  16.59300 4.55800 34.79000
H  16.19500 5.52700 33.42400

