158

Mg 25.00100 0.99500 28.97200
C  27.16800 0.58100 31.69100
C  22.35800 0.89000 31.07500
C  22.91600 0.94800 26.12700
C  27.77400 0.36100 26.79900
N  24.73800 0.70000 31.08800
C  25.77400 0.69100 32.02600
C  25.21500 0.94300 33.43600
C  23.72000 0.91200 33.25000
C  23.59200 0.82500 31.71900
C  23.02300 -0.35500 34.03200
C  25.91700 2.19300 34.12000
C  25.08100 2.92100 35.27900
H  25.84500 3.06900 36.57100
N  22.87200 0.89700 28.67600
C  22.00000 0.88900 29.62200
C  20.67100 0.91500 29.05100
C  20.80100 0.94800 27.65200
C  22.22300 0.89500 27.38900
C  19.41200 0.84300 29.91300
C  19.72700 1.18000 26.57800
O  20.01000 1.44500 25.42600
C  18.22900 1.13400 26.95200
N  25.26100 0.63600 26.75100
C  24.27900 0.79200 25.82200
C  24.80500 0.98300 24.46000
C  26.35400 0.77300 24.64700
C  26.49800 0.54000 26.16700
C  24.23800 0.15200 23.30800
C  27.16800 1.98200 24.06200
C  27.22600 3.22800 24.96100
N  27.03900 0.63000 29.18700
C  28.01900 0.35700 28.24500
C  29.25100 -0.04500 28.92800
C  28.93200 0.11200 30.29400
C  27.61500 0.47200 30.37900
C  30.54100 -0.59500 28.25900
C  29.47100 0.12000 31.59500
O  30.54700 -0.31700 31.92700
C  28.36800 0.48100 32.66300
C  28.25500 -0.60400 33.67400
O  27.52900 -1.56800 33.56100
O  29.03200 -0.34700 34.75100
C  28.85500 -1.16800 35.94900
H  21.51700 1.03000 31.75700
H  22.23300 0.94600 25.27500
H  28.50600 0.17000 26.01100
H  25.60600 0.09300 33.99600
H  23.22600 1.84000 33.53900
H  23.81400 -0.96500 34.46800
H  22.49200 -0.93400 33.27600
H  22.33000 -0.07100 34.82400
H  26.24000 2.88100 33.33800
H  26.78000 1.68500 34.55100
H  24.18600 2.33800 35.49600
H  24.72800 3.90900 34.98100
H  18.72000 0.11000 29.49700
H  18.88400 1.78700 29.78100
H  19.60000 0.60300 30.95900
H  17.70700 1.33800 26.01700
H  17.94300 1.77900 27.78200
H  18.00600 0.09300 27.18100
H  24.61500 2.03800 24.26500
H  26.61800 -0.11400 24.07100
H  23.53400 -0.59400 23.67900
H  24.95700 -0.37900 22.68400
H  23.61800 0.76800 22.65600
H  26.76100 2.16900 23.06800
H  28.20200 1.67800 23.89400
H  28.25900 3.52800 25.13800
H  26.71000 2.98200 25.88900
H  26.70400 4.15600 24.73100
H  31.40000 -0.27200 28.84800
H  30.68100 -0.23000 27.24100
H  30.31300 -1.66000 28.28800
H  28.61500 1.38100 33.22500
H  29.19200 -2.17800 35.71400
H  27.86400 -1.21700 36.40000
H  29.41000 -0.69400 36.75900
Mg 46.18100 16.86400 27.66500
C  44.41900 16.56800 30.80300
C  48.37100 18.94400 29.27900
C  47.70800 17.48500 24.72100
C  43.69700 15.06700 26.04300
N  46.37800 17.57400 29.83100
C  45.60600 17.22400 30.90400
C  46.20600 17.90600 32.18500
C  47.34600 18.79800 31.60700
C  47.44700 18.37800 30.12400
C  47.23400 20.42100 31.75500
C  46.73800 16.79800 33.11700
C  47.16900 17.40100 34.52900
H  46.46300 18.57100 35.19700
N  47.81900 18.06600 27.07900
C  48.62100 18.78900 27.88400
C  49.70000 19.39800 27.15300
C  49.58200 18.98900 25.76800
C  48.32500 18.15400 25.77100
C  50.80200 20.19000 27.77200
C  50.47200 19.24100 24.62000
O  50.11500 18.92100 23.51300
C  51.73900 20.14100 24.81600
N  45.71300 16.36200 25.69400
C  46.50700 16.71700 24.63100
C  45.92000 16.18000 23.34600
C  44.88400 15.08700 23.88300
C  44.72100 15.51000 25.29000
C  45.15800 17.15300 22.41300
C  45.35900 13.61500 23.66300
C  44.76200 12.78900 22.55600
N  44.38900 16.02900 28.17600
C  43.44000 15.32300 27.40300
C  42.37300 14.94800 28.25000
C  42.63600 15.49300 29.53700
C  43.96400 16.00600 29.49700
C  41.12200 14.34600 27.78800
C  42.06800 15.63100 30.84900
O  41.01600 15.33400 31.32800
C  43.26600 16.28700 31.77400
C  42.70100 17.46600 32.61800
O  42.84400 18.64800 32.31900
O  42.07000 17.01800 33.80500
C  41.71600 18.01300 34.87100
H  49.03700 19.54600 29.89900
H  48.26600 17.58900 23.78800
H  42.94000 14.40000 25.62500
H  45.47900 18.61100 32.59000
H  48.29300 18.52700 32.07500
H  46.28700 20.51600 32.28700
H  47.29300 20.89400 30.77500
H  48.00600 20.75400 32.44800
H  47.55200 16.35500 32.54400
H  45.94600 16.05000 33.15800
H  48.22200 17.65100 34.40100
H  47.16800 16.59900 35.26800
H  50.63900 20.41300 28.82600
H  50.89400 21.16100 27.28700
H  51.68100 19.57200 27.95700
H  52.24000 20.29900 23.86100
H  52.51600 19.77400 25.48700
H  51.49400 21.15500 25.13100
H  46.67400 15.65900 22.75500
H  43.89900 15.23700 23.44200
H  45.80200 17.18700 21.53400
H  45.14100 18.13400 22.88900
H  44.19500 16.78300 22.06400
H  45.36400 12.92900 24.51000
H  46.40900 13.66700 23.37500
H  45.48700 12.56400 21.77300
H  43.83400 13.22200 22.18400
H  44.37000 11.83900 22.91800
H  41.19300 13.28000 28.00600
H  41.16600 14.58200 26.72500
H  40.22000 14.83900 28.15100
H  43.65900 15.59200 32.51700
H  42.36800 18.88700 34.84800
H  41.76300 17.37100 35.75100
H  40.69200 18.33600 34.68300

