158

Mg 44.04400 42.32700 26.09300
C  43.07900 44.62800 28.64000
C  45.29300 40.36900 28.48300
C  45.09900 40.45100 23.75500
C  43.38400 44.98000 23.77500
N  44.02400 42.56900 28.34800
C  43.65100 43.49600 29.22700
C  43.87900 43.09200 30.71100
C  44.85300 41.88200 30.49300
C  44.74400 41.55200 28.98700
C  46.31100 42.07300 31.02000
C  42.46200 42.80000 31.34500
C  42.11200 43.28200 32.73500
H  43.28700 43.47900 33.79900
N  44.99100 40.52800 26.11500
C  45.37900 39.84000 27.20700
C  45.81800 38.56000 26.80400
C  45.76100 38.53100 25.38100
C  45.22500 39.84200 25.01800
C  46.20500 37.45900 27.69600
C  46.27500 37.53600 24.42300
O  46.08800 37.63100 23.17800
C  46.97700 36.33600 24.89900
N  44.40600 42.78000 24.08000
C  44.80500 41.77200 23.35400
C  44.79400 42.13900 21.82800
C  44.13100 43.55400 21.83500
C  44.01500 43.79900 23.34000
C  46.11200 42.04800 21.11200
C  42.76300 43.57400 21.07100
C  41.72600 42.64600 21.63400
N  43.31500 44.37800 26.17800
C  43.11000 45.27100 25.15100
C  42.54900 46.53700 25.64800
C  42.53100 46.28800 27.00800
C  43.02200 44.97600 27.28400
C  42.05700 47.74300 24.88600
C  42.18700 46.87000 28.28800
O  41.63000 47.92600 28.52000
C  42.49400 45.82000 29.38900
C  43.38300 46.41500 30.49700
O  44.60300 46.66400 30.46500
O  42.59700 46.71400 31.54900
C  43.23800 47.15600 32.77400
H  45.74300 39.76300 29.27200
H  45.13800 39.73900 22.92800
H  43.12200 45.73200 23.02800
H  44.34500 43.95900 31.18000
H  44.47800 40.97600 30.96900
H  46.42000 43.10200 31.36400
H  47.02500 42.00600 30.20000
H  46.55000 41.39500 31.83900
H  42.24500 41.74100 31.20100
H  41.77600 43.32900 30.68500
H  41.39200 42.63400 33.23600
H  41.64900 44.26800 32.72600
H  47.25500 37.22700 27.51500
H  45.51300 36.62500 27.57900
H  46.21400 37.81300 28.72700
H  47.85400 36.56000 25.50700
H  47.10600 35.60500 24.10100
H  46.22500 35.77600 25.45500
H  44.08400 41.51200 21.28900
H  44.86800 44.19700 21.35400
H  46.10000 41.24200 20.37800
H  46.93800 41.97200 21.82000
H  46.25200 42.95100 20.51900
H  42.87100 43.41200 19.99800
H  42.40800 44.59900 21.17300
H  42.17600 41.91700 22.30800
H  41.28400 42.02400 20.85500
H  40.93600 43.22500 22.11300
H  42.02700 47.40400 23.85000
H  42.86200 48.45500 25.06600
H  41.07300 48.14900 25.12200
H  41.54700 45.45900 29.79100
H  44.01400 47.86200 32.47600
H  43.67200 46.39200 33.42000
H  42.45600 47.59800 33.39100
Mg -10.06600 37.32300 42.33600
C  -7.91600 34.81500 41.53100
C  -7.94900 39.71200 41.30100
C  -12.55400 39.79100 42.68700
C  -12.58800 34.96600 42.84000
N  -8.12300 37.24500 41.58300
C  -7.43200 36.10300 41.22900
C  -6.07700 36.47800 40.65900
C  -5.97000 38.04400 40.72800
C  -7.44300 38.38000 41.28300
C  -4.79500 38.67200 41.56700
C  -5.91900 35.95100 39.20000
C  -4.50100 35.57700 38.78600
H  -4.05200 35.99900 37.31800
N  -10.22400 39.48500 42.01700
C  -9.19500 40.24800 41.62500
C  -9.53900 41.57800 41.50500
C  -10.81400 41.67700 42.15000
C  -11.24700 40.24700 42.36000
C  -8.62900 42.62200 40.92500
C  -11.61600 42.94300 42.48000
O  -11.08800 44.04000 42.18800
C  -12.93700 42.96000 43.25400
N  -12.21300 37.40500 42.81500
C  -12.98200 38.47600 42.77100
C  -14.44300 38.13300 42.86100
C  -14.51500 36.61300 42.84600
C  -13.00300 36.31000 42.79600
C  -15.11200 38.67200 44.17800
C  -15.35300 36.01500 41.72800
C  -16.18700 34.74000 42.11800
N  -10.21000 35.29900 42.40100
C  -11.23300 34.46000 42.71100
C  -10.75100 33.10300 42.73700
C  -9.45500 33.21200 42.15000
C  -9.20900 34.57200 42.05900
C  -11.42400 31.86100 43.16000
C  -8.39200 32.47800 41.57700
O  -8.28900 31.30500 41.24400
C  -7.27600 33.47000 41.24000
C  -6.00500 33.21800 42.09400
O  -5.05800 32.49000 41.75000
O  -5.99800 33.96100 43.25100
C  -4.73600 34.07500 44.03800
H  -7.23000 40.47500 40.99700
H  -13.28200 40.60500 42.66900
H  -13.40800 34.24500 42.81300
H  -5.33900 36.10100 41.36700
H  -5.85000 38.56200 39.77700
H  -3.92600 38.01900 41.64800
H  -5.14800 38.96500 42.55600
H  -4.38200 39.49100 40.97800
H  -6.27600 36.76500 38.56800
H  -6.50700 35.04100 39.07800
H  -4.36800 34.49900 38.87200
H  -3.77500 36.04900 39.44800
H  -8.60200 42.75800 39.84400
H  -7.59700 42.38600 41.18400
H  -8.83800 43.62200 41.30500
H  -13.08800 43.92300 43.74000
H  -12.87700 42.30300 44.12200
H  -13.69600 42.63400 42.54300
H  -14.91700 38.46600 41.93800
H  -14.93800 36.21900 43.77000
H  -14.44100 39.17900 44.87100
H  -15.67800 37.90600 44.70900
H  -15.87100 39.38600 43.85900
H  -14.79400 35.72400 40.83900
H  -16.06300 36.77700 41.40800
H  -17.24800 34.89800 41.92800
H  -16.07400 34.48900 43.17300
H  -15.83100 33.98000 41.42300
H  -11.33600 31.75000 44.24100
H  -11.00400 31.05100 42.56300
H  -12.50200 31.99600 43.08000
H  -7.05300 33.43100 40.17400
H  -3.89700 33.78000 43.40700
H  -4.84900 33.49900 44.95600
H  -4.42200 35.10700 44.19300

