158

Mg 6.19700 53.62600 40.97100
C  5.27200 50.26400 40.37500
C  9.36800 52.92100 39.87500
C  6.90800 56.88700 41.07400
C  2.83700 54.33700 41.84100
N  7.17400 51.70300 40.02100
C  6.67200 50.39000 40.02400
C  7.79700 49.43600 39.76600
C  9.11000 50.39400 39.99700
C  8.52200 51.76600 39.85300
C  9.79100 50.22600 41.33000
C  7.88300 48.68000 38.43600
C  8.00200 49.58200 37.18800
H  6.93700 49.32500 36.06800
N  7.93800 54.76000 40.66000
C  9.11900 54.26400 40.14000
C  10.08900 55.36000 40.16000
C  9.41600 56.59800 40.46800
C  8.00000 56.11700 40.76300
C  11.56800 55.25400 40.05700
C  9.99600 57.98300 40.52700
O  11.10400 58.19500 40.05400
C  9.27400 59.26400 40.97200
N  4.98300 55.40000 41.27800
C  5.56900 56.66100 41.27400
C  4.44500 57.75100 41.31100
C  3.20500 56.93600 41.94300
C  3.64600 55.44800 41.62200
C  4.75000 59.08500 42.00600
C  1.86900 57.38800 41.19100
C  1.49500 56.95700 39.82200
N  4.31500 52.57900 41.04300
C  3.13600 52.95800 41.57100
C  2.22700 51.74300 41.59900
C  3.06700 50.71500 41.13500
C  4.29500 51.24300 40.79500
C  0.75300 51.78000 41.78400
C  3.06200 49.32700 40.81900
O  2.21400 48.44400 40.94900
C  4.50000 48.97500 40.43900
C  4.32900 48.29000 39.10800
O  3.66800 48.68800 38.16800
O  4.90300 47.06800 39.19200
C  4.71100 46.24400 38.03400
H  10.36600 52.65700 39.51800
H  7.08300 57.95400 41.22800
H  1.85200 54.48600 42.28800
H  7.94000 48.79900 40.63900
H  9.84400 50.17400 39.22200
H  9.47000 49.31100 41.82900
H  9.72400 51.13000 41.93500
H  10.82400 50.17400 40.98700
H  7.05700 47.97200 38.36200
H  8.74700 48.01800 38.38800
H  8.99400 49.53200 36.74000
H  7.82200 50.60700 37.51300
H  12.13300 55.91700 40.71200
H  11.95500 55.23500 39.03800
H  11.80700 54.21000 40.26300
H  10.06800 59.97700 41.19100
H  8.75000 59.03000 41.89900
H  8.72900 59.45400 40.04800
H  4.22100 57.92000 40.25800
H  3.13000 57.09000 43.02000
H  5.05600 59.93800 41.40000
H  5.57900 58.96000 42.70200
H  3.86900 59.44100 42.54000
H  1.65700 58.44500 41.35300
H  1.00500 56.93900 41.68100
H  1.30900 57.85400 39.23000
H  0.67400 56.27300 39.60900
H  2.32400 56.37500 39.42000
H  0.39600 52.38900 40.95300
H  0.55700 52.28200 42.73100
H  0.39000 50.75700 41.69400
H  4.86900 48.39600 41.28500
H  5.23500 46.61500 37.15300
H  3.64200 46.14000 37.84500
H  5.04400 45.23300 38.26500
Mg 9.79300 47.61600 26.29600
C  7.89600 47.79700 29.21700
C  12.39400 49.18200 27.88000
C  11.61800 47.45700 23.58200
C  6.95500 46.44800 24.58500
N  10.00300 48.49200 28.28500
C  9.18300 48.34800 29.38100
C  9.86800 48.97700 30.66200
C  11.03800 49.80700 29.98300
C  11.20900 49.08400 28.65800
C  10.74500 51.32500 29.76800
C  10.30300 47.91100 31.66600
C  9.54700 47.97900 32.98900
H  9.82000 46.72200 33.86200
N  11.81500 48.19600 25.81100
C  12.68900 48.78600 26.59000
C  13.94500 48.83500 25.93500
C  13.76000 48.31600 24.61500
C  12.36200 47.95800 24.65700
C  15.29200 49.31500 26.65700
C  14.72200 48.20700 23.46300
O  14.52200 47.57800 22.41600
C  16.07200 48.84700 23.67800
N  9.35000 47.17800 24.38500
C  10.31200 47.07700 23.39700
C  9.75300 46.68700 22.02600
C  8.36600 46.14100 22.49100
C  8.21100 46.67500 23.89700
C  9.80700 47.82700 21.00600
C  8.06300 44.66400 22.31300
C  9.02800 43.55400 22.92700
N  7.78600 47.28700 26.79000
C  6.74900 46.85500 25.93600
C  5.55100 46.98000 26.74200
C  5.98900 47.24800 28.05100
C  7.33100 47.37400 28.00300
C  4.22100 46.82100 26.11800
C  5.57700 47.41400 29.42300
O  4.43700 47.34200 29.94400
C  6.81600 47.68100 30.22600
C  6.91400 46.40800 31.06500
O  7.37000 45.39800 30.65800
O  6.37200 46.61500 32.28000
C  6.61600 45.54200 33.27800
H  13.14100 49.79700 28.38600
H  12.17900 47.40900 22.64700
H  6.01200 46.13700 24.13100
H  9.23900 49.77500 31.05900
H  11.79000 49.75900 30.77000
H  11.59100 51.76700 29.24200
H  10.67100 51.67300 30.79800
H  9.75600 51.51700 29.35100
H  11.33400 48.13200 31.94400
H  10.31000 46.91700 31.22000
H  8.47600 48.18100 32.96300
H  10.05200 48.79900 33.49700
H  15.11700 49.19600 27.72600
H  15.38000 50.36300 26.37000
H  16.17400 48.73100 26.39500
H  16.63800 48.11100 24.24900
H  15.92300 49.84200 24.09800
H  16.42200 49.07600 22.67200
H  10.29200 45.82000 21.64300
H  7.66400 46.72300 21.89500
H  10.37700 48.65600 21.42500
H  8.80100 48.18200 20.78200
H  10.25600 47.47100 20.07800
H  8.08800 44.50000 21.23600
H  7.08400 44.33600 22.66100
H  10.08700 43.70400 22.71700
H  8.74900 42.60800 22.46200
H  8.86200 43.53200 24.00400
H  3.56700 46.73000 26.98500
H  4.01500 45.90100 25.57100
H  4.03800 47.73400 25.55000
H  6.74500 48.52600 30.91100
H  7.25000 45.84300 34.11100
H  6.91500 44.54700 32.94800
H  5.70300 45.34000 33.83900

