158

Mg 35.41500 1.35200 29.37100
C  33.51400 2.53000 32.16000
C  38.19400 1.43100 31.56300
C  37.42800 0.94600 26.86400
C  32.76200 2.01500 27.33600
N  35.76300 1.94400 31.57800
C  34.81400 2.38200 32.48000
C  35.36600 2.36700 33.90600
C  36.91600 2.21600 33.69900
C  37.00800 1.86600 32.15700
C  37.77900 3.46300 34.06400
C  34.75000 1.10400 34.67300
C  34.28600 1.29700 36.10000
H  34.63500 2.61600 36.77200
N  37.58300 1.11400 29.23600
C  38.48100 1.07000 30.24200
C  39.75500 0.66400 29.68900
C  39.59900 0.67200 28.24900
C  38.14200 0.90500 28.08400
C  40.99000 0.46800 30.53400
C  40.64600 0.43600 27.20900
O  40.42500 0.28900 25.99100
C  42.05800 0.27600 27.61200
N  35.07200 1.28300 27.43600
C  36.07800 1.16100 26.55400
C  35.57000 1.08500 25.09400
C  34.00800 1.21100 25.22600
C  33.95600 1.47400 26.76900
C  36.21600 2.16400 24.13900
C  33.13200 0.03900 24.75000
C  31.90100 0.45200 23.97200
N  33.47300 2.02200 29.62700
C  32.53100 2.25800 28.69300
C  31.30900 2.81600 29.35000
C  31.68000 2.91100 30.68900
C  33.01400 2.44500 30.84900
C  30.05900 3.30200 28.73500
C  31.15000 3.27300 31.99300
O  30.00600 3.57400 32.23600
C  32.30200 3.06200 33.02500
C  32.45800 4.40600 33.68500
O  33.23300 5.23300 33.20900
O  31.83100 4.48600 34.86400
C  31.78000 5.86000 35.31800
H  39.07100 1.33000 32.20500
H  38.08700 0.86000 25.99800
H  31.98200 2.26200 26.61300
H  35.05300 3.24100 34.47700
H  37.41200 1.40900 34.23900
H  38.47400 3.19900 34.86000
H  37.18100 4.21000 34.58500
H  38.43700 3.80100 33.26300
H  35.40000 0.22900 34.69300
H  33.91300 0.84800 34.02300
H  34.57000 0.43300 36.70100
H  33.19800 1.24600 36.15200
H  41.25200 -0.59000 30.53300
H  40.77300 0.60100 31.59400
H  41.81800 1.10000 30.21100
H  42.08300 -0.69100 28.11300
H  42.30900 1.15100 28.21200
H  42.61100 0.25000 26.67300
H  35.95200 0.14100 24.70500
H  33.56100 2.05000 24.69400
H  37.14100 1.83600 23.66400
H  36.46900 3.04900 24.72400
H  35.41800 2.44800 23.45400
H  32.96800 -0.48700 25.69000
H  33.77800 -0.66500 24.22500
H  31.72500 1.47200 24.31400
H  31.10500 -0.20200 24.32900
H  32.03900 0.42400 22.89100
H  29.25500 2.56700 28.70300
H  30.35600 3.52600 27.71100
H  29.83400 4.23700 29.24800
H  31.99500 2.33400 33.77600
H  30.96400 5.84600 36.04000
H  31.64500 6.55100 34.48500
H  32.67200 6.22800 35.82500
Mg -11.50300 37.91800 42.07200
C  -9.41000 35.43600 40.84900
C  -9.19400 40.23800 41.02200
C  -13.84600 40.24600 42.07400
C  -13.84400 35.45400 42.75900
N  -9.50200 37.84300 41.02800
C  -8.87200 36.71400 40.57100
C  -7.63200 37.10200 39.81400
C  -7.34800 38.53400 40.34700
C  -8.75400 38.92300 40.84500
C  -6.28400 38.68700 41.44600
C  -7.77200 36.83100 38.26700
C  -6.66000 36.04000 37.73700
H  -5.67000 36.72200 36.79200
N  -11.49000 40.01700 41.70900
C  -10.42900 40.73500 41.32300
C  -10.80600 42.11100 41.22100
C  -12.25700 42.16300 41.43500
C  -12.62400 40.78900 41.68400
C  -9.89000 43.22600 40.75000
C  -13.09100 43.45900 41.43400
O  -12.70600 44.55700 41.05900
C  -14.61300 43.49000 41.79200
N  -13.57000 37.90700 42.30600
C  -14.30300 38.98700 42.45500
C  -15.60700 38.67600 43.14800
C  -15.68900 37.10800 43.12000
C  -14.25100 36.80400 42.76800
C  -15.99100 39.43400 44.46400
C  -16.71700 36.46700 42.10800
C  -17.97400 35.93800 42.82000
N  -11.56700 35.84000 42.05500
C  -12.55900 34.98200 42.39400
C  -12.13200 33.65700 42.30300
C  -10.88100 33.77300 41.69200
C  -10.57100 35.11300 41.55000
C  -12.86800 32.37700 42.76100
C  -9.80700 33.00500 41.18000
O  -9.61400 31.78900 41.17400
C  -8.64900 34.04800 40.69400
C  -7.47700 33.89300 41.60100
O  -7.13000 34.66200 42.46700
O  -6.69100 32.80800 41.22700
C  -5.42900 32.67400 41.96300
H  -8.42800 40.97900 40.78500
H  -14.54400 41.08500 42.10900
H  -14.69500 34.86600 43.10900
H  -6.88300 36.43900 40.24700
H  -7.00600 39.23400 39.58400
H  -5.56100 37.87900 41.33100
H  -6.80800 38.46500 42.37500
H  -5.74600 39.63400 41.41300
H  -7.63100 37.74300 37.68700
H  -8.77800 36.47500 38.04500
H  -7.04200 35.10800 37.32000
H  -5.94100 35.59900 38.42800
H  -9.69400 43.69600 41.71400
H  -10.37100 43.79200 39.95300
H  -8.92500 42.89100 40.37000
H  -15.21000 42.97400 41.04000
H  -14.85600 44.54800 41.89600
H  -14.85700 43.13500 42.79300
H  -16.50300 39.00900 42.62500
H  -15.86300 36.61200 44.07400
H  -16.76500 40.18400 44.29800
H  -15.10200 39.93500 44.84500
H  -16.34100 38.69600 45.18500
H  -16.18200 35.75900 41.47500
H  -17.00500 37.31400 41.48400
H  -18.58500 36.83100 42.95100
H  -17.64300 35.41600 43.71900
H  -18.52100 35.19100 42.24600
H  -13.84100 32.37800 42.26800
H  -13.04000 32.39300 43.83700
H  -12.34700 31.46400 42.47100
H  -8.30600 33.76000 39.70100
H  -5.51300 32.19400 42.93800
H  -4.88200 33.60300 42.12600
H  -4.76900 32.06400 41.34600

