158

Mg -2.20900 16.93400 26.88600
C  -2.91300 14.68100 29.57600
C  -2.59800 19.50600 29.20600
C  -1.97600 19.07500 24.35500
C  -2.46600 14.21400 24.72100
N  -2.91800 17.08900 29.13300
C  -3.00100 16.00000 30.09400
C  -3.07300 16.41300 31.59400
C  -3.00000 17.98900 31.36400
C  -2.85000 18.19400 29.79900
C  -4.14100 18.84700 32.00300
C  -1.79800 15.93300 32.39000
C  -1.31900 16.72500 33.63200
H  -1.16000 15.89800 34.94400
N  -2.30200 18.94200 26.73800
C  -2.39100 19.81700 27.80100
C  -2.21800 21.17100 27.35300
C  -2.13600 21.10000 25.92900
C  -2.16000 19.68700 25.63900
C  -2.15200 22.29500 28.33300
C  -2.04800 22.19500 24.88400
O  -2.12800 22.05200 23.64700
C  -1.86400 23.61000 25.36200
N  -2.20000 16.61900 24.82300
C  -2.03800 17.70100 23.99500
C  -1.98600 17.23400 22.55900
C  -2.06800 15.66000 22.67400
C  -2.26200 15.46000 24.16600
C  -3.07300 17.64800 21.54300
C  -0.90400 14.86200 22.03600
C  -1.22600 13.90100 20.90100
N  -2.49900 14.85100 27.05400
C  -2.59800 13.92900 26.05200
C  -2.91300 12.64600 26.58900
C  -3.00200 12.87600 27.98400
C  -2.75400 14.23600 28.19900
C  -2.89600 11.35300 25.85700
C  -3.29400 12.26700 29.26300
O  -3.64500 11.09800 29.51600
C  -3.06000 13.37900 30.32600
C  -1.90100 12.92300 31.13300
O  -0.73500 13.29300 31.10700
O  -2.46600 11.99300 32.00300
C  -1.60800 11.43800 33.02700
H  -2.62000 20.34300 29.90700
H  -1.75100 19.63900 23.44800
H  -2.71700 13.35600 24.09400
H  -4.00400 16.12600 32.08300
H  -2.04400 18.30900 31.77800
H  -4.83000 18.16600 32.50300
H  -4.45100 19.42100 31.13000
H  -3.64900 19.49700 32.72700
H  -0.94200 15.73700 31.74400
H  -1.98300 14.90200 32.69000
H  -1.95700 17.59000 33.81500
H  -0.31300 17.12300 33.49900
H  -1.53700 23.08500 27.90100
H  -1.57000 22.04100 29.21900
H  -3.11600 22.71900 28.61500
H  -1.78200 24.10800 24.39600
H  -1.00500 23.72200 26.02300
H  -2.73700 24.01900 25.87200
H  -1.04100 17.53400 22.10500
H  -2.99500 15.30800 22.22200
H  -3.12700 18.72000 21.35000
H  -4.01000 17.29900 21.97600
H  -3.00200 17.18600 20.55800
H  -0.42000 14.24700 22.79500
H  -0.22800 15.65300 21.70900
H  -0.99600 12.89700 21.25900
H  -0.53300 14.14300 20.09600
H  -2.20400 14.06400 20.44800
H  -2.73900 10.64600 26.67200
H  -1.99300 11.23000 25.25800
H  -3.73500 11.30000 25.16200
H  -3.99900 13.38100 30.88000
H  -1.67700 10.35300 32.95300
H  -2.14900 11.57600 33.96300
H  -0.56600 11.75800 32.99600
Mg 7.40200 53.51800 40.98600
C  6.89600 50.14000 40.66100
C  10.63600 53.06600 39.63100
C  7.62800 56.86500 40.26800
C  4.20900 53.98200 41.98800
N  8.59000 51.81000 40.18600
C  8.13000 50.55900 40.17700
C  9.12400 49.58300 39.52800
C  10.42000 50.48500 39.40600
C  9.93900 51.85600 39.83400
C  11.54200 50.06700 40.37800
C  8.75400 49.02600 38.08900
C  7.97200 49.92100 37.09400
H  7.20200 49.25100 35.91600
N  8.96000 54.77300 40.12800
C  10.17400 54.40600 39.71900
C  11.01000 55.62500 39.60300
C  10.12800 56.76000 39.63700
C  8.82800 56.17100 40.02100
C  12.51000 55.53900 39.15900
C  10.48300 58.19600 39.29500
O  11.59400 58.44400 38.92900
C  9.55700 59.34200 39.33100
N  6.06600 55.24100 41.19600
C  6.37900 56.52300 40.84700
C  5.18000 57.45800 41.08100
C  4.02600 56.50200 41.59800
C  4.79200 55.16800 41.54800
C  5.52100 58.65000 42.00700
C  2.73800 56.32500 40.66500
C  1.48000 56.85700 41.35500
N  5.89600 52.39000 41.46200
C  4.65200 52.67200 41.93500
C  3.93700 51.43700 42.26200
C  4.85200 50.44500 41.82900
C  5.98900 51.02500 41.29400
C  2.52100 51.15900 42.79700
C  4.91400 49.02300 41.69000
O  4.16900 48.06300 42.06100
C  6.25300 48.78200 40.84600
C  5.86100 48.02500 39.55800
O  5.28000 48.48400 38.63900
O  6.25200 46.71500 39.60800
C  5.65100 45.80200 38.60200
H  11.66900 52.91300 39.31300
H  7.57500 57.91100 39.95800
H  3.23300 54.12300 42.45700
H  9.18400 48.71200 40.18100
H  10.92200 50.53600 38.44000
H  11.29200 49.12800 40.87200
H  11.66800 50.83700 41.13900
H  12.51700 49.82800 39.95300
H  8.25700 48.05800 38.15000
H  9.69200 48.94400 37.54000
H  8.70300 50.65900 36.76500
H  7.19000 50.44500 37.64300
H  12.54900 54.83900 38.32500
H  13.01800 55.17200 40.05200
H  12.93400 56.44300 38.72300
H  9.20700 59.40300 40.36100
H  8.78700 59.14500 38.58400
H  10.06300 60.25100 39.00700
H  4.95400 57.82300 40.08000
H  3.64400 56.73800 42.59100
H  5.24800 59.62800 41.61200
H  6.55600 58.66400 42.34900
H  4.89100 58.53900 42.89000
H  2.62600 55.26000 40.45900
H  2.89100 56.91500 39.76100
H  1.36900 57.88000 40.99400
H  1.55000 56.87700 42.44300
H  0.66900 56.22600 40.99300
H  2.09700 52.03600 43.28600
H  2.62600 50.36200 43.53400
H  1.88500 50.88800 41.95400
H  7.02200 48.25300 41.40900
H  4.59400 46.06500 38.65100
H  5.90300 44.77000 38.84400
H  6.11000 46.04600 37.64400

