158

Mg 0.18600 7.93300 26.12700
C  1.16400 9.83800 29.07400
C  -0.06100 5.18200 28.14400
C  -0.41400 6.23300 23.32200
C  0.96000 10.76900 24.28200
N  0.58500 7.60900 28.38500
C  0.80900 8.50100 29.41100
C  0.56900 7.89800 30.80700
C  0.35600 6.36700 30.50500
C  0.29800 6.33900 28.89800
C  1.36900 5.40600 31.12500
C  -0.64900 8.50600 31.52700
C  -0.38700 8.72500 33.04400
H  0.75000 8.27500 33.95900
N  -0.10500 5.94700 25.78500
C  -0.31000 4.98900 26.74000
C  -0.77100 3.72700 26.09800
C  -0.71700 3.96800 24.69700
C  -0.40300 5.45400 24.52200
C  -1.24800 2.42300 26.82900
C  -1.16500 3.07100 23.49600
O  -1.09400 3.37900 22.31700
C  -1.67600 1.66100 23.78000
N  0.28800 8.39700 24.08100
C  -0.10700 7.57200 23.07200
C  -0.12500 8.27200 21.73600
C  0.16800 9.77100 22.06700
C  0.41700 9.67600 23.63900
C  0.85200 7.64400 20.79400
C  -0.79100 10.89000 21.63900
C  -1.63600 10.76200 20.34500
N  0.97300 9.79500 26.47500
C  1.24900 10.83300 25.60400
C  1.67500 11.93900 26.36800
C  1.58800 11.62900 27.69000
C  1.20000 10.30600 27.71500
C  2.30500 13.25400 25.81400
C  1.80300 12.08600 29.02800
O  2.19500 13.19500 29.35200
C  1.49800 10.96400 30.00500
C  2.65700 10.67800 30.95800
O  3.75600 10.29800 30.63400
O  2.34700 11.15000 32.19300
C  3.46500 11.23300 33.11300
H  -0.20100 4.42700 28.92000
H  -0.64600 5.63200 22.44000
H  1.10300 11.70800 23.74400
H  1.44500 8.00700 31.44600
H  -0.61000 6.01200 30.86500
H  2.03000 5.94800 31.80100
H  1.93600 4.96100 30.30700
H  0.99300 4.54600 31.68000
H  -1.42800 7.74400 31.50800
H  -1.10300 9.42500 31.15700
H  -1.30000 8.35800 33.51300
H  -0.41500 9.81100 33.13200
H  -1.40100 2.60500 27.89200
H  -0.53700 1.61500 26.65500
H  -2.24600 2.16400 26.47500
H  -0.84500 1.04000 24.11700
H  -1.94300 1.25700 22.80400
H  -2.60400 1.74700 24.34500
H  -1.14300 8.17600 21.36000
H  1.15800 10.04300 21.70100
H  1.86300 7.79500 21.17300
H  0.76800 8.00300 19.76800
H  0.69000 6.56800 20.86200
H  -0.05200 11.67500 21.48100
H  -1.41200 11.27300 22.44900
H  -1.28000 10.05300 19.59700
H  -1.63500 11.72800 19.84100
H  -2.63300 10.38000 20.56400
H  2.90000 12.94700 24.95400
H  3.02500 13.64400 26.53300
H  1.64100 14.07600 25.54700
H  0.57400 11.29800 30.47800
H  4.02000 12.03900 32.63400
H  4.14000 10.38100 33.18600
H  3.08600 11.53700 34.08900
Mg 17.11700 52.40000 26.38800
C  19.10900 50.81500 28.79100
C  14.93300 53.37200 28.92400
C  15.07300 53.79700 24.07400
C  19.19700 51.06500 23.85000
N  17.02600 52.09600 28.52900
C  18.00500 51.55100 29.32200
C  17.78400 51.78100 30.86700
C  16.28400 52.13100 30.84500
C  16.02700 52.56300 29.34300
C  15.39100 51.06700 31.32700
C  18.62900 52.94600 31.39400
C  19.28400 52.65100 32.75900
H  18.36200 52.07100 33.91800
N  15.32300 53.48800 26.47800
C  14.66400 53.80500 27.60500
C  13.50800 54.62700 27.37800
C  13.61500 54.87500 25.95900
C  14.69100 54.03600 25.39500
C  12.53800 55.23800 28.37900
C  12.78800 55.84300 25.25800
O  12.77800 55.94500 24.04900
C  11.88500 56.84800 25.95400
N  17.11600 52.34800 24.35300
C  16.23200 53.06600 23.57600
C  16.38200 52.94300 22.08400
C  17.82000 52.25100 22.04000
C  18.10900 51.92300 23.52200
C  15.25500 52.15200 21.34100
C  18.99900 53.15000 21.30800
C  20.03200 52.45400 20.40800
N  18.84800 51.15700 26.26600
C  19.56300 50.71300 25.18600
C  20.66400 49.90600 25.72600
C  20.53100 49.89600 27.12400
C  19.39400 50.64400 27.39300
C  21.81600 49.21200 24.93200
C  21.13800 49.50100 28.34800
O  22.17400 48.95000 28.62600
C  20.24500 50.21200 29.49100
C  19.81800 49.22400 30.48100
O  18.82600 48.44600 30.38300
O  20.53700 49.44000 31.63700
C  20.00200 48.63000 32.79800
H  14.35200 53.70000 29.78800
H  14.51300 54.36000 23.32500
H  19.70900 50.67400 22.96800
H  17.96000 50.87700 31.45100
H  16.11300 52.96500 31.52600
H  14.61300 51.38700 32.02000
H  16.02900 50.48500 31.99100
H  14.96200 50.47300 30.52100
H  17.95400 53.80100 31.37900
H  19.52700 53.10300 30.79600
H  19.70100 53.60200 33.08900
H  20.10100 51.93400 32.67400
H  12.91800 56.23600 28.59800
H  12.48700 54.62200 29.27600
H  11.48200 55.24100 28.10600
H  10.98600 56.30500 26.24700
H  11.67800 57.58500 25.17700
H  12.41200 57.36300 26.75700
H  16.27400 53.93900 21.65500
H  17.62100 51.28500 21.57600
H  15.73300 51.71600 20.46500
H  14.56300 52.96900 21.13200
H  14.67100 51.46700 21.95600
H  19.57400 53.65900 22.08100
H  18.54300 53.91700 20.68200
H  19.77100 52.40800 19.35100
H  20.24200 51.49500 20.88000
H  21.04000 52.85200 20.52300
H  21.61900 49.39500 23.87600
H  21.74700 48.14800 25.16200
H  22.75400 49.69600 25.20200
H  20.92400 50.91700 29.97100
H  20.25000 47.60100 32.53800
H  18.92800 48.68200 32.97700
H  20.59100 48.92200 33.66700

