158

Mg 16.20100 -1.83600 27.96200
C  15.01700 0.22700 30.44600
C  18.11100 -3.52400 30.31800
C  17.54600 -3.70200 25.44400
C  14.54700 0.15200 25.60400
N  16.66200 -1.50000 30.04400
C  15.91700 -0.69100 30.90800
C  16.32500 -0.95700 32.38000
C  17.46200 -1.98500 32.26800
C  17.38100 -2.39700 30.79500
C  18.89200 -1.41200 32.56300
C  15.17000 -1.44000 33.25100
C  15.31800 -1.21300 34.75400
H  16.47100 -0.39000 35.31900
N  17.60900 -3.47200 27.88400
C  18.24500 -4.08400 28.97300
C  19.16700 -5.16100 28.45500
C  18.92100 -5.25400 27.07300
C  18.04000 -4.14400 26.70300
C  20.20200 -5.76700 29.30300
C  19.41300 -6.26500 26.01800
O  19.02900 -6.19000 24.86200
C  20.34700 -7.34600 26.36600
N  16.14100 -1.76800 25.95200
C  16.80300 -2.61400 25.07900
C  16.55100 -2.25400 23.60300
C  15.38100 -1.28300 23.69300
C  15.33400 -0.92100 25.20100
C  17.84200 -1.82700 22.82700
C  14.01900 -1.74300 23.10100
C  13.65100 -1.15000 21.72600
N  14.98100 -0.11900 27.98000
C  14.32000 0.52700 26.95900
C  13.42000 1.55600 27.57400
C  13.72900 1.54300 28.92000
C  14.70200 0.47200 29.11500
C  12.41600 2.44400 26.83500
C  13.35100 2.08900 30.18100
O  12.53300 2.99300 30.47400
C  14.17600 1.26700 31.17800
C  14.93400 2.13800 32.06800
O  16.06600 2.59100 31.99500
O  14.14200 2.52100 33.11000
C  14.74400 3.34800 34.12300
H  18.68400 -4.15900 30.99700
H  17.97700 -4.23600 24.59500
H  13.99000 0.63700 24.80000
H  16.68300 -0.06800 32.90000
H  17.23200 -2.80300 32.95100
H  19.19800 -2.00100 33.42800
H  18.84600 -0.36200 32.85300
H  19.47700 -1.45300 31.64400
H  15.13700 -2.52900 33.20600
H  14.21500 -1.04800 32.90400
H  15.45200 -2.16500 35.26600
H  14.41800 -0.70000 35.09400
H  21.14000 -6.04800 28.82300
H  19.86800 -6.60600 29.91300
H  20.54700 -5.02600 30.02400
H  20.07300 -7.96700 27.21800
H  21.35500 -6.94200 26.46500
H  20.24300 -7.98400 25.48800
H  16.19400 -3.19200 23.17900
H  15.71100 -0.39000 23.16100
H  18.03100 -2.24400 21.83800
H  18.63500 -2.18100 23.48600
H  17.89700 -0.74200 22.74200
H  13.12800 -1.57900 23.70600
H  14.05400 -2.82000 22.93200
H  14.48600 -1.28300 21.03800
H  13.51700 -0.07600 21.86000
H  12.73200 -1.57000 21.31800
H  12.22000 2.03500 25.84400
H  12.95100 3.33600 26.51000
H  11.53300 2.69600 27.42300
H  13.48300 0.69600 31.79500
H  14.01500 3.41700 34.93000
H  14.89900 4.38400 33.82200
H  15.60600 2.94300 34.65300
Mg 26.98000 50.46700 26.11000
C  24.91200 51.53800 28.82700
C  29.30800 49.55300 28.51400
C  29.11500 49.93300 23.60200
C  24.76500 51.93300 23.94600
N  27.02400 50.52600 28.47000
C  26.08100 50.95900 29.32500
C  26.44900 50.61300 30.80100
C  27.97100 50.19800 30.65000
C  28.18700 50.16600 29.07500
C  29.04000 51.01100 31.42300
C  25.51800 49.54700 31.51600
C  24.97900 49.63000 32.97700
H  25.82300 50.23700 34.13000
N  28.89400 49.64200 26.05700
C  29.67500 49.30600 27.10400
C  30.89800 48.78000 26.56600
C  30.82400 48.92600 25.17900
C  29.61500 49.57400 24.89100
C  31.92000 48.15200 27.46800
C  31.74100 48.33000 24.08800
O  31.75300 48.74300 22.90700
C  32.92400 47.51600 24.55100
N  26.97900 50.89400 24.05100
C  27.93500 50.56700 23.19500
C  27.48000 50.75500 21.76200
C  26.00400 51.31700 21.89000
C  25.89100 51.40400 23.38200
C  28.37600 51.73400 20.95300
C  24.82000 50.52500 21.04000
C  23.86700 51.29800 20.09000
N  25.23800 51.57600 26.32600
C  24.47900 52.11600 25.32300
C  23.38100 52.85500 25.95400
C  23.52600 52.65500 27.33000
C  24.63500 51.79900 27.49400
C  22.30000 53.59900 25.22300
C  22.85200 52.87700 28.54000
O  21.81400 53.44900 28.71800
C  23.79300 52.24200 29.61400
C  24.45600 53.31900 30.39900
O  25.39200 53.98500 30.14000
O  23.79000 53.51600 31.51700
C  24.52000 54.14900 32.65400
H  30.07300 49.29500 29.24900
H  29.74000 49.63200 22.75800
H  23.97700 52.30200 23.28500
H  26.31700 51.51900 31.39200
H  28.10900 49.21000 31.09000
H  29.74000 51.44100 30.70700
H  29.64300 50.29300 31.97900
H  28.65800 51.84800 32.00700
H  25.87300 48.51600 31.52100
H  24.68100 49.39400 30.83400
H  24.92000 48.57900 33.26000
H  23.94800 49.98300 33.01300
H  31.90400 47.09600 27.19900
H  31.69200 48.21700 28.53200
H  32.92900 48.52600 27.29500
H  33.63400 47.42000 23.72900
H  32.64000 46.51800 24.88500
H  33.25800 48.14300 25.37800
H  27.36900 49.77400 21.30000
H  25.88700 52.36900 21.62900
H  29.23100 52.05500 21.54800
H  27.85800 52.63500 20.62600
H  28.68000 51.13800 20.09200
H  24.26400 49.93300 21.76800
H  25.35800 49.81000 20.41800
H  23.37900 52.21900 20.41200
H  23.08400 50.62300 19.74500
H  24.54200 51.44100 19.24700
H  21.80500 53.00800 24.45300
H  22.74100 54.54400 24.90400
H  21.50000 53.77900 25.94100
H  23.43900 51.42700 30.24500
H  24.12800 53.71000 33.57200
H  24.21900 55.19500 32.71800
H  25.60200 54.04600 32.73200

