158

Mg 9.36300 3.30000 27.70200
C  10.38000 1.67100 30.50100
C  7.73500 5.59600 29.78000
C  8.45100 5.01700 24.89400
C  10.71100 0.70600 25.67300
N  9.00200 3.54600 29.88000
C  9.74400 2.89200 30.75800
C  9.56700 3.48000 32.23500
C  8.43600 4.59400 31.95400
C  8.28600 4.54900 30.42000
C  7.14100 4.22700 32.72000
C  10.84500 4.04100 32.91800
C  10.68500 4.19200 34.44200
H  11.41500 3.19200 35.37500
N  8.19600 5.08200 27.37000
C  7.65900 5.92500 28.36400
C  6.95400 7.02000 27.67000
C  7.08900 6.89400 26.27300
C  7.98300 5.65400 26.12400
C  6.16500 8.08200 28.43100
C  6.55800 7.73100 25.14800
O  6.81700 7.54600 23.94500
C  5.75300 8.92000 25.44400
N  9.43200 2.79400 25.59100
C  9.13200 3.75700 24.69200
C  9.43500 3.24800 23.27000
C  10.27900 1.99600 23.51100
C  10.14100 1.77500 25.01300
C  8.25700 3.05600 22.27700
C  11.75500 2.20900 23.09300
C  11.97000 2.37300 21.61400
N  10.20800 1.37300 28.02600
C  10.86200 0.57700 27.10300
C  11.51500 -0.46900 27.90100
C  11.43900 -0.08300 29.23400
C  10.56500 1.05500 29.24100
C  12.22000 -1.65400 27.22800
C  11.88000 -0.36200 30.61600
O  12.53600 -1.31700 31.05200
C  11.26300 0.77400 31.45600
C  10.50300 0.14700 32.55600
O  9.50300 -0.50800 32.30700
O  11.06100 0.46300 33.78700
C  10.43000 -0.13400 34.99000
H  7.27700 6.37700 30.39200
H  8.22700 5.38000 23.88900
H  11.22800 -0.08500 25.12500
H  9.16700 2.63400 32.79300
H  8.83900 5.56700 32.23800
H  6.38400 3.83900 32.03800
H  6.75900 5.10300 33.24500
H  7.25000 3.50700 33.53100
H  11.03100 5.02200 32.48000
H  11.65100 3.38900 32.58100
H  9.62900 4.05700 34.67800
H  10.97100 5.20800 34.71400
H  6.68200 8.99600 28.72400
H  5.83700 7.58800 29.34600
H  5.30400 8.30100 27.79900
H  4.71300 8.61200 25.55400
H  5.62100 9.52800 24.54900
H  6.04600 9.61100 26.23500
H  10.08700 4.04000 22.89900
H  9.93600 1.06300 23.06600
H  7.32900 3.39800 22.73600
H  8.22100 2.01500 21.95500
H  8.61200 3.73100 21.49900
H  12.24400 1.28300 23.39500
H  12.11200 3.00700 23.74300
H  12.11100 3.39200 21.25200
H  11.04200 1.97300 21.20600
H  12.78900 1.79900 21.18100
H  11.52700 -2.43000 26.90500
H  12.83100 -2.17300 27.96700
H  12.74000 -1.42600 26.29800
H  12.10500 1.41300 31.72100
H  9.39500 -0.35700 34.73400
H  10.46800 0.43500 35.91900
H  10.92700 -1.06800 35.25100
Mg 9.05000 47.57900 25.64200
C  6.77900 47.75300 28.32600
C  11.45300 48.84200 27.79700
C  11.02700 47.46300 23.03200
C  6.31100 47.09700 23.49500
N  9.03000 48.21800 27.80700
C  8.05600 48.10800 28.75000
C  8.61000 48.47200 30.11900
C  9.91900 49.28000 29.74700
C  10.20300 48.72900 28.35700
C  9.81000 50.86500 29.87600
C  8.65000 47.39000 31.20100
C  7.88200 47.49500 32.50800
H  8.17200 46.34100 33.49100
N  11.01900 48.11200 25.46000
C  11.87100 48.54000 26.43200
C  13.16100 48.86300 25.87700
C  13.13000 48.27900 24.56600
C  11.66100 47.90800 24.27500
C  14.34600 49.40500 26.76600
C  14.24200 48.10100 23.58700
O  14.05000 47.50700 22.55000
C  15.52500 48.22800 24.14400
N  8.74400 47.03400 23.54200
C  9.74300 47.06100 22.71700
C  9.29000 46.92300 21.25900
C  7.79700 47.15000 21.34200
C  7.58600 47.00400 22.84700
C  9.97800 47.73200 20.17800
C  6.96300 46.12600 20.54900
C  6.57500 46.58000 19.15300
N  6.96200 47.42300 25.78100
C  5.96600 47.16400 24.85500
C  4.65900 47.24700 25.45200
C  4.98300 47.34400 26.81700
C  6.40800 47.48600 26.95200
C  3.38200 47.06800 24.79700
C  4.36300 47.33400 28.16800
O  3.20500 47.12300 28.44400
C  5.55400 47.52600 29.23100
C  5.62000 46.26400 30.03400
O  6.30600 45.29800 29.70800
O  4.85300 46.39000 31.09700
C  4.79000 45.24100 32.04800
H  12.15900 49.21400 28.54200
H  11.76200 47.33100 22.23600
H  5.37900 47.06700 22.92500
H  7.88200 49.21600 30.44200
H  10.79000 48.98100 30.33200
H  8.87000 51.11400 30.36800
H  9.69000 51.23000 28.85600
H  10.58800 51.41600 30.40300
H  9.70400 47.31900 31.47000
H  8.36700 46.40700 30.82600
H  6.83700 47.50900 32.20000
H  7.98900 48.50900 32.89300
H  13.97500 49.57900 27.77600
H  14.91500 50.22400 26.32600
H  14.94500 48.51900 26.97300
H  15.72100 49.12000 24.73900
H  16.11000 48.32400 23.22900
H  15.74600 47.30600 24.68300
H  9.38500 45.85900 21.03900
H  7.59300 48.18600 21.07100
H  9.38100 48.31500 19.47700
H  10.60300 46.99800 19.66900
H  10.65300 48.41900 20.69000
H  6.10500 45.81100 21.14200
H  7.51400 45.18600 20.51500
H  5.56700 46.21900 18.94900
H  7.24100 46.12000 18.42300
H  6.59800 47.65900 19.00000
H  2.97500 48.07200 24.91700
H  2.88900 46.24900 25.32000
H  3.47700 46.80800 23.74300
H  5.31900 48.32500 29.93400
H  3.94600 44.57600 31.86700
H  4.49600 45.61500 33.02900
H  5.78800 44.84400 32.23500

