158

Mg 26.19200 -0.27600 29.11600
C  27.85800 -0.65100 32.08100
C  23.17700 0.16600 30.83700
C  24.54100 -0.27900 26.14100
C  29.22600 -0.87600 27.34800
N  25.53100 -0.50300 31.18200
C  26.44900 -0.41200 32.21900
C  25.63200 -0.08100 33.57200
C  24.12900 0.19700 33.04500
C  24.27100 -0.08600 31.56700
C  23.04400 -0.72700 33.81700
C  26.15100 1.04500 34.54000
C  26.46800 0.47200 35.94800
H  27.30100 1.39900 36.82600
N  24.16500 -0.03100 28.60100
C  23.06700 0.16300 29.43900
C  21.84800 0.37200 28.63100
C  22.24600 0.27200 27.22200
C  23.70100 -0.00900 27.27500
C  20.48000 0.55300 29.28100
C  21.45600 0.33300 25.92700
O  21.90300 0.24900 24.79800
C  19.98100 0.49900 26.11200
N  26.81500 -0.49100 27.08900
C  25.95000 -0.52300 26.04100
C  26.60500 -0.90100 24.72200
C  28.10800 -0.66600 25.01800
C  28.07900 -0.66900 26.62500
C  26.22300 -2.34900 24.37300
C  28.74500 0.72400 24.61800
C  29.12300 0.86900 23.06500
N  28.08700 -0.70700 29.60700
C  29.21800 -0.92000 28.78500
C  30.31700 -1.22400 29.67300
C  29.89500 -1.06200 30.96500
C  28.51200 -0.83900 30.84600
C  31.71000 -1.52300 29.28900
C  30.24100 -0.97700 32.34000
O  31.33500 -1.00900 32.96700
C  28.95000 -0.70600 33.13300
C  28.72300 -1.93200 34.05700
O  28.43200 -3.08400 33.77000
O  29.10400 -1.55700 35.33500
C  29.14100 -2.70400 36.30700
H  22.36800 0.49800 31.49100
H  24.09400 -0.38700 25.15100
H  30.14300 -1.04400 26.78000
H  25.68200 -1.04500 34.07900
H  23.90400 1.26100 33.11700
H  22.47400 -1.37700 33.15200
H  22.30600 -0.19100 34.41400
H  23.64500 -1.37900 34.45100
H  25.46200 1.88900 34.57200
H  27.14500 1.29800 34.17200
H  26.88900 -0.52600 35.82500
H  25.47500 0.35700 36.38200
H  20.07900 1.54000 29.05400
H  20.65000 0.54900 30.35700
H  19.83000 -0.27800 29.00600
H  19.51000 0.58100 25.13200
H  19.84100 1.40100 26.70800
H  19.57400 -0.42600 26.52000
H  26.22200 -0.36700 23.85200
H  28.73400 -1.49800 24.69400
H  25.28600 -2.62200 24.85800
H  26.98500 -3.04800 24.71800
H  26.00100 -2.53400 23.32200
H  29.69900 0.99000 25.07400
H  27.99400 1.47600 24.86200
H  28.45900 1.55300 22.53700
H  28.92100 -0.08500 22.57900
H  30.13700 1.22300 22.87900
H  31.91200 -1.22100 28.26100
H  31.89300 -2.59700 29.27600
H  32.44300 -1.13700 29.99700
H  29.06900 0.17600 33.76200
H  28.37300 -2.58000 37.07100
H  30.11500 -2.83400 36.78000
H  28.99000 -3.69600 35.88100
Mg -10.94100 16.70200 42.45700
C  -7.57500 17.40700 42.88500
C  -11.33300 20.05700 41.85900
C  -14.14500 16.07300 41.40000
C  -10.25400 13.30400 42.56500
N  -9.54300 18.48600 42.20400
C  -8.27000 18.54400 42.51600
C  -7.66900 19.93200 42.44900
C  -8.95300 20.75600 42.58200
C  -10.02900 19.74100 42.15600
C  -9.23700 21.28500 43.92900
C  -6.96500 20.01400 41.05500
C  -5.46300 20.11500 41.02700
H  -4.63400 19.03500 40.24500
N  -12.50600 17.87500 41.66700
C  -12.47800 19.22300 41.55800
C  -13.77100 19.67400 41.12300
C  -14.61800 18.52800 40.87500
C  -13.78800 17.45200 41.34800
C  -14.00100 21.18100 40.95700
C  -16.11200 18.54200 40.34000
O  -16.60700 19.63800 39.98800
C  -16.88400 17.28300 40.19200
N  -12.07100 14.95500 42.09600
C  -13.37300 14.92900 41.73200
C  -13.89200 13.48000 41.55000
C  -12.59200 12.65400 41.79200
C  -11.52300 13.72900 42.15200
C  -15.22600 12.99000 42.34800
C  -12.17100 11.63300 40.73000
C  -11.98200 10.11600 41.19300
N  -9.25500 15.53600 42.73700
C  -9.14100 14.17400 42.74300
C  -7.80100 13.86700 43.04000
C  -7.12500 15.05500 43.14700
C  -8.05300 16.05700 42.87500
C  -7.22000 12.49900 43.31500
C  -5.84500 15.67500 43.31800
O  -4.72200 15.17600 43.37600
C  -6.08200 17.29700 43.25600
C  -5.73100 17.70200 44.64800
O  -6.44500 17.65200 45.64900
O  -4.42000 18.06800 44.65200
C  -4.16100 18.90700 45.86000
H  -11.37900 21.14600 41.79200
H  -15.11000 15.66900 41.08800
H  -10.18800 12.22400 42.71100
H  -6.99400 19.95700 43.30400
H  -8.93800 21.52100 41.80600
H  -8.27600 21.41700 44.42600
H  -9.71100 20.54700 44.57600
H  -9.89200 22.15600 43.91000
H  -7.28500 20.97900 40.66300
H  -7.21200 19.25000 40.31700
H  -5.03700 20.22800 42.02400
H  -5.33300 21.07100 40.52000
H  -13.74700 21.53500 39.95800
H  -13.35200 21.71200 41.65400
H  -15.05300 21.33100 41.19700
H  -17.83700 17.41500 39.68100
H  -17.09800 17.04700 41.23400
H  -16.25800 16.57300 39.65100
H  -14.18800 13.31000 40.51500
H  -12.84200 12.12400 42.71000
H  -15.29200 13.64800 43.21500
H  -15.25400 12.01500 42.83600
H  -16.01100 13.18300 41.61700
H  -11.26500 11.99200 40.24300
H  -12.87700 11.57100 39.90200
H  -12.56300 9.42200 40.58600
H  -12.25200 10.14800 42.24900
H  -10.95900 9.74000 41.20200
H  -6.15900 12.60200 43.54200
H  -7.25700 11.95200 42.37300
H  -7.81600 11.92600 44.02500
H  -5.43000 17.83600 42.56800
H  -3.93200 19.92300 45.53700
H  -3.22100 18.53900 46.27100
H  -4.85400 19.00200 46.69500

