158

Mg 48.87000 45.48200 42.99900
C  45.33700 45.66700 42.08100
C  48.88500 42.48400 41.65100
C  52.24600 45.68700 43.14100
C  48.51600 48.77400 44.22000
N  47.29700 44.38300 41.80200
C  46.00800 44.58800 41.55200
C  45.36600 43.40600 40.78100
C  46.48200 42.31000 40.98500
C  47.61000 43.07900 41.62700
C  46.10000 41.07900 41.80300
C  45.02600 43.86000 39.31400
C  43.67000 43.37900 38.77200
H  43.71500 42.33000 37.60500
N  50.35200 44.23400 42.45100
C  50.17300 42.96400 41.91200
C  51.46400 42.22900 41.92500
C  52.44500 43.16900 42.32200
C  51.69600 44.43400 42.68700
C  51.70900 40.76300 41.41000
C  53.95200 42.86600 42.52400
O  54.38200 41.84800 42.00100
C  54.87900 43.62900 43.25700
N  50.22600 47.07500 43.39600
C  51.57400 46.92100 43.50000
C  52.26100 48.23100 44.05000
C  51.00300 49.21500 44.24300
C  49.81200 48.19400 44.13000
C  53.28100 48.11100 45.17300
C  51.00200 50.34300 43.16300
C  51.43900 51.73500 43.53000
N  47.26000 46.74000 43.33800
C  47.32900 48.07200 43.87500
C  45.90500 48.57500 43.88100
C  45.16500 47.62000 43.27600
C  46.01300 46.58300 42.86100
C  45.51300 49.97800 44.42500
C  43.79700 47.36300 42.80300
O  42.71000 47.88700 43.06300
C  43.88300 46.10800 41.92800
C  42.79600 45.08900 42.26600
O  41.91000 44.70800 41.48900
O  42.88300 44.65000 43.59800
C  41.67700 43.89300 44.03700
H  48.89000 41.41500 41.42900
H  53.29000 45.67200 43.46200
H  48.33800 49.80300 44.54000
H  44.46000 43.00300 41.23400
H  46.86400 41.93100 40.03700
H  46.25800 40.21500 41.15800
H  45.02500 41.13700 41.97800
H  46.59300 40.88100 42.75400
H  45.78800 43.40900 38.67800
H  45.08100 44.94900 39.29100
H  43.16000 44.23000 38.31900
H  43.06100 43.09900 39.63100
H  52.46500 40.67300 40.63000
H  50.74000 40.39300 41.07700
H  52.02200 40.18900 42.28200
H  55.02900 44.56500 42.71800
H  55.84000 43.12000 43.33700
H  54.50200 43.92400 44.23600
H  52.88500 48.59500 43.23300
H  50.90700 49.66700 45.23000
H  52.69600 48.19300 46.08900
H  53.95300 48.94900 44.98800
H  53.76900 47.13800 45.23000
H  50.08000 50.25900 42.59000
H  51.81600 50.14300 42.46600
H  51.45700 51.77600 44.61900
H  50.62500 52.34300 43.13600
H  52.43600 52.00900 43.18400
H  45.86500 50.73100 43.72000
H  45.86400 50.15300 45.44200
H  44.42400 49.94500 44.47500
H  43.59100 46.42500 40.92700
H  41.81600 42.84200 43.78400
H  40.76100 44.26900 43.58100
H  41.56200 44.03500 45.11100
Mg 47.27700 33.70000 26.47700
C  45.90300 32.56000 29.42000
C  48.25800 36.54700 28.28900
C  48.57900 35.08100 23.68800
C  46.48600 30.83400 24.78100
N  47.08800 34.43200 28.62400
C  46.50300 33.79000 29.66200
C  46.71800 34.45200 31.00500
C  47.10100 35.86100 30.51500
C  47.62000 35.58600 29.09000
C  45.94500 36.93500 30.58800
C  47.83200 33.85000 31.86600
C  47.81900 33.88300 33.41400
H  46.80900 34.79400 34.13300
N  48.46600 35.49800 26.08000
C  48.69900 36.54500 26.87700
C  49.48100 37.54300 26.13300
C  49.55700 37.14800 24.75200
C  48.87800 35.83400 24.79400
C  50.12200 38.82400 26.73200
C  50.10300 37.90500 23.50800
O  50.20500 37.45800 22.38200
C  50.38700 39.35500 23.73500
N  47.40200 33.07000 24.43900
C  47.92000 33.85300 23.45400
C  47.92000 33.08700 22.10700
C  47.52900 31.62700 22.55100
C  47.12600 31.83000 24.01000
C  46.99900 33.70600 20.95600
C  48.70100 30.48900 22.38400
C  50.10700 30.79600 22.99100
N  46.32500 32.05100 26.89500
C  46.04700 30.86700 26.12500
C  45.33900 29.86000 26.99300
C  45.19100 30.53400 28.21700
C  45.88900 31.80900 28.17900
C  44.93800 28.42200 26.63100
C  44.61300 30.39000 29.47600
O  43.92600 29.52800 30.00900
C  44.98100 31.76400 30.28600
C  45.23600 31.55500 31.73700
O  46.15400 30.93000 32.25000
O  44.10300 31.95900 32.42300
C  43.97000 31.41300 33.76500
H  48.49200 37.42800 28.89100
H  48.81900 35.57400 22.74300
H  46.42300 29.87800 24.25700
H  45.75100 34.40000 31.50500
H  47.95400 36.22900 31.08500
H  45.12100 36.44600 31.10800
H  45.65400 37.27200 29.59300
H  46.27100 37.84100 31.09900
H  48.73700 34.43900 31.71900
H  48.10500 32.82500 31.61700
H  48.84200 33.90000 33.78800
H  47.55900 32.85500 33.66400
H  49.99900 38.69300 27.80700
H  49.54100 39.68700 26.40600
H  51.09500 39.09000 26.32000
H  49.46100 39.76200 24.14100
H  50.53500 39.79100 22.74700
H  51.30000 39.49400 24.31300
H  48.93600 33.07600 21.71100
H  46.60900 31.36200 22.03000
H  47.48500 33.41200 20.02500
H  46.76900 34.77200 20.94200
H  46.09700 33.09600 20.92900
H  48.79200 30.17000 21.34500
H  48.37700 29.66300 23.01800
H  50.27000 30.13600 23.84300
H  50.31600 31.81700 23.31000
H  50.78400 30.53300 22.17900
H  45.81200 27.77200 26.60300
H  44.38000 28.32400 25.70000
H  44.24300 28.15300 27.42700
H  44.03200 32.29600 30.22100
H  43.89900 30.32600 33.79000
H  43.01000 31.55200 34.26300
H  44.67900 31.87600 34.45100

