158

Mg 48.46400 35.57100 27.55100
C  46.09400 34.10900 29.75200
C  48.83200 38.08000 29.73300
C  50.26200 37.06800 25.17500
C  47.58100 33.17200 25.26100
N  47.73000 35.83000 29.60900
C  46.84800 35.15300 30.38600
C  46.95000 35.56500 31.82400
C  47.43500 37.01700 31.64000
C  48.06800 36.98500 30.25800
C  46.35400 38.11000 31.78100
C  47.83200 34.62900 32.70700
C  48.23000 35.07300 34.15400
H  47.35600 36.09500 34.82800
N  49.41900 37.26300 27.50800
C  49.51400 38.24000 28.48600
C  50.36200 39.38500 28.05500
C  50.81400 39.04800 26.77900
C  50.12300 37.78300 26.39900
C  50.70700 40.58900 28.97400
C  51.64000 39.90500 25.79600
O  52.07900 39.52400 24.66900
C  52.21800 41.28800 26.25000
N  48.83400 35.20800 25.43800
C  49.66000 35.91200 24.70900
C  49.95600 35.26800 23.31000
C  49.35400 33.90200 23.44100
C  48.53300 34.10400 24.79700
C  49.50600 36.13000 22.14000
C  50.36000 32.69300 23.51600
C  50.03000 31.60400 22.45500
N  47.14700 34.01500 27.42600
C  46.87200 33.07300 26.42000
C  45.87900 32.15000 26.82000
C  45.50400 32.50400 28.16600
C  46.25900 33.57600 28.53500
C  45.32600 30.96500 26.12500
C  44.67600 32.20900 29.32000
O  43.86500 31.26100 29.47800
C  44.90700 33.33800 30.35700
C  44.93300 32.71600 31.74900
O  45.38400 31.57300 31.99100
O  44.26400 33.54700 32.61900
C  44.33500 33.10000 34.00600
H  48.82200 38.91100 30.44200
H  50.88700 37.58500 24.44400
H  47.41900 32.31800 24.60000
H  45.89700 35.49500 32.09700
H  48.18900 37.20200 32.40500
H  45.66000 37.85200 32.58100
H  45.72500 38.44800 30.95800
H  46.88800 38.99000 32.14100
H  48.72400 34.41200 32.12000
H  47.34600 33.65400 32.74100
H  49.24100 35.47900 34.17100
H  48.32500 34.13500 34.69900
H  50.02500 41.41600 28.78100
H  51.75400 40.85100 28.82800
H  50.67900 40.20400 29.99400
H  51.54700 41.81600 26.92700
H  52.35800 42.01100 25.44600
H  53.21200 41.09200 26.65200
H  51.04200 35.20200 23.23700
H  48.64200 33.66300 22.65000
H  48.52100 35.92600 21.72000
H  50.26000 36.29400 21.37000
H  49.45200 37.14800 22.52600
H  50.56200 32.41600 24.55100
H  51.37300 32.91800 23.18100
H  50.46400 30.63200 22.68800
H  50.57900 31.87900 21.55400
H  48.96200 31.46800 22.28500
H  44.85900 31.32800 25.21000
H  44.54000 30.46200 26.68800
H  46.17600 30.30800 25.94200
H  44.08500 34.05100 30.42200
H  45.38900 33.23200 34.25000
H  44.23400 32.03400 34.20900
H  43.81400 33.70600 34.74700
Mg 17.15100 53.23800 26.58300
C  19.23300 51.56900 28.74700
C  14.72700 53.28700 28.99500
C  15.14400 54.46500 24.29800
C  19.33400 52.21900 23.88000
N  17.00300 52.55000 28.68400
C  18.01600 51.97800 29.37400
C  17.59500 51.94100 30.89800
C  16.04200 52.26300 30.84400
C  15.89500 52.70000 29.44600
C  15.09800 51.13200 31.32300
C  18.43900 52.98900 31.76800
C  19.12100 52.51700 33.03200
H  18.16800 51.93100 34.08800
N  15.28300 54.05800 26.72600
C  14.43600 53.87900 27.76500
C  13.12100 54.46000 27.39500
C  13.19000 54.82800 26.05200
C  14.59400 54.49000 25.63300
C  11.87600 54.19400 28.19900
C  12.19400 55.42300 25.16500
O  12.50100 55.66200 24.02400
C  10.82300 55.71700 25.66700
N  17.15000 53.23100 24.44200
C  16.31100 53.97900 23.81700
C  16.52300 54.05000 22.23900
C  17.92700 53.45200 22.11000
C  18.22100 53.00100 23.59200
C  15.46700 53.22700 21.41500
C  19.01600 54.28200 21.41700
C  19.48200 55.49700 22.23200
N  18.94300 52.20300 26.35000
C  19.76100 51.91400 25.21800
C  20.89100 51.19400 25.61600
C  20.76800 51.09800 27.03400
C  19.57100 51.66300 27.40300
C  21.95200 50.71900 24.66100
C  21.44900 50.48800 28.19200
O  22.51100 49.90600 28.43600
C  20.43300 50.91600 29.38600
C  20.13200 49.65000 30.14300
O  19.34500 48.73300 29.81500
O  20.70600 49.79500 31.37700
C  20.52900 48.83000 32.44100
H  13.96000 53.30500 29.77100
H  14.59600 54.94900 23.48700
H  19.92000 52.02900 22.97800
H  17.76300 50.91700 31.23100
H  15.78600 53.17600 31.38100
H  14.35400 51.69200 31.89000
H  15.67600 50.41600 31.90700
H  14.63800 50.67300 30.44800
H  17.76700 53.77500 32.11400
H  19.15100 53.50100 31.12100
H  19.75100 53.30300 33.44900
H  19.77300 51.67900 32.78700
H  11.61500 55.05300 28.81800
H  12.04600 53.33600 28.85000
H  11.02400 53.97700 27.55600
H  10.26700 56.18600 24.85500
H  10.89100 56.37600 26.53300
H  10.33000 54.74900 25.75000
H  16.44300 55.12500 22.08000
H  17.88200 52.49600 21.58900
H  15.92100 52.53700 20.70400
H  14.94500 53.93300 20.76900
H  14.75600 52.72900 22.07400
H  18.77800 54.59900 20.40100
H  19.91100 53.70400 21.18500
H  19.85400 56.32200 21.62500
H  20.23800 55.10000 22.91000
H  18.67200 55.95800 22.79700
H  21.92000 51.39900 23.81000
H  21.84200 49.65300 24.46100
H  22.91900 50.73400 25.16600
H  20.93700 51.62500 30.04200
H  19.46500 48.62500 32.55500
H  20.83600 49.42900 33.29900
H  21.03100 47.88700 32.22600

