158

Mg 36.44800 48.90600 25.58800
C  36.56000 46.98600 28.65900
C  35.50800 51.50300 27.47500
C  35.99400 50.51500 22.76600
C  37.41600 46.01000 23.87100
N  36.11600 49.16100 27.79800
C  36.23500 48.28200 28.88400
C  36.03400 48.93100 30.25400
C  35.51000 50.32500 29.74400
C  35.72300 50.33300 28.21600
C  33.99900 50.74300 30.17200
C  37.36300 48.86400 31.06700
C  37.27400 48.62500 32.54100
H  35.98100 48.75400 33.26700
N  35.80200 50.79000 25.19700
C  35.58200 51.79700 26.11300
C  35.32100 53.07500 25.44100
C  35.30400 52.70900 24.02400
C  35.62800 51.28500 23.90300
C  35.14100 54.35900 26.11200
C  35.05800 53.60000 22.84800
O  35.02100 53.23000 21.62600
C  34.87200 55.09700 23.09600
N  36.62400 48.34300 23.67300
C  36.45000 49.24900 22.63000
C  36.69900 48.62100 21.27000
C  37.25200 47.19500 21.58200
C  37.06300 47.14200 23.16300
C  35.43600 48.63800 20.34000
C  38.66300 46.89700 21.02200
C  39.80500 47.59800 21.73600
N  37.00200 46.94600 26.07700
C  37.42800 45.90700 25.28000
C  37.71100 44.72400 26.11000
C  37.27400 45.05000 27.43600
C  36.88600 46.44200 27.37200
C  38.31100 43.48300 25.61800
C  37.17700 44.55400 28.74600
O  37.46900 43.43800 29.13600
C  36.77900 45.80700 29.70700
C  35.56400 45.42700 30.45100
O  34.44200 45.85700 30.34400
O  35.95400 44.69900 31.59900
C  34.98800 44.32600 32.67800
H  35.20700 52.36700 28.07200
H  35.98000 51.06000 21.82000
H  37.68300 45.14700 23.25800
H  35.24700 48.43200 30.81800
H  36.19300 51.10300 30.08400
H  33.27200 50.73700 29.36000
H  34.20000 51.72700 30.59700
H  33.58200 50.03500 30.88800
H  37.89500 49.81500 31.04900
H  38.02900 48.06900 30.72800
H  38.10700 49.16900 32.98700
H  37.56200 47.57400 32.57100
H  34.32900 54.92900 25.66100
H  35.97200 55.02500 25.88300
H  35.14300 54.24000 27.19500
H  35.68100 55.55900 23.66200
H  33.94300 55.23700 23.64900
H  34.94600 55.57700 22.12000
H  37.45600 49.20800 20.75100
H  36.58600 46.40700 21.23100
H  34.62400 49.32200 20.58700
H  35.06300 47.65000 20.07100
H  35.81300 49.05700 19.40700
H  38.52900 47.30400 20.02000
H  38.80500 45.81700 20.97800
H  39.59800 48.01000 22.72400
H  40.15100 48.45800 21.16300
H  40.60500 46.87900 21.91100
H  38.80800 43.64300 24.66200
H  37.47600 42.78500 25.68600
H  39.03100 43.24000 26.40000
H  37.56300 45.99600 30.44100
H  34.89400 43.24600 32.79200
H  33.99600 44.77600 32.64500
H  35.42800 44.81600 33.54600
Mg 1.12900 42.24400 26.81800
C  2.66600 42.16600 29.98000
C  -1.75600 41.03600 28.31000
C  -0.15100 41.72800 23.73700
C  4.23900 42.82200 25.45000
N  0.55500 41.64600 28.89100
C  1.28000 41.84200 30.04800
C  0.36600 41.68200 31.32100
C  -0.99600 41.21500 30.75600
C  -0.73400 41.27900 29.18500
C  -1.23500 39.77700 31.12800
C  0.33900 42.95700 32.15100
C  0.51000 42.84600 33.61700
H  -0.09900 41.63400 34.26500
N  -0.76700 41.66700 26.07000
C  -1.82900 41.18200 26.90500
C  -2.91200 40.81000 26.02300
C  -2.49800 41.09700 24.66200
C  -1.11600 41.56400 24.73700
C  -4.30600 40.26000 26.57100
C  -3.33000 40.86200 23.36000
O  -2.89800 41.23200 22.26100
C  -4.72400 40.28300 23.35100
N  1.91400 42.40200 24.94200
C  1.20700 42.05000 23.79500
C  2.13300 42.02100 22.57400
C  3.38200 42.79100 23.07000
C  3.19500 42.72500 24.58400
C  2.36600 40.58300 21.92700
C  3.44000 44.23200 22.69000
C  3.82900 44.44200 21.16400
N  3.04000 42.58500 27.43600
C  4.19600 42.80100 26.78700
C  5.27300 43.08300 27.73100
C  4.69500 42.85600 28.93500
C  3.34600 42.49600 28.78300
C  6.72600 43.38800 27.46100
C  4.93300 42.72100 30.35000
O  6.05000 42.77800 30.88000
C  3.62800 42.40100 31.11100
C  3.84900 41.07300 31.80600
O  3.88100 39.98000 31.31700
O  4.07100 41.33600 33.16200
C  4.25100 40.15600 34.06000
H  -2.66300 40.66500 28.79100
H  -0.55500 41.51800 22.74400
H  5.24000 42.85200 25.01400
H  0.76000 40.90500 31.97600
H  -1.76500 41.88100 31.14800
H  -2.31000 39.65000 31.25100
H  -0.63100 39.59600 32.01700
H  -0.90500 39.10700 30.33400
H  -0.61200 43.45200 31.95600
H  1.11800 43.61000 31.75700
H  0.19500 43.78300 34.07600
H  1.57800 42.89600 33.82900
H  -4.20700 40.12200 27.64700
H  -4.47700 39.23600 26.23800
H  -5.18800 40.86200 26.35200
H  -4.80500 39.33000 23.87400
H  -4.96800 40.10000 22.30400
H  -5.44900 41.01400 23.70900
H  1.65600 42.56300 21.75800
H  4.28600 42.26700 22.76000
H  1.46300 39.98500 22.05100
H  3.22000 40.03500 22.32700
H  2.47600 40.56900 20.84300
H  4.34100 44.57900 23.19600
H  2.54900 44.73300 23.06700
H  3.00400 44.95200 20.66500
H  4.03200 43.46100 20.73500
H  4.74400 45.02600 21.06700
H  7.02300 43.82800 28.41300
H  6.86300 44.01700 26.58100
H  7.31900 42.47400 27.44000
H  3.38500 43.24800 31.75300
H  5.28500 40.17400 34.40400
H  4.02600 39.20900 33.56900
H  3.59600 40.21800 34.92900

