158

Mg 43.85100 4.21000 47.57900
C  41.52400 6.93100 47.25200
C  41.26200 2.08000 47.26800
C  45.94700 1.64600 47.55100
C  46.44500 6.53900 47.49900
N  41.60800 4.46800 47.36100
C  40.91400 5.64900 47.16800
C  39.45800 5.34000 47.21300
C  39.36900 3.82800 47.51300
C  40.86500 3.39800 47.50700
C  38.67600 3.49200 48.90000
C  38.51900 5.94700 46.04000
C  38.68900 5.34600 44.64500
H  39.51300 6.15600 43.63400
N  43.55400 2.07700 47.20500
C  42.46900 1.37800 47.14000
C  42.68000 -0.04300 46.85900
C  44.15600 -0.13900 46.83200
C  44.64600 1.24800 47.12200
C  41.77900 -1.06800 46.54300
C  44.91700 -1.39400 46.61000
O  44.29800 -2.38600 46.38200
C  46.39000 -1.55900 46.57000
N  45.92200 4.11200 47.36000
C  46.56800 2.93200 47.66600
C  48.05800 3.16400 47.93600
C  48.18400 4.69900 47.82700
C  46.78300 5.15700 47.42800
C  48.58200 2.48400 49.25600
C  49.34100 5.24800 46.86200
C  50.68300 5.63900 47.57300
N  43.97800 6.34100 47.36300
C  45.15500 7.11400 47.46000
C  44.67700 8.50500 47.55100
C  43.23900 8.44600 47.56700
C  42.87600 7.16300 47.34600
C  45.50900 9.73300 47.57900
C  42.07600 9.31200 47.63300
O  41.92500 10.49000 47.81300
C  40.88300 8.26200 47.35800
C  39.96700 8.41200 48.56100
O  40.07600 7.77700 49.56000
O  38.99900 9.40200 48.27500
C  37.87800 9.51600 49.20300
H  40.33300 1.51300 47.35300
H  46.58300 0.80400 47.83400
H  47.26200 7.23400 47.70600
H  39.09300 5.75500 48.15300
H  38.85600 3.27700 46.72500
H  39.47600 3.22500 49.59100
H  38.07900 2.60700 48.68100
H  38.00300 4.25000 49.29900
H  38.80900 6.99700 46.07800
H  37.47800 5.90200 46.36100
H  37.68600 5.25800 44.22700
H  39.12700 4.35100 44.73300
H  41.79400 -1.07500 45.45300
H  40.77900 -0.78400 46.87000
H  42.01400 -2.02400 47.00900
H  46.85100 -1.13900 47.46300
H  46.72900 -1.04500 45.67100
H  46.72600 -2.59600 46.57900
H  48.63600 2.71600 47.12700
H  48.35800 5.16800 48.79600
H  49.57600 2.08100 49.06000
H  47.80700 1.89100 49.74300
H  48.92100 3.23600 49.96800
H  48.89500 6.09100 46.33500
H  49.45000 4.44700 46.13200
H  50.52400 6.61000 48.04300
H  51.45800 5.73300 46.81200
H  50.97100 4.86700 48.28600
H  46.50600 9.50200 47.20300
H  45.68700 10.12600 48.58000
H  44.98900 10.52800 47.04400
H  40.30200 8.50400 46.46800
H  37.18300 10.30800 48.92600
H  38.21100 9.78600 50.20500
H  37.22400 8.65000 49.09900
Mg -1.73400 34.42700 27.72100
C  -3.29700 32.39300 30.07400
C  -0.26400 36.16100 30.40700
C  -0.53700 36.56900 25.50400
C  -3.66500 32.82500 25.20600
N  -1.89800 34.40000 30.01900
C  -2.55100 33.39100 30.73500
C  -2.36600 33.62800 32.26100
C  -1.55000 34.92500 32.29400
C  -1.10200 35.11800 30.84500
C  -2.39500 36.24600 32.74600
C  -1.65200 32.38800 32.88800
C  -2.36200 31.75700 34.08900
H  -1.71900 31.64500 35.47100
N  -0.46000 36.04500 27.92200
C  0.15500 36.51900 29.07500
C  1.04000 37.61400 28.69700
C  0.91300 37.77400 27.29700
C  -0.06600 36.75600 26.81800
C  1.91400 38.41000 29.72900
C  1.64500 38.82300 26.41600
O  1.46400 38.99900 25.24500
C  2.72400 39.67900 27.14700
N  -2.13400 34.66600 25.67200
C  -1.49200 35.65200 25.01300
C  -2.18900 35.83900 23.59300
C  -2.87200 34.39100 23.35800
C  -2.90700 33.91800 24.83000
C  -3.32400 36.96800 23.58300
C  -2.02500 33.44200 22.52700
C  -2.66000 33.09000 21.18200
N  -3.16900 32.87600 27.63900
C  -3.78600 32.33300 26.50200
C  -4.58300 31.18900 26.93000
C  -4.43000 31.20900 28.34700
C  -3.55000 32.27100 28.71400
C  -5.27600 30.26200 26.07800
C  -4.85100 30.47000 29.55500
O  -5.58500 29.50900 29.67000
C  -4.16900 31.26500 30.74200
C  -5.07600 31.65600 31.83500
O  -5.75800 32.68000 31.91400
O  -5.09400 30.56600 32.72200
C  -5.88900 30.77300 33.83100
H  0.12900 36.83600 31.17000
H  -0.12300 37.34000 24.85000
H  -4.36000 32.35300 24.51000
H  -3.39400 33.76500 32.59400
H  -0.65100 34.83600 32.90400
H  -3.43000 36.14400 33.07200
H  -2.45600 36.99200 31.95400
H  -1.94000 36.78400 33.57800
H  -0.67800 32.72000 33.24800
H  -1.33700 31.63100 32.16900
H  -2.49000 30.69700 33.86700
H  -3.32400 32.25100 34.22200
H  2.98300 38.24100 29.59900
H  1.58300 38.12800 30.72900
H  1.71000 39.47300 29.85700
H  3.20800 40.40100 26.49000
H  3.60000 39.05500 27.32800
H  2.45900 40.28400 28.01400
H  -1.51600 36.17500 22.80500
H  -3.81100 34.66500 22.87700
H  -4.35800 36.63100 23.51400
H  -3.14800 37.64800 22.75000
H  -3.27400 37.63300 24.44500
H  -1.89900 32.52000 23.09500
H  -1.07700 33.87100 22.20300
H  -1.91100 33.14300 20.39200
H  -3.53200 33.67700 20.89700
H  -2.92800 32.03300 21.19300
H  -6.31100 30.60100 26.02400
H  -5.50200 29.28300 26.49900
H  -4.92800 30.19500 25.04700
H  -3.50600 30.59500 31.29000
H  -6.91500 31.04200 33.57700
H  -5.49600 31.58100 34.44800
H  -5.82700 29.84900 34.40500

