158

Mg 24.15300 -4.54000 45.59100
C  26.32000 -2.34600 44.03600
C  21.52700 -3.29500 43.73100
C  22.49200 -7.45500 45.96600
C  27.03700 -6.15800 47.16400
N  23.97800 -2.95000 44.09300
C  24.97500 -2.19000 43.51700
C  24.44500 -1.29200 42.39100
C  22.89400 -1.49600 42.50500
C  22.77100 -2.70100 43.53400
C  22.02800 -0.24800 42.88100
C  25.16900 -1.64200 41.05900
C  25.56500 -0.48000 40.20900
H  25.03900 -0.55000 38.84600
N  22.19300 -5.30200 45.03100
C  21.27000 -4.52700 44.34200
C  20.02500 -5.25000 44.32300
C  20.26700 -6.52100 44.97200
C  21.67000 -6.45200 45.36300
C  18.74500 -4.64700 43.65800
C  19.23800 -7.61200 45.16600
O  18.15100 -7.50200 44.63800
C  19.42300 -8.79600 46.02900
N  24.73400 -6.55200 46.27000
C  23.81500 -7.49700 46.44200
C  24.46100 -8.88800 46.87600
C  25.89100 -8.42900 47.30200
C  25.93700 -6.99400 46.89200
C  23.76100 -9.63800 48.06600
C  27.04000 -9.29200 46.73600
C  28.12800 -10.00900 47.55200
N  26.14700 -4.23800 45.87300
C  27.10600 -4.90100 46.57000
C  28.38400 -4.18900 46.35700
C  28.09300 -3.18400 45.43700
C  26.70000 -3.30600 45.09600
C  29.71500 -4.68000 46.81200
C  28.67000 -2.15900 44.63200
O  29.87800 -1.84500 44.44300
C  27.53100 -1.56300 43.73500
C  27.32500 -0.12400 43.92400
O  26.63000 0.39500 44.83300
O  28.00500 0.53000 42.94500
C  28.11900 1.95800 42.97200
H  20.76300 -2.79300 43.13300
H  22.10100 -8.43700 46.23700
H  27.88400 -6.49200 47.76700
H  24.77200 -0.31800 42.75700
H  22.58500 -1.77100 41.49700
H  22.32300 0.69300 42.41700
H  21.98000 -0.12600 43.96300
H  21.00000 -0.33100 42.52900
H  24.43300 -2.19400 40.47400
H  25.80700 -2.48000 41.34100
H  26.64900 -0.36900 40.19100
H  25.14600 0.45000 40.59300
H  18.28300 -5.36300 42.97900
H  18.96100 -3.70800 43.14800
H  18.01300 -4.55500 44.46000
H  19.68500 -8.38400 47.00300
H  20.25600 -9.26700 45.50800
H  18.51400 -9.39500 46.08800
H  24.62100 -9.54700 46.02300
H  25.87400 -8.30000 48.38400
H  24.45500 -9.58000 48.90500
H  23.46800 -10.68200 47.94600
H  22.83200 -9.10600 48.26800
H  27.56700 -8.71500 45.97600
H  26.62400 -10.02500 46.04500
H  29.02100 -9.40300 47.70700
H  28.34000 -11.01900 47.20100
H  27.75200 -9.98900 48.57500
H  29.90600 -5.60100 46.26100
H  29.63000 -4.75600 47.89600
H  30.47600 -3.95100 46.53400
H  27.83100 -1.74800 42.70400
H  28.64200 2.21200 43.89400
H  27.10300 2.35200 42.94800
H  28.55200 2.30300 42.03300
Mg 24.52400 2.10600 29.77300
C  26.53000 2.18800 32.61500
C  21.75000 2.02300 31.83200
C  22.48600 2.06500 26.99700
C  27.27500 1.63900 27.85400
N  24.19800 2.17300 32.04000
C  25.19700 2.24200 32.99700
C  24.57100 2.31500 34.38600
C  23.04200 2.17400 34.12200
C  22.94300 2.09300 32.57700
C  22.42200 1.07000 34.96000
C  25.06100 3.67100 35.04500
C  25.65600 3.62900 36.46300
H  25.27500 4.57400 37.59900
N  22.42000 2.03900 29.44000
C  21.49300 2.09900 30.45500
C  20.18100 2.01900 29.88000
C  20.35200 1.86700 28.48300
C  21.81300 2.05000 28.25300
C  18.85000 1.96800 30.67800
C  19.39400 1.50300 27.32700
O  19.75200 1.36200 26.18500
C  17.93200 1.21100 27.61600
N  24.80100 1.93600 27.68400
C  23.79800 1.97700 26.73500
C  24.37000 1.91100 25.29800
C  25.95700 1.96900 25.62700
C  26.07700 1.81600 27.16800
C  23.94900 0.63500 24.46700
C  26.80400 3.26300 25.16700
C  26.05600 4.61400 25.30800
N  26.53200 1.94400 30.08800
C  27.56100 1.75800 29.15900
C  28.77900 1.66800 29.88100
C  28.40200 1.78400 31.21700
C  27.02100 1.98400 31.33300
C  30.11000 1.56200 29.27300
C  28.97100 1.77300 32.59300
O  30.13500 1.66000 32.98800
C  27.79900 2.07900 33.54900
C  27.72900 1.06000 34.56100
O  27.53200 -0.16500 34.41600
O  28.32300 1.49300 35.66500
C  28.44100 0.51700 36.79700
H  20.93300 2.06500 32.55600
H  21.88200 2.10500 26.08800
H  28.16900 1.39200 27.27700
H  24.88800 1.44700 34.96400
H  22.40400 3.04700 34.25900
H  21.38600 1.33200 35.17600
H  22.99300 0.90700 35.87400
H  22.55800 0.16300 34.37100
H  24.17500 4.30400 35.09600
H  25.71900 4.27000 34.41600
H  26.72100 3.73500 36.25500
H  25.54500 2.57800 36.72900
H  18.96300 2.58800 31.56800
H  18.74400 1.00300 31.17500
H  17.92900 2.27600 30.18300
H  17.35300 1.87400 28.25900
H  17.75300 0.31900 28.21600
H  17.40000 1.02600 26.68200
H  23.92100 2.74400 24.75700
H  26.36500 1.06600 25.17100
H  23.22100 0.18000 25.13900
H  24.70900 -0.12400 24.28600
H  23.47800 0.94800 23.53500
H  27.11500 3.21400 24.12300
H  27.66900 3.24600 25.82900
H  25.67100 4.74500 26.32000
H  25.21400 4.64900 24.61600
H  26.75100 5.41400 25.05500
H  30.09500 1.93000 28.24800
H  30.36900 0.50300 29.26300
H  30.78600 2.07000 29.96100
H  28.05700 3.05900 33.95200
H  29.40100 0.03100 36.62200
H  27.65200 -0.23000 36.87500
H  28.45000 1.02600 37.76100

