158

Mg 25.84000 0.79800 29.63400
C  27.92300 0.52400 32.56400
C  23.11100 0.83000 31.66000
C  24.00000 1.08500 26.85200
C  28.61600 -0.08000 27.76500
N  25.63000 0.70700 31.84200
C  26.56800 0.75500 32.84400
C  25.90200 0.89800 34.20300
C  24.37700 0.81500 33.94200
C  24.38500 0.69700 32.39700
C  23.63400 -0.37200 34.68300
C  26.37400 2.12000 35.06500
C  26.62200 1.87500 36.53000
H  26.27200 2.97300 37.52900
N  23.83200 1.01200 29.30400
C  22.87500 1.02500 30.27500
C  21.58100 1.27100 29.63000
C  21.81100 1.41400 28.23100
C  23.22200 1.14400 28.05400
C  20.25200 1.48400 30.39700
C  20.87900 1.83200 27.10700
O  21.22600 2.04200 25.91800
C  19.49900 2.35300 27.41300
N  26.29600 0.58200 27.63000
C  25.31400 0.73000 26.66100
C  25.98300 0.75900 25.30800
C  27.44500 0.42900 25.60400
C  27.50500 0.30500 27.07600
C  25.26500 -0.04300 24.18800
C  28.39700 1.48700 25.07300
C  28.28800 2.86800 25.83000
N  27.83300 0.26800 30.01800
C  28.83000 -0.03500 29.16600
C  30.03100 -0.35600 29.92600
C  29.71400 -0.03200 31.22800
C  28.40600 0.31800 31.25400
C  31.40100 -0.76000 29.30200
C  30.34300 0.01900 32.53900
O  31.49000 -0.13600 32.91500
C  29.16100 0.41200 33.47400
C  29.14000 -0.56800 34.64600
O  28.61100 -1.70500 34.70100
O  29.80000 0.02700 35.68500
C  29.97000 -0.66100 36.94000
H  22.27800 0.94000 32.35700
H  23.43400 1.19800 25.92500
H  29.43400 -0.48900 27.16900
H  26.13900 -0.04800 34.69000
H  23.93700 1.75100 34.28400
H  23.63500 -1.33400 34.17000
H  22.58000 -0.10800 34.76300
H  24.11100 -0.53900 35.64900
H  25.60900 2.89600 35.05400
H  27.30200 2.48800 34.62500
H  27.67400 1.72200 36.76800
H  26.03400 1.01700 36.85700
H  20.47500 1.35600 31.45600
H  19.59600 0.68500 30.05100
H  19.67700 2.39800 30.24300
H  19.72700 3.26000 27.97300
H  18.95000 1.65400 28.04400
H  18.93800 2.68800 26.54100
H  25.87300 1.81200 25.04800
H  27.74900 -0.56300 25.27000
H  24.29800 -0.38400 24.56100
H  25.90600 -0.84400 23.82000
H  25.02600 0.65900 23.39000
H  28.18900 1.61900 24.01100
H  29.36600 0.98900 25.10400
H  29.28800 3.26300 26.01000
H  27.70700 2.78300 26.74900
H  27.77300 3.55200 25.15600
H  31.33500 -1.82000 29.05800
H  32.21000 -0.54000 29.99900
H  31.50900 -0.20000 28.37300
H  29.45200 1.34600 33.95600
H  30.04000 -1.71600 36.67500
H  29.23900 -0.40000 37.70600
H  30.90900 -0.33000 37.38500
Mg 41.26300 8.01000 30.01900
C  42.94800 9.56000 32.84600
C  38.96500 6.91200 32.25400
C  39.87400 6.55900 27.35100
C  43.96500 8.91600 28.15300
N  40.96800 8.33600 32.27700
C  41.71500 9.05500 33.17600
C  41.05100 9.10900 34.58700
C  39.90000 8.06900 34.44300
C  39.89000 7.73100 32.87400
C  40.03100 6.79800 35.25000
C  40.61400 10.46600 35.20000
C  40.35000 10.39800 36.70600
H  41.10900 11.40500 37.57600
N  39.66800 6.79600 29.82100
C  38.79400 6.53000 30.90100
C  37.65100 5.82700 30.29000
C  37.93800 5.64800 28.88400
C  39.19300 6.27600 28.57900
C  36.42100 5.50200 31.16900
C  37.08000 5.16400 27.79700
O  37.52800 4.89800 26.72000
C  35.59200 5.15100 28.03000
N  41.80300 7.82200 27.96000
C  41.04300 7.21800 27.04100
C  41.56500 7.35800 25.63500
C  42.92600 8.16200 25.91000
C  42.90600 8.32600 27.39700
C  41.80200 6.01700 24.88500
C  43.00000 9.57700 25.11600
C  41.93300 10.67900 25.44600
N  43.19500 8.96800 30.39100
C  44.24000 9.22600 29.50000
C  45.29500 9.81400 30.13100
C  44.85300 10.01800 31.46600
C  43.57200 9.47200 31.55300
C  46.66200 10.06300 29.58400
C  45.21200 10.55700 32.73100
O  46.21700 11.15600 33.08100
C  43.98700 10.28200 33.70400
C  44.36900 9.34200 34.79700
O  44.65800 8.17500 34.60300
O  44.22800 9.97100 35.96200
C  44.32700 9.14200 37.09800
H  38.20800 6.66400 33.00000
H  39.35300 6.23100 26.44900
H  44.75900 9.15700 27.44300
H  41.81100 8.62600 35.20100
H  38.96600 8.51800 34.78000
H  40.20200 6.04200 34.48400
H  39.09000 6.45900 35.68300
H  40.83300 6.69700 35.98200
H  39.79900 10.98400 34.69500
H  41.48900 11.05800 34.93100
H  40.61100 9.39100 37.03100
H  39.28800 10.63900 36.76600
H  36.82700 5.40500 32.17600
H  35.90400 4.59800 30.84900
H  35.64600 6.24700 31.35500
H  35.03400 5.10200 27.09500
H  35.31800 6.08900 28.51300
H  35.20700 4.35100 28.66300
H  40.87500 8.02300 25.11500
H  43.76600 7.50200 25.69400
H  41.59600 6.12100 23.81900
H  41.07000 5.29500 25.24600
H  42.82300 5.67200 25.04600
H  42.89200 9.22700 24.09000
H  43.99200 10.00100 25.27100
H  42.38800 11.29000 26.22600
H  41.00100 10.22000 25.77500
H  41.72000 11.34500 24.61000
H  47.44400 9.63400 30.21100
H  46.83000 11.12500 29.40600
H  46.69300 9.59500 28.60000
H  43.62400 11.19100 34.18400
H  45.28800 8.75900 37.44100
H  43.68500 8.27600 36.93000
H  43.75800 9.66600 37.86600

