158

Mg 7.54200 3.04500 26.96600
C  8.68300 1.53800 29.83400
C  5.44000 4.86800 28.92900
C  6.58900 4.67100 24.21300
C  9.03900 0.53500 25.09300
N  7.12800 3.23200 29.19000
C  7.81100 2.59100 30.12700
C  7.45100 3.01900 31.48600
C  6.19000 3.95200 31.18400
C  6.22900 4.04700 29.65100
C  4.86400 3.36600 31.81100
C  8.53400 3.69800 32.24500
C  8.40400 3.78300 33.74400
H  9.65500 3.93500 34.68500
N  6.19100 4.52700 26.62200
C  5.45200 5.25600 27.55900
C  4.73400 6.26000 26.92100
C  5.05700 6.24600 25.52500
C  6.05500 5.16600 25.39600
C  3.95400 7.28900 27.65100
C  4.57600 7.15300 24.34300
O  4.92200 7.05500 23.17300
C  3.68600 8.28200 24.64700
N  7.73400 2.56300 24.92900
C  7.39700 3.48700 24.00900
C  7.60200 2.89600 22.58300
C  8.27600 1.46000 22.83500
C  8.38000 1.44800 24.35900
C  6.25000 3.05200 21.74100
C  9.51000 1.16400 21.92300
C  9.27100 -0.17100 21.17300
N  8.56100 1.38300 27.33900
C  9.15500 0.48900 26.49600
C  10.03600 -0.38800 27.26800
C  9.75800 -0.07100 28.61500
C  8.92000 0.97500 28.57600
C  10.92500 -1.41800 26.75500
C  10.17800 -0.35700 29.95400
O  10.89500 -1.24000 30.38600
C  9.59200 0.71900 30.79100
C  8.84700 0.10900 31.98500
O  7.78000 -0.47000 31.92500
O  9.66100 0.12300 33.09100
C  9.10700 -0.49500 34.37200
H  4.72100 5.41500 29.54300
H  6.28300 5.09900 23.25600
H  9.54700 -0.22400 24.49300
H  7.07600 2.24700 32.15800
H  6.27800 4.95900 31.59300
H  4.01900 3.48400 31.13200
H  4.79700 3.95200 32.72800
H  4.81100 2.28600 31.94400
H  8.56100 4.75000 31.96000
H  9.56000 3.50200 31.93600
H  7.99600 2.81000 34.01700
H  7.68600 4.56600 33.98700
H  3.51400 7.04400 28.61800
H  3.08800 7.44300 27.00700
H  4.34800 8.30500 27.66100
H  3.44700 8.76700 23.70000
H  4.17900 8.95500 25.34800
H  2.69500 7.93600 24.94100
H  8.27000 3.50200 21.97100
H  7.48200 0.78100 22.52500
H  5.34500 3.26100 22.31200
H  6.13400 2.02800 21.38700
H  6.43700 3.79400 20.96500
H  10.47500 1.05500 22.41800
H  9.52100 1.86900 21.09100
H  9.22000 -0.04000 20.09200
H  8.40800 -0.74000 21.52000
H  10.12900 -0.83300 21.29600
H  11.34500 -1.14400 25.78800
H  10.48900 -2.40800 26.61500
H  11.80700 -1.30400 27.38500
H  10.37800 1.28200 31.29400
H  8.43400 0.13400 34.95500
H  9.90700 -0.76500 35.06100
H  8.65800 -1.43400 34.04800
Mg 24.65100 -5.83300 45.29400
C  27.08200 -3.76700 44.00700
C  22.33900 -4.69000 43.33800
C  22.72500 -8.56500 46.15000
C  27.21400 -7.23400 47.29500
N  24.77200 -4.49900 43.67200
C  25.82600 -3.62600 43.40900
C  25.37000 -2.46400 42.56700
C  23.77700 -2.64100 42.50300
C  23.60000 -4.01400 43.24500
C  23.00000 -1.37600 43.07800
C  26.04900 -2.62300 41.17800
C  26.18900 -1.46300 40.28000
H  25.65300 -1.66300 38.82500
N  22.73200 -6.46800 44.94300
C  21.94000 -5.82400 44.06100
C  20.64900 -6.47400 43.96200
C  20.74600 -7.62800 44.73300
C  22.13800 -7.62200 45.32400
C  19.59000 -6.08800 43.04300
C  19.65700 -8.68000 44.99100
O  18.57600 -8.57600 44.43600
C  19.79100 -9.87400 45.90700
N  24.92700 -7.60800 46.47100
C  24.01500 -8.64200 46.66800
C  24.54900 -9.79000 47.53300
C  25.91400 -9.24400 48.06100
C  26.03600 -7.94400 47.24700
C  23.56100 -10.40600 48.59800
C  27.16900 -10.15800 48.03100
C  28.15700 -10.04400 49.22100
N  26.70800 -5.49400 45.69400
C  27.54300 -6.10400 46.54700
C  28.90400 -5.58900 46.44900
C  28.70500 -4.61600 45.48600
C  27.36900 -4.62100 45.00800
C  30.19400 -5.77000 47.25400
C  29.33200 -3.48200 44.71500
O  30.49000 -3.02200 44.74700
C  28.28000 -2.92600 43.76000
C  28.22300 -1.45100 44.08400
O  28.18000 -0.96800 45.19500
O  28.35300 -0.73200 42.92300
C  28.35500 0.70600 43.11700
H  21.70500 -3.99600 42.78200
H  22.21200 -9.50700 46.35900
H  28.01600 -7.51100 47.98300
H  25.63300 -1.55800 43.11300
H  23.41000 -2.73700 41.48200
H  23.56600 -0.44600 43.03100
H  22.80500 -1.48500 44.14500
H  22.01300 -1.32700 42.61900
H  25.71600 -3.46900 40.57600
H  27.08600 -2.82700 41.44500
H  27.21800 -1.10400 40.30000
H  25.58100 -0.66600 40.70800
H  19.77500 -5.14400 42.53000
H  18.56100 -6.06500 43.40000
H  19.56500 -6.79400 42.21300
H  20.56200 -10.51000 45.47200
H  18.83100 -10.38000 46.00400
H  20.01500 -9.56100 46.92800
H  24.73500 -10.61900 46.85000
H  25.65600 -9.01600 49.09500
H  23.94900 -10.28800 49.61000
H  23.51500 -11.47200 48.37800
H  22.60100 -9.88800 48.58500
H  27.72500 -9.85700 47.14300
H  26.80900 -11.18400 47.94600
H  29.07000 -9.74400 48.70700
H  28.22800 -10.90200 49.89000
H  27.80700 -9.36700 50.00100
H  30.06600 -6.62700 47.91500
H  30.40600 -4.79600 47.69700
H  30.94300 -5.90000 46.47300
H  28.68800 -3.01400 42.75300
H  28.00500 1.06800 44.08400
H  27.70800 1.09800 42.33200
H  29.38000 1.01400 42.91000

