158

Mg 42.08800 40.91300 26.78800
C  40.87000 43.15900 29.26300
C  43.17200 38.84700 29.27100
C  43.14000 38.90200 24.42000
C  41.32200 43.38800 24.35900
N  42.05200 41.05200 29.02100
C  41.46100 42.02200 29.80400
C  41.68800 41.83400 31.34200
C  42.51700 40.43600 31.30500
C  42.57600 40.04900 29.80400
C  43.95700 40.52300 31.84900
C  40.26900 41.67500 32.01700
C  40.08500 42.50100 33.24200
H  39.69500 41.72700 34.52600
N  42.94800 39.00100 26.84600
C  43.29000 38.31100 28.01200
C  43.87300 36.97100 27.64000
C  43.81700 37.00100 26.23500
C  43.31500 38.35800 25.78000
C  44.35900 35.94700 28.63600
C  44.17100 35.96500 25.27500
O  44.31700 36.21600 24.10200
C  44.40000 34.55200 25.70400
N  42.25200 41.10900 24.74200
C  42.72100 40.15000 23.93100
C  42.66900 40.50800 22.42100
C  42.03800 41.90000 22.42200
C  41.83800 42.13600 23.91700
C  44.01100 40.30000 21.68000
C  40.64200 41.96800 21.70300
C  40.36700 43.18700 20.83100
N  41.33200 42.84600 26.77100
C  41.05100 43.73800 25.71300
C  40.43100 44.87100 26.24300
C  40.29900 44.67100 27.60800
C  40.90100 43.47800 27.90900
C  39.91500 45.94600 25.34400
C  39.75100 45.30400 28.82800
O  39.08800 46.33300 28.98000
C  40.19100 44.34000 30.01200
C  41.01200 45.22100 30.80800
O  42.19000 45.41200 30.63200
O  40.35500 45.75600 31.88400
C  41.23100 46.45500 32.93600
H  43.32300 38.09300 30.04600
H  43.56400 38.24300 23.65900
H  41.17900 44.11900 23.56000
H  42.32600 42.61000 31.76500
H  41.98500 39.72700 31.93900
H  44.35900 41.44200 32.27600
H  44.68900 40.24700 31.08900
H  43.96600 39.82000 32.68200
H  40.13600 40.60300 32.16200
H  39.47400 41.87300 31.29900
H  39.22200 43.16000 33.14900
H  40.99800 43.05900 33.45000
H  43.96000 34.97200 28.35700
H  44.18700 36.16700 29.69000
H  45.44500 35.95600 28.55100
H  45.36700 34.42300 26.19000
H  44.45700 33.86800 24.85700
H  43.62900 34.13400 26.35200
H  41.95300 39.76100 22.07800
H  42.76500 42.69900 22.27000
H  44.43700 41.23800 21.32400
H  43.60700 39.67400 20.88500
H  44.67200 39.85800 22.42500
H  39.79400 41.71400 22.34000
H  40.70600 41.13700 21.00100
H  41.16700 43.90800 20.99600
H  39.45900 43.64600 21.22200
H  40.27200 42.88600 19.78800
H  39.60200 45.62200 24.35100
H  40.68700 46.70400 25.20500
H  38.99700 46.31400 25.80100
H  39.34700 44.11600 30.66500
H  40.52100 47.18100 33.33300
H  42.08700 47.02800 32.58000
H  41.62800 45.68400 33.59600
Mg 28.13400 56.26700 40.27100
C  25.63000 53.74200 39.82700
C  30.47400 54.06600 39.43500
C  30.13500 58.80000 40.55600
C  25.21100 58.48200 40.62900
N  27.96900 54.30400 39.44300
C  26.90600 53.42600 39.38700
C  27.38300 52.03900 38.82200
C  28.94900 52.04600 39.08100
C  29.18800 53.57000 39.45200
C  29.44300 51.11500 40.20800
C  27.01600 51.83700 37.33500
C  26.79300 53.03900 36.37600
H  27.40800 52.83300 34.98000
N  30.08600 56.39000 39.93700
C  30.91200 55.38200 39.66300
C  32.25600 55.90900 39.61900
C  32.13600 57.31100 39.86500
C  30.71700 57.51800 40.15900
C  33.40400 54.97300 39.25000
C  33.25800 58.29600 39.63500
O  34.38800 57.92700 39.64000
C  33.00200 59.72300 39.36800
N  27.73700 58.29500 40.47300
C  28.81100 59.10500 40.72900
C  28.31100 60.57400 40.93800
C  26.80400 60.46100 40.56800
C  26.54200 58.97300 40.60700
C  28.62200 61.15900 42.23900
C  26.28900 61.12300 39.18900
C  25.16300 62.17100 39.32800
N  25.87200 56.14400 40.41000
C  24.93200 57.13300 40.55500
C  23.61000 56.53900 40.56700
C  23.82400 55.15500 40.42800
C  25.20200 55.01000 40.20800
C  22.31400 57.06300 40.78900
C  23.28300 53.77900 40.41500
O  22.17800 53.35500 40.72600
C  24.42100 52.84200 39.96300
C  24.51800 51.74800 40.96200
O  24.34700 50.53300 40.67600
O  25.04500 52.22100 42.15500
C  25.53100 51.18900 43.06600
H  31.15900 53.21700 39.38200
H  30.74500 59.67400 40.79400
H  24.35300 59.14400 40.76600
H  26.86100 51.33100 39.46500
H  29.60000 51.82200 38.23600
H  29.87800 51.83400 40.90200
H  30.25300 50.46300 39.87900
H  28.66200 50.55900 40.72600
H  26.15100 51.17700 37.26900
H  27.79500 51.16600 36.97300
H  27.30000 53.90500 36.80200
H  25.73700 53.29700 36.29900
H  33.78700 55.18000 38.25100
H  33.00300 53.96300 39.33900
H  34.18000 55.10500 40.00300
H  32.73400 60.27900 40.26700
H  32.10400 59.79900 38.75500
H  33.84200 60.11300 38.79400
H  28.88700 61.04100 40.14000
H  26.24900 60.87500 41.41000
H  29.62400 61.58500 42.19300
H  28.62600 60.36400 42.98400
H  27.92800 61.96600 42.47600
H  26.09200 60.28800 38.51600
H  27.10000 61.65700 38.69400
H  24.41700 62.10600 38.53600
H  25.71700 63.10900 39.29300
H  24.69500 62.15500 40.31300
H  21.57200 56.51900 40.20400
H  22.28000 58.13000 40.56700
H  21.98800 56.89400 41.81500
H  24.11100 52.33900 39.04800
H  24.81100 50.98600 43.86000
H  26.39700 51.58700 43.59500
H  25.79100 50.23200 42.61500

