158

Mg 16.88800 53.19300 25.96500
C  18.72400 51.86300 28.64800
C  14.29800 53.82500 28.15900
C  15.07500 54.29200 23.45700
C  19.52200 52.17500 23.91500
N  16.50200 52.77700 28.19600
C  17.45900 52.29800 29.08200
C  16.95900 52.37000 30.54600
C  15.51100 52.85000 30.32300
C  15.40500 53.16600 28.83300
C  14.46200 51.82700 30.75700
C  17.70000 53.39400 31.49600
C  17.62000 53.00600 32.96900
H  16.72300 53.75900 33.94400
N  14.96700 54.05000 25.82500
C  14.04900 54.25200 26.82800
C  12.87400 54.84700 26.21600
C  13.00900 54.90400 24.83100
C  14.39700 54.37400 24.64600
C  11.76300 55.27700 27.13600
C  12.01200 55.32700 23.72800
O  12.38100 55.45400 22.55500
C  10.58600 55.66900 24.16400
N  17.18000 53.17000 23.92700
C  16.34600 53.69300 23.07600
C  16.84600 53.63800 21.64500
C  18.38500 53.24800 21.85300
C  18.41100 52.81000 23.31900
C  15.97800 52.76700 20.66100
C  19.31500 54.49600 21.40500
C  19.25800 55.76200 22.22300
N  18.74500 52.19200 26.16700
C  19.72200 51.86500 25.26300
C  20.80400 51.15900 25.82000
C  20.48500 51.16400 27.21800
C  19.18800 51.76900 27.35100
C  21.92600 50.54200 25.04600
C  20.89800 50.75600 28.57200
O  21.79000 50.12300 29.04700
C  19.81400 51.23300 29.50600
C  19.30500 50.14600 30.41500
O  18.65700 49.16500 30.03500
O  19.53800 50.53700 31.72300
C  19.03000 49.60700 32.70500
H  13.53000 54.04600 28.90400
H  14.60100 54.52700 22.50100
H  20.28500 51.85800 23.20100
H  16.97300 51.36000 30.95600
H  15.17100 53.73800 30.85700
H  14.99000 50.99600 31.22500
H  13.88700 51.43700 29.91700
H  13.78200 52.27300 31.48300
H  17.26700 54.38200 31.34100
H  18.73900 53.44400 31.17300
H  18.62600 53.18600 33.34700
H  17.25700 51.98600 33.09800
H  11.01900 54.48200 27.07800
H  11.30200 56.22200 26.84900
H  12.00700 55.49600 28.17600
H  10.71600 56.73600 24.34600
H  10.23300 55.05000 24.98800
H  9.93300 55.47600 23.31300
H  16.79500 54.61000 21.15300
H  18.65900 52.50200 21.10700
H  15.42700 52.07500 21.29900
H  16.50100 52.27800 19.83900
H  15.26000 53.46300 20.22800
H  19.31600 54.52600 20.31600
H  20.32700 54.10100 21.49000
H  18.23000 55.99600 22.49700
H  19.81000 56.49200 21.63100
H  19.83900 55.77600 23.14600
H  21.69600 50.50500 23.98100
H  22.00000 49.52800 25.43800
H  22.93100 50.89500 25.27900
H  20.48700 51.91000 30.03200
H  19.46500 48.60700 32.69100
H  17.94500 49.50500 32.72000
H  19.28000 49.98600 33.69500
Mg -11.42600 38.25700 41.18200
C  -9.43800 35.62500 40.36500
C  -9.05800 40.44300 39.60100
C  -13.52500 40.86900 41.48900
C  -13.99100 35.99300 42.12100
N  -9.42400 38.06300 40.15000
C  -8.81700 36.83100 40.03100
C  -7.50500 37.00400 39.27500
C  -7.34400 38.58200 39.15700
C  -8.67000 39.06500 39.74700
C  -6.13300 39.22600 39.99900
C  -7.54700 36.28800 37.91300
C  -6.50600 35.11400 37.70600
H  -5.53000 35.27300 36.52700
N  -11.22700 40.43100 40.82900
C  -10.21400 41.05700 40.10500
C  -10.46500 42.50000 40.18500
C  -11.80800 42.66800 40.70200
C  -12.22500 41.31400 41.10500
C  -9.56600 43.62800 39.68000
C  -12.62400 43.94800 40.74200
O  -12.14600 45.01400 40.30600
C  -14.09400 44.13300 41.21700
N  -13.54000 38.35400 41.63400
C  -14.13200 39.58900 41.70900
C  -15.55600 39.39600 42.16800
C  -15.73500 37.84800 42.52100
C  -14.37400 37.35800 42.06400
C  -15.85100 40.35800 43.37600
C  -16.89700 37.12900 41.81400
C  -17.67100 35.96600 42.57900
N  -11.73900 36.19700 41.27400
C  -12.78400 35.45200 41.71000
C  -12.37600 34.03600 41.55100
C  -11.09000 34.02300 41.05400
C  -10.70800 35.33000 40.97000
C  -13.29800 32.92400 41.92100
C  -9.97400 33.18900 40.60300
O  -9.88000 31.97200 40.57100
C  -8.85100 34.22000 40.12200
C  -7.54300 33.85800 40.83300
O  -6.57100 33.33900 40.36600
O  -7.60200 34.34300 42.09500
C  -6.57500 33.96600 43.05700
H  -8.31700 41.12200 39.17500
H  -14.29000 41.64800 41.50700
H  -14.84400 35.32300 42.24800
H  -6.69900 36.54200 39.84500
H  -7.20800 38.88900 38.12000
H  -6.47200 40.00800 40.67800
H  -5.50400 39.63500 39.20800
H  -5.52700 38.55200 40.60400
H  -7.34000 36.95500 37.07600
H  -8.53200 35.83300 37.81000
H  -7.10600 34.20800 37.62200
H  -5.75900 35.04800 38.49600
H  -9.34300 44.31900 40.49300
H  -9.99500 44.20000 38.85800
H  -8.56300 43.25100 39.48100
H  -14.15900 43.75500 42.23700
H  -14.70900 43.43800 40.64500
H  -14.29400 45.20400 41.17600
H  -16.29100 39.57100 41.38200
H  -15.83300 37.64600 43.58800
H  -16.25300 39.82400 44.23600
H  -16.50300 41.18600 43.09600
H  -14.85000 40.69900 43.64200
H  -16.71600 36.81800 40.78500
H  -17.67400 37.88900 41.73000
H  -17.61000 35.16900 41.83800
H  -18.69700 36.31300 42.70600
H  -17.28900 35.78700 43.58400
H  -13.01000 31.91800 41.61400
H  -14.24700 33.02200 41.39400
H  -13.46100 32.97100 42.99800
H  -8.71800 34.07400 39.05000
H  -6.79000 34.26100 44.08400
H  -5.58200 34.32800 42.79000
H  -6.46300 32.88900 43.17500

