158

Mg 17.06600 51.51200 26.78800
C  18.67600 50.14400 29.51900
C  14.64800 52.59900 28.99200
C  15.16000 52.23900 24.27400
C  19.40900 49.94000 24.66000
N  16.77100 51.45200 29.00100
C  17.58500 50.88200 29.96300
C  17.21300 51.22900 31.38100
C  15.81700 51.97300 31.14900
C  15.76400 52.15000 29.61600
C  14.66400 51.06600 31.71600
C  18.11000 52.16000 32.16700
C  17.60900 52.76400 33.55700
H  16.79600 51.86700 34.46700
N  15.17800 52.34300 26.62600
C  14.27200 52.68700 27.61500
C  13.05800 53.22900 27.05300
C  13.33400 53.30000 25.61700
C  14.65400 52.70400 25.43600
C  11.84400 53.75100 27.91400
C  12.45700 53.85000 24.48800
O  12.80900 53.78500 23.30500
C  11.11700 54.50700 24.75200
N  17.28500 51.19000 24.81400
C  16.33900 51.55100 23.95300
C  16.68700 51.22600 22.49800
C  18.09500 50.61400 22.70500
C  18.31200 50.61700 24.16400
C  15.63200 50.36900 21.66300
C  19.12800 51.35500 21.79000
C  19.75800 52.60000 22.20100
N  18.88600 50.41700 27.03600
C  19.71500 49.85900 26.12700
C  20.83100 49.16200 26.78600
C  20.42300 49.24300 28.13500
C  19.23200 49.98500 28.23700
C  21.88300 48.35800 26.08800
C  20.71900 48.79200 29.43600
O  21.68200 48.10600 29.85000
C  19.77900 49.50600 30.43900
C  19.21900 48.54300 31.37100
O  18.34100 47.73000 31.10100
O  19.87200 48.63200 32.59400
C  19.24200 47.79900 33.64500
H  13.98600 53.22300 29.59600
H  14.55000 52.39000 23.38000
H  20.13100 49.33700 24.10600
H  17.10100 50.29800 31.93800
H  15.82400 52.96700 31.59600
H  15.14100 50.33000 32.36300
H  14.12400 50.50700 30.95100
H  14.05400 51.72200 32.33700
H  18.47800 52.87900 31.43500
H  18.99400 51.58400 32.44100
H  17.05000 53.67100 33.32600
H  18.49000 53.07500 34.11800
H  10.88500 53.58500 27.42200
H  11.91600 54.83400 28.00400
H  11.86100 53.23100 28.87200
H  10.43400 53.65700 24.76300
H  10.84400 55.11000 23.88600
H  11.07800 55.11700 25.65400
H  16.79200 52.22700 22.08000
H  18.03600 49.57200 22.39300
H  15.36600 50.91900 20.76000
H  14.74800 50.17200 22.27000
H  16.05200 49.37300 21.52600
H  18.73900 51.46700 20.77800
H  19.90000 50.58600 21.77800
H  20.75400 52.32600 22.54900
H  19.27900 53.05600 23.06700
H  19.88500 53.29200 21.36900
H  21.53100 47.84900 25.19000
H  22.36100 47.56800 26.66700
H  22.61700 49.08600 25.74300
H  20.46100 50.21200 30.91200
H  18.80400 46.84000 33.36800
H  18.46100 48.49500 33.95200
H  20.00100 47.71400 34.42300
Mg -12.18600 38.44400 42.68600
C  -10.22800 35.61900 41.82000
C  -9.68100 40.49500 41.36400
C  -14.16400 41.22700 42.98000
C  -14.81400 36.28900 43.40100
N  -10.19500 38.05400 41.71900
C  -9.60200 36.83200 41.53900
C  -8.31500 36.99000 40.65600
C  -8.04900 38.56200 40.87800
C  -9.41300 39.08500 41.33900
C  -6.90200 38.96100 41.88200
C  -8.50700 36.52700 39.17600
C  -7.20900 35.81700 38.70900
H  -6.44400 36.47800 37.56100
N  -11.94900 40.60700 42.24900
C  -10.84000 41.17300 41.77300
C  -11.08500 42.61600 41.59300
C  -12.36200 42.90600 42.19800
C  -12.91200 41.55800 42.51500
C  -10.12800 43.62000 40.97500
C  -13.07600 44.19700 42.54500
O  -12.74400 45.32300 42.17600
C  -14.41400 44.19600 43.34300
N  -14.18900 38.74100 43.12400
C  -14.75200 39.94400 43.25300
C  -16.23500 39.91400 43.72700
C  -16.48400 38.28400 43.77600
C  -15.08100 37.72700 43.36700
C  -16.61600 40.68600 44.96600
C  -17.69100 37.72200 42.91200
C  -18.90300 37.38400 43.68800
N  -12.46500 36.39800 42.86100
C  -13.58500 35.65700 43.17900
C  -13.31100 34.28500 42.92300
C  -11.98100 34.23300 42.50900
C  -11.52300 35.58800 42.37800
C  -14.20600 33.07400 43.08900
C  -10.89700 33.38400 42.07100
O  -10.80800 32.18700 42.01800
C  -9.74300 34.24000 41.53000
C  -8.66600 33.90100 42.44800
O  -8.65800 34.11000 43.65200
O  -7.56300 33.24800 41.89100
C  -6.37400 33.11000 42.64800
H  -8.99300 41.10500 40.77500
H  -14.99200 41.87700 43.27100
H  -15.64700 35.65900 43.71900
H  -7.51100 36.42000 41.12100
H  -7.92200 38.99700 39.88700
H  -6.50800 38.03900 42.31000
H  -7.21500 39.70400 42.61500
H  -6.14200 39.37200 41.21800
H  -8.69000 37.32600 38.45900
H  -9.35800 35.84800 39.11400
H  -7.40500 34.77600 38.45200
H  -6.42600 35.78900 39.46700
H  -10.29600 43.62300 39.89800
H  -9.08700 43.31700 41.08800
H  -10.18200 44.63700 41.36300
H  -15.23000 43.84700 42.71000
H  -14.65900 45.18200 43.73900
H  -14.24300 43.61400 44.24800
H  -16.82200 40.21600 42.86000
H  -16.56900 37.97900 44.81800
H  -17.16300 40.13900 45.73300
H  -17.19200 41.56900 44.68900
H  -15.70200 40.97600 45.48400
H  -17.40300 36.85300 42.32100
H  -18.04200 38.50900 42.24400
H  -18.97900 36.30300 43.80100
H  -19.80800 37.73300 43.19100
H  -18.86100 37.78400 44.70100
H  -15.15600 33.35000 42.63200
H  -14.43100 32.90600 44.14200
H  -13.90200 32.20100 42.51200
H  -9.46800 33.99800 40.50300
H  -5.56300 32.96900 41.93300
H  -6.50400 32.15500 43.15700
H  -6.18300 33.94400 43.32200

