158

Mg 41.97600 40.79500 26.45000
C  41.59400 43.37200 28.80600
C  42.88000 38.70600 28.97300
C  42.82000 38.32200 24.06200
C  41.64800 43.05900 23.86600
N  42.25200 41.06200 28.67700
C  41.93800 42.17300 29.40300
C  41.83500 41.86900 30.91100
C  42.35600 40.38700 30.82900
C  42.60700 39.99600 29.40400
C  43.51300 40.09200 31.83500
C  40.37900 42.19100 31.57200
C  39.93600 41.50900 32.90400
H  39.75900 42.45000 34.12600
N  42.72100 38.83000 26.55700
C  43.06800 38.17500 27.68300
C  43.55400 36.89200 27.40600
C  43.40300 36.73200 26.01300
C  42.95500 37.98400 25.45300
C  44.13500 35.92400 28.45200
C  43.74600 35.49300 25.17500
O  43.59100 35.49800 23.92600
C  43.96500 34.12300 25.77000
N  42.36800 40.77500 24.27400
C  42.54800 39.59300 23.58200
C  42.46100 39.85700 22.02600
C  42.08600 41.36100 22.00100
C  42.06800 41.83000 23.42300
C  43.62100 39.47300 21.05700
C  40.72900 41.71400 21.32000
C  39.38800 41.63800 22.06100
N  41.64800 42.77700 26.34000
C  41.53300 43.59800 25.22000
C  41.22600 44.97300 25.65100
C  41.27600 44.94200 27.03700
C  41.49000 43.58700 27.45600
C  41.09500 46.13500 24.78300
C  41.19600 45.81100 28.18900
O  40.86500 46.97800 28.31400
C  41.20200 44.75300 29.45200
C  42.25000 45.16400 30.37700
O  43.40200 44.75100 30.46000
O  41.69400 45.97800 31.35800
C  42.51300 46.36200 32.51700
H  43.15600 38.03100 29.78500
H  42.93100 37.63100 23.22400
H  41.41300 43.75900 23.06100
H  42.57800 42.48700 31.41400
H  41.53100 39.77700 31.19700
H  43.20900 39.33000 32.55300
H  43.74500 40.87000 32.56100
H  44.46900 39.90700 31.34400
H  39.65700 41.82800 30.84000
H  40.28200 43.25000 31.81300
H  40.61700 40.69200 33.14100
H  38.95100 41.08700 32.70400
H  43.58200 34.99500 28.58900
H  44.29800 36.39800 29.42000
H  45.14700 35.70300 28.11200
H  44.94100 34.16300 26.25300
H  44.10000 33.40100 24.96400
H  43.15100 33.86800 26.44800
H  41.61900 39.21800 21.75900
H  42.81700 41.95600 21.45400
H  43.22000 39.04900 20.13700
H  44.18200 38.69800 21.58000
H  44.25200 40.31700 20.78000
H  40.76700 41.22600 20.34700
H  40.87500 42.77900 21.13700
H  39.44800 41.27700 23.08800
H  38.71700 41.04800 21.43700
H  39.00200 42.65600 22.10200
H  40.51500 45.88400 23.89500
H  42.12700 46.41100 24.56200
H  40.67500 47.02100 25.26000
H  40.19100 44.79700 29.85800
H  42.52000 45.66500 33.35500
H  42.05500 47.26300 32.92400
H  43.44700 46.77100 32.13300
Mg 37.13200 49.42300 25.28600
C  36.94800 47.62000 28.11200
C  36.03600 52.27500 26.90800
C  36.77700 51.05400 22.31500
C  37.89300 46.53600 23.46900
N  36.56100 49.88600 27.23700
C  36.65400 48.97800 28.32500
C  36.21100 49.54800 29.65600
C  35.71900 51.02700 29.21900
C  36.19500 51.14800 27.73000
C  34.24900 51.30300 29.48600
C  37.29400 49.53200 30.79100
C  36.84600 49.38900 32.26800
H  35.33400 49.44000 32.77400
N  36.62800 51.47500 24.73200
C  36.29200 52.47600 25.49500
C  36.13300 53.70900 24.69600
C  36.13400 53.30300 23.35500
C  36.57800 51.94000 23.41900
C  35.99200 55.06300 25.25900
C  35.89600 54.12100 22.12100
O  35.83200 53.59100 20.99700
C  35.57200 55.62400 22.21100
N  37.19200 48.86100 23.23200
C  37.14900 49.69600 22.25700
C  37.41900 49.01000 20.86300
C  37.93000 47.64200 21.23500
C  37.72000 47.70100 22.73500
C  36.14100 49.02300 19.94400
C  39.42300 47.35900 20.87500
C  39.68700 46.04000 20.08400
N  37.54200 47.45600 25.68600
C  37.70000 46.37000 24.85000
C  37.82400 45.20300 25.63100
C  37.50800 45.61800 26.94500
C  37.35500 47.00700 26.91300
C  38.20300 43.81600 25.14900
C  37.26700 45.17600 28.31500
O  37.18900 44.09100 28.77600
C  36.90000 46.45200 29.09000
C  35.53500 46.27500 29.70100
O  34.46200 46.31100 29.07000
O  35.63400 45.96100 31.02300
C  34.35400 45.43700 31.54000
H  35.59900 53.11000 27.45900
H  36.94900 51.54200 21.35300
H  38.15400 45.57400 23.02300
H  35.29700 48.99900 29.88300
H  36.23000 51.87300 29.67800
H  33.88300 50.64400 30.27400
H  33.66300 51.13400 28.58200
H  34.08800 52.34300 29.76900
H  37.86100 50.45500 30.66900
H  38.01200 48.78500 30.45400
H  37.33000 50.19900 32.81400
H  37.27800 48.44300 32.59500
H  36.84200 55.73200 25.12900
H  35.86700 55.15300 26.33800
H  35.11300 55.52200 24.80500
H  34.58200 55.68100 22.66300
H  35.58600 56.15900 21.26100
H  36.42800 56.05200 22.73200
H  38.19900 49.47400 20.25900
H  37.27200 46.84200 20.89600
H  36.09400 49.81900 19.20200
H  35.23000 49.21100 20.51300
H  36.00000 48.04800 19.47700
H  39.97700 47.25500 21.80800
H  39.79800 48.16100 20.23800
H  40.07100 46.29300 19.09600
H  38.69900 45.59900 19.94800
H  40.41000 45.51400 20.70700
H  37.36500 43.27100 24.71500
H  38.53000 43.28000 26.04000
H  39.06800 43.84900 24.48600
H  37.62200 46.66800 29.87700
H  34.12800 44.39900 31.29500
H  33.43700 46.00200 31.37300
H  34.33300 45.42800 32.62900

