158

Mg 40.29000 9.69000 29.47400
C  42.27400 10.63800 32.12800
C  37.96100 8.61400 31.57400
C  38.51500 8.53000 26.79700
C  43.11700 10.37700 27.28400
N  40.25200 9.46800 31.65600
C  41.06900 10.01100 32.57300
C  40.54600 9.90700 34.02900
C  39.23900 9.05300 33.74100
C  39.11800 9.06400 32.18900
C  39.19400 7.63700 34.42600
C  40.25000 11.33200 34.69800
C  39.52700 11.44300 35.99000
H  40.25600 11.96600 37.27200
N  38.44300 8.80600 29.23500
C  37.57200 8.49400 30.22000
C  36.36100 8.01100 29.65900
C  36.46400 7.96700 28.24200
C  37.82600 8.46000 28.01800
C  35.25900 7.71100 30.67500
C  35.44800 7.47100 27.11400
O  35.63000 7.50200 25.88300
C  34.10700 7.04300 27.64400
N  40.70900 9.59700 27.32000
C  39.86200 8.96300 26.47900
C  40.51000 8.74000 25.03100
C  41.93200 9.36600 25.25900
C  41.93300 9.88600 26.66200
C  40.37700 7.33100 24.44200
C  42.46900 10.42600 24.27000
C  42.10300 11.95800 24.52500
N  42.27100 10.37400 29.60100
C  43.23000 10.70100 28.68700
C  44.40400 11.35900 29.32400
C  43.93300 11.47900 30.63700
C  42.70600 10.82800 30.78400
C  45.66000 11.90500 28.74200
C  44.36400 11.89500 31.93000
O  45.42900 12.45000 32.27600
C  43.27100 11.42000 32.95900
C  43.89200 10.52000 33.93700
O  44.33200 9.37000 33.73500
O  43.90700 11.18700 35.10300
C  44.38800 10.50900 36.30000
H  37.18300 8.35300 32.29500
H  37.89200 8.29300 25.93100
H  44.05000 10.40000 26.71800
H  41.34400 9.38900 34.56200
H  38.38900 9.65600 34.06200
H  39.30700 6.91600 33.61500
H  38.21500 7.55900 34.89900
H  40.04500 7.52500 35.09900
H  39.80000 11.92100 33.90000
H  41.17400 11.90400 34.77200
H  39.29000 10.40600 36.22700
H  38.66900 12.10600 35.88600
H  35.29900 8.50800 31.41800
H  35.50900 6.76200 31.14900
H  34.24500 7.69000 30.27600
H  34.25300 6.35300 28.47500
H  33.46800 6.61300 26.87300
H  33.67400 7.96200 28.03700
H  39.99500 9.42100 24.35300
H  42.55500 8.47300 25.32200
H  41.23800 6.96200 23.88400
H  39.47600 7.23000 23.83700
H  40.20000 6.72600 25.33100
H  42.11200 10.06300 23.30700
H  43.55000 10.33200 24.16900
H  41.27500 12.03400 25.23000
H  41.68800 12.37100 23.60500
H  42.95500 12.59800 24.75100
H  45.84800 11.31000 27.84800
H  46.46700 11.77900 29.46400
H  45.62700 12.97600 28.54100
H  42.80900 12.27500 33.45300
H  43.49300 10.40700 36.91400
H  45.14900 11.11100 36.79600
H  44.76400 9.49100 36.20100
Mg -11.81700 37.75000 42.11300
C  -9.88600 34.98700 41.00400
C  -9.27200 39.78800 40.98700
C  -13.97200 40.41700 42.46000
C  -14.42600 35.58100 42.93900
N  -9.75700 37.40500 41.01700
C  -9.27800 36.20600 40.62800
C  -7.97600 36.34000 39.78500
C  -7.77400 37.92300 39.84000
C  -8.98600 38.38300 40.64800
C  -6.41300 38.42400 40.18800
C  -8.05200 35.73500 38.37300
C  -6.95000 34.77500 37.84900
H  -5.78100 35.42500 37.07600
N  -11.67200 39.75000 41.73700
C  -10.51300 40.38200 41.29100
C  -10.84700 41.81500 41.12600
C  -12.25400 41.99100 41.38100
C  -12.71500 40.63700 41.88200
C  -9.76100 42.75700 40.60500
C  -13.03800 43.32100 41.15700
O  -12.39600 44.29400 40.76200
C  -14.53200 43.42600 41.30900
N  -13.97300 38.00500 42.40900
C  -14.52000 39.16500 42.73000
C  -15.91000 39.01100 43.27600
C  -16.10200 37.45400 43.37800
C  -14.73000 36.97500 42.90300
C  -16.12200 39.76100 44.55500
C  -17.21500 36.73000 42.50300
C  -18.23000 36.02300 43.35200
N  -12.15800 35.65200 42.00200
C  -13.30000 34.96000 42.39000
C  -12.99600 33.47200 42.20600
C  -11.67600 33.42300 41.62800
C  -11.22500 34.77600 41.53900
C  -13.88600 32.30500 42.66200
C  -10.54800 32.59000 41.10800
O  -10.50300 31.35800 41.06000
C  -9.40600 33.58200 40.66700
C  -8.05600 33.20800 41.23800
O  -7.36100 32.30600 40.86000
O  -7.62800 33.98300 42.29900
C  -6.36000 33.59600 43.07600
H  -8.53100 40.53400 40.69200
H  -14.71300 41.17700 42.71600
H  -15.26100 35.05000 43.40200
H  -7.08400 35.89100 40.22100
H  -7.97200 38.26300 38.82300
H  -5.62800 37.70800 39.94300
H  -6.40800 38.48300 41.27600
H  -6.17400 39.34000 39.64800
H  -7.96100 36.55700 37.66300
H  -9.06700 35.39900 38.16100
H  -7.52600 34.16600 37.15200
H  -6.45800 34.19400 38.62900
H  -9.18400 42.24900 39.83300
H  -9.14600 42.98800 41.47500
H  -10.14300 43.67900 40.16800
H  -15.08600 42.72400 40.68500
H  -14.81300 44.46100 41.11200
H  -14.93200 43.28100 42.31200
H  -16.64800 39.40100 42.57600
H  -16.26200 37.15100 44.41300
H  -15.14600 40.07700 44.92400
H  -16.45800 39.21800 45.43800
H  -16.68000 40.68600 44.40700
H  -16.81900 36.04400 41.75400
H  -17.73200 37.46900 41.89000
H  -19.07800 36.67200 43.56900
H  -17.85600 35.67200 44.31400
H  -18.62900 35.29600 42.64500
H  -14.36800 32.01100 41.72900
H  -14.75600 32.52800 43.28000
H  -13.29400 31.50100 43.09900
H  -9.40900 33.61100 39.57700
H  -6.06700 32.55700 42.92000
H  -6.50000 33.67200 44.15400
H  -5.53000 34.22700 42.75900

