158

Mg 35.47800 2.61000 30.09100
C  33.09700 3.73200 32.38000
C  37.80600 2.47000 32.64500
C  37.67800 1.69700 27.89600
C  33.09000 3.29600 27.53400
N  35.42900 3.12700 32.25300
C  34.34700 3.51200 32.95600
C  34.71100 3.57500 34.44900
C  36.20100 3.23400 34.53800
C  36.52300 2.99600 33.03600
C  37.06600 4.43800 35.01000
C  33.89300 2.63500 35.40400
C  33.55900 3.13400 36.81900
H  34.35400 4.18900 37.66000
N  37.45200 2.13900 30.25700
C  38.22100 2.01300 31.35900
C  39.48100 1.39800 31.10900
C  39.49700 1.25600 29.67700
C  38.14900 1.68900 29.20700
C  40.56000 1.11600 32.10200
C  40.56400 0.66700 28.81900
O  40.47900 0.47900 27.60900
C  41.90900 0.27900 29.46200
N  35.50700 2.80600 27.90600
C  36.44400 2.03800 27.32500
C  35.98700 1.78600 25.86400
C  34.57200 2.34200 25.69100
C  34.36700 2.80600 27.14700
C  36.98300 2.38200 24.74500
C  33.43700 1.37200 25.18200
C  33.30100 -0.09000 25.79700
N  33.48700 3.38300 29.87500
C  32.70100 3.55600 28.84500
C  31.37300 3.92200 29.32100
C  31.53000 3.94800 30.68500
C  32.84500 3.66700 30.97600
C  30.15200 3.94100 28.41200
C  30.75500 4.09900 31.91300
O  29.51000 4.32000 32.09300
C  31.78900 4.05600 33.04200
C  31.80700 5.40800 33.64700
O  32.50700 6.34600 33.27400
O  31.02400 5.34200 34.74000
C  31.18500 6.54000 35.63600
H  38.40300 2.44300 33.55900
H  38.26400 1.25900 27.08500
H  32.41000 3.50300 26.70600
H  34.50600 4.59200 34.78200
H  36.55600 2.39200 35.13200
H  36.63900 4.84900 35.92500
H  37.04200 5.08500 34.13300
H  38.06800 4.07200 35.23200
H  34.44800 1.69700 35.44000
H  32.93200 2.26800 35.04500
H  33.42500 2.28700 37.49200
H  32.59300 3.63800 36.79600
H  40.06600 1.25100 33.06400
H  41.43800 1.73500 31.92200
H  40.75400 0.06300 31.89700
H  42.31000 1.18900 29.90900
H  42.62200 0.00800 28.68300
H  41.83400 -0.58400 30.12300
H  36.00700 0.72200 25.62600
H  34.34500 3.19900 25.05700
H  36.37800 2.89500 23.99700
H  37.64200 1.64600 24.28600
H  37.57800 3.19500 25.16200
H  33.79200 1.16200 24.17300
H  32.49900 1.92100 25.26600
H  33.92100 -0.04600 26.69200
H  33.65700 -0.94900 25.23000
H  32.28000 -0.27200 26.13400
H  30.19700 3.20200 27.61200
H  29.90900 4.93200 28.03000
H  29.32700 3.59900 29.03700
H  31.34600 3.35100 33.74600
H  32.26000 6.63900 35.78700
H  30.70300 6.44000 36.60900
H  30.87600 7.47600 35.16900
Mg -13.20500 16.42000 42.13100
C  -10.16800 14.68100 41.84300
C  -11.61700 19.18300 40.96200
C  -16.31500 17.81100 41.70800
C  -14.79100 13.27600 42.86400
N  -11.17400 16.79900 41.43800
C  -10.10200 15.97100 41.42300
C  -8.83500 16.65400 40.98800
C  -9.23400 18.17100 40.95700
C  -10.78000 18.01900 41.16000
C  -8.51300 19.04400 42.03700
C  -8.31800 16.08800 39.60900
C  -6.85900 15.68800 39.54700
H  -6.40600 14.53400 38.70300
N  -13.86500 18.29400 41.46400
C  -13.05800 19.29600 41.04400
C  -13.87900 20.40500 40.61000
C  -15.21800 20.03300 40.88700
C  -15.20400 18.62100 41.30800
C  -13.28100 21.65600 40.02300
C  -16.45100 21.05100 40.59500
O  -16.23800 22.15900 40.04000
C  -17.83700 20.56100 40.96100
N  -15.28000 15.61500 42.21800
C  -16.33400 16.44300 42.09800
C  -17.69300 15.68300 42.24200
C  -17.22400 14.23300 42.65500
C  -15.69500 14.34700 42.59600
C  -18.80200 16.24000 43.20000
C  -17.75500 13.02400 41.73900
C  -18.74900 12.04600 42.40900
N  -12.65900 14.39900 42.39300
C  -13.36400 13.27700 42.73500
C  -12.53100 12.11400 42.75600
C  -11.27200 12.62200 42.45400
C  -11.38700 14.00900 42.28700
C  -12.85700 10.69500 43.16600
C  -9.89900 12.25600 42.31100
O  -9.33800 11.20900 42.38600
C  -9.05000 13.62900 41.94200
C  -7.96600 13.87600 42.90200
O  -8.05100 14.25800 44.07700
O  -6.77800 13.66300 42.21900
C  -5.54600 13.72200 42.93600
H  -10.94600 20.02300 40.76900
H  -17.32400 18.04400 41.36200
H  -15.36700 12.39100 43.14000
H  -8.03000 16.63800 41.72200
H  -9.11300 18.58100 39.95400
H  -7.89200 19.86900 41.68600
H  -7.78500 18.45300 42.59300
H  -9.21800 19.39600 42.79000
H  -8.52000 16.74600 38.76400
H  -8.94700 15.20500 39.49600
H  -6.39800 15.66300 40.53500
H  -6.33700 16.48100 39.01200
H  -13.63300 22.37700 40.76000
H  -13.62200 21.92600 39.02300
H  -12.19300 21.71800 40.02600
H  -18.11200 19.78500 40.24600
H  -18.53500 21.39500 40.88800
H  -17.78800 20.26700 42.01000
H  -18.07200 15.79400 41.22600
H  -17.52400 13.96700 43.66800
H  -18.46000 16.96900 43.93500
H  -19.25400 15.35200 43.64200
H  -19.56700 16.68500 42.56300
H  -16.86600 12.50700 41.37700
H  -18.13100 13.56400 40.87000
H  -19.27200 12.46600 43.26700
H  -18.09000 11.26200 42.78300
H  -19.38400 11.68700 41.59900
H  -13.12200 10.04500 42.33200
H  -13.71300 10.80200 43.83200
H  -11.95600 10.23800 43.57600
H  -8.59900 13.41800 40.97200
H  -5.48700 12.81100 43.53300
H  -5.53600 14.65000 43.50800
H  -4.67300 13.62900 42.29100

