158

Mg 44.56200 4.04500 47.29700
C  42.40700 6.75400 47.00800
C  41.74500 1.88100 47.21800
C  46.61800 1.42000 47.22300
C  47.23500 6.23900 47.26800
N  42.37700 4.33200 47.01000
C  41.75700 5.49900 46.86800
C  40.32200 5.26800 46.68700
C  39.93600 3.77200 47.02600
C  41.41300 3.21100 47.11000
C  39.03900 3.56100 48.24000
C  40.01600 5.60800 45.14400
C  39.06300 6.67600 44.80100
H  39.42100 7.64300 43.66800
N  44.20900 2.00200 47.28200
C  43.05700 1.30600 47.28200
C  43.29500 -0.11800 47.08900
C  44.69800 -0.27100 47.19100
C  45.22000 1.10700 47.17600
C  42.30500 -1.15900 46.79900
C  45.44000 -1.60500 47.11100
O  44.88100 -2.67500 47.24900
C  46.88300 -1.73600 46.81200
N  46.67300 3.86400 47.25800
C  47.30000 2.65700 47.18800
C  48.86100 2.84500 47.20100
C  49.02200 4.37900 47.11500
C  47.59400 4.89700 47.25700
C  49.50800 2.34800 48.48100
C  49.62500 4.92000 45.76800
C  51.10300 5.43000 45.89600
N  44.83100 6.17400 47.12300
C  45.98600 6.90100 47.15100
C  45.56000 8.30200 47.14100
C  44.17100 8.34300 47.14200
C  43.77500 6.97700 47.12000
C  46.48000 9.55500 47.28000
C  42.97300 9.17700 47.16000
O  42.84200 10.36300 47.20900
C  41.80700 8.16000 47.05200
C  40.91100 8.25400 48.27100
O  41.07200 7.62000 49.33000
O  40.01500 9.25200 48.04900
C  39.01200 9.52500 49.05300
H  40.82900 1.28900 47.18200
H  47.32300 0.58700 47.18400
H  48.04600 6.95500 47.42000
H  39.70800 5.95800 47.26600
H  39.58400 3.14200 46.20900
H  38.57500 2.57500 48.23200
H  38.35600 4.40100 48.37300
H  39.76000 3.63300 49.05400
H  39.66500 4.73000 44.60200
H  40.95600 5.85500 44.65100
H  38.99100 7.42400 45.59000
H  38.12300 6.16500 44.59200
H  42.31100 -1.68900 45.84600
H  41.28300 -0.88200 47.05800
H  42.53400 -2.01800 47.42900
H  46.98200 -1.00100 46.01300
H  47.24700 -2.65800 46.35800
H  47.53200 -1.47500 47.64800
H  49.17600 2.19800 46.38100
H  49.47900 4.86100 47.97900
H  50.16700 1.52000 48.22200
H  48.75200 1.94700 49.15600
H  50.14900 3.10600 48.93200
H  48.92700 5.69300 45.44500
H  49.67000 4.13100 45.01700
H  51.61900 5.41700 44.93600
H  51.64800 4.75900 46.56000
H  51.09600 6.46400 46.24100
H  46.78800 9.75700 48.30600
H  46.08000 10.47400 46.85100
H  47.34200 9.27800 46.67300
H  41.30400 8.41900 46.12000
H  38.76100 10.58600 49.03700
H  39.34400 9.30700 50.06700
H  38.06000 9.01800 48.89400
Mg 47.61600 17.15100 28.50200
C  45.57000 17.03500 31.23600
C  49.80000 19.08900 30.25200
C  49.37800 17.83000 25.59000
C  44.95800 15.68300 26.55000
N  47.54000 18.07100 30.38000
C  46.73700 17.77900 31.41500
C  47.22300 18.42600 32.76100
C  48.37600 19.33800 32.27100
C  48.55700 18.88200 30.83000
C  48.08900 20.88600 32.57500
C  47.77900 17.24500 33.65900
C  47.47200 17.45900 35.20100
H  46.93600 18.75700 35.72400
N  49.42300 18.20500 27.97600
C  50.22200 18.80700 28.93400
C  51.43400 19.28700 28.35400
C  51.28800 18.92800 26.92100
C  50.00600 18.31300 26.80000
C  52.58600 20.00600 29.08000
C  52.22700 19.26200 25.85800
O  52.00500 19.03600 24.67000
C  53.58700 19.85800 26.16800
N  47.09000 16.98600 26.38000
C  48.03000 17.30100 25.39800
C  47.54700 16.87000 23.98600
C  46.29400 15.96200 24.39200
C  46.10900 16.20900 25.85600
C  47.22200 18.09800 23.03200
C  46.47600 14.37700 23.99400
C  45.43800 13.84600 22.92700
N  45.66800 16.46300 28.74700
C  44.69800 15.83400 27.94400
C  43.57700 15.45800 28.73300
C  43.85600 15.81800 30.00600
C  45.06300 16.54600 30.01800
C  42.37500 14.69700 28.34100
C  43.31000 15.91100 31.29000
O  42.14300 15.67400 31.64200
C  44.42100 16.64100 32.16700
C  43.84100 17.66900 33.04700
O  43.45200 18.81300 32.74700
O  43.52100 16.95300 34.21200
C  42.55300 17.53400 35.15000
H  50.44000 19.76900 30.81700
H  49.90200 17.93300 24.63700
H  44.12500 15.16200 26.07300
H  46.45400 19.02600 33.24700
H  49.26900 19.16900 32.87300
H  48.96000 21.22600 33.13500
H  47.18500 21.01700 33.16900
H  48.07200 21.60500 31.75600
H  48.85100 17.10500 33.52400
H  47.20300 16.35100 33.41800
H  48.42100 17.27100 35.70300
H  46.74500 16.69200 35.47100
H  52.38100 20.25500 30.12100
H  53.04700 20.87800 28.61600
H  53.36100 19.23900 29.04600
H  54.13000 19.20200 26.84800
H  53.39100 20.90100 26.42000
H  54.14100 19.86100 25.23000
H  48.33500 16.26600 23.53600
H  45.41800 16.23700 23.80500
H  46.18700 18.16200 22.69500
H  47.90600 18.08900 22.18400
H  47.39400 19.07600 23.48200
H  46.39100 13.71900 24.85900
H  47.44900 14.34600 23.50300
H  44.50000 13.50300 23.36300
H  45.74400 13.10400 22.18900
H  45.28000 14.75800 22.35200
H  42.76300 13.69900 28.13600
H  41.76100 15.12600 27.55000
H  41.85000 14.54300 29.28400
H  44.92900 15.86400 32.73700
H  43.16800 18.13300 35.82200
H  42.04500 16.78700 35.75900
H  41.79800 18.10700 34.61200

