158

Mg -1.36400 17.90000 27.03300
C  -1.76400 15.49900 29.80000
C  -1.94000 20.45000 29.30500
C  -1.31900 20.03000 24.47500
C  -0.86000 15.17200 24.90600
N  -1.84700 17.89400 29.24200
C  -1.91500 16.85000 30.18500
C  -2.20400 17.49600 31.57800
C  -2.57800 18.95200 31.27200
C  -1.99300 19.14000 29.88100
C  -4.04600 19.43000 31.50600
C  -1.09600 17.32100 32.63100
C  -1.71200 17.01800 33.98500
H  -0.75400 17.00000 35.18100
N  -1.45500 19.89700 26.93700
C  -1.65000 20.82200 27.93200
C  -1.45900 22.17500 27.43500
C  -1.27600 22.09300 26.03900
C  -1.27600 20.64100 25.75600
C  -1.77600 23.42000 28.28200
C  -1.00400 23.20000 25.00800
O  -0.74400 22.94200 23.83500
C  -1.03400 24.55700 25.43400
N  -1.27500 17.57200 25.07600
C  -1.30300 18.63100 24.20800
C  -0.99600 18.21000 22.72800
C  -0.74600 16.67000 22.86600
C  -0.99700 16.44400 24.36300
C  -2.21700 18.66100 21.86200
C  0.66500 16.31200 22.45000
C  1.82000 16.76700 23.40200
N  -1.22800 15.74800 27.31600
C  -0.97200 14.78700 26.31600
C  -1.02100 13.48000 26.93900
C  -1.35400 13.73800 28.28900
C  -1.47800 15.09100 28.47700
C  -0.77300 12.09000 26.33400
C  -1.49200 13.02300 29.56500
O  -1.32900 11.84400 29.88900
C  -1.83200 14.16800 30.67000
C  -0.77400 14.04000 31.67600
O  0.39300 14.32700 31.46900
O  -1.29000 13.57700 32.81200
C  -0.42800 13.28100 33.97600
H  -2.09100 21.28000 29.99800
H  -1.17400 20.57200 23.53800
H  -0.72100 14.39200 24.15500
H  -3.06200 16.91100 31.90800
H  -2.11100 19.62500 31.99100
H  -4.56700 18.74900 32.17900
H  -4.57600 19.46400 30.55400
H  -3.99000 20.33100 32.11600
H  -0.61400 18.28900 32.77000
H  -0.49700 16.50000 32.23900
H  -2.27200 16.08400 33.96900
H  -2.36800 17.86800 34.17500
H  -0.83500 23.81600 28.66300
H  -2.41800 23.11400 29.10700
H  -2.25200 24.10000 27.57500
H  -2.05400 24.78900 25.74000
H  -0.68800 25.12400 24.57000
H  -0.29300 24.50400 26.23200
H  -0.09300 18.78400 22.51800
H  -1.38900 15.96800 22.33400
H  -2.93000 19.24700 22.44100
H  -2.58300 17.78200 21.33000
H  -1.89700 19.30200 21.04000
H  0.90500 16.69700 21.45900
H  0.79100 15.23100 22.38200
H  2.52600 17.27100 22.74300
H  2.33000 15.91500 23.85200
H  1.45900 17.45500 24.16600
H  -0.06300 12.21400 25.51700
H  -1.66800 11.57000 25.99300
H  -0.26800 11.42300 27.03300
H  -2.84500 14.05200 31.05600
H  -0.62700 12.21700 34.10300
H  -0.82000 13.68400 34.91000
H  0.64800 13.45200 33.98600
Mg 17.60900 -1.32700 27.88900
C  16.53800 0.33600 30.74500
C  19.60700 -3.33700 29.82300
C  18.78500 -2.69800 25.11200
C  15.90500 0.98000 25.92700
N  18.10700 -1.34500 30.02900
C  17.44700 -0.67000 31.06000
C  17.88200 -1.15600 32.37700
C  19.08700 -2.01700 32.00900
C  18.90200 -2.37300 30.56500
C  20.50400 -1.33400 32.33300
C  16.79100 -1.88700 33.22400
C  16.66400 -1.34500 34.64000
H  17.98100 -1.24100 35.48200
N  18.87600 -2.86600 27.54400
C  19.56100 -3.63400 28.45600
C  20.18000 -4.78600 27.82400
C  19.94900 -4.67300 26.43000
C  19.15500 -3.37500 26.29400
C  20.99500 -5.80000 28.54500
C  20.30400 -5.53100 25.28600
O  20.08100 -5.30700 24.12700
C  20.93400 -6.94200 25.55700
N  17.36300 -0.89400 25.73900
C  18.01000 -1.54300 24.81000
C  17.81900 -1.03600 23.35200
C  16.87200 0.24700 23.64300
C  16.74000 0.15700 25.20200
C  19.13100 -0.63900 22.64900
C  15.51400 0.18200 22.89700
C  15.60600 0.54600 21.42400
N  16.42000 0.39600 28.21200
C  15.82400 1.26100 27.36100
C  15.15000 2.29700 28.13600
C  15.35700 1.98700 29.45700
C  16.18200 0.87200 29.45400
C  14.37700 3.49100 27.63900
C  15.05100 2.24100 30.76800
O  14.38700 3.15600 31.26500
C  15.83000 1.28000 31.68300
C  16.68600 2.10900 32.61400
O  17.81600 2.50400 32.35100
O  15.95800 2.50600 33.71000
C  16.35800 3.82100 34.20100
H  20.34100 -3.84800 30.45000
H  19.10600 -3.26100 24.23300
H  15.29100 1.67200 25.34800
H  18.21600 -0.35900 33.04200
H  19.12400 -3.00500 32.46900
H  21.15000 -1.06400 31.49800
H  21.12500 -2.06800 32.84700
H  20.48000 -0.40700 32.90600
H  16.97400 -2.95800 33.31600
H  15.81200 -1.87600 32.74600
H  15.97200 -1.97800 35.19600
H  16.24300 -0.34000 34.59400
H  20.72600 -6.80800 28.23000
H  20.80600 -5.74200 29.61700
H  22.08300 -5.75000 28.48500
H  21.74300 -6.61400 26.20900
H  21.25400 -7.33700 24.59300
H  20.22400 -7.62100 26.03100
H  17.16700 -1.67500 22.75600
H  17.19900 1.26500 23.43100
H  19.88700 -0.22200 23.31500
H  18.91700 0.02800 21.81400
H  19.47100 -1.53800 22.13400
H  14.85500 0.94300 23.31500
H  15.10600 -0.82300 23.00800
H  15.28200 -0.28900 20.80200
H  16.58800 0.87700 21.08700
H  14.92500 1.35300 21.15600
H  13.96000 3.96700 28.52600
H  13.52500 3.09900 27.08300
H  15.06100 4.06200 27.01100
H  15.03300 0.76200 32.21500
H  15.56700 4.25700 34.81200
H  16.46300 4.60200 33.44800
H  17.15500 3.70100 34.93400

