158

Mg 47.58800 25.23200 29.67600
C  48.18400 27.68800 32.07000
C  46.14900 23.22200 31.97300
C  46.95800 23.03900 27.20800
C  49.32100 27.24600 27.36000
N  47.24600 25.48200 31.80500
C  47.49900 26.55600 32.57300
C  47.01500 26.31700 34.03500
C  46.65800 24.79300 33.96600
C  46.67100 24.45900 32.49000
C  47.51700 23.87400 34.86200
C  45.80700 27.26700 34.34600
C  45.03700 27.05800 35.63100
H  45.74000 26.96900 37.02100
N  46.70100 23.44500 29.62600
C  46.23400 22.70500 30.64900
C  45.67800 21.43100 30.20500
C  45.91800 21.36800 28.78800
C  46.52400 22.66200 28.47100
C  45.08700 20.46800 31.10500
C  45.56800 20.26700 27.86500
O  45.85200 20.23100 26.67700
C  44.74800 19.16900 28.29100
N  48.13600 25.08000 27.54900
C  47.58900 24.16900 26.75100
C  47.99500 24.40000 25.28000
C  48.62300 25.85600 25.36600
C  48.66600 26.14900 26.86700
C  49.06300 23.35100 24.82000
C  47.77100 26.88500 24.49400
C  48.57400 27.71800 23.54000
N  48.45200 27.11600 29.62400
C  49.21400 27.76500 28.63300
C  49.66500 29.04200 29.10200
C  49.30600 29.04000 30.52000
C  48.61200 27.84500 30.72000
C  50.46900 30.08600 28.30100
C  49.29000 29.79600 31.75300
O  49.70500 30.94000 31.93800
C  48.54900 28.99400 32.83600
C  49.38400 28.71400 34.05200
O  50.46000 28.21000 34.02500
O  48.84000 29.43300 35.03500
C  49.67000 29.68000 36.26600
H  45.80900 22.66800 32.85100
H  46.72200 22.30500 26.43500
H  49.80600 27.90800 26.64000
H  47.86600 26.43800 34.70500
H  45.65200 24.66300 34.36400
H  47.91400 24.42200 35.71700
H  48.20500 23.29000 34.25100
H  46.84900 23.12200 35.28200
H  45.13900 27.11000 33.49900
H  46.07700 28.31400 34.21300
H  44.50800 26.12300 35.44600
H  44.21600 27.75700 35.79200
H  44.02400 20.25300 31.00400
H  45.20800 20.71000 32.16000
H  45.60500 19.51200 31.03000
H  45.27500 18.41000 28.87000
H  44.30500 18.66100 27.43400
H  43.95800 19.62300 28.88900
H  47.11200 24.51000 24.64900
H  49.66200 25.83600 25.03700
H  50.00700 23.65700 25.27200
H  49.17000 23.27900 23.73800
H  48.86200 22.32100 25.11400
H  47.28800 27.49000 25.26200
H  46.98100 26.31500 24.00600
H  48.06000 27.79600 22.58200
H  49.61200 27.39300 23.47500
H  48.71500 28.68600 24.02200
H  51.30100 29.67300 27.73100
H  50.80700 30.82100 29.03200
H  49.76300 30.50300 27.58300
H  47.71700 29.61000 33.17700
H  50.73600 29.46500 36.19800
H  49.26100 29.22500 37.16900
H  49.59500 30.76400 36.34900
Mg -1.73400 34.42700 27.72100
C  -3.29700 32.39300 30.07400
C  -0.26400 36.16100 30.40700
C  -0.53700 36.56900 25.50400
C  -3.66500 32.82500 25.20600
N  -1.89800 34.40000 30.01900
C  -2.55100 33.39100 30.73500
C  -2.36600 33.62800 32.26100
C  -1.55000 34.92500 32.29400
C  -1.10200 35.11800 30.84500
C  -2.39500 36.24600 32.74600
C  -1.65200 32.38800 32.88800
C  -2.36200 31.75700 34.08900
H  -1.71900 31.64500 35.47100
N  -0.46000 36.04500 27.92200
C  0.15500 36.51900 29.07500
C  1.04000 37.61400 28.69700
C  0.91300 37.77400 27.29700
C  -0.06600 36.75600 26.81800
C  1.91400 38.41000 29.72900
C  1.64500 38.82300 26.41600
O  1.46400 38.99900 25.24500
C  2.72400 39.67900 27.14700
N  -2.13400 34.66600 25.67200
C  -1.49200 35.65200 25.01300
C  -2.18900 35.83900 23.59300
C  -2.87200 34.39100 23.35800
C  -2.90700 33.91800 24.83000
C  -3.32400 36.96800 23.58300
C  -2.02500 33.44200 22.52700
C  -2.66000 33.09000 21.18200
N  -3.16900 32.87600 27.63900
C  -3.78600 32.33300 26.50200
C  -4.58300 31.18900 26.93000
C  -4.43000 31.20900 28.34700
C  -3.55000 32.27100 28.71400
C  -5.27600 30.26200 26.07800
C  -4.85100 30.47000 29.55500
O  -5.58500 29.50900 29.67000
C  -4.16900 31.26500 30.74200
C  -5.07600 31.65600 31.83500
O  -5.75800 32.68000 31.91400
O  -5.09400 30.56600 32.72200
C  -5.88900 30.77300 33.83100
H  0.12900 36.83600 31.17000
H  -0.12300 37.34000 24.85000
H  -4.36000 32.35300 24.51000
H  -3.39400 33.76500 32.59400
H  -0.65100 34.83600 32.90400
H  -3.43000 36.14400 33.07200
H  -2.45600 36.99200 31.95400
H  -1.94000 36.78400 33.57800
H  -0.67800 32.72000 33.24800
H  -1.33700 31.63100 32.16900
H  -2.49000 30.69700 33.86700
H  -3.32400 32.25100 34.22200
H  2.98300 38.24100 29.59900
H  1.58300 38.12800 30.72900
H  1.71000 39.47300 29.85700
H  3.20800 40.40100 26.49000
H  3.60000 39.05500 27.32800
H  2.45900 40.28400 28.01400
H  -1.51600 36.17500 22.80500
H  -3.81100 34.66500 22.87700
H  -4.35800 36.63100 23.51400
H  -3.14800 37.64800 22.75000
H  -3.27400 37.63300 24.44500
H  -1.89900 32.52000 23.09500
H  -1.07700 33.87100 22.20300
H  -1.91100 33.14300 20.39200
H  -3.53200 33.67700 20.89700
H  -2.92800 32.03300 21.19300
H  -6.31100 30.60100 26.02400
H  -5.50200 29.28300 26.49900
H  -4.92800 30.19500 25.04700
H  -3.50600 30.59500 31.29000
H  -6.91500 31.04200 33.57700
H  -5.49600 31.58100 34.44800
H  -5.82700 29.84900 34.40500

