158

Mg 24.62900 1.80400 30.07700
C  26.94700 1.38500 32.72500
C  22.08200 1.94300 32.45000
C  22.52800 1.92500 27.51900
C  27.38400 1.16700 27.89400
N  24.58900 1.53200 32.34800
C  25.70300 1.53600 33.24300
C  25.24100 1.87500 34.67000
C  23.64600 1.85800 34.58500
C  23.41700 1.89000 33.02900
C  23.01300 0.58800 35.20200
C  25.88100 3.23100 35.15100
C  26.66100 3.24900 36.44800
H  26.14200 4.09600 37.60500
N  22.60400 1.81500 30.00200
C  21.73500 1.88000 31.06300
C  20.37600 1.97900 30.57100
C  20.46900 1.98100 29.13900
C  21.93600 1.95000 28.78100
C  19.08100 2.18600 31.44100
C  19.36600 1.98600 28.09500
O  19.54600 2.08100 26.84400
C  17.95200 1.75500 28.58000
N  24.89600 1.67800 28.03600
C  23.89700 1.76200 27.14700
C  24.30000 1.81400 25.76600
C  25.80800 1.68400 25.93900
C  26.03200 1.36100 27.38400
C  23.65500 0.84200 24.68700
C  26.69200 2.90800 25.41000
C  26.98500 4.02100 26.36600
N  26.71900 1.32400 30.19600
C  27.70900 1.18400 29.23400
C  28.93500 0.92700 29.83700
C  28.70300 1.06000 31.23200
C  27.31500 1.23700 31.39000
C  30.24700 0.56600 29.12200
C  29.40100 1.13800 32.48900
O  30.56400 1.14600 32.75200
C  28.21600 1.28400 33.54700
C  28.25700 0.10900 34.52600
O  27.84300 -1.04200 34.31100
O  28.58800 0.53700 35.76600
C  28.39500 -0.44500 36.87100
H  21.36400 2.14700 33.24700
H  21.88700 2.00100 26.63700
H  28.22300 1.12100 27.19700
H  25.51300 1.07500 35.35900
H  23.26600 2.71200 35.14600
H  22.10300 0.26300 34.69800
H  22.62700 0.75700 36.20700
H  23.74200 -0.21400 35.32000
H  25.17300 4.04700 35.00500
H  26.62200 3.51400 34.40300
H  27.64200 3.64600 36.18800
H  26.91900 2.24400 36.78200
H  18.41000 2.97700 31.10700
H  19.38800 2.62200 32.39100
H  18.47300 1.29400 31.59000
H  17.33500 1.41600 27.74800
H  17.51000 2.68100 28.94800
H  17.95900 0.96000 29.32600
H  24.06400 2.83200 25.45600
H  26.04000 0.73600 25.45300
H  23.17500 -0.10100 24.94900
H  24.42300 0.59600 23.95300
H  22.79900 1.38000 24.28000
H  26.15700 3.34200 24.56500
H  27.66800 2.59300 25.04100
H  26.47300 3.91600 27.32300
H  26.82500 4.94200 25.80600
H  28.02800 4.03800 26.68300
H  31.04700 1.02000 29.70800
H  30.29600 1.04000 28.14200
H  30.34900 -0.51200 28.99200
H  28.45300 2.23500 34.02400
H  27.33000 -0.67400 36.87800
H  28.65200 0.10300 37.77700
H  29.00200 -1.34100 36.73900
Mg -11.87000 38.43100 41.01500
C  -9.63900 35.76600 40.62500
C  -9.51200 40.45800 39.52500
C  -14.23700 40.78100 40.64800
C  -14.21100 36.03500 42.03500
N  -9.77000 38.13000 40.21700
C  -9.18900 36.96200 39.99500
C  -7.88800 37.15700 39.24900
C  -7.65700 38.76300 39.24300
C  -9.02800 39.18700 39.72700
C  -6.37900 39.28100 40.00300
C  -7.99500 36.58500 37.84700
C  -7.01900 35.37900 37.57000
H  -5.80500 35.80300 36.75000
N  -11.77600 40.40500 40.34300
C  -10.73400 41.05500 39.84000
C  -11.12200 42.46500 39.63500
C  -12.47300 42.57600 40.01100
C  -12.88800 41.23300 40.35500
C  -10.32400 43.54800 39.13700
C  -13.22600 43.89600 39.98200
O  -12.63500 44.94200 39.65400
C  -14.69100 44.03100 40.27900
N  -13.92200 38.41600 41.39000
C  -14.70000 39.54800 41.13600
C  -16.16300 39.26400 41.42900
C  -16.17100 37.70300 41.81900
C  -14.72700 37.29100 41.69300
C  -16.83200 40.20600 42.46300
C  -17.04600 36.82000 40.94200
C  -18.05200 35.92900 41.72500
N  -11.91000 36.38100 41.42700
C  -12.88000 35.54000 41.89400
C  -12.34600 34.19400 42.20500
C  -11.09800 34.26100 41.67500
C  -10.85400 35.59100 41.24600
C  -13.10600 33.08800 42.81100
C  -9.90600 33.49700 41.43600
O  -9.78600 32.34500 41.79200
C  -8.95600 34.39400 40.60500
C  -7.56200 34.18700 41.22800
O  -6.91300 33.16500 41.18300
O  -7.17300 35.29900 42.07500
C  -5.89600 35.29900 42.82400
H  -8.78300 41.12200 39.05500
H  -15.05400 41.46600 40.41100
H  -14.97200 35.28300 42.25200
H  -7.02500 36.71600 39.74700
H  -7.41900 39.11100 38.23800
H  -6.73000 40.12200 40.60200
H  -5.63700 39.71100 39.33000
H  -5.94400 38.46400 40.57900
H  -7.69500 37.37800 37.16200
H  -9.05400 36.33800 37.77200
H  -7.50900 34.65800 36.91600
H  -6.61200 34.95200 38.48700
H  -10.71600 44.03900 38.24600
H  -9.32900 43.18200 38.88600
H  -9.99500 44.27200 39.88300
H  -14.97600 45.07500 40.41100
H  -14.80200 43.49800 41.22300
H  -15.29200 43.67400 39.44300
H  -16.63000 39.33200 40.44600
H  -16.44800 37.63500 42.87100
H  -17.44100 40.99900 42.03000
H  -16.07700 40.56100 43.16500
H  -17.54500 39.60500 43.02800
H  -16.46700 36.17100 40.28600
H  -17.62700 37.51200 40.33200
H  -17.76800 35.95500 42.77700
H  -18.05600 34.85100 41.56900
H  -19.00100 36.46600 41.73600
H  -13.72500 32.61100 42.05100
H  -13.85900 33.55000 43.44900
H  -12.46000 32.33200 43.25600
H  -8.89300 33.96300 39.60500
H  -5.14700 36.01200 42.47800
H  -5.40000 34.32900 42.82700
H  -6.15500 35.52200 43.85900

