158

Mg 16.86100 52.55300 26.52800
C  18.80200 50.95000 28.92600
C  14.45100 53.13400 28.77000
C  15.18700 54.35600 24.07000
C  19.14000 51.39700 24.04000
N  16.67900 52.05700 28.55500
C  17.63600 51.49800 29.46900
C  17.21300 51.61300 30.94400
C  15.74100 52.13400 30.74500
C  15.59900 52.44100 29.25900
C  14.71900 51.21500 31.34400
C  18.27500 52.47300 31.69900
C  18.66000 51.86900 33.12100
H  17.94200 52.29300 34.43200
N  15.07000 53.63600 26.44800
C  14.20000 53.76500 27.48600
C  13.07400 54.56900 27.07700
C  13.26400 54.93400 25.70900
C  14.56400 54.28900 25.35000
C  11.96500 54.93200 28.04800
C  12.34100 55.75000 24.82000
O  12.59600 55.89900 23.58800
C  11.18800 56.57700 25.33100
N  17.02800 52.71600 24.36600
C  16.28900 53.58300 23.62600
C  16.61200 53.46600 22.16100
C  18.01600 52.71200 22.18600
C  18.05200 52.16500 23.61800
C  15.38600 52.81600 21.42600
C  19.20700 53.49500 21.66700
C  20.01700 52.86500 20.54200
N  18.58100 51.36600 26.36600
C  19.38700 50.97900 25.33900
C  20.46000 50.15400 25.79800
C  20.31000 50.21400 27.14300
C  19.12700 50.91300 27.47800
C  21.66100 49.59000 24.98200
C  20.97500 49.74500 28.41900
O  21.99400 49.08600 28.62500
C  20.05300 50.29300 29.59800
C  19.75600 49.09500 30.46400
O  19.10100 48.11500 30.14500
O  20.59200 49.19400 31.59600
C  20.56600 48.10500 32.55600
H  13.64900 53.34000 29.48200
H  14.81400 55.00700 23.27700
H  19.90800 51.17800 23.29600
H  17.22800 50.60400 31.35500
H  15.60300 53.10100 31.22900
H  15.15400 50.25000 31.60400
H  13.99400 51.03100 30.55100
H  14.16000 51.56900 32.21000
H  18.04800 53.50600 31.96500
H  19.24000 52.39300 31.19700
H  19.67700 52.20200 33.32300
H  18.64500 50.77900 33.12900
H  10.99800 54.70800 27.59700
H  11.87600 56.00000 28.24400
H  11.91500 54.35500 28.97100
H  11.52800 57.38200 25.98300
H  10.42900 55.91900 25.75300
H  10.68800 56.97900 24.44900
H  16.68400 54.48100 21.77100
H  17.89200 51.93700 21.42900
H  15.71400 52.13300 20.64300
H  14.71500 53.53800 20.96100
H  14.90200 52.10500 22.09600
H  19.82600 53.55500 22.56200
H  19.01300 54.51300 21.33000
H  20.27300 53.57400 19.75400
H  19.37400 52.18400 19.98500
H  20.86900 52.28400 20.89600
H  21.29200 48.76800 24.36900
H  22.45900 49.30200 25.66600
H  22.04000 50.34300 24.29100
H  20.69400 50.91500 30.22300
H  19.66700 48.02700 33.16600
H  21.44800 48.32000 33.16000
H  20.76700 47.19700 31.98700
Mg -11.87500 38.95200 41.82200
C  -9.92100 35.98000 41.28600
C  -9.58900 40.59900 39.68300
C  -13.92900 41.43600 41.63800
C  -14.40200 36.88900 43.22200
N  -10.03800 38.27900 40.59900
C  -9.43900 37.08100 40.55300
C  -8.18300 37.02500 39.66100
C  -8.03600 38.54400 39.18800
C  -9.27700 39.19100 39.86700
C  -6.71900 39.44800 39.34800
C  -8.40300 35.99100 38.49600
C  -7.42900 34.75600 38.42400
H  -6.29200 34.83600 37.32900
N  -11.61800 40.93200 41.05200
C  -10.62900 41.42900 40.23500
C  -10.84000 42.88600 40.21000
C  -12.07900 43.14800 40.85000
C  -12.59400 41.79400 41.17700
C  -9.86800 43.88500 39.55600
C  -12.74200 44.49400 41.05000
O  -12.18000 45.48900 40.55100
C  -14.01100 44.73900 41.67800
N  -13.93100 39.10900 42.18800
C  -14.58000 40.31000 42.07400
C  -15.97800 40.33100 42.68700
C  -16.09500 38.92200 43.26900
C  -14.72000 38.21000 42.84100
C  -16.46600 41.54400 43.59200
C  -17.41300 38.09900 42.88200
C  -18.21400 37.35100 43.98100
N  -12.12900 36.88200 42.27500
C  -13.15500 36.24300 42.91900
C  -12.73300 34.90500 43.21800
C  -11.44700 34.78900 42.61200
C  -11.14300 35.98500 42.02400
C  -13.49500 33.94600 44.13600
C  -10.40200 33.84900 42.35500
O  -10.21700 32.67200 42.65300
C  -9.28600 34.59700 41.43800
C  -7.94900 34.60100 42.09800
O  -7.04500 33.77700 42.04100
O  -7.77400 35.75200 42.85100
C  -6.48600 36.05500 43.47200
H  -8.85600 41.07500 39.02900
H  -14.59400 42.30200 41.65400
H  -15.09300 36.32100 43.84900
H  -7.36000 36.81100 40.34200
H  -8.33400 38.70100 38.15200
H  -5.83300 38.82300 39.23900
H  -6.70100 39.90200 40.33800
H  -6.64000 40.24400 38.60800
H  -8.32500 36.45000 37.51000
H  -9.37100 35.51200 38.64500
H  -8.01400 33.86400 38.19900
H  -7.06000 34.51800 39.42100
H  -9.36300 44.52700 40.27700
H  -10.51800 44.48800 38.92300
H  -9.18400 43.37000 38.88100
H  -14.71400 44.44500 40.89900
H  -14.27700 45.78900 41.79900
H  -13.97400 44.18600 42.61700
H  -16.63600 40.39600 41.82000
H  -16.13400 39.04400 44.35100
H  -17.20700 41.10400 44.26000
H  -16.88800 42.36600 43.01400
H  -15.60700 41.84400 44.19200
H  -17.33000 37.34300 42.10200
H  -18.07400 38.85700 42.46000
H  -19.10000 37.98100 44.07000
H  -17.72800 37.42900 44.95400
H  -18.31500 36.30200 43.70300
H  -13.31300 32.93300 43.77700
H  -14.56900 34.08700 44.01300
H  -13.25700 34.06900 45.19300
H  -9.25900 34.16400 40.43800
H  -6.42900 36.95600 44.08300
H  -5.85400 36.01100 42.58500
H  -6.35300 35.12500 44.02500

