158

Mg 0.03600 7.14700 25.74000
C  0.86100 9.14800 28.56900
C  0.24400 4.44100 27.95900
C  -0.38000 5.08600 23.10600
C  0.46200 9.84200 23.72200
N  0.39000 6.92700 28.13000
C  0.66400 7.88000 29.00000
C  0.68500 7.36600 30.45600
C  0.92000 5.81900 30.18100
C  0.49000 5.66900 28.67600
C  2.41500 5.32500 30.43600
C  -0.56800 7.73700 31.31000
C  -0.31500 7.67400 32.89900
H  0.72700 6.69500 33.39500
N  -0.16100 5.14300 25.58100
C  -0.07200 4.18800 26.60500
C  -0.34900 2.85600 26.03700
C  -0.43300 2.98100 24.60300
C  -0.31700 4.44700 24.38200
C  -0.51200 1.76000 27.01600
C  -0.52500 1.86800 23.50000
O  -0.39800 2.20100 22.28000
C  -0.57300 0.36800 23.92200
N  0.03200 7.46500 23.66000
C  -0.14100 6.43000 22.76700
C  -0.24900 6.98300 21.35500
C  0.13100 8.47500 21.52800
C  0.20400 8.61100 23.05000
C  0.51800 6.21600 20.24200
C  -0.80400 9.45800 20.87700
C  -0.15200 10.56000 19.94600
N  0.55900 9.10300 26.05500
C  0.55000 10.05100 25.13400
C  0.72900 11.33600 25.80200
C  0.91900 11.04100 27.10900
C  0.76400 9.67100 27.26400
C  0.70500 12.65500 25.08400
C  1.24100 11.63700 28.40400
O  1.70800 12.77100 28.61200
C  1.07700 10.43100 29.40000
C  2.28700 10.40900 30.24900
O  3.43900 10.19200 29.85700
O  2.02200 10.72700 31.57800
C  3.17400 10.81400 32.44000
H  0.45600 3.59100 28.61200
H  -0.43700 4.48100 22.19800
H  0.58400 10.77400 23.16500
H  1.60100 7.81900 30.83600
H  0.29100 5.19000 30.81000
H  2.89700 6.06500 31.07400
H  2.83600 5.34500 29.43000
H  2.47500 4.33100 30.88000
H  -1.47500 7.19300 31.04800
H  -0.63900 8.81500 31.16700
H  -1.25700 7.34800 33.33900
H  -0.23300 8.69100 33.28400
H  -0.73300 2.05700 28.04100
H  0.41900 1.20600 26.90200
H  -1.32100 1.15700 26.60300
H  0.13000 0.22700 24.74400
H  -0.22500 -0.31400 23.14600
H  -1.58300 0.05500 24.18500
H  -1.29900 6.91000 21.07300
H  1.13100 8.59100 21.11000
H  0.03300 6.20600 19.26600
H  0.56600 5.17700 20.56800
H  1.58000 6.43000 20.12500
H  -1.45700 9.92300 21.61400
H  -1.44400 8.82700 20.26000
H  -0.53100 10.41900 18.93400
H  0.93300 10.45600 19.96000
H  -0.37200 11.59100 20.22100
H  1.70200 12.95200 24.76000
H  0.53800 13.45500 25.80600
H  -0.13300 12.72900 24.39000
H  0.17300 10.57000 29.99400
H  4.04900 11.26900 31.97600
H  3.25500 9.82900 32.90000
H  3.03400 11.62600 33.15300
Mg 48.43300 46.15800 42.67400
C  45.36400 44.87200 41.85000
C  49.80800 43.00400 41.72900
C  51.60200 47.28300 43.00300
C  47.14100 49.25400 43.04700
N  47.68600 44.21000 41.57500
C  46.32400 43.94700 41.51700
C  46.02400 42.53600 40.96700
C  47.46200 41.90700 41.38200
C  48.47300 43.09100 41.45100
C  47.47600 41.04800 42.70600
C  45.46700 42.48200 39.55200
C  44.42400 41.31100 39.22400
H  44.56000 40.64600 37.86500
N  50.43700 45.30400 42.41600
C  50.72700 44.02800 41.94100
C  52.12100 43.86000 41.83300
C  52.71600 45.12800 42.28000
C  51.58500 45.94900 42.54500
C  52.74900 42.54300 41.37000
C  54.23300 45.48000 42.24600
O  55.04100 44.55500 42.12700
C  54.78900 46.79700 42.47700
N  49.27300 48.05500 42.69100
C  50.60400 48.24500 43.00200
C  50.91800 49.72000 43.22100
C  49.52900 50.32100 42.89600
C  48.54700 49.12400 42.83800
C  51.57900 50.00100 44.64300
C  49.49300 51.14800 41.56500
C  49.68900 52.60900 41.79400
N  46.64600 46.87100 42.67500
C  46.19400 48.20500 42.87100
C  44.75100 48.25000 42.88800
C  44.40100 46.87800 42.57100
C  45.62100 46.19300 42.31100
C  43.92800 49.40500 43.35800
C  43.26800 45.99100 42.36600
O  42.02400 46.09500 42.41500
C  43.81900 44.61400 41.82700
C  43.39900 43.48100 42.71100
O  42.41700 42.77500 42.45800
O  44.14400 43.40500 43.80700
C  43.58600 42.46100 44.80000
H  50.21600 42.01400 41.51500
H  52.57600 47.71900 43.23100
H  46.72300 50.25900 43.13600
H  45.20700 42.10600 41.54600
H  47.87600 41.32100 40.56100
H  47.62800 41.62000 43.62100
H  48.26200 40.29400 42.75500
H  46.52300 40.51800 42.72400
H  46.20900 42.35900 38.76400
H  45.06000 43.47900 39.38000
H  43.40800 41.66200 39.40800
H  44.53100 40.54700 39.99400
H  52.45600 42.38000 40.33300
H  52.46100 41.65500 41.93300
H  53.83300 42.65600 41.37300
H  54.28700 47.59200 41.92500
H  55.84000 46.71900 42.20200
H  54.68400 46.96400 43.54900
H  51.56700 49.99000 42.38800
H  49.29500 50.86500 43.81100
H  52.28600 49.18400 44.78600
H  50.76300 49.91900 45.36100
H  52.07100 50.97200 44.58500
H  48.57800 50.94700 41.00800
H  50.35100 50.87400 40.95000
H  49.39500 52.80700 42.82500
H  49.05000 53.01800 41.01100
H  50.71100 52.96300 41.66600
H  44.44500 50.35500 43.48900
H  43.43600 49.19800 44.30800
H  43.16200 49.38800 42.58200
H  43.56700 44.42000 40.78400
H  43.55700 41.38300 44.64400
H  42.59100 42.74400 45.14400
H  44.30800 42.66200 45.59200

