158

Mg 25.21700 1.22800 30.22800
C  27.40500 1.33100 32.90200
C  22.59100 1.49200 32.54600
C  23.15500 1.21800 27.72500
C  27.93500 0.91100 28.06000
N  25.07800 1.36400 32.50000
C  26.07800 1.42800 33.37400
C  25.66300 1.67600 34.82300
C  24.12100 1.52500 34.71200
C  23.89100 1.45800 33.15100
C  23.51600 0.38800 35.64700
C  26.20100 3.07500 35.36600
C  26.86200 2.99700 36.75500
H  26.52400 4.00300 37.84300
N  23.17000 1.20200 30.14200
C  22.28900 1.33700 31.18500
C  20.94200 1.17800 30.66700
C  21.05600 1.19100 29.21300
C  22.53700 1.14900 28.98300
C  19.75000 1.15700 31.52800
C  19.95500 1.25400 28.27100
O  20.21100 1.11200 27.08400
C  18.51600 1.58100 28.68400
N  25.54200 1.05500 28.11000
C  24.46700 1.17700 27.28200
C  24.92100 1.06800 25.80500
C  26.48900 1.03000 25.97800
C  26.71200 1.03300 27.43900
C  24.33700 -0.08500 24.90900
C  27.21000 2.19800 25.13900
C  26.79100 3.64500 25.52700
N  27.19800 0.98500 30.40500
C  28.16400 0.91800 29.44200
C  29.44300 0.72300 30.14800
C  29.21900 0.91500 31.46500
C  27.82400 1.05200 31.56900
C  30.74100 0.45600 29.39200
C  29.86000 0.94500 32.77300
O  31.02400 0.82200 33.21900
C  28.70100 1.31500 33.71300
C  28.63200 0.41700 34.90500
O  28.06700 -0.67300 34.87800
O  29.12100 1.05600 35.98500
C  29.07000 0.31300 37.24400
H  21.73000 1.64200 33.20000
H  22.45600 1.39200 26.90400
H  28.89800 0.79800 27.55700
H  26.08800 0.81200 35.33300
H  23.71900 2.49700 34.99800
H  24.33000 -0.12200 36.16100
H  23.00800 -0.38400 35.07000
H  22.74500 0.91100 36.21200
H  25.51700 3.92400 35.38700
H  27.01700 3.33700 34.69400
H  27.94500 2.89000 36.69200
H  26.55500 2.04400 37.18500
H  18.76200 0.85900 31.17700
H  19.78800 2.05900 32.13800
H  19.99000 0.42500 32.30000
H  18.56600 2.46400 29.32100
H  17.99900 0.84300 29.29800
H  17.89800 1.81300 27.81600
H  24.79100 2.00800 25.26700
H  26.82600 0.15700 25.41800
H  23.46800 -0.54400 25.37900
H  25.02000 -0.92700 24.79500
H  24.06700 0.40300 23.97200
H  26.99700 2.02600 24.08400
H  28.29300 2.07600 25.16400
H  26.09900 3.72100 26.36600
H  26.23700 3.99700 24.65600
H  27.61200 4.35500 25.62900
H  30.72700 1.16300 28.56300
H  30.86600 -0.56700 29.03500
H  31.50900 0.77100 30.09900
H  29.04800 2.22600 34.20000
H  29.95800 -0.31900 37.21200
H  28.13700 -0.25100 37.25800
H  29.06500 0.95200 38.12700
Mg 55.37300 23.80600 44.22400
C  53.01500 26.47500 43.42900
C  53.10700 21.58900 43.17800
C  57.87700 21.64100 44.45300
C  57.74500 26.49200 44.65800
N  53.23000 24.12400 43.20300
C  52.41100 25.19900 43.21800
C  51.03500 24.83400 42.68900
C  51.04900 23.26500 42.87500
C  52.53000 22.93900 43.17300
C  50.21200 22.73300 44.03900
C  50.74600 25.26100 41.22100
C  49.25100 25.22500 40.88500
H  49.08500 24.55800 39.45500
N  55.48600 21.86800 43.83600
C  54.39200 21.09300 43.56700
C  54.84800 19.74600 43.59100
C  56.26600 19.70700 43.88800
C  56.58700 21.13900 44.08100
C  53.88800 18.69300 43.26000
C  57.12800 18.50000 44.04300
O  56.65700 17.38200 43.77900
C  58.59300 18.47100 44.36500
N  57.48700 24.06500 44.30900
C  58.32100 22.98000 44.48800
C  59.69100 23.27400 44.89500
C  59.69300 24.90100 45.05000
C  58.24600 25.18600 44.61200
C  60.15100 22.70800 46.32400
C  60.83600 25.76800 44.24200
C  61.34300 27.12100 44.80200
N  55.42100 25.97600 44.15700
C  56.38400 26.92500 44.43100
C  55.82500 28.21700 44.44500
C  54.53300 28.05900 44.05400
C  54.33200 26.71300 43.83400
C  56.41400 29.47600 44.90300
C  53.39300 28.80600 43.86100
O  53.14100 29.99100 44.12800
C  52.35900 27.83200 43.23700
C  52.21900 28.17000 41.81300
O  52.98600 27.68800 40.96400
O  51.13800 29.00200 41.59400
C  51.05600 29.43900 40.14200
H  52.39600 20.80900 42.89500
H  58.71000 20.97800 44.69100
H  58.45200 27.29100 44.89100
H  50.24600 25.23500 43.32600
H  50.66000 22.76000 41.99100
H  50.89400 22.46300 44.84500
H  49.71100 21.84700 43.64600
H  49.48500 23.41900 44.47300
H  51.41600 24.63800 40.62900
H  50.98100 26.29400 40.96100
H  48.83700 26.21900 41.05100
H  48.78200 24.54900 41.60000
H  53.39000 18.16200 44.07100
H  54.38600 18.01100 42.57100
H  53.01200 18.93800 42.66100
H  59.27300 18.76500 43.56500
H  58.87700 17.45600 44.64400
H  58.74300 19.04000 45.28300
H  60.39500 23.04300 44.09500
H  59.61400 25.30500 46.05900
H  59.93600 23.33900 47.18600
H  61.20500 22.43100 46.29300
H  59.62200 21.76100 46.43200
H  60.45700 25.95700 43.23800
H  61.74000 25.16100 44.18500
H  62.43100 27.11600 44.73900
H  61.09500 27.12500 45.86300
H  61.04200 28.02900 44.27800
H  55.66500 30.26100 44.80200
H  57.23900 29.76700 44.25400
H  56.72400 29.40600 45.94600
H  51.39200 27.95000 43.72500
H  50.81000 28.48500 39.67400
H  52.02200 29.83100 39.82400
H  50.21800 30.08200 39.87200

