158

Mg 49.35600 15.34100 29.21500
C  47.28900 15.57100 32.10600
C  51.73400 17.12800 31.09400
C  51.29300 15.79000 26.48200
C  46.81700 14.10500 27.43300
N  49.50100 16.15000 31.36600
C  48.55400 16.08000 32.32600
C  49.02700 16.56000 33.70100
C  50.30100 17.33900 33.23200
C  50.54100 16.86600 31.84500
C  50.16700 18.84700 33.55300
C  49.30200 15.32300 34.73300
C  48.55100 15.37400 36.14100
H  48.73600 16.65700 37.05400
N  51.29300 16.23600 28.87800
C  52.09400 16.82600 29.76000
C  53.37800 17.20400 29.18700
C  53.31500 16.80200 27.83900
C  51.95900 16.23000 27.68200
C  54.48300 17.82500 29.97500
C  54.20900 17.07800 26.66100
O  53.90800 16.94900 25.46700
C  55.60800 17.53600 26.85500
N  49.06600 15.14800 27.23200
C  49.98600 15.32200 26.32000
C  49.46400 14.93900 24.92500
C  48.25100 13.99900 25.27400
C  47.98800 14.46900 26.71600
C  49.20400 16.16900 23.98800
C  48.46800 12.47500 25.16200
C  47.31800 11.54000 24.93100
N  47.46800 14.89800 29.60100
C  46.48500 14.41900 28.66900
C  45.31000 14.10300 29.50700
C  45.62600 14.53500 30.86000
C  46.87600 15.04700 30.83000
C  44.06400 13.45900 28.93000
C  45.04000 14.59000 32.21300
O  43.92200 14.15500 32.58900
C  46.12300 15.32000 33.04600
C  45.54300 16.59700 33.52000
O  45.44300 17.67000 32.92800
O  45.05600 16.41700 34.74900
C  44.50100 17.49600 35.51000
H  52.42800 17.76500 31.64600
H  51.82000 15.75800 25.52600
H  45.99200 13.69400 26.84700
H  48.26200 17.24000 34.07700
H  51.15100 16.99500 33.82100
H  50.80900 19.47400 32.93400
H  50.66500 19.01900 34.50800
H  49.11200 19.12000 33.56300
H  50.35300 15.05100 34.83200
H  48.99100 14.35000 34.35300
H  48.87200 14.41800 36.55300
H  47.47400 15.28300 36.00300
H  54.12900 18.74800 30.43400
H  55.35400 18.03500 29.35500
H  54.76300 17.12600 30.76300
H  56.18000 17.49900 25.92900
H  56.14200 16.93500 27.59100
H  55.55900 18.55400 27.24200
H  50.10700 14.29500 24.32500
H  47.40100 14.26200 24.64400
H  49.13100 17.05600 24.61700
H  48.34300 15.99300 23.34300
H  50.05400 16.19900 23.30600
H  49.04000 12.18800 26.04400
H  49.15000 12.30700 24.32900
H  47.66300 10.63200 24.43700
H  46.60700 12.13000 24.35300
H  46.79700 11.27500 25.85100
H  43.67300 14.05100 28.10200
H  43.28800 13.40300 29.69300
H  44.21400 12.48900 28.45700
H  46.37100 14.65000 33.87000
H  45.04000 18.43400 35.37800
H  44.40300 17.22600 36.56100
H  43.44000 17.50500 35.26200
Mg 9.73900 47.68000 25.73800
C  7.69000 48.34600 28.47200
C  12.41500 48.53100 27.71000
C  11.82600 46.87400 23.11400
C  6.96500 47.68900 23.65900
N  9.99900 48.06600 27.90700
C  9.04300 48.34900 28.79700
C  9.66500 48.57400 30.22700
C  11.08000 49.13400 29.77700
C  11.17100 48.56600 28.35900
C  11.21800 50.68200 29.70800
C  9.75200 47.22000 30.96300
C  10.31000 47.24400 32.39200
H  9.39100 46.64400 33.53000
N  11.80500 47.63500 25.44300
C  12.80200 48.04600 26.40600
C  14.15100 47.91600 25.81800
C  13.93900 47.46400 24.47000
C  12.49500 47.25700 24.33900
C  15.42200 48.32500 26.57700
C  14.98400 47.20800 23.31800
O  14.69600 46.88300 22.15500
C  16.48300 47.05900 23.72600
N  9.45500 47.27800 23.71100
C  10.40800 46.95200 22.75700
C  9.81100 46.42300 21.46600
C  8.30500 46.90000 21.68500
C  8.22000 47.30800 23.11000
C  10.51300 47.00900 20.18500
C  7.29400 45.87500 21.07700
C  6.15900 46.47400 20.21000
N  7.78500 47.92700 25.92100
C  6.71200 47.95900 25.02100
C  5.45300 48.16900 25.65400
C  5.76000 48.34200 27.02300
C  7.21100 48.20800 27.16800
C  4.10400 48.34800 25.03900
C  5.25700 48.68000 28.34800
O  4.12800 48.87600 28.57400
C  6.48500 48.66400 29.36000
C  6.02300 47.66700 30.36800
O  5.87700 46.47200 30.27500
O  5.92100 48.30200 31.55400
C  5.22300 47.57400 32.57700
H  13.25000 49.04500 28.18900
H  12.42800 46.32700 22.38600
H  6.03400 47.80600 23.10200
H  9.07300 49.24800 30.84500
H  11.84500 48.80500 30.48100
H  10.24400 51.15400 29.83900
H  11.62200 50.96700 28.73700
H  11.90700 51.10100 30.44100
H  10.30000 46.47500 30.38600
H  8.71800 46.88000 31.01400
H  10.55800 48.27800 32.63200
H  11.27100 46.73200 32.39600
H  15.25100 48.16500 27.64200
H  15.81500 49.32900 26.41700
H  16.24700 47.61800 26.48700
H  17.15500 46.93700 22.87600
H  16.53300 46.10800 24.25500
H  16.76400 47.90800 24.34900
H  9.92900 45.34700 21.34100
H  8.03500 47.79600 21.12600
H  10.99900 47.96100 20.39900
H  9.77100 47.21500 19.41400
H  11.19200 46.29400 19.72100
H  6.70800 45.38700 21.85600
H  7.81000 45.04800 20.58900
H  6.47200 47.37400 19.67900
H  5.28300 46.90700 20.69200
H  5.82000 45.73400 19.48400
H  3.92300 47.37600 24.57900
H  4.02100 49.21200 24.37900
H  3.37800 48.38000 25.85100
H  6.66600 49.58500 29.91500
H  5.96800 46.88400 32.97200
H  4.31900 47.10200 32.19300
H  4.82300 48.26300 33.32100

