158

Mg 48.83000 16.24300 28.33200
C  46.69000 15.81300 31.12500
C  50.87800 18.20700 30.27300
C  50.90600 16.48400 25.76000
C  46.35500 14.52600 26.41600
N  48.78500 16.83400 30.47200
C  47.86900 16.53000 31.43500
C  48.18600 17.25200 32.72600
C  49.39200 18.15900 32.27400
C  49.71600 17.73900 30.95100
C  49.19200 19.72400 32.46600
C  48.52400 16.20100 33.82500
C  48.60100 16.67000 35.24300
H  48.44900 18.16700 35.57000
N  50.62100 17.24700 28.02300
C  51.34600 17.97500 28.94500
C  52.62300 18.41300 28.40700
C  52.64200 17.85700 27.06300
C  51.34400 17.22800 26.83600
C  53.61300 19.30300 29.15000
C  53.76800 17.77700 26.01900
O  53.74700 17.23500 24.93900
C  55.06100 18.46200 26.40500
N  48.64100 15.51400 26.42700
C  49.66000 15.75300 25.50900
C  49.34100 15.11700 24.17400
C  48.04100 14.19700 24.46500
C  47.59600 14.80900 25.78900
C  49.15700 16.19100 23.11400
C  48.38300 12.69400 24.55400
C  47.57400 11.77700 23.69700
N  46.84800 15.39700 28.63300
C  45.94900 14.72800 27.80500
C  44.85900 14.23100 28.54500
C  45.01900 14.64700 29.81500
C  46.31200 15.29800 29.85300
C  43.76900 13.36300 27.93500
C  44.51100 14.64800 31.15800
O  43.44600 14.19300 31.55100
C  45.56800 15.37500 32.12000
C  44.84300 16.42400 32.78600
O  44.54600 17.50800 32.33600
O  44.38700 15.85500 33.96500
C  43.46800 16.72200 34.71200
H  51.56700 18.89900 30.76300
H  51.51600 16.49700 24.85400
H  45.81200 13.79800 25.80900
H  47.31300 17.84800 32.99000
H  50.30200 17.94200 32.83300
H  49.25100 20.40400 31.61600
H  49.75300 20.08400 33.32800
H  48.13800 19.84100 32.71900
H  49.48400 15.80800 33.49000
H  47.98900 15.25500 33.74000
H  49.55300 16.31700 35.63900
H  47.80100 16.19800 35.81400
H  54.66900 19.13900 28.93100
H  53.52100 19.32000 30.23600
H  53.31400 20.32800 28.93100
H  54.84100 19.49900 26.65800
H  55.74000 18.37000 25.55800
H  55.57500 17.98500 27.23900
H  50.12900 14.42200 23.88600
H  47.19400 14.48500 23.84200
H  49.79300 16.00000 22.25100
H  49.45100 17.16900 23.49400
H  48.08800 16.24000 22.90700
H  48.30300 12.37200 25.59300
H  49.46200 12.58800 24.44300
H  48.19900 11.10600 23.10900
H  46.91900 12.30500 23.00400
H  46.93700 11.14700 24.31800
H  44.11500 12.90900 27.00700
H  42.90800 13.99100 27.70900
H  43.56600 12.57200 28.65800
H  45.89900 14.77100 32.96600
H  42.73300 16.10400 35.22900
H  42.93400 17.41000 34.05600
H  44.10800 17.22100 35.44000
Mg -11.39300 37.99200 42.38400
C  -9.04500 35.44000 41.16900
C  -9.42800 40.30800 40.80200
C  -13.91700 39.95100 42.65700
C  -13.22000 35.26500 43.67300
N  -9.52700 37.81700 40.96900
C  -8.78100 36.70800 40.63100
C  -7.58800 37.09900 39.79000
C  -7.67500 38.68300 39.75000
C  -8.93500 38.98500 40.64300
C  -6.37500 39.40600 40.04500
C  -7.61500 36.42000 38.36800
C  -6.26800 35.81100 37.87600
H  -5.55300 36.53000 36.72000
N  -11.58000 39.97100 41.95100
C  -10.69400 40.76600 41.37200
C  -11.20800 42.14100 41.46100
C  -12.52500 42.06900 42.00300
C  -12.75800 40.62000 42.18500
C  -10.56900 43.41600 40.94400
C  -13.45600 43.22800 42.41400
O  -13.19800 44.40400 42.15500
C  -14.75400 42.90200 43.15400
N  -13.27200 37.71000 43.13400
C  -14.14400 38.65100 43.12500
C  -15.52800 38.19200 43.61100
C  -15.35500 36.61100 43.88200
C  -13.87700 36.50500 43.57100
C  -15.96300 39.00000 44.80300
C  -16.18600 35.70800 42.81800
C  -17.27200 34.89800 43.60400
N  -11.21100 35.77700 42.64300
C  -11.94300 34.91200 43.32500
C  -11.19600 33.60900 43.31100
C  -10.15200 33.79100 42.53600
C  -10.14700 35.11400 42.07200
C  -11.69200 32.33200 43.87200
C  -9.02100 33.14800 41.80200
O  -8.61700 32.01700 41.80000
C  -8.17100 34.24200 41.06000
C  -6.87600 34.27100 41.84200
O  -6.01900 33.40000 41.70600
O  -6.77100 35.35300 42.63500
C  -5.56900 35.39500 43.41900
H  -8.81300 41.11600 40.39900
H  -14.83900 40.50800 42.48000
H  -13.88300 34.54300 44.15300
H  -6.66000 36.79400 40.27200
H  -8.02100 39.19900 38.85400
H  -5.65000 38.89900 40.68100
H  -6.59500 40.39700 40.44300
H  -5.85600 39.61700 39.11000
H  -7.92900 37.16900 37.64200
H  -8.45200 35.72200 38.35400
H  -6.56700 34.77800 37.70000
H  -5.47900 35.71800 38.62200
H  -11.23100 43.89800 40.22500
H  -9.65700 43.18200 40.39500
H  -10.30300 44.08300 41.76400
H  -15.19600 43.79600 43.59400
H  -14.50400 42.21300 43.96000
H  -15.48100 42.42500 42.49700
H  -16.29200 38.36000 42.85200
H  -15.55800 36.34100 44.91900
H  -15.13200 38.83000 45.48800
H  -16.87500 38.67300 45.30200
H  -16.12000 40.06900 44.65500
H  -15.42800 35.05000 42.39300
H  -16.72400 36.16500 41.98800
H  -18.18000 34.75800 43.01900
H  -17.59600 35.43700 44.49400
H  -16.84100 33.91500 43.79600
H  -12.61800 32.49100 44.42400
H  -10.96000 31.96100 44.59000
H  -11.79900 31.62300 43.05100
H  -7.94200 33.91400 40.04600
H  -5.63600 36.24300 44.10100
H  -4.71900 35.51100 42.74600
H  -5.39400 34.51400 44.03500

