158

Mg 16.54900 -2.19100 27.10600
C  15.46900 -0.32000 29.94600
C  18.41300 -4.14200 29.27600
C  17.36900 -4.04900 24.53500
C  14.58000 -0.07500 25.13800
N  16.88200 -2.16300 29.40600
C  16.32300 -1.37200 30.32800
C  16.79800 -1.76200 31.72000
C  17.75900 -3.01800 31.47600
C  17.75300 -3.05200 29.95900
C  19.17800 -2.85600 32.02600
C  15.68500 -2.05200 32.82100
C  16.06800 -1.71700 34.23200
H  17.58000 -1.33200 34.58100
N  17.76200 -3.75300 26.90200
C  18.42200 -4.44900 27.90300
C  19.09000 -5.64700 27.33800
C  18.67400 -5.68100 26.03000
C  17.89300 -4.44500 25.73800
C  19.96300 -6.69500 28.19300
C  19.06600 -6.69200 24.97300
O  18.57800 -6.68900 23.85600
C  19.98900 -7.83100 25.38500
N  16.10600 -2.03100 25.13000
C  16.62600 -2.92100 24.23600
C  16.36500 -2.49600 22.80700
C  15.31900 -1.34900 23.00300
C  15.23800 -1.16000 24.50000
C  17.61400 -2.05700 22.01500
C  13.92900 -1.59400 22.32800
C  12.85200 -2.35100 22.98700
N  15.30100 -0.55600 27.39300
C  14.59000 0.23300 26.51800
C  13.88600 1.29600 27.13600
C  14.14800 1.07800 28.55000
C  15.07300 -0.00400 28.66300
C  12.98100 2.28700 26.45100
C  13.75700 1.55200 29.89500
O  13.05300 2.38100 30.35700
C  14.71400 0.65800 30.85600
C  15.56100 1.62000 31.54400
O  16.23600 2.49600 31.08000
O  15.32200 1.58400 32.88500
C  15.92000 2.61200 33.81400
H  19.02000 -4.80100 29.90100
H  17.57000 -4.66200 23.65400
H  14.01900 0.60900 24.49700
H  17.42400 -0.92000 32.01200
H  17.33700 -3.95100 31.84800
H  19.30200 -3.66300 32.74800
H  19.32100 -1.92100 32.56900
H  19.95100 -2.85800 31.25800
H  15.51400 -3.12800 32.79500
H  14.69200 -1.63800 32.65300
H  15.65200 -2.53900 34.81400
H  15.47400 -0.83500 34.47200
H  20.23000 -6.42600 29.21500
H  20.91700 -6.84800 27.68900
H  19.40700 -7.63200 28.17900
H  19.51000 -8.56000 26.03900
H  20.92200 -7.36000 25.69300
H  20.20800 -8.35000 24.45200
H  15.87900 -3.33700 22.31200
H  15.67100 -0.37700 22.65800
H  17.72500 -2.47600 21.01500
H  18.46600 -2.48600 22.54400
H  17.80600 -0.98700 21.93700
H  14.03900 -2.03800 21.33900
H  13.50300 -0.60800 22.14100
H  12.13900 -1.81200 23.61100
H  13.34500 -3.01800 23.69400
H  12.30700 -3.03300 22.33400
H  12.29600 1.68700 25.85100
H  13.63400 2.92600 25.85800
H  12.27900 2.82600 27.08800
H  14.03800 0.11400 31.51600
H  16.83600 2.19500 34.23200
H  15.15600 2.85800 34.55100
H  16.16100 3.49300 33.21900
Mg 54.20000 24.46500 44.80900
C  51.68800 26.72400 43.65200
C  52.43400 21.85900 43.51800
C  57.10800 22.79100 44.85100
C  56.00200 27.46900 45.78400
N  52.33200 24.30000 43.67900
C  51.49000 25.38100 43.28900
C  50.21000 24.73200 42.64200
C  50.31800 23.18500 43.11900
C  51.78300 23.08400 43.41300
C  49.54400 22.74300 44.34200
C  50.06800 24.86400 41.07300
C  51.27400 25.06500 40.23700
H  52.30300 23.97300 40.05300
N  54.66500 22.55300 44.42700
C  53.80000 21.61000 43.89000
C  54.46900 20.36800 43.79400
C  55.83000 20.56100 44.29300
C  55.93400 22.03100 44.58100
C  53.82600 19.18800 43.24900
C  56.96000 19.55400 44.46100
O  56.78900 18.34800 44.20200
C  58.34800 19.93600 44.99000
N  56.23600 25.02400 45.32200
C  57.23300 24.12300 45.22200
C  58.58600 24.76100 45.28500
C  58.26000 26.22400 45.52100
C  56.78300 26.28000 45.58900
C  59.60600 24.19000 46.31600
C  58.80600 27.17200 44.31400
C  59.78100 28.37600 44.75800
N  53.93400 26.66400 44.84900
C  54.65800 27.68300 45.38900
C  53.84900 28.90100 45.52200
C  52.62900 28.55000 44.87800
C  52.74800 27.17100 44.46600
C  54.26600 30.25400 46.14200
C  51.35700 29.03100 44.43100
O  50.80600 30.09500 44.55200
C  50.73700 27.91900 43.49200
C  50.60200 28.41500 42.07300
O  51.46300 28.91000 41.32800
O  49.31500 28.15300 41.77200
C  48.89200 28.54200 40.36000
H  51.77600 20.98900 43.45900
H  58.03600 22.22400 44.76000
H  56.50600 28.40600 46.03300
H  49.29200 25.13700 43.06700
H  49.98900 22.45800 42.37700
H  50.23300 22.13500 44.92700
H  48.67600 22.16400 44.02800
H  49.27600 23.55400 45.02000
H  49.38800 25.69300 40.87800
H  49.55000 24.05400 40.56000
H  51.69300 25.89800 40.80200
H  50.98300 25.15100 39.19000
H  53.47600 19.50200 42.26600
H  52.99800 18.91300 43.90200
H  54.54800 18.38600 43.09800
H  58.91800 19.05600 45.28700
H  58.30700 20.56100 45.88200
H  59.05100 20.45100 44.33500
H  59.05700 24.57600 44.32000
H  58.52900 26.54100 46.52900
H  59.09500 23.62200 47.09300
H  60.23300 24.93000 46.81300
H  60.36800 23.60800 45.79800
H  57.98500 27.65600 43.78500
H  59.28500 26.69100 43.46100
H  60.82500 28.27600 44.46400
H  59.82200 28.54800 45.83400
H  59.19800 29.21600 44.37900
H  55.20700 30.62400 45.73500
H  54.27800 30.04300 47.21100
H  53.50300 31.03200 46.14100
H  49.75500 27.61800 43.85600
H  49.66400 28.93900 39.70200
H  48.04000 29.22000 40.32100
H  48.46500 27.64600 39.91000

