158

Mg 16.87100 -1.36600 27.81500
C  15.80900 0.46700 30.64000
C  18.67100 -3.32200 29.76300
C  18.19000 -2.70700 24.99200
C  14.94800 0.85100 25.79400
N  17.20300 -1.38300 29.94900
C  16.66100 -0.62000 30.95500
C  17.11200 -1.07600 32.31800
C  18.21100 -2.26600 31.95400
C  18.04400 -2.34800 30.45000
C  19.63600 -1.91300 32.41400
C  15.82400 -1.50200 33.15600
C  15.66600 -0.96300 34.60000
H  16.92600 -0.37400 35.30500
N  18.25500 -2.84200 27.46600
C  18.90700 -3.54400 28.42200
C  19.77000 -4.51600 27.80700
C  19.70900 -4.31500 26.36000
C  18.68000 -3.23900 26.19000
C  20.58600 -5.51600 28.52300
C  20.48200 -4.97400 25.24900
O  20.52900 -4.56000 24.07900
C  21.33900 -6.23500 25.40500
N  16.46100 -1.14900 25.73300
C  17.18600 -1.79400 24.74400
C  16.81300 -1.34800 23.30500
C  15.67800 -0.34600 23.61800
C  15.67600 -0.18200 25.17300
C  17.98700 -0.88600 22.48200
C  14.31000 -0.67000 23.09600
C  13.98900 -0.15900 21.69600
N  15.53000 0.28900 28.13100
C  14.86700 1.06000 27.21000
C  14.11300 2.15400 27.92900
C  14.46200 1.94900 29.26800
C  15.32900 0.82800 29.34700
C  13.09200 3.11600 27.22400
C  14.24200 2.42300 30.60100
O  13.57600 3.35300 31.01600
C  15.11300 1.56200 31.58800
C  16.01500 2.50700 32.25600
O  16.99000 3.09200 31.72800
O  15.55000 2.87900 33.49200
C  16.27600 3.92400 34.26100
H  19.24900 -4.03700 30.35200
H  18.75900 -2.98500 24.10200
H  14.52400 1.72200 25.29000
H  17.50900 -0.24600 32.90200
H  17.95300 -3.21700 32.42100
H  20.03700 -1.25400 31.64300
H  20.21500 -2.82200 32.57800
H  19.61600 -1.35000 33.34700
H  15.77600 -2.58900 33.21400
H  14.93400 -1.16600 32.62300
H  15.18700 -1.67200 35.27500
H  14.92800 -0.16700 34.49300
H  21.64400 -5.26400 28.45800
H  20.52700 -6.47700 28.01200
H  20.22200 -5.68000 29.53700
H  21.92600 -6.22900 24.48700
H  20.74900 -7.12300 25.63600
H  22.09600 -6.00400 26.15500
H  16.44200 -2.11200 22.62100
H  16.05300 0.61100 23.25500
H  17.91200 0.18700 22.30500
H  18.09900 -1.47300 21.57100
H  18.89300 -0.95600 23.08400
H  13.47200 -0.36200 23.72200
H  14.23800 -1.75500 23.16500
H  13.86000 -1.08900 21.14200
H  14.81100 0.44200 21.30900
H  13.06800 0.40000 21.53300
H  12.17700 3.15900 27.81500
H  12.88400 2.73000 26.22600
H  13.43500 4.14900 27.28300
H  14.54800 1.13800 32.41900
H  17.36200 3.88500 34.18600
H  16.03700 3.74100 35.30900
H  15.93900 4.91800 33.96800
Mg 42.30500 41.74000 26.55000
C  41.31600 44.26000 28.78900
C  43.41600 39.93200 29.06000
C  43.51400 39.59500 24.31600
C  41.48200 44.08200 23.92800
N  42.28600 42.12100 28.62600
C  41.81100 43.14800 29.38200
C  41.89500 42.86900 30.87700
C  42.39600 41.38400 30.93600
C  42.70800 41.06900 29.44700
C  43.54400 41.08200 31.93600
C  40.56500 43.17400 31.69400
C  40.06800 42.31800 32.84900
H  39.41500 43.15800 33.98500
N  43.35200 39.98800 26.64100
C  43.60600 39.31700 27.78300
C  44.16500 37.98800 27.54200
C  44.17800 37.86700 26.07300
C  43.69200 39.16300 25.61600
C  44.52600 36.95700 28.66300
C  44.60900 36.74300 25.18600
O  44.50000 36.70900 23.93600
C  45.14500 35.57200 25.84100
N  42.69500 41.96700 24.44900
C  43.07200 40.78900 23.75100
C  42.75800 41.03200 22.24600
C  41.98300 42.35600 22.19600
C  42.09400 42.86600 23.63700
C  44.05200 40.98900 21.41400
C  40.53500 42.23700 21.78000
C  39.58900 41.45200 22.67700
N  41.56200 43.78400 26.35700
C  41.31500 44.57300 25.25600
C  40.77600 45.81100 25.70500
C  40.76300 45.77200 27.09000
C  41.22600 44.50400 27.44600
C  40.47900 46.95300 24.83500
C  40.53400 46.56100 28.23900
O  40.19100 47.73800 28.36300
C  40.87700 45.55700 29.47900
C  41.98200 46.13300 30.24100
O  43.15400 46.18000 29.91500
O  41.46000 46.76200 31.39400
C  42.45500 47.23700 32.35800
H  43.66700 39.31000 29.92100
H  43.81100 38.81700 23.60900
H  40.90300 44.71100 23.24900
H  42.69600 43.53600 31.19400
H  41.63600 40.66100 31.23300
H  43.49000 41.66100 32.85800
H  44.44900 41.24900 31.35200
H  43.40300 40.01900 32.13300
H  39.74100 43.20300 30.98100
H  40.66600 44.20200 32.04200
H  40.87300 41.74500 33.31000
H  39.29100 41.66000 32.46100
H  45.54500 36.61400 28.48500
H  43.84200 36.10900 28.61800
H  44.73700 37.39600 29.63900
H  44.36700 35.19200 26.50300
H  46.05300 35.83600 26.38300
H  45.36600 34.71900 25.19900
H  42.09700 40.21000 21.97000
H  42.37400 43.12600 21.53100
H  44.88200 41.22700 22.07900
H  44.05600 41.76000 20.64300
H  44.33900 40.07600 20.89100
H  40.67800 41.80400 20.79000
H  40.22000 43.27500 21.66500
H  39.03700 42.11500 23.34400
H  40.03500 40.68000 23.30400
H  38.86900 41.06100 21.95900
H  39.65800 46.62100 24.19900
H  41.43700 47.27900 24.43200
H  40.04500 47.81400 25.34400
H  40.05500 45.42500 30.18200
H  42.00500 48.04200 32.93800
H  43.40400 47.69900 32.08500
H  42.50300 46.36400 33.00900

