158

Mg -1.80900 33.81000 25.95700
C  -3.77500 32.51600 28.58200
C  -0.55600 36.00700 28.07400
C  -0.40200 35.29600 23.20100
C  -3.62700 31.97900 23.65500
N  -2.14700 34.21100 28.04100
C  -2.86900 33.49900 28.96900
C  -2.63100 33.89700 30.44300
C  -1.73400 35.19500 30.26800
C  -1.44600 35.15300 28.67500
C  -2.46300 36.51000 30.62700
C  -1.92500 32.81900 31.35300
C  -2.79900 32.18900 32.46100
H  -2.06200 31.78100 33.64800
N  -0.56200 35.39100 25.67000
C  -0.08500 36.11700 26.72800
C  0.90400 37.04500 26.18000
C  0.92300 36.93600 24.81400
C  -0.05400 35.84800 24.50700
C  1.67900 37.98400 27.01400
C  1.67300 37.68600 23.77900
O  1.59600 37.37900 22.65700
C  2.55500 38.75500 24.12700
N  -1.98500 33.66800 23.66300
C  -1.27800 34.35800 22.84700
C  -1.54200 34.01500 21.41600
C  -2.43000 32.75200 21.53200
C  -2.77100 32.87500 23.03500
C  -1.98300 35.16600 20.41800
C  -1.64200 31.41800 21.31100
C  -2.46700 30.27200 20.71000
N  -3.31300 32.42400 26.04900
C  -3.92400 31.73800 25.05100
C  -4.90400 30.86100 25.67300
C  -4.84400 31.09100 27.04200
C  -3.88400 32.06400 27.21700
C  -5.82300 29.95200 24.91900
C  -5.47300 30.77400 28.23100
O  -6.33300 29.94500 28.44200
C  -4.72100 31.63000 29.37900
C  -5.82100 32.37700 30.16000
O  -6.65900 33.10200 29.73700
O  -5.70300 31.91200 31.46900
C  -6.66700 32.45000 32.49600
H  -0.17000 36.70800 28.81800
H  0.12500 35.82900 22.40600
H  -4.18500 31.38200 22.93100
H  -3.62900 34.06400 30.84900
H  -0.81000 35.13100 30.84200
H  -2.12600 36.86100 31.60200
H  -3.49500 36.33600 30.93100
H  -2.49200 37.34200 29.92300
H  -1.05300 33.28600 31.81000
H  -1.64600 32.05000 30.63200
H  -3.29000 31.26800 32.14300
H  -3.62700 32.82000 32.78400
H  1.41600 37.92400 28.07000
H  1.57900 38.99600 26.62200
H  2.71500 37.66100 26.91000
H  1.89400 39.46600 24.62300
H  3.01100 39.22400 23.25600
H  3.31000 38.47900 24.86300
H  -0.55400 33.76800 21.02700
H  -3.31800 32.74800 20.90000
H  -1.88400 36.14700 20.88200
H  -3.01900 34.96200 20.14800
H  -1.46000 35.08800 19.46500
H  -1.27800 30.94700 22.22500
H  -0.73800 31.59400 20.72800
H  -1.84800 29.52200 20.21800
H  -3.13700 30.54900 19.89600
H  -3.06700 29.81300 21.49600
H  -5.38200 29.73600 23.94600
H  -6.78600 30.36100 24.61300
H  -5.81500 29.04100 25.51800
H  -4.24500 30.89100 30.02300
H  -7.66300 32.63300 32.09400
H  -6.32000 33.38600 32.93400
H  -6.77500 31.59700 33.16700
Mg -6.05100 24.84400 25.50900
C  -4.57200 26.40500 28.15800
C  -7.89100 22.86000 27.67500
C  -7.59100 23.39600 22.80900
C  -3.80200 26.41600 23.33500
N  -6.19400 24.65500 27.63600
C  -5.57000 25.44700 28.57400
C  -6.09500 25.24200 30.01900
C  -6.93000 23.89100 29.80900
C  -7.13700 23.85400 28.26400
C  -6.26100 22.62800 30.43600
C  -7.02900 26.40500 30.43800
C  -7.15500 26.50200 32.01200
H  -6.66700 25.47100 33.00200
N  -7.64100 23.37400 25.27100
C  -8.17600 22.64600 26.33300
C  -9.21500 21.77400 25.74300
C  -9.10500 21.95300 24.34600
C  -8.12600 22.93600 24.08400
C  -10.10800 20.98400 26.58700
C  -10.00700 21.41500 23.28500
O  -10.10800 21.95800 22.18200
C  -10.90200 20.31400 23.49400
N  -5.92100 24.97300 23.32900
C  -6.60400 24.23800 22.45500
C  -6.12000 24.37200 20.99100
C  -5.08300 25.57200 21.20100
C  -4.88400 25.67700 22.69400
C  -5.43100 23.09500 20.50100
C  -5.50100 26.96900 20.66400
C  -4.86000 27.51000 19.29400
N  -4.51600 26.04900 25.68300
C  -3.77800 26.69700 24.69200
C  -2.82400 27.59100 25.29300
C  -3.13300 27.55800 26.66600
C  -4.13600 26.58000 26.85200
C  -1.88800 28.47600 24.54800
C  -2.82400 28.19000 27.94100
O  -2.02900 29.08200 28.22200
C  -3.80600 27.43900 28.98400
C  -2.88200 26.71400 29.93700
O  -1.85700 26.21500 29.60700
O  -3.29100 26.83200 31.23700
C  -2.46200 26.23200 32.34600
H  -8.18300 22.16500 28.46500
H  -7.91200 22.90800 21.88600
H  -3.17600 26.98300 22.64300
H  -5.23600 25.01000 30.64800
H  -7.91400 24.03400 30.25700
H  -5.74700 22.92200 31.35000
H  -5.63900 22.07000 29.73500
H  -7.20600 22.09600 30.55100
H  -8.06000 26.27100 30.10900
H  -6.60400 27.30800 30.00100
H  -8.23400 26.48700 32.16600
H  -6.75100 27.46200 32.33200
H  -9.68400 19.98100 26.54000
H  -11.15800 21.01700 26.29700
H  -10.15800 21.47100 27.56100
H  -10.32500 19.50000 23.93200
H  -11.25000 20.04800 22.49600
H  -11.70500 20.67700 24.13600
H  -6.92800 24.69400 20.33500
H  -4.07200 25.40400 20.83100
H  -5.58200 22.21300 21.12400
H  -4.36000 23.23600 20.35900
H  -5.88500 22.78000 19.56200
H  -5.25500 27.78500 21.34300
H  -6.57200 26.99300 20.46400
H  -5.69000 27.80400 18.65100
H  -4.34200 26.66400 18.84200
H  -4.10100 28.28600 19.38700
H  -1.29500 29.06800 25.24400
H  -2.44100 29.11800 23.86200
H  -1.23000 27.76600 24.04600
H  -4.43100 28.19900 29.45300
H  -2.07900 25.22400 32.19000
H  -3.07200 26.36000 33.24000
H  -1.61700 26.91000 32.46500

