158

Mg 17.50800 -1.33300 28.70400
C  16.51600 0.62500 31.38400
C  19.21300 -3.23800 30.92200
C  19.41000 -2.63400 26.10900
C  16.26200 0.96200 26.48900
N  17.80700 -1.25700 30.84200
C  17.32200 -0.35800 31.77000
C  17.61200 -0.79200 33.24900
C  18.77400 -1.79400 32.95900
C  18.60500 -2.07800 31.51000
C  20.22900 -1.28900 33.21700
C  16.32100 -1.39200 33.92200
C  15.94200 -0.75900 35.22500
H  16.89400 -0.16900 36.22000
N  18.78700 -3.00000 28.54300
C  19.43200 -3.62100 29.59400
C  20.21700 -4.78600 29.04000
C  20.22200 -4.64700 27.61600
C  19.46400 -3.39500 27.34800
C  20.83700 -5.87000 29.94100
C  20.91800 -5.48600 26.55400
O  20.82300 -5.23900 25.36500
C  21.70600 -6.62200 26.99700
N  17.80400 -0.85900 26.62700
C  18.63300 -1.51000 25.82100
C  18.68700 -0.96100 24.39100
C  17.57400 0.16600 24.46900
C  17.23400 0.10800 25.98000
C  20.10700 -0.56000 23.79200
C  16.35500 -0.13600 23.54500
C  16.07900 1.02400 22.53100
N  16.44600 0.38300 28.89000
C  15.94200 1.17900 27.86500
C  14.98200 2.08900 28.40500
C  15.17700 1.94900 29.85000
C  16.14900 0.89500 30.02300
C  14.12500 3.20000 27.66700
C  14.81900 2.43500 31.23400
O  14.14500 3.33500 31.54000
C  15.72200 1.58100 32.18400
C  16.50500 2.50400 33.02900
O  17.59300 2.97600 32.80100
O  15.83200 2.87500 34.17000
C  16.35100 3.79700 35.18100
H  19.74900 -3.79600 31.69200
H  20.20000 -2.86400 25.39100
H  15.87100 1.78200 25.88500
H  17.93400 0.04500 33.86900
H  18.61100 -2.73600 33.48200
H  20.69500 -1.00600 32.27300
H  20.85600 -2.05600 33.67000
H  20.26000 -0.44200 33.90200
H  16.64100 -2.36700 34.28900
H  15.39700 -1.47800 33.35100
H  15.47000 -1.51200 35.85800
H  15.05800 -0.13400 35.10100
H  20.54500 -6.87500 29.63700
H  20.53300 -5.84900 30.98800
H  21.92200 -5.82900 29.84600
H  21.13900 -7.29400 27.64000
H  22.50700 -6.14900 27.56500
H  22.24700 -7.22000 26.26300
H  18.48800 -1.79500 23.71800
H  18.00700 1.15100 24.29800
H  20.33600 -1.04300 22.84200
H  20.78100 -0.79700 24.61500
H  19.99900 0.51200 23.62800
H  15.45600 -0.43200 24.08500
H  16.64400 -0.97500 22.91200
H  15.23900 0.88300 21.85100
H  16.89900 1.06600 21.81500
H  15.93700 1.95600 23.07900
H  14.40600 3.47800 26.65200
H  14.33500 4.07800 28.27900
H  13.07000 2.99600 27.85200
H  15.13600 1.03200 32.92100
H  16.13300 4.82800 34.90200
H  17.44000 3.84200 35.18500
H  15.96400 3.58400 36.17700
Mg -5.18900 25.33100 26.06300
C  -3.52300 26.69000 28.76100
C  -6.70000 23.04100 28.23600
C  -6.69000 23.74300 23.45600
C  -3.24300 27.21500 23.92800
N  -5.06200 24.93100 28.28000
C  -4.42000 25.72500 29.20000
C  -4.87000 25.49000 30.64700
C  -5.55800 24.11100 30.39500
C  -5.84400 23.99200 28.84800
C  -4.71100 22.77200 30.81000
C  -5.81100 26.60600 31.19200
C  -5.60600 26.85700 32.69100
H  -5.18500 25.67200 33.53200
N  -6.54300 23.63400 25.92900
C  -6.98800 22.83700 26.89400
C  -7.86000 21.75400 26.38300
C  -7.92900 22.03000 24.97500
C  -7.00500 23.17600 24.69800
C  -8.39300 20.61500 27.24100
C  -8.71900 21.28500 23.83800
O  -8.45500 21.45200 22.67000
C  -9.76800 20.32500 24.17600
N  -4.89300 25.43400 23.98900
C  -5.79400 24.79000 23.14900
C  -5.73200 25.50200 21.78800
C  -4.80500 26.71200 21.99700
C  -4.26400 26.48300 23.43400
C  -5.26300 24.54700 20.59400
C  -5.51100 28.02300 21.86400
C  -6.23600 28.49600 20.57000
N  -3.63200 26.66400 26.27300
C  -2.93700 27.37900 25.34100
C  -2.00400 28.26700 25.95400
C  -2.10900 28.00600 27.27400
C  -3.15500 27.07000 27.45800
C  -1.04500 29.19500 25.24900
C  -1.62400 28.37500 28.63500
O  -0.80900 29.20500 29.00300
C  -2.50400 27.49300 29.61600
C  -1.52900 26.61100 30.33200
O  -0.95800 25.61400 29.89800
O  -1.53500 26.97100 31.65800
C  -0.81800 26.26300 32.72200
H  -7.19600 22.36100 28.93200
H  -7.27500 23.51800 22.56200
H  -2.74800 27.88800 23.22500
H  -3.92300 25.32000 31.15800
H  -6.52200 24.03700 30.89800
H  -3.69600 23.00900 31.13000
H  -4.66800 21.93000 30.12000
H  -5.20500 22.49400 31.74100
H  -6.89100 26.48000 31.10900
H  -5.69200 27.53600 30.63700
H  -6.56400 27.21300 33.07100
H  -4.85400 27.62200 32.88400
H  -9.42500 20.46900 26.92200
H  -8.41700 20.82400 28.31100
H  -7.82500 19.70000 27.07300
H  -9.39600 19.39500 24.60500
H  -10.30600 20.37300 23.22900
H  -10.39100 20.84600 24.90200
H  -6.77200 25.78700 21.62700
H  -3.91600 26.85700 21.38100
H  -5.48800 23.51900 20.87800
H  -4.20200 24.72200 20.41600
H  -5.82300 24.74800 19.68000
H  -4.81100 28.82700 22.09100
H  -6.18300 28.17500 22.70900
H  -5.93700 27.83200 19.75900
H  -5.79900 29.46800 20.34200
H  -7.32600 28.50700 20.56600
H  -0.70000 28.64300 24.37400
H  -0.22400 29.37300 25.94300
H  -1.54900 30.09400 24.89200
H  -3.04100 28.14300 30.30700
H  -0.11500 25.57300 32.25600
H  -1.57400 25.74100 33.30900
H  -0.34600 26.97400 33.39900

