158

Mg 1.14000 7.78900 28.16800
C  1.66500 9.93100 30.91300
C  1.52000 5.19000 30.36900
C  1.30100 5.76200 25.54000
C  1.30300 10.54900 26.00100
N  1.54400 7.58400 30.41700
C  1.54400 8.59500 31.28400
C  1.24200 8.06800 32.69600
C  1.54500 6.51600 32.56500
C  1.53800 6.43500 31.02900
C  2.89700 6.07400 33.09100
C  -0.21800 8.25000 33.17400
C  -0.57100 8.84100 34.62500
H  0.47400 8.59000 35.74000
N  1.12200 5.80000 27.95200
C  1.29100 4.85500 29.02000
C  1.18900 3.51500 28.47300
C  1.05100 3.65000 27.04400
C  1.19300 5.07300 26.80800
C  1.27300 2.39500 29.34900
C  0.84500 2.57200 25.97200
O  0.83200 2.85200 24.76300
C  0.58800 1.17100 26.42800
N  1.24000 8.12400 26.05900
C  1.30400 7.13000 25.19200
C  1.28000 7.62900 23.69000
C  0.99000 9.18400 23.87300
C  1.14100 9.26900 25.39000
C  2.59400 7.36200 22.95100
C  -0.30600 9.83000 23.20200
C  -1.41700 10.46600 24.00300
N  1.44700 9.82300 28.30300
C  1.44300 10.83700 27.41000
C  1.69300 12.12300 28.10300
C  1.74300 11.75700 29.41200
C  1.62900 10.41000 29.54200
C  1.79800 13.35800 27.43100
C  1.95000 12.29500 30.70200
O  2.20400 13.45200 31.03600
C  1.79200 11.16300 31.71400
C  2.81600 11.23100 32.74100
O  3.96700 10.85100 32.52300
O  2.39800 11.85800 33.84600
C  3.51800 12.14800 34.86100
H  1.79600 4.36900 31.03500
H  1.23800 5.12100 24.65900
H  1.33700 11.35500 25.26500
H  2.04300 8.48800 33.30400
H  0.77700 5.87900 33.00400
H  3.60600 5.87800 32.28700
H  2.58300 5.15000 33.57700
H  3.40700 6.74900 33.77800
H  -0.78100 7.32200 33.27200
H  -0.73800 8.83600 32.41600
H  -1.53500 8.45100 34.95300
H  -0.78400 9.88900 34.41600
H  1.80700 1.63800 28.77500
H  0.28600 2.02800 29.63100
H  1.92100 2.50400 30.21800
H  1.40800 0.63300 26.90300
H  0.26700 0.46200 25.66500
H  -0.29300 1.23900 27.06700
H  0.50200 7.09700 23.14200
H  1.86400 9.75900 23.56800
H  3.28200 6.90900 23.66400
H  3.00800 8.27100 22.51400
H  2.43600 6.60300 22.18500
H  -0.67800 9.02400 22.57000
H  -0.01700 10.65800 22.55500
H  -1.09900 10.31500 25.03400
H  -2.33400 9.88000 23.94700
H  -1.59800 11.51300 23.76000
H  0.78700 13.76100 27.36400
H  2.24800 13.18900 26.45400
H  2.39700 14.00100 28.07600
H  0.86800 11.41500 32.23400
H  4.43100 12.56000 34.43300
H  3.79400 11.23200 35.38300
H  3.26800 12.82000 35.68100
Mg 0.44300 43.23200 26.40200
C  2.71800 43.50700 29.10800
C  -2.12500 42.75000 28.68800
C  -1.52500 42.96900 23.79800
C  3.16900 43.67000 24.24200
N  0.34000 43.25600 28.62200
C  1.39200 43.36800 29.48500
C  0.83300 43.44000 30.95100
C  -0.64700 42.95400 30.76800
C  -0.86000 43.00100 29.26000
C  -1.07600 41.57600 31.36600
C  0.98000 44.88200 31.56400
C  1.04300 44.97300 33.09200
H  0.75700 43.67100 33.86200
N  -1.43600 42.80800 26.26600
C  -2.36200 42.72600 27.31600
C  -3.72300 42.58600 26.70800
C  -3.57000 42.56700 25.24200
C  -2.15100 42.76200 25.03100
C  -4.95400 42.36000 27.66500
C  -4.66500 42.50900 24.25600
O  -4.48600 42.46700 23.04300
C  -6.09600 42.61800 24.67000
N  0.86200 42.93900 24.19800
C  -0.18500 43.09500 23.37600
C  0.24000 43.14000 21.88800
C  1.73600 43.67000 22.02600
C  1.97400 43.41000 23.53100
C  -0.05100 41.79900 21.17100
C  1.97900 45.17100 21.71900
C  3.24000 45.58700 20.97200
N  2.46500 43.45400 26.64100
C  3.44200 43.56600 25.61900
C  4.76300 43.67100 26.27300
C  4.53600 43.61100 27.63900
C  3.09200 43.56900 27.79700
C  6.03800 44.02600 25.59300
C  5.11100 43.57300 28.89500
O  6.27500 43.52900 29.17900
C  3.96600 43.42700 29.94100
C  4.22100 42.10900 30.73100
O  4.32400 40.95800 30.26100
O  4.24000 42.41100 32.08200
C  4.23500 41.32500 33.02600
H  -2.98600 42.50000 29.31000
H  -2.24400 42.81700 22.99000
H  4.08000 43.84100 23.66500
H  1.39000 42.76000 31.59500
H  -1.36000 43.61300 31.26400
H  -1.94800 41.63700 32.01700
H  -0.22100 41.21300 31.93700
H  -1.32900 41.00900 30.47000
H  0.19300 45.39700 31.01300
H  1.93800 45.20200 31.15600
H  0.37700 45.74200 33.48400
H  2.00400 45.38700 33.39800
H  -5.89500 42.42800 27.11900
H  -4.99200 43.14600 28.42000
H  -4.91000 41.40300 28.18500
H  -6.77700 42.75500 23.83100
H  -6.18100 43.46100 25.35600
H  -6.29300 41.77300 25.33000
H  -0.51700 43.77900 21.43300
H  2.44900 43.01400 21.52700
H  -0.44900 41.95000 20.16800
H  -0.74800 41.18900 21.74600
H  0.86900 41.24700 20.97700
H  1.96600 45.77300 22.62800
H  1.08400 45.53700 21.21500
H  3.14000 45.56700 19.88600
H  4.07200 45.02000 21.38800
H  3.52000 46.59400 21.27900
H  6.64100 44.75400 26.13500
H  5.96700 44.53500 24.63200
H  6.71100 43.20300 25.35500
H  4.06900 44.22800 30.67300
H  5.19500 40.84300 32.83900
H  3.45700 40.60400 32.77500
H  4.36000 41.67500 34.05100

