158

Mg 35.06500 3.09500 30.20800
C  32.73400 3.94100 32.63800
C  37.40600 2.98200 32.61300
C  37.26100 2.48200 27.74600
C  32.53000 3.52800 27.73200
N  35.06800 3.40400 32.35500
C  33.97800 3.75400 33.14700
C  34.36000 3.75200 34.63100
C  36.00600 3.76200 34.51200
C  36.19500 3.46300 33.04800
C  36.76200 5.02100 35.04200
C  33.80700 2.55700 35.44000
C  33.45600 2.74700 36.92600
H  34.07500 3.90500 37.73000
N  37.13900 2.68200 30.23200
C  37.93000 2.59100 31.32000
C  39.20900 2.12400 30.98700
C  39.14700 1.91900 29.57200
C  37.80300 2.37200 29.10800
C  40.28800 1.72200 31.98100
C  40.23100 1.52400 28.60200
O  40.06500 1.30900 27.38500
C  41.60800 1.14700 29.14900
N  34.94600 3.17900 28.02800
C  35.97600 2.83000 27.26200
C  35.64800 2.76400 25.77700
C  34.12600 2.98900 25.77400
C  33.84700 3.22400 27.23400
C  36.44400 3.72300 24.89600
C  33.29500 1.81900 25.19000
C  32.88100 0.66000 26.18000
N  33.12500 3.76500 30.16000
C  32.20000 3.84900 29.07700
C  30.91300 4.11400 29.60800
C  31.11000 4.16200 30.97900
C  32.41700 3.91800 31.28800
C  29.66000 4.47900 28.77000
C  30.37600 4.48500 32.23200
O  29.24800 4.92000 32.44000
C  31.40500 4.15100 33.37600
C  31.33900 5.35400 34.26100
O  31.88500 6.40900 34.06900
O  30.69700 5.02600 35.50000
C  30.68700 6.22100 36.42000
H  38.19600 2.83400 33.35200
H  37.92600 2.08900 26.97400
H  31.72600 3.46000 26.99600
H  33.97200 4.70300 34.99600
H  36.52000 2.96500 35.04900
H  37.28900 4.77600 35.96400
H  35.97700 5.73800 35.28100
H  37.56600 5.41500 34.42000
H  34.65300 1.87000 35.45600
H  32.98300 2.06000 34.92800
H  33.71500 1.78600 37.37100
H  32.37600 2.81300 37.05500
H  41.21400 2.27300 31.82000
H  40.48200 0.65300 31.88600
H  39.93900 1.90800 32.99700
H  41.90700 2.02200 29.72600
H  42.31000 1.00700 28.32700
H  41.36900 0.22500 29.67900
H  35.86300 1.71100 25.59500
H  33.73800 3.90000 25.31800
H  35.91400 4.41100 24.23700
H  37.13300 3.20700 24.22700
H  37.11600 4.36600 25.46400
H  33.95000 1.52200 24.37000
H  32.34500 2.25100 24.87700
H  31.91900 0.26200 25.85400
H  32.88400 0.82500 27.25700
H  33.59100 -0.14500 25.98800
H  29.72200 5.52100 28.45400
H  28.91900 4.43000 29.56800
H  29.56600 3.69900 28.01400
H  31.11000 3.28100 33.96300
H  30.37800 7.22300 36.12100
H  31.62300 6.19600 36.97700
H  29.82100 6.07900 37.06700
Mg 30.13600 57.63600 40.90300
C  27.13800 56.14400 39.91200
C  31.83200 55.14000 39.26300
C  32.71500 59.67000 40.63700
C  28.20700 60.26200 42.16100
N  29.61400 55.87500 39.70000
C  28.26300 55.47600 39.36800
C  28.31100 54.26400 38.44600
C  29.83700 53.76300 38.61000
C  30.48600 54.96300 39.23100
C  30.09300 52.62000 39.59100
C  27.88200 54.68900 37.00800
C  26.70500 53.84700 36.51400
H  26.48600 53.88900 35.00300
N  32.02100 57.38400 40.09700
C  32.61600 56.24700 39.57300
C  33.99700 56.41800 39.55900
C  34.27700 57.79300 39.97900
C  32.95900 58.34300 40.33500
C  34.93200 55.45700 38.99200
C  35.66000 58.40200 39.87600
O  36.59700 57.71700 39.59300
C  35.93900 59.91100 40.12100
N  30.39500 59.76300 41.17600
C  31.52700 60.38300 41.00200
C  31.45900 61.89900 41.42600
C  30.16900 61.95400 42.22800
C  29.51600 60.61500 41.79900
C  32.63300 62.42600 42.22500
C  29.29800 63.17300 41.71000
C  28.31700 63.77900 42.66900
N  28.08100 58.10300 41.21600
C  27.43700 59.15900 41.83100
C  26.02300 58.98100 41.77600
C  25.87200 57.78400 41.08200
C  27.15400 57.32100 40.71400
C  24.98000 59.87100 42.37800
C  24.87800 56.81300 40.60300
O  23.69700 56.78300 40.87400
C  25.72500 55.67900 39.80800
C  25.34000 54.37100 40.34800
O  25.82800 53.81700 41.32300
O  24.39200 53.81500 39.52900
C  23.94800 52.47800 39.90000
H  32.36200 54.26400 38.88300
H  33.57200 60.32200 40.46100
H  27.68400 61.03100 42.73300
H  27.63600 53.47800 38.78600
H  30.25700 53.63700 37.61200
H  30.63400 51.84200 39.05200
H  29.24800 52.03100 39.94600
H  30.75500 52.83400 40.43000
H  28.71500 54.42100 36.35800
H  27.69200 55.75800 36.91400
H  25.86000 54.28700 37.04300
H  26.98500 52.82200 36.75900
H  35.49000 55.77500 38.11100
H  34.46300 54.48800 38.82000
H  35.69300 55.29600 39.75600
H  35.55700 60.24400 41.08600
H  35.34200 60.41000 39.35800
H  36.94300 60.30800 39.97200
H  31.33200 62.50600 40.53000
H  30.09300 61.88400 43.31300
H  33.47900 61.78300 41.98500
H  32.36200 62.55100 43.27300
H  32.83100 63.37100 41.71900
H  28.71900 62.89700 40.82800
H  30.01200 63.93400 41.39800
H  28.46200 63.49700 43.71200
H  27.30800 63.60300 42.29700
H  28.45900 64.85900 42.65700
H  24.90800 60.86900 41.94500
H  25.24900 59.93700 43.43200
H  24.03000 59.39800 42.13100
H  25.45800 55.42400 38.78200
H  24.34800 51.78900 39.15500
H  22.85900 52.51700 39.90100
H  24.15000 52.07300 40.89200

