158

Mg 47.16100 25.50100 28.82400
C  47.76400 27.86600 31.34200
C  45.95700 23.31500 31.21500
C  46.80300 23.26100 26.45300
C  48.74600 27.75600 26.60200
N  46.73100 25.63700 31.02600
C  47.10200 26.69100 31.87500
C  46.90000 26.31100 33.32200
C  46.40700 24.80800 33.17200
C  46.29000 24.61800 31.67500
C  47.30400 23.76600 33.90600
C  45.86800 27.18000 34.07400
C  45.58700 26.73100 35.54300
H  45.71600 27.79400 36.63500
N  46.35900 23.62000 28.78500
C  45.95900 22.85700 29.86300
C  45.52500 21.53000 29.40600
C  45.61200 21.57300 28.03200
C  46.24200 22.87900 27.67600
C  44.89400 20.45500 30.32500
C  45.44600 20.45700 26.94200
O  45.40400 20.76500 25.75100
C  45.22200 19.05500 27.26100
N  47.61600 25.56200 26.86300
C  47.36600 24.49100 26.12700
C  47.91100 24.68300 24.65800
C  48.21800 26.23000 24.60100
C  48.12000 26.58900 26.08700
C  49.12100 23.78000 24.25300
C  47.11500 27.01700 23.90700
C  45.63100 26.83600 24.36100
N  48.06900 27.39300 28.91200
C  48.69700 28.14100 27.91400
C  49.33500 29.31700 28.48400
C  48.98500 29.26900 29.83300
C  48.16700 28.07900 30.03800
C  50.10800 30.32700 27.71000
C  49.03300 29.86400 31.15100
O  49.62300 30.87400 31.55100
C  48.27400 29.02900 32.15100
C  49.22000 28.57700 33.15700
O  50.14600 27.83900 33.04600
O  48.76400 29.02100 34.37600
C  49.67900 28.77700 35.45700
H  45.68500 22.55100 31.94600
H  46.79500 22.60200 25.58200
H  49.19200 28.37900 25.82300
H  47.80900 26.33100 33.92200
H  45.39100 24.85100 33.56400
H  48.08900 24.29200 34.44900
H  47.72300 23.03100 33.21800
H  46.66500 23.24200 34.61800
H  44.94600 27.10100 33.49700
H  46.18600 28.22000 34.00000
H  46.27800 25.89600 35.66200
H  44.57800 26.31800 35.52500
H  44.91500 20.75500 31.37200
H  45.48800 19.55700 30.15300
H  43.88700 20.17300 30.01700
H  46.23100 18.76600 27.55400
H  44.85600 18.56900 26.35600
H  44.47900 18.99000 28.05500
H  47.02600 24.49100 24.05000
H  49.17500 26.34600 24.09100
H  49.25300 22.90000 24.88100
H  50.07100 24.31000 24.17400
H  48.99900 23.29500 23.28400
H  47.18100 26.65300 22.88200
H  47.33200 28.08400 23.87000
H  45.08400 26.46300 23.49500
H  45.24800 27.82700 24.60400
H  45.38000 26.16300 25.18100
H  49.52300 30.73500 26.88600
H  51.08300 29.91000 27.45700
H  50.32300 31.17500 28.36100
H  47.31700 29.43100 32.48400
H  50.63900 29.27000 35.30200
H  49.74300 27.71900 35.70900
H  49.20100 29.20100 36.34000
Mg 48.65000 44.55900 43.06800
C  45.28300 43.90000 43.11100
C  49.13100 41.30600 42.30800
C  51.94900 45.16600 42.57300
C  48.00200 47.94500 42.89000
N  47.31100 42.78800 42.83700
C  45.98400 42.70900 42.90000
C  45.51400 41.29100 42.70500
C  46.77000 40.39400 42.68400
C  47.81200 41.54200 42.53000
C  46.91500 39.57200 44.01900
C  44.69300 41.13800 41.41000
C  45.04100 42.03900 40.16000
H  45.88200 41.36000 39.07200
N  50.31900 43.39200 42.51700
C  50.31800 42.03700 42.28900
C  51.67400 41.54600 42.24500
C  52.54600 42.61300 42.28300
C  51.61900 43.79500 42.40100
C  51.98700 40.00000 42.18900
C  54.04500 42.62400 42.30300
O  54.68800 41.58100 42.19700
C  54.91000 43.73600 42.54500
N  49.82500 46.24700 42.71500
C  51.15200 46.28000 42.66000
C  51.72400 47.72400 42.68600
C  50.46900 48.58900 42.92500
C  49.32800 47.57900 42.82200
C  52.91500 47.86100 43.71600
C  50.28800 49.79300 41.90000
C  49.84700 51.13300 42.52200
N  47.01100 45.73200 43.00400
C  46.85500 47.09700 43.00600
C  45.52000 47.45900 43.33500
C  44.89800 46.26900 43.41300
C  45.82900 45.21400 43.15500
C  44.93100 48.82500 43.34700
C  43.53700 45.67700 43.53100
O  42.42400 46.22400 43.63200
C  43.78600 44.06900 43.40200
C  43.19500 43.31200 44.59000
O  41.97300 42.97500 44.56400
O  44.18200 42.96500 45.47400
C  43.72400 42.16300 46.57200
H  49.33300 40.25500 42.08900
H  53.00900 45.39200 42.43600
H  47.78700 49.01500 42.92300
H  44.90700 41.15500 43.59900
H  46.90200 39.65600 41.89300
H  47.83200 39.78200 44.56900
H  46.87000 38.50700 43.79300
H  46.10400 39.85200 44.69100
H  43.62400 41.17500 41.62000
H  44.78600 40.09600 41.10500
H  45.52100 42.97500 40.44500
H  44.09300 42.33200 39.70900
H  52.08000 39.56200 41.19500
H  51.22100 39.40900 42.69200
H  52.89500 39.76500 42.74400
H  54.96100 44.30400 41.61600
H  55.93600 43.43800 42.75800
H  54.53700 44.36700 43.35200
H  52.05600 48.04900 41.70000
H  50.46600 49.04400 43.91500
H  52.88000 48.84300 44.18800
H  53.85600 47.68800 43.19400
H  52.84500 47.07900 44.47300
H  49.63000 49.47200 41.09200
H  51.30900 50.05200 41.62100
H  49.13200 51.51500 41.79300
H  50.67400 51.83900 42.60500
H  49.44500 51.03000 43.53000
H  45.49100 49.32100 44.13900
H  43.89800 48.88200 43.69100
H  45.21200 49.38400 42.45400
H  43.23200 43.63500 42.56900
H  43.00400 42.72700 47.16500
H  44.65700 41.87100 47.05500
H  43.29900 41.24900 46.15700

