158

Mg 46.24000 24.81400 28.61800
C  47.10400 27.24000 31.14200
C  45.63300 22.58200 31.11100
C  45.52800 22.54600 26.32000
C  47.64100 26.87800 26.32000
N  46.15900 25.01300 30.85700
C  46.58200 26.06100 31.60100
C  46.33300 25.83000 33.07200
C  46.00200 24.26700 33.09500
C  45.97100 23.88000 31.61400
C  46.99000 23.45700 34.01800
C  45.16100 26.77600 33.56500
C  45.30600 27.49400 34.87700
H  45.73800 26.70600 36.15300
N  45.63900 22.87800 28.70700
C  45.41400 22.09800 29.80200
C  44.98400 20.87000 29.44800
C  44.67800 20.88300 28.11900
C  45.25200 22.16000 27.61000
C  44.95600 19.68900 30.46500
C  43.97900 19.87200 27.36900
O  43.55600 20.15500 26.25000
C  43.66500 18.53600 27.94200
N  46.66700 24.64900 26.60300
C  46.29800 23.63100 25.79000
C  46.54200 23.86000 24.36000
C  47.13400 25.32100 24.37200
C  47.21600 25.63500 25.88200
C  47.40100 22.73700 23.60800
C  46.25900 26.29900 23.49400
C  45.20900 27.20700 24.14100
N  47.07000 26.70600 28.63700
C  47.65000 27.39100 27.60900
C  48.07100 28.56700 28.13900
C  47.93900 28.55600 29.50600
C  47.27700 27.41500 29.77200
C  48.70100 29.71100 27.34100
C  48.25800 29.25400 30.74300
O  48.80500 30.32500 30.95800
C  47.59000 28.51000 31.85200
C  48.55700 28.30900 32.89700
O  49.52300 27.57000 32.87100
O  48.22800 29.22300 33.87700
C  48.95700 28.98200 35.17900
H  45.36500 21.87800 31.90100
H  45.08700 21.77000 25.69100
H  48.11000 27.50600 25.56000
H  47.32800 26.12500 33.40500
H  45.00200 24.01400 33.44800
H  47.62100 24.14500 34.58000
H  47.63200 22.90000 33.33500
H  46.47400 22.66500 34.56100
H  44.33900 26.12900 33.87200
H  44.90600 27.51100 32.80200
H  44.38600 28.05200 35.05000
H  46.19200 28.05400 34.58000
H  45.52500 18.87400 30.01700
H  43.93400 19.38700 30.69600
H  45.40800 19.81500 31.44900
H  43.22300 17.89100 27.18200
H  42.97200 18.66500 28.77400
H  44.52000 17.92200 28.22300
H  45.59200 23.89200 23.82600
H  48.19200 25.25300 24.11900
H  48.44900 22.99700 23.45900
H  47.03500 22.79400 22.58300
H  47.35900 21.73200 24.02700
H  45.89100 25.77000 22.61500
H  47.02700 26.99800 23.16500
H  45.16000 27.05800 25.21900
H  44.16900 27.11000 23.82800
H  45.52400 28.24000 23.99000
H  48.20200 29.65300 26.37400
H  49.76900 29.53500 27.21200
H  48.38200 30.67500 27.73700
H  46.73400 29.01900 32.29400
H  48.94500 29.89900 35.76700
H  50.02000 28.74200 35.16100
H  48.32500 28.27600 35.71700
Mg -5.76600 25.66100 25.81100
C  -4.10600 26.71000 28.64300
C  -7.56500 23.54900 27.62400
C  -7.01200 24.51400 22.90500
C  -3.54200 27.74200 23.86400
N  -5.60400 24.96700 27.91100
C  -5.06600 25.69200 28.89600
C  -5.47800 25.27000 30.29000
C  -6.52100 24.17000 29.88800
C  -6.64200 24.28400 28.34100
C  -6.26200 22.72000 30.39000
C  -6.31500 26.47700 30.89100
C  -6.19400 26.60000 32.43400
H  -6.05500 25.46000 33.38400
N  -7.20100 24.23700 25.33200
C  -7.86600 23.47500 26.25200
C  -8.69100 22.53800 25.54900
C  -8.68500 22.88100 24.09500
C  -7.53800 23.89300 24.02000
C  -9.47700 21.50100 26.37200
C  -9.48100 22.38500 22.88300
O  -9.28900 22.80200 21.76000
C  -10.67200 21.44100 23.01300
N  -5.35300 26.09600 23.61900
C  -5.97100 25.42200 22.64900
C  -5.44800 25.76700 21.27300
C  -4.45300 26.90400 21.59400
C  -4.45600 26.91300 23.11300
C  -4.62100 24.54900 20.75700
C  -4.77200 28.35100 20.96000
C  -3.57200 28.96200 20.23000
N  -4.06700 26.83600 26.10900
C  -3.37300 27.76200 25.26900
C  -2.41800 28.57400 26.06300
C  -2.66200 28.11600 27.38300
C  -3.67000 27.15100 27.36700
C  -1.47900 29.57700 25.49600
C  -2.13500 28.22400 28.66600
O  -1.31800 28.97100 29.14400
C  -3.10400 27.29200 29.55000
C  -2.26500 26.26400 30.28300
O  -1.59400 25.38600 29.74500
O  -2.20100 26.74200 31.60300
C  -1.00300 26.20500 32.35800
H  -8.06700 22.85600 28.30200
H  -7.41300 24.08300 21.98500
H  -2.74700 28.35700 23.43800
H  -4.65900 25.06400 30.97900
H  -7.50600 24.49600 30.22300
H  -7.08600 22.47400 31.05900
H  -5.34300 22.63200 30.97000
H  -6.13000 22.10500 29.50000
H  -7.35300 26.49500 30.55800
H  -5.85500 27.36700 30.46000
H  -7.00700 27.24300 32.77300
H  -5.32100 27.24300 32.54700
H  -9.29800 20.49100 26.00400
H  -10.48000 21.92800 26.38100
H  -9.12900 21.46700 27.40400
H  -10.99900 21.21200 21.99900
H  -11.38800 21.99900 23.61500
H  -10.35000 20.53400 23.52500
H  -6.29800 26.09900 20.67700
H  -3.41200 26.60400 21.47400
H  -4.13100 24.08500 21.61400
H  -3.84700 24.86100 20.05600
H  -5.24100 23.85600 20.18800
H  -4.91700 28.95200 21.85700
H  -5.68100 28.29000 20.36200
H  -2.93100 28.16500 19.85400
H  -2.91400 29.49200 20.91800
H  -3.77700 29.67000 19.42600
H  -1.95000 30.55200 25.37400
H  -1.14300 29.32800 24.49000
H  -0.67900 29.75800 26.21400
H  -3.65600 28.01800 30.14800
H  -0.34500 27.06800 32.25800
H  -0.73100 25.25800 31.89200
H  -1.28100 26.03000 33.39800

