158

Mg 44.25100 5.41400 46.95600
C  42.16200 8.22400 46.93300
C  41.55200 3.52700 46.24200
C  46.22000 2.86400 46.44300
C  47.01400 7.62700 46.79000
N  42.10100 5.84200 46.69700
C  41.48400 7.06500 46.73400
C  39.97200 6.98000 46.49000
C  39.76700 5.39400 46.43600
C  41.20200 4.86700 46.41900
C  38.78300 4.75900 47.41400
C  39.31200 7.73100 45.26600
C  40.32800 7.88400 44.03200
H  39.72000 7.63800 42.62800
N  43.89600 3.39600 46.41700
C  42.69000 2.80300 46.14800
C  42.86900 1.45300 45.77100
C  44.28900 1.18900 46.00600
C  44.90600 2.49400 46.26000
C  41.82400 0.55300 45.30800
C  44.92500 -0.15400 45.97900
O  44.38700 -1.16600 45.62400
C  46.26800 -0.37400 46.56300
N  46.27900 5.31600 46.43300
C  46.86500 4.05900 46.50900
C  48.45700 4.05500 46.60500
C  48.64300 5.59600 46.93400
C  47.19800 6.24800 46.70700
C  49.11100 3.11900 47.70600
C  49.79100 6.37200 46.19700
C  50.55500 7.34600 47.13500
N  44.59200 7.56200 46.89400
C  45.78600 8.27900 46.89300
C  45.45700 9.73600 46.96100
C  44.02700 9.73400 46.95900
C  43.57300 8.38200 46.94400
C  46.42800 10.87400 46.80200
C  42.82100 10.57200 47.06800
O  42.72400 11.78300 47.28800
C  41.57500 9.61200 47.01900
C  40.96300 9.88300 48.33000
O  41.31000 9.35800 49.36300
O  39.74700 10.60200 48.20000
C  38.92100 10.62500 49.41900
H  40.64600 2.96700 46.00100
H  46.87300 1.99000 46.39900
H  47.90800 8.25400 46.81800
H  39.51400 7.24100 47.44400
H  39.38100 5.17500 45.44100
H  39.18000 3.94000 48.01400
H  38.03600 4.25000 46.80700
H  38.25500 5.49100 48.02600
H  38.97100 8.71900 45.57400
H  38.48100 7.10400 44.94500
H  41.12800 7.16100 44.19200
H  40.82500 8.84800 43.92100
H  41.03900 1.02000 44.71400
H  41.27400 0.01500 46.08000
H  42.26300 -0.20900 44.66400
H  46.41000 -1.41200 46.86300
H  46.19400 0.20400 47.48500
H  47.05100 -0.10300 45.85500
H  48.76000 3.74500 45.60500
H  48.85900 5.73400 47.99400
H  48.35100 2.54400 48.23600
H  49.58300 3.72200 48.48200
H  49.87100 2.42200 47.35600
H  49.27100 6.98400 45.46000
H  50.50300 5.67500 45.75200
H  51.49400 6.86600 47.41200
H  49.99200 7.70400 47.99700
H  50.82000 8.15000 46.44900
H  47.12100 10.64200 47.61100
H  46.15400 11.92600 46.87800
H  46.90800 10.72800 45.83400
H  40.86400 9.78000 46.21100
H  39.03000 11.64400 49.79200
H  38.93400 9.75900 50.08000
H  37.92000 10.61200 48.98800
Mg 49.04100 46.08300 42.82700
C  45.77400 46.30100 41.34100
C  49.44900 43.18500 40.99700
C  52.31000 46.33800 43.26400
C  48.67100 49.52100 43.79300
N  47.71400 45.01600 41.21500
C  46.41100 45.24400 40.85100
C  45.86800 44.23000 39.87900
C  46.97600 43.13400 40.00700
C  48.08800 43.74500 40.80900
C  46.43600 41.73800 40.50300
C  45.65300 44.74400 38.39300
C  44.26500 44.87900 37.80500
H  44.04200 44.45600 36.31100
N  50.56600 44.81100 42.49800
C  50.54700 43.69600 41.67500
C  51.85800 43.05300 41.69700
C  52.69000 43.84400 42.57300
C  51.86200 45.03200 42.83000
C  52.19500 41.82900 40.92400
C  54.06900 43.49300 43.06600
O  54.60800 42.44900 42.69900
C  54.77600 44.36500 44.13500
N  50.34500 47.63700 43.55500
C  51.71900 47.51500 43.61100
C  52.40800 48.74000 44.13600
C  51.17400 49.67300 44.41300
C  49.97700 48.99200 43.78400
C  53.44500 48.65400 45.32600
C  51.36400 51.16400 43.99100
C  51.01400 52.25100 44.98700
N  47.52600 47.51400 42.81600
C  47.55200 48.82400 43.28200
C  46.23700 49.43000 43.06400
C  45.49500 48.37800 42.48400
C  46.29000 47.29800 42.21400
C  45.94100 50.85500 43.33800
C  44.08100 48.05500 41.91600
O  43.04900 48.69100 41.97600
C  44.24200 46.69900 41.17600
C  43.33100 45.75100 41.81700
O  43.56000 45.16000 42.86300
O  42.19200 45.69200 41.03300
C  40.96000 45.27200 41.65200
H  49.50400 42.15800 40.63100
H  53.39700 46.42400 43.32500
H  48.51400 50.58000 44.00800
H  44.90900 43.89200 40.27000
H  47.34700 42.96700 38.99600
H  45.35000 41.68200 40.43200
H  46.70300 41.55600 41.54400
H  46.94800 40.98900 39.89900
H  46.22900 44.09500 37.73400
H  46.15600 45.70900 38.33500
H  43.91400 45.90700 37.89500
H  43.52800 44.34800 38.40800
H  52.66700 41.14400 41.62900
H  53.01400 41.93200 40.21200
H  51.31400 41.45200 40.40500
H  55.49300 45.07000 43.71300
H  55.26000 43.60000 44.74200
H  53.98800 44.81100 44.74100
H  52.95700 49.11700 43.27300
H  51.07000 49.61900 45.49600
H  54.40800 48.80700 44.83900
H  53.45400 47.61900 45.66900
H  53.26900 49.31000 46.17800
H  50.75800 51.49500 43.14700
H  52.40700 51.27700 43.69400
H  51.95400 52.59500 45.41800
H  50.42800 51.92900 45.84800
H  50.43000 53.12200 44.69000
H  46.60500 51.61300 42.92400
H  46.21300 51.06800 44.37200
H  44.91200 51.12500 43.10000
H  43.91000 46.79800 40.14200
H  40.30500 46.12600 41.82200
H  41.08000 44.91200 42.67400
H  40.31500 44.50900 41.21600

