158

Mg 46.09100 4.54500 47.86200
C  43.78800 7.34900 47.46600
C  43.37100 2.51600 46.81600
C  48.26000 2.01800 47.38000
C  48.60900 6.82400 48.17700
N  43.83700 4.91300 47.27300
C  43.19900 6.09500 47.16200
C  41.70800 5.94300 46.77900
C  41.59700 4.35100 46.61400
C  42.97100 3.86700 46.94500
C  40.49000 3.74200 47.47500
C  41.26700 6.79600 45.52700
C  42.25500 6.92200 44.31200
H  41.55800 6.94100 42.94800
N  45.83300 2.52600 47.38000
C  44.62200 1.90600 47.03100
C  44.94600 0.51600 46.75100
C  46.32600 0.31200 47.02200
C  46.88300 1.61700 47.34000
C  43.94700 -0.51400 46.21400
C  47.01200 -0.98000 46.75000
O  46.42900 -1.98000 46.43800
C  48.51400 -1.01300 46.70900
N  48.11300 4.35900 47.80300
C  48.83000 3.22500 47.76000
C  50.32200 3.50600 47.80400
C  50.38300 5.03500 47.99000
C  48.95300 5.48200 48.01600
C  50.95900 2.60700 48.96200
C  51.03900 5.86500 46.83500
C  52.09800 6.82100 47.37300
N  46.22100 6.62600 47.82300
C  47.32500 7.40000 48.01000
C  46.96400 8.80500 48.00800
C  45.58900 8.86000 47.81600
C  45.20000 7.47400 47.71800
C  47.90900 9.86200 48.28300
C  44.49700 9.73500 47.74500
O  44.38400 10.98000 47.76000
C  43.27500 8.76400 47.48900
C  42.26300 9.05800 48.47900
O  42.08200 8.22900 49.41100
O  41.54800 10.19000 48.25900
C  40.52100 10.46500 49.26000
H  42.59300 1.85400 46.43200
H  49.02500 1.26100 47.19400
H  49.40300 7.57300 48.17800
H  41.12300 6.43200 47.55800
H  41.49600 4.12100 45.55400
H  39.70200 4.46000 47.70100
H  40.89000 3.22700 48.34800
H  40.06100 2.96900 46.83700
H  40.84300 7.75600 45.82100
H  40.32900 6.38500 45.15300
H  42.94700 6.08200 44.36700
H  42.88100 7.81100 44.22400
H  44.16700 -0.72600 45.16800
H  42.90700 -0.18900 46.23200
H  44.03000 -1.44600 46.77300
H  48.92400 -0.79900 47.69600
H  48.95400 -0.27900 46.03500
H  48.97700 -1.94700 46.39000
H  50.79800 3.26100 46.85400
H  50.79800 5.36500 48.94200
H  51.58200 3.30800 49.51800
H  51.76700 2.05500 48.48200
H  50.34300 1.94700 49.57400
H  50.35500 6.40900 46.18400
H  51.65600 5.12000 46.33200
H  53.09900 6.66500 46.97100
H  52.23400 6.90100 48.45100
H  51.92300 7.84600 47.04600
H  48.36800 9.74700 49.26500
H  47.50700 10.86000 48.11100
H  48.72500 9.94100 47.56600
H  42.85200 9.05000 46.52600
H  40.47500 11.53500 49.45800
H  40.65600 10.02800 50.25000
H  39.54800 10.11900 48.91100
Mg 16.58900 52.37500 25.81600
C  18.19500 50.80600 28.54100
C  14.01900 53.24600 27.83000
C  15.00300 53.47300 23.07000
C  18.87300 50.65400 23.71200
N  16.14800 52.03500 27.94800
C  17.04600 51.54100 28.88800
C  16.49500 51.83400 30.33500
C  14.99300 52.31600 30.04200
C  15.01000 52.49700 28.51400
C  13.96300 51.25900 30.52900
C  17.48000 52.79900 31.18800
C  17.65900 52.55000 32.71200
H  16.43500 51.93300 33.41300
N  14.84200 53.35700 25.49400
C  13.89600 53.54400 26.45800
C  12.74100 54.26100 25.93500
C  12.95300 54.40900 24.51900
C  14.27500 53.70600 24.27800
C  11.51200 54.57400 26.65000
C  12.09900 55.09100 23.45300
O  12.49200 55.14700 22.31100
C  10.73500 55.74000 23.78800
N  16.86400 51.93600 23.63300
C  16.09900 52.72500 22.78900
C  16.60800 52.49200 21.36600
C  17.85000 51.63000 21.57100
C  17.88600 51.33400 23.07500
C  15.44900 51.87600 20.49000
C  19.14100 52.26400 20.88400
C  20.13300 53.05400 21.72500
N  18.18400 50.97700 26.04300
C  19.04400 50.46300 25.08400
C  20.13100 49.72900 25.77800
C  19.78800 49.78700 27.13300
C  18.63500 50.58100 27.22800
C  21.19700 48.91300 25.17400
C  20.10500 49.30600 28.48900
O  20.98100 48.56100 28.82500
C  19.15800 50.08300 29.47100
C  18.71100 49.25300 30.58800
O  17.83500 48.39800 30.49600
O  19.37500 49.54100 31.76600
C  19.00700 48.76800 32.92100
H  13.19100 53.68600 28.39100
H  14.54800 53.92600 22.18600
H  19.59300 50.20800 23.02300
H  16.54900 50.96400 30.98800
H  14.73200 53.29000 30.45500
H  14.33000 50.23400 30.58800
H  13.11200 51.31800 29.85100
H  13.49300 51.60100 31.45200
H  17.11100 53.80900 31.01000
H  18.48600 52.88600 30.77800
H  17.80700 53.52500 33.17700
H  18.59300 52.09100 33.03500
H  11.03400 55.50300 26.34000
H  11.73100 54.78900 27.69600
H  10.99800 53.61300 26.64600
H  10.28000 56.16400 22.89300
H  10.71900 56.59500 24.46300
H  10.04900 54.99800 24.19600
H  16.91100 53.44100 20.92300
H  17.63600 50.66700 21.10800
H  14.51000 51.76800 21.03200
H  15.75100 50.87100 20.19500
H  15.32200 52.48300 19.59300
H  18.90500 52.95100 20.07100
H  19.72600 51.46100 20.43600
H  19.78600 53.24000 22.74100
H  20.15600 54.05100 21.28600
H  21.15500 52.67600 21.72600
H  20.59900 48.08300 24.80000
H  21.98900 48.65900 25.87900
H  21.52800 49.61500 24.40900
H  19.76400 50.81500 30.00600
H  17.93700 48.61300 33.05800
H  19.39900 49.32100 33.77500
H  19.36100 47.73800 32.97800

