158

Mg 47.75000 16.68200 28.98100
C  45.74800 16.50300 32.01100
C  49.95400 18.63100 30.86800
C  49.41700 17.20100 26.26000
C  45.23700 14.96700 27.28800
N  47.77500 17.60100 31.20800
C  46.93400 17.20500 32.24900
C  47.60300 17.51600 33.65700
C  48.91200 18.33400 33.26400
C  48.98200 18.08900 31.71700
C  48.85100 19.80400 33.70800
C  47.86500 16.18600 34.54900
C  47.36500 16.19900 35.96500
H  47.12300 17.53900 36.70900
N  49.41600 17.80100 28.55100
C  50.21300 18.46400 29.44900
C  51.41600 18.85600 28.78600
C  51.37400 18.41100 27.39100
C  49.98700 17.77700 27.34000
C  52.67400 19.44100 29.48500
C  52.36700 18.57500 26.25200
O  52.29900 18.17700 25.04500
C  53.63900 19.33400 26.58000
N  47.23700 16.34000 27.03100
C  48.17400 16.57500 26.03500
C  47.53300 16.18800 24.71300
C  46.43500 15.13400 25.08800
C  46.21000 15.51200 26.50400
C  47.07100 17.47800 24.01400
C  46.93400 13.61000 24.90000
C  45.95500 12.80700 23.90200
N  45.82700 15.94800 29.52000
C  44.96000 15.25700 28.71200
C  43.88500 14.75900 29.50400
C  44.05400 15.30600 30.79600
C  45.26600 15.97700 30.75300
C  42.69000 14.02300 28.95200
C  43.57100 15.44000 32.08500
O  42.52300 14.96900 32.47500
C  44.66400 16.21000 32.97500
C  43.89800 17.32500 33.54900
O  43.46700 18.27900 32.91800
O  43.64000 17.10700 34.89500
C  42.82000 18.03600 35.67800
H  50.69800 19.13600 31.48800
H  50.16800 17.12200 25.47100
H  44.51500 14.33800 26.76200
H  46.99100 18.19600 34.25000
H  49.79600 17.90100 33.73200
H  47.87300 20.03500 34.13100
H  48.94600 20.57600 32.94400
H  49.60300 19.98600 34.47600
H  48.90500 15.88400 34.41900
H  47.32500 15.35700 34.09300
H  48.04400 15.67000 36.63400
H  46.46300 15.60200 36.10100
H  53.00200 20.38100 29.04100
H  53.47800 18.71800 29.34600
H  52.52700 19.57800 30.55600
H  54.34300 19.24700 25.75200
H  54.23600 18.89700 27.38100
H  53.35300 20.36800 26.76800
H  48.30400 15.76900 24.06600
H  45.62300 15.22800 24.36600
H  45.99700 17.59000 24.16500
H  47.42900 17.61300 22.99400
H  47.43600 18.30000 24.63200
H  46.96500 13.09900 25.86200
H  47.92400 13.63900 24.44400
H  46.30200 12.99600 22.88600
H  44.94100 13.20100 23.97800
H  45.98200 11.73200 24.08300
H  42.82300 13.06800 28.44500
H  42.33500 14.69900 28.17400
H  41.86900 13.87600 29.65400
H  44.87400 15.61700 33.86500
H  42.71800 19.01800 35.21600
H  43.28200 18.13000 36.66000
H  41.77700 17.73300 35.77700
Mg 17.42100 51.88700 25.75700
C  19.06300 50.55000 28.48300
C  15.10300 53.11300 27.85600
C  15.75700 52.72400 23.11300
C  19.93500 50.40400 23.66900
N  17.06200 51.66400 27.90800
C  17.92100 51.21000 28.86600
C  17.40400 51.45900 30.29700
C  16.04100 52.20000 30.07600
C  16.09900 52.41100 28.50400
C  14.69900 51.46200 30.47800
C  18.36600 52.12100 31.39300
C  18.72000 51.37100 32.70300
H  17.82400 51.83100 33.85500
N  15.70600 52.91000 25.46300
C  14.94500 53.35500 26.46000
C  13.77400 54.09100 25.87300
C  13.93400 54.01100 24.47300
C  15.19700 53.25000 24.28900
C  12.77700 54.79300 26.79500
C  13.18800 54.57000 23.29800
O  13.59600 54.45600 22.17900
C  11.83600 55.25300 23.47900
N  17.75800 51.48800 23.65100
C  16.89200 52.07900 22.78100
C  17.33300 51.85200 21.27100
C  18.71300 51.06900 21.52000
C  18.82100 50.98300 23.01500
C  16.34800 50.93600 20.55800
C  19.98900 51.64500 20.80700
C  20.77100 52.91100 21.31300
N  19.18100 50.67600 25.96400
C  20.11200 50.19600 25.02300
C  21.10100 49.45800 25.71300
C  20.79200 49.54000 27.11100
C  19.56500 50.29500 27.15100
C  22.34900 48.76900 25.19100
C  21.21900 49.23300 28.40900
O  22.22600 48.59000 28.75000
C  20.09800 49.85700 29.37400
C  19.42700 48.69600 30.07100
O  18.53300 48.02900 29.66700
O  20.12900 48.45400 31.23800
C  19.49200 47.46300 32.16500
H  14.30300 53.56000 28.44900
H  15.38400 53.01300 22.12800
H  20.76500 50.02400 23.06900
H  17.16700 50.50900 30.77500
H  16.06100 53.24700 30.38100
H  14.08300 52.20500 30.98400
H  14.86800 50.56700 31.07600
H  14.27600 51.17200 29.51600
H  17.88500 53.06400 31.65100
H  19.39200 52.27800 31.06000
H  19.73500 51.48800 33.08300
H  18.46500 50.32800 32.51900
H  12.51800 55.70500 26.25700
H  13.19300 55.14400 27.73900
H  11.88200 54.20300 26.99200
H  11.08600 54.81500 22.81900
H  12.00200 56.29100 23.18800
H  11.45300 55.09800 24.48700
H  17.55600 52.82300 20.82900
H  18.56000 50.06300 21.13000
H  15.40400 50.96800 21.10100
H  16.69700 49.90300 20.53300
H  16.17700 51.19700 19.51400
H  19.73100 51.80600 19.76000
H  20.61500 50.75600 20.87400
H  20.74300 53.69900 20.56000
H  21.79600 52.54900 21.39500
H  20.40700 53.25400 22.28200
H  22.23700 47.72500 25.48300
H  23.21500 49.25800 25.63700
H  22.38700 48.80500 24.10200
H  20.52700 50.52700 30.11900
H  19.67800 46.49400 31.70200
H  18.41800 47.61100 32.27600
H  19.95600 47.42200 33.15000

