158

Mg 8.68500 2.99500 27.69400
C  9.81900 1.60500 30.34500
C  6.76100 5.23000 29.42500
C  7.21500 4.08700 24.65000
C  10.19300 0.44700 25.63800
N  8.16900 3.26000 29.66300
C  8.85500 2.61300 30.63300
C  8.49200 3.22000 32.01200
C  7.45800 4.33400 31.71000
C  7.33100 4.25800 30.19500
C  6.07600 4.19800 32.37000
C  9.83400 3.82400 32.71300
C  10.21500 3.39600 34.12600
H  10.58600 4.40000 35.25700
N  7.25700 4.39800 27.13800
C  6.64800 5.35400 28.01400
C  5.96800 6.34400 27.25600
C  6.04800 5.99100 25.88400
C  6.88900 4.76500 25.87300
C  5.24500 7.49000 27.95100
C  5.36000 6.69100 24.72700
O  5.34800 6.25500 23.59900
C  4.72100 8.07400 24.93200
N  8.59000 2.21800 25.38100
C  8.03200 2.93200 24.42000
C  8.38700 2.47900 23.02200
C  9.45700 1.39400 23.30100
C  9.41800 1.34100 24.84800
C  7.06600 2.04600 22.11300
C  10.78600 1.56600 22.60700
C  10.82700 0.96000 21.16200
N  9.78200 1.21900 27.93800
C  10.37300 0.42100 27.04200
C  11.16100 -0.55100 27.83100
C  11.08400 -0.04700 29.22600
C  10.16900 1.01500 29.13800
C  11.94100 -1.65200 27.31900
C  11.40500 -0.24300 30.63900
O  12.19300 -0.98500 31.21200
C  10.60600 0.86900 31.43600
C  9.84200 0.11700 32.50600
O  8.78800 -0.45600 32.34000
O  10.45000 0.20600 33.76400
C  9.74100 -0.19600 34.93300
H  6.12400 5.86200 30.04800
H  6.95900 4.58100 23.71100
H  10.78600 -0.25300 25.04500
H  8.11500 2.43100 32.66200
H  7.89200 5.30700 31.93900
H  6.10300 3.54300 33.24000
H  5.27600 3.80400 31.74300
H  5.84600 5.21100 32.70000
H  9.83300 4.91300 32.66300
H  10.64000 3.61300 32.01100
H  11.08100 2.74000 34.03800
H  9.42800 2.69600 34.40800
H  5.19200 7.52200 29.03900
H  4.17800 7.45900 27.72800
H  5.58400 8.40900 27.47300
H  5.44800 8.78300 25.32700
H  3.74100 8.00200 25.40400
H  4.51900 8.51600 23.95700
H  8.74600 3.29500 22.39500
H  8.97200 0.46100 23.01200
H  7.12700 1.13400 21.52000
H  6.88300 2.83000 21.37800
H  6.23700 1.94600 22.81400
H  11.48000 1.07200 23.28600
H  10.87500 2.65000 22.67600
H  11.09600 1.84700 20.58900
H  9.87700 0.56600 20.80000
H  11.58500 0.18400 21.05400
H  11.62400 -1.91200 26.30900
H  11.58200 -2.45400 27.96400
H  13.01900 -1.49300 27.31200
H  11.30800 1.58000 31.87100
H  9.86100 0.71600 35.51800
H  10.10800 -1.03100 35.53000
H  8.71500 -0.41900 34.64000
Mg -11.26500 38.00700 42.69500
C  -9.06800 35.40100 41.46800
C  -9.42100 40.19100 40.98600
C  -13.83000 40.00400 42.96700
C  -13.26300 35.32200 44.16400
N  -9.54800 37.74000 41.26100
C  -8.81100 36.61900 40.96700
C  -7.61900 36.97300 40.09900
C  -7.60700 38.57500 40.24600
C  -8.97400 38.89500 40.85600
C  -6.40700 39.13000 41.08400
C  -7.78900 36.46100 38.65400
C  -6.62600 35.60900 38.24200
H  -5.54000 36.26800 37.38200
N  -11.65300 39.88100 42.06400
C  -10.71100 40.66100 41.45700
C  -11.17000 41.97100 41.38800
C  -12.43100 41.99400 42.06600
C  -12.73900 40.59300 42.40900
C  -10.36800 42.96500 40.69200
C  -13.23300 43.21400 42.30200
O  -12.87000 44.34700 41.87500
C  -14.53600 43.14100 43.04000
N  -13.25500 37.65000 43.43600
C  -14.12700 38.70100 43.38100
C  -15.49000 38.28700 43.98200
C  -15.35800 36.72800 44.15900
C  -13.85300 36.52400 43.91000
C  -16.00600 39.11800 45.18500
C  -16.20700 35.81200 43.18700
C  -17.21300 34.86800 43.82000
N  -11.11600 35.85100 42.98100
C  -11.95500 34.94800 43.68800
C  -11.22200 33.64500 43.67400
C  -10.10800 33.78900 42.82800
C  -10.10200 35.13000 42.40200
C  -11.71700 32.49000 44.33900
C  -9.03700 33.05000 42.21300
O  -8.79400 31.82500 42.29500
C  -8.28200 34.08400 41.27300
C  -6.80400 34.02900 41.64000
O  -6.23200 34.83900 42.38700
O  -6.21000 32.98000 41.01000
C  -4.76100 32.75100 41.36100
H  -8.80100 41.03100 40.66600
H  -14.68900 40.67600 43.01800
H  -13.87300 34.52300 44.59100
H  -6.71000 36.55100 40.52700
H  -7.45000 39.08200 39.29400
H  -5.93300 39.78400 40.35200
H  -5.63700 38.42500 41.39800
H  -6.68400 39.73100 41.95000
H  -7.70200 37.33400 38.00800
H  -8.78600 36.04200 38.51600
H  -7.03800 34.70900 37.78400
H  -6.20900 35.18300 39.15500
H  -9.42700 43.19700 41.19000
H  -10.86600 43.91600 40.50200
H  -10.13200 42.69200 39.66300
H  -15.26200 42.66100 42.38300
H  -14.73100 44.18800 43.27300
H  -14.37800 42.67900 44.01500
H  -16.30000 38.38600 43.26000
H  -15.63200 36.38000 45.15500
H  -16.84600 39.63800 44.72500
H  -15.27100 39.86700 45.47900
H  -16.38600 38.49300 45.99200
H  -15.50300 35.22500 42.59600
H  -16.69600 36.37000 42.38800
H  -17.56500 35.37600 44.71900
H  -16.77100 33.92800 44.14800
H  -18.13200 34.79600 43.23900
H  -12.29900 32.49700 45.26100
H  -10.86700 31.96500 44.77500
H  -12.07700 31.66900 43.72100
H  -8.42800 33.78200 40.23600
H  -4.52600 31.73700 41.03600
H  -4.64400 32.89200 42.43500
H  -4.06200 33.47200 40.93700

