158

Mg 0.68900 -2.01800 45.29900
C  4.19100 -1.16100 44.49500
C  -0.30900 0.70000 43.54700
C  -2.41400 -3.24700 45.42600
C  2.04300 -5.18400 46.33800
N  1.83900 -0.50900 44.08200
C  3.21800 -0.25000 43.92900
C  3.46200 1.17600 43.42200
C  2.00100 1.70300 43.15800
C  1.07600 0.56800 43.66600
C  1.71000 3.04700 43.93100
C  4.42100 1.29600 42.14800
C  5.24600 2.68800 42.06000
H  5.41700 3.19300 40.57000
N  -1.16100 -1.36700 44.61600
C  -1.37300 -0.20800 43.93500
C  -2.79800 -0.06900 43.59200
C  -3.44900 -1.26400 44.08600
C  -2.32800 -2.01700 44.72700
C  -3.46300 1.10500 42.82000
C  -4.97100 -1.58300 44.06400
O  -5.74900 -0.83100 43.48100
C  -5.55000 -2.81900 44.75300
N  -0.01300 -3.97800 45.69700
C  -1.41600 -4.08000 45.92100
C  -1.71500 -5.42500 46.62700
C  -0.28800 -6.11900 46.83700
C  0.61500 -5.04200 46.28200
C  -2.58300 -5.35700 47.90900
C  -0.18300 -7.39600 45.96300
C  -0.29500 -8.72200 46.73400
N  2.69800 -2.95700 45.54300
C  3.06500 -4.24600 45.95200
C  4.47500 -4.37600 46.09700
C  5.00400 -3.24200 45.52700
C  3.88400 -2.40100 45.14600
C  5.19100 -5.53200 46.88100
C  6.21300 -2.50600 45.31500
O  7.38300 -2.79900 45.56300
C  5.76800 -1.10300 44.64000
C  6.25400 -0.01400 45.52000
O  6.17800 0.00000 46.71800
O  6.91300 0.97900 44.79500
C  7.53900 2.05400 45.65500
H  -0.62600 1.72700 43.35300
H  -3.38200 -3.70900 45.63000
H  2.20800 -6.16700 46.78400
H  3.80700 1.65700 44.33700
H  1.81800 1.87200 42.09700
H  1.96300 3.79200 43.17600
H  2.41600 3.12000 44.75800
H  0.67200 3.12500 44.25500
H  3.87100 1.36000 41.20900
H  5.10100 0.44500 42.18100
H  6.26300 2.68400 42.45200
H  4.68500 3.43200 42.62500
H  -2.88800 2.03100 42.79500
H  -4.29300 1.56500 43.35600
H  -3.82500 0.74600 41.85700
H  -5.18800 -2.72500 45.77700
H  -5.20900 -3.67700 44.17200
H  -6.63800 -2.84500 44.79600
H  -2.31200 -5.86600 45.82900
H  -0.17700 -6.50400 47.85100
H  -3.22000 -4.47300 47.86800
H  -1.90600 -5.16400 48.74100
H  -3.14400 -6.27200 48.10200
H  0.82000 -7.54600 45.56500
H  -0.87000 -7.43100 45.11700
H  -1.06100 -9.41800 46.39300
H  -0.79000 -8.35000 47.63100
H  0.56000 -9.39500 46.79600
H  5.44300 -5.00500 47.80200
H  6.08800 -5.69200 46.28400
H  4.52600 -6.38100 47.04000
H  6.29900 -0.93700 43.70300
H  8.30600 1.59000 46.27500
H  6.88300 2.63400 46.30400
H  8.08700 2.73900 45.00700
Mg 7.84500 3.18100 28.04400
C  9.23000 1.68600 30.93600
C  5.97000 5.13100 30.19500
C  6.17600 4.31200 25.47700
C  9.30300 0.57300 26.12000
N  7.60900 3.29000 30.22800
C  8.32900 2.69700 31.27800
C  8.20200 3.33900 32.69600
C  6.94700 4.25700 32.37700
C  6.74900 4.13700 30.82900
C  5.61700 3.93200 33.16500
C  9.49300 4.04100 33.14200
C  10.34300 3.48600 34.33400
H  10.70000 4.52100 35.36800
N  6.32300 4.54900 27.82200
C  5.72000 5.31300 28.75400
C  4.84500 6.26600 28.17600
C  4.93600 6.07200 26.77700
C  5.82100 4.92000 26.65300
C  3.90300 7.20200 28.88900
C  4.15800 6.80500 25.61900
O  4.08100 6.35500 24.47200
C  3.70300 8.14000 25.84800
N  7.69400 2.54400 26.11300
C  7.01100 3.23600 25.18400
C  7.13200 2.60200 23.82200
C  8.22300 1.53500 24.04700
C  8.45400 1.53600 25.52900
C  5.81000 2.05500 23.27700
C  9.48200 1.87300 23.26200
C  10.36800 0.70300 22.85500
N  9.03700 1.53700 28.45100
C  9.56200 0.59700 27.53000
C  10.32100 -0.33100 28.37500
C  10.31300 0.09200 29.67100
C  9.49300 1.15400 29.69100
C  11.05300 -1.54300 27.79000
C  10.79500 -0.18400 30.98000
O  11.59400 -1.09200 31.25200
C  10.15800 0.87500 31.85900
C  9.40200 0.07800 32.88400
O  8.51900 -0.73300 32.65500
O  9.98400 0.30300 34.15900
C  9.19300 -0.21800 35.32900
H  5.49400 5.87300 30.84000
H  5.65600 4.70500 24.60200
H  9.76000 -0.22000 25.52600
H  7.84300 2.57200 33.38200
H  7.13900 5.32000 32.51700
H  4.72900 3.71300 32.57200
H  5.31900 4.85100 33.66900
H  5.84000 3.04500 33.75800
H  9.34200 5.10600 33.31800
H  10.09800 3.98100 32.23600
H  11.29500 3.02800 34.06400
H  9.71700 2.78000 34.88100
H  3.55100 6.73000 29.80600
H  2.94000 7.24700 28.38000
H  4.33000 8.15500 29.20200
H  4.51100 8.65100 26.37200
H  2.85200 8.13600 26.52900
H  3.44700 8.58800 24.88800
H  7.56400 3.32700 23.13200
H  7.81900 0.61900 23.61600
H  4.88300 2.41600 23.72300
H  5.84800 0.96700 23.21200
H  5.73000 2.28800 22.21500
H  10.21000 2.43600 23.84700
H  9.26100 2.41100 22.34100
H  10.55200 0.62000 21.78400
H  9.95300 -0.22700 23.24500
H  11.37100 0.82000 23.26500
H  10.54400 -1.89800 26.89400
H  11.06700 -2.35100 28.52100
H  12.07900 -1.22900 27.60100
H  10.96700 1.46800 32.28600
H  8.77900 -1.19500 35.08000
H  8.40400 0.49800 35.55700
H  9.88200 -0.27300 36.17200

