158

Mg 8.70300 3.22200 28.29300
C  10.28000 1.86200 31.16700
C  6.60000 4.91700 30.29600
C  7.44300 4.45400 25.48000
C  10.35600 0.74800 26.48400
N  8.43600 3.30900 30.47200
C  9.21900 2.77000 31.43900
C  8.74800 3.21200 32.81500
C  7.44000 3.98900 32.58800
C  7.44700 4.07800 31.02200
C  6.21600 3.35000 33.19200
C  9.90600 4.08900 33.50500
C  9.46000 4.90400 34.71800
H  10.18800 4.61800 35.97400
N  7.34800 4.68700 27.90900
C  6.59000 5.28100 28.85300
C  5.62900 6.15200 28.18900
C  5.99900 6.19700 26.82500
C  6.99900 5.10900 26.65900
C  4.59500 6.93400 28.92600
C  5.48200 7.02100 25.68900
O  5.85200 6.98000 24.53800
C  4.44000 8.05900 26.05700
N  8.97100 2.80700 26.23000
C  8.32600 3.39500 25.23500
C  8.51400 2.61100 23.92600
C  9.73800 1.65700 24.28300
C  9.74700 1.76400 25.79000
C  7.25500 1.84600 23.45500
C  11.04600 2.15000 23.53100
C  11.88400 3.14100 24.35300
N  10.07800 1.65900 28.69800
C  10.63500 0.69900 27.85800
C  11.57400 -0.08600 28.56500
C  11.50000 0.35300 29.85400
C  10.54900 1.40800 29.87600
C  12.36200 -1.22700 27.93700
C  11.94800 0.11900 31.18800
O  12.78100 -0.64300 31.66700
C  11.13500 1.13600 32.04500
C  10.46000 0.32700 33.10500
O  9.63000 -0.52400 32.83000
O  10.95700 0.55400 34.37300
C  10.12600 0.07000 35.48600
H  5.83900 5.38400 30.92500
H  7.07200 4.99500 24.60700
H  10.87300 0.05800 25.81400
H  8.51400 2.34500 33.43200
H  7.48500 4.97800 33.04500
H  6.36400 2.27400 33.28300
H  5.49000 3.44700 32.38500
H  5.87000 3.91900 34.05400
H  10.26800 4.72400 32.69600
H  10.75100 3.44600 33.75000
H  8.40200 4.74100 34.92500
H  9.65800 5.94100 34.44600
H  4.71000 8.01300 29.02900
H  4.35700 6.38600 29.83700
H  3.77000 6.76700 28.23300
H  3.49100 7.52400 26.05700
H  4.45900 8.88100 25.34100
H  4.87400 8.47500 26.96600
H  8.83500 3.31500 23.15800
H  9.48000 0.63700 23.99700
H  6.44900 2.02400 24.16700
H  7.33600 0.77600 23.26300
H  6.91500 2.31600 22.53300
H  10.93400 2.55600 22.52600
H  11.67200 1.25800 23.52000
H  11.59200 3.49600 25.34200
H  12.05700 4.10600 23.87700
H  12.91600 2.81100 24.47300
H  12.38000 -1.13900 26.85100
H  11.91300 -2.17500 28.23100
H  13.38100 -1.01700 28.26300
H  11.94300 1.77300 32.40400
H  9.05600 0.19600 35.32000
H  10.33300 0.53800 36.44800
H  10.25500 -1.01100 35.52700
Mg 54.25100 23.20000 44.33100
C  51.98900 25.77400 43.43400
C  51.73700 20.85600 43.54700
C  56.59200 20.90400 44.40300
C  56.64200 25.72100 44.81100
N  52.08200 23.23100 43.47500
C  51.49900 24.44900 43.25300
C  50.10400 24.09800 42.60300
C  49.82100 22.60100 43.05100
C  51.26700 22.21200 43.37700
C  48.90500 22.31100 44.22800
C  50.09600 24.26400 41.05700
C  48.81300 24.88500 40.44400
H  48.31800 24.11300 39.14500
N  54.21500 21.20700 43.93500
C  53.07000 20.42200 43.73100
C  53.51000 19.01900 43.86100
C  54.91800 19.04100 44.04800
C  55.31800 20.44600 44.10600
C  52.60500 17.84600 43.56700
C  55.76400 17.81100 44.15400
O  55.22200 16.70400 44.05500
C  57.26700 17.81700 44.60800
N  56.43000 23.32900 44.28900
C  57.05000 22.21300 44.56400
C  58.53000 22.50600 44.72300
C  58.55200 24.05900 44.92000
C  57.17300 24.43500 44.65600
C  59.18700 21.71100 45.88500
C  59.64200 24.75900 44.03200
C  60.57800 25.71500 44.84900
N  54.36100 25.31200 44.28900
C  55.32200 26.20600 44.61600
C  54.82400 27.58700 44.55700
C  53.48500 27.47400 44.14700
C  53.28100 26.07300 43.91300
C  55.58000 28.79300 44.94100
C  52.27300 28.17300 43.84700
O  52.03400 29.37600 43.84900
C  51.27100 27.14500 43.22700
C  51.20400 27.55600 41.78300
O  52.14100 27.34500 40.99700
O  50.02300 28.12500 41.48700
C  49.74400 28.56200 40.13500
H  50.94000 20.12700 43.38300
H  57.50000 20.29700 44.42300
H  57.32800 26.48100 45.19100
H  49.36200 24.78400 43.01300
H  49.52400 21.95700 42.22300
H  48.31000 21.41800 44.03800
H  48.21400 23.15100 44.29800
H  49.49500 22.24900 45.14200
H  50.27400 23.30900 40.56200
H  50.96100 24.91300 40.91800
H  48.98900 25.91500 40.13600
H  47.98900 24.96700 41.15200
H  52.76600 16.88600 44.05700
H  52.68100 17.58600 42.51100
H  51.61000 18.18700 43.85300
H  57.81000 18.32300 43.80900
H  57.70200 16.82100 44.52200
H  57.36900 18.28000 45.58900
H  58.98500 22.22900 43.77200
H  58.71700 24.22900 45.98400
H  59.45900 20.71200 45.54500
H  58.40000 21.55000 46.62200
H  60.02000 22.21400 46.37600
H  59.13400 25.33800 43.26100
H  60.25800 23.93900 43.66400
H  60.41000 26.77700 44.66600
H  61.62000 25.44200 44.68200
H  60.39400 25.57900 45.91500
H  56.50100 28.99500 44.39500
H  55.70900 28.76100 46.02300
H  54.90100 29.62300 44.74700
H  50.28100 27.17700 43.68200
H  48.89400 28.02800 39.71000
H  50.59000 28.66400 39.45500
H  49.28700 29.55000 40.19000

