158

Mg 1.76800 8.14900 25.71100
C  2.59500 10.10700 28.49300
C  1.94400 5.38100 27.73600
C  1.13100 6.22500 22.99400
C  2.31100 10.93300 23.69300
N  2.42800 7.76800 27.90800
C  2.42100 8.74600 28.84800
C  2.42700 8.11300 30.27500
C  2.49000 6.57700 29.99100
C  2.25800 6.56300 28.45300
C  3.74600 5.78700 30.42000
C  1.14100 8.71100 30.98900
C  1.14600 8.88800 32.50200
H  2.24500 8.23400 33.30500
N  1.53100 6.12900 25.41200
C  1.62000 5.17400 26.37300
C  1.34500 3.93400 25.80300
C  1.04200 4.07700 24.42500
C  1.22800 5.51900 24.22100
C  1.12000 2.62700 26.69900
C  0.61600 2.95400 23.36200
O  0.31400 3.14900 22.23100
C  0.57100 1.56200 23.81600
N  1.89500 8.50900 23.58900
C  1.36300 7.56300 22.68400
C  1.16700 8.18600 21.27400
C  1.47600 9.71500 21.50700
C  1.97800 9.78300 22.97700
C  2.02800 7.51700 20.24600
C  0.45600 10.74200 21.04500
C  -0.85000 10.79300 21.88300
N  2.28600 10.12300 25.96800
C  2.35100 11.11100 25.07900
C  2.47200 12.33100 25.79900
C  2.57700 12.02900 27.09900
C  2.44600 10.63800 27.18800
C  2.58000 13.71900 25.12100
C  2.74700 12.54200 28.45100
O  2.83400 13.67700 28.81800
C  2.65800 11.33700 29.38500
C  3.70900 11.25600 30.33400
O  4.92700 11.07900 30.10100
O  3.12100 11.49200 31.57400
C  4.11400 11.66900 32.58700
H  2.06400 4.47900 28.34000
H  0.77700 5.69700 22.10600
H  2.40200 11.90500 23.20300
H  3.30800 8.30900 30.88600
H  1.64500 6.04400 30.42700
H  4.16200 5.16300 29.62900
H  3.37200 5.16900 31.23600
H  4.51100 6.46900 30.79400
H  0.30400 8.07800 30.69500
H  0.71500 9.63600 30.60100
H  0.18900 8.46800 32.81100
H  1.15500 9.96900 32.64000
H  0.31800 1.94300 26.42200
H  0.89600 2.96100 27.71100
H  2.06100 2.07800 26.65800
H  1.37700 1.24000 24.47500
H  0.38800 0.84400 23.01700
H  -0.29000 1.53400 24.48500
H  0.11100 8.11300 21.01300
H  2.34200 9.82700 20.85500
H  1.51900 6.63300 19.86300
H  2.96600 7.19200 20.69700
H  2.22100 8.16500 19.39000
H  0.20900 10.45400 20.02300
H  0.93600 11.72100 21.04200
H  -0.85300 10.03900 22.67000
H  -1.62200 10.63100 21.13000
H  -1.04300 11.78100 22.30100
H  2.81000 13.61700 24.06000
H  3.44900 14.27500 25.47400
H  1.70800 14.32200 25.37200
H  1.70300 11.47900 29.89100
H  4.76400 12.49800 32.31000
H  4.72400 10.78100 32.75200
H  3.49600 11.92100 33.45000
Mg 41.48800 40.79800 27.07900
C  40.71900 43.18400 29.25500
C  42.53100 38.63600 29.61200
C  42.41500 38.36000 24.69000
C  40.99800 42.94000 24.41300
N  41.52900 40.94900 29.19900
C  41.09400 41.99800 29.91100
C  41.08400 41.72400 31.45200
C  41.81000 40.34400 31.50800
C  42.02100 39.98400 30.01600
C  43.12700 40.16300 32.34200
C  39.59700 41.87500 32.01200
C  39.42200 42.79900 33.22700
H  38.83300 42.32900 34.57600
N  42.28800 38.74900 27.19000
C  42.61400 38.02800 28.32100
C  43.17500 36.68000 28.00100
C  42.93800 36.55300 26.58000
C  42.55500 37.92300 26.07000
C  43.80300 35.78800 29.02300
C  43.09000 35.36800 25.63600
O  43.16400 35.48200 24.42700
C  43.27900 33.94600 26.24100
N  41.73600 40.67300 24.87200
C  42.07800 39.58800 24.13800
C  41.97500 39.86700 22.58600
C  41.20400 41.22200 22.54500
C  41.36800 41.66600 24.02700
C  43.35000 39.81500 21.82500
C  39.75200 41.13600 22.02900
C  38.87300 39.95300 22.53800
N  41.00300 42.70300 26.78700
C  40.83300 43.49100 25.72900
C  40.47600 44.84600 26.04600
C  40.42000 44.78500 27.50500
C  40.71300 43.44500 27.86200
C  40.27400 45.94500 25.14900
C  40.09900 45.56100 28.64100
O  39.80400 46.74400 28.63600
C  40.32300 44.58200 29.91200
C  41.39800 45.10800 30.78800
O  42.64000 44.95000 30.50800
O  40.86200 45.76900 31.89200
C  41.89200 46.25500 32.79800
H  42.90100 38.08600 30.48000
H  42.73200 37.68500 23.89300
H  40.62000 43.49500 23.55300
H  41.81000 42.43400 31.84700
H  41.11300 39.59400 31.88100
H  43.12900 39.20400 32.86100
H  43.18200 41.03000 32.99900
H  44.03500 40.07300 31.74600
H  39.35000 40.87100 32.35700
H  38.92900 42.13000 31.18800
H  38.69500 43.51000 32.83600
H  40.18200 43.55400 33.42800
H  42.98900 35.27200 29.53000
H  44.28300 36.47600 29.71900
H  44.51100 35.08200 28.58700
H  42.75300 33.88500 27.19300
H  44.32700 33.69100 26.39500
H  42.93100 33.15200 25.57900
H  41.40800 39.01200 22.21600
H  41.75700 41.90100 21.89600
H  43.43800 39.14500 20.97000
H  44.15100 39.48300 22.48600
H  43.65600 40.80500 21.48800
H  39.77500 41.12500 20.94000
H  39.31200 42.07700 22.35900
H  38.59200 39.18000 21.82200
H  37.92600 40.35100 22.90000
H  39.32400 39.38500 23.35200
H  41.19500 46.14900 24.60300
H  39.99400 46.75400 25.82400
H  39.37400 45.79400 24.55400
H  39.43400 44.56300 30.54200
H  41.42100 47.14200 33.22300
H  42.80100 46.53100 32.26500
H  42.04500 45.54600 33.61100

