158

Mg 36.13200 49.89200 24.89800
C  36.56600 48.09800 27.83800
C  34.51300 52.28500 26.79400
C  35.37100 51.51600 22.03400
C  37.30100 47.13700 23.13900
N  35.64900 50.10500 27.08300
C  36.09400 49.36000 28.09000
C  35.71900 49.91900 29.50800
C  34.98100 51.27300 29.10500
C  35.04200 51.27700 27.53200
C  33.61600 51.48400 29.74100
C  36.98100 50.22200 30.46500
C  36.88300 49.77300 31.93600
H  35.62000 50.11700 32.75200
N  35.31200 51.72500 24.48200
C  34.61900 52.54100 25.40600
C  34.18700 53.77100 24.76000
C  34.42000 53.61000 23.35700
C  35.06100 52.18800 23.23700
C  33.72900 54.91500 25.52300
C  34.26600 54.53100 22.14400
O  34.62700 54.23500 21.02700
C  33.54800 55.84400 22.43400
N  36.27100 49.35900 22.88500
C  35.93400 50.23200 21.84600
C  36.07100 49.55500 20.47300
C  36.97900 48.23700 20.81700
C  36.82200 48.20500 22.33600
C  34.76400 49.40400 19.72700
C  38.50700 48.28200 20.48200
C  39.31300 49.49000 20.99800
N  36.80200 47.94400 25.33600
C  37.22500 46.95400 24.51100
C  37.64000 45.80200 25.31800
C  37.37400 46.21100 26.65300
C  36.86900 47.55100 26.60800
C  37.95800 44.39000 24.74300
C  37.37000 45.79600 28.02000
O  37.72000 44.74700 28.54600
C  36.92300 46.96400 28.84000
C  35.78400 46.58600 29.64900
O  34.66000 46.31500 29.28900
O  36.27600 46.56000 30.97200
C  35.18000 46.25900 31.92500
H  33.95600 53.04500 27.34600
H  35.01500 51.89900 21.07600
H  37.86000 46.39400 22.56500
H  34.97000 49.28300 29.98100
H  35.56000 52.14700 29.40400
H  32.85600 51.82200 29.03700
H  33.82900 52.29900 30.43200
H  33.24900 50.59000 30.24600
H  37.23000 51.27700 30.34700
H  37.79100 49.68500 29.97200
H  37.68000 50.25200 32.50600
H  37.03600 48.69500 31.89600
H  33.46600 54.73300 26.56500
H  32.82100 55.34700 25.10100
H  34.56600 55.61200 25.54000
H  33.66400 56.45800 21.54100
H  33.91700 56.51800 23.20700
H  32.49900 55.54800 22.45400
H  36.67700 50.17500 19.81100
H  36.57700 47.29900 20.43300
H  33.98800 49.68900 20.43800
H  34.62700 48.36000 19.44500
H  34.64700 50.03900 18.84900
H  38.57000 48.36600 19.39700
H  39.12200 47.44800 20.82000
H  38.72600 50.08300 21.70000
H  39.42000 50.18700 20.16700
H  40.24800 49.22900 21.49400
H  38.97000 44.04500 24.95400
H  37.83900 44.40300 23.66000
H  37.22600 43.67600 25.11800
H  37.81200 47.32500 29.35800
H  34.91500 45.20400 31.85200
H  34.29100 46.83200 31.66200
H  35.46900 46.50900 32.94500
Mg -12.28300 15.91800 41.52200
C  -9.08400 14.49300 41.33200
C  -11.11200 18.79600 40.06800
C  -15.45200 16.74500 40.88400
C  -13.41800 12.79200 42.75500
N  -10.40600 16.46600 40.59800
C  -9.16800 15.78600 40.73600
C  -7.98700 16.65800 40.28800
C  -8.68500 18.02700 40.05300
C  -10.14500 17.79800 40.27500
C  -8.13000 19.13800 41.12500
C  -7.23600 16.21900 39.01700
C  -5.87300 16.71000 38.86600
H  -5.66900 17.69100 37.68900
N  -13.10900 17.54400 40.56200
C  -12.47900 18.65000 40.24200
C  -13.37300 19.65200 40.01300
C  -14.65500 19.08200 40.11600
C  -14.44800 17.70200 40.44200
C  -13.02400 21.06200 39.58000
C  -16.01700 19.80000 39.81800
O  -16.01400 20.98700 39.49500
C  -17.39200 19.07900 39.96100
N  -14.17000 14.85700 41.71800
C  -15.33400 15.49900 41.48200
C  -16.55400 14.64400 41.99800
C  -15.91300 13.36200 42.56800
C  -14.42500 13.69500 42.40200
C  -17.52800 15.36100 42.99600
C  -16.42900 12.01100 41.90400
C  -17.41100 11.16800 42.74900
N  -11.45100 14.10500 42.08800
C  -12.04800 12.94000 42.52500
C  -11.01600 11.98200 42.86800
C  -9.82700 12.60400 42.45500
C  -10.16200 13.86400 41.90800
C  -11.21500 10.66100 43.60400
C  -8.36600 12.41900 42.37900
O  -7.63800 11.56900 42.80000
C  -7.86200 13.70200 41.65000
C  -6.92600 14.41500 42.55300
O  -7.23000 15.27400 43.35200
O  -5.66700 13.98200 42.28600
C  -4.70400 14.84600 42.92800
H  -10.78600 19.82900 39.93300
H  -16.46000 17.15900 40.95500
H  -13.82600 11.87200 43.17900
H  -7.22800 16.72400 41.06800
H  -8.69500 18.33500 39.00700
H  -9.03800 19.64000 41.45900
H  -7.51400 19.90800 40.66000
H  -7.50900 18.73800 41.92700
H  -7.87500 16.45800 38.16700
H  -7.20000 15.13700 39.14000
H  -5.16200 15.92000 38.62500
H  -5.49300 17.14900 39.78900
H  -13.07000 21.21800 38.50200
H  -12.03400 21.35700 39.92700
H  -13.67700 21.81600 40.01900
H  -18.08100 19.68600 39.37300
H  -17.73900 19.04700 40.99400
H  -17.32500 18.11400 39.45900
H  -17.12800 14.42700 41.09700
H  -16.11400 13.33200 43.63900
H  -17.58000 14.95100 44.00400
H  -18.52900 15.39700 42.56500
H  -17.09400 16.35600 43.08700
H  -15.56700 11.34900 41.81900
H  -16.83700 12.11100 40.89900
H  -18.29600 11.73700 43.03300
H  -16.92300 10.69000 43.59900
H  -17.72000 10.44100 41.99700
H  -10.57200 9.82900 43.31600
H  -12.17000 10.37400 43.16500
H  -11.29800 10.85800 44.67300
H  -7.42800 13.28800 40.74000
H  -4.80200 15.84300 42.49700
H  -3.73200 14.43100 42.65900
H  -4.74500 14.95300 44.01200

