158

Mg 36.16600 49.48200 25.98500
C  35.67600 47.61300 28.97700
C  35.84200 52.34500 27.65200
C  35.90900 51.00600 23.06700
C  36.54700 46.47200 24.26100
N  35.76500 49.93300 28.06300
C  35.64300 49.04000 29.14300
C  35.38800 49.82700 30.44100
C  35.70300 51.37800 30.01600
C  35.89200 51.17400 28.48800
C  34.53900 52.35600 30.47500
C  36.33100 49.37600 31.64000
C  35.70200 48.82000 32.86900
H  34.23700 49.17700 33.17900
N  35.85500 51.42200 25.42000
C  35.79400 52.45200 26.28900
C  35.64400 53.66800 25.55400
C  35.60100 53.34900 24.15000
C  35.83500 51.86200 24.16400
C  35.47500 55.01500 26.13700
C  35.41300 54.17600 22.90600
O  35.53800 53.78100 21.77900
C  35.33100 55.71300 23.05400
N  36.00800 48.78500 23.94700
C  35.89000 49.65500 22.94700
C  36.09000 48.97000 21.57300
C  36.50900 47.51200 21.96300
C  36.26700 47.58700 23.46500
C  34.92500 49.01800 20.50900
C  38.00400 47.15800 21.61200
C  38.12300 45.97700 20.60000
N  36.16400 47.38500 26.48200
C  36.39600 46.30900 25.65500
C  36.42600 45.10800 26.45800
C  36.13500 45.56500 27.83000
C  36.01000 46.97900 27.75000
C  36.67100 43.68300 26.08300
C  36.06200 45.12000 29.21100
O  36.27400 44.01600 29.75600
C  35.62500 46.53000 30.01600
C  34.33400 46.28700 30.66700
O  33.29300 46.69200 30.17000
O  34.49700 45.48600 31.78100
C  33.32600 45.18000 32.50000
H  35.92600 53.26500 28.23400
H  35.94400 51.52600 22.10700
H  36.75300 45.63400 23.59100
H  34.34200 49.77500 30.74500
H  36.61600 51.83500 30.39700
H  34.98900 53.16900 31.04600
H  33.93400 51.81200 31.20100
H  33.88500 52.70600 29.67700
H  36.94800 50.19900 31.99900
H  36.86700 48.52700 31.21500
H  36.23800 49.22300 33.72900
H  35.76400 47.73200 32.90100
H  36.29700 55.68100 25.87600
H  35.37700 55.02500 27.22200
H  34.59200 55.45500 25.67400
H  36.26500 56.04600 23.50500
H  34.43600 56.10500 23.53600
H  35.33900 56.05000 22.01700
H  36.94600 49.50600 21.16300
H  35.79700 46.83500 21.49000
H  34.96200 49.86600 19.82400
H  33.92200 49.07000 20.93200
H  35.00900 48.11400 19.90500
H  38.58500 46.90700 22.50000
H  38.42800 48.06600 21.18200
H  38.80700 46.36000 19.84200
H  37.20200 45.81400 20.04000
H  38.39700 45.03500 21.07700
H  37.70300 43.53200 26.40000
H  36.52900 43.48700 25.02100
H  36.04400 43.06200 26.72400
H  36.35700 46.56300 30.82300
H  32.82900 46.12100 32.73500
H  33.54300 44.59300 33.39300
H  32.60800 44.57500 31.94700
Mg 15.96700 51.81400 25.91800
C  17.73700 51.07200 28.86200
C  13.23600 52.60400 27.91300
C  14.37700 52.61100 23.24100
C  18.63500 50.64100 24.00500
N  15.49500 51.71700 28.11500
C  16.44500 51.57100 29.11200
C  15.88800 51.85600 30.43700
C  14.32600 52.12600 30.07300
C  14.31200 52.20000 28.58200
C  13.20800 51.13900 30.59700
C  16.76900 53.00900 31.06200
C  17.00300 52.98800 32.54900
H  16.02700 52.12100 33.32200
N  14.00200 52.47800 25.53600
C  13.13700 52.67500 26.48000
C  11.92800 53.29400 25.83500
C  12.30000 53.41700 24.45900
C  13.60100 52.85500 24.35900
C  10.70600 53.79500 26.59300
C  11.55200 54.13700 23.36300
O  11.95400 54.18200 22.25400
C  10.26700 54.95600 23.60800
N  16.45300 51.58800 23.87500
C  15.61400 51.98900 22.97200
C  16.13600 51.66400 21.51300
C  17.57100 51.18500 21.71500
C  17.65200 51.13700 23.26100
C  15.19900 50.69200 20.69600
C  18.62300 52.16100 21.14400
C  19.33500 51.75400 19.78800
N  17.73600 50.97200 26.31200
C  18.75300 50.63800 25.44500
C  19.92400 50.18200 26.14600
C  19.53200 50.27700 27.50900
C  18.26400 50.78100 27.54100
C  21.25700 49.66900 25.49100
C  19.95900 49.99000 28.89300
O  20.97800 49.48600 29.33700
C  18.84500 50.64100 29.76000
C  18.38500 49.61000 30.79700
O  17.61200 48.70800 30.65300
O  19.13800 49.86100 31.94700
C  18.83800 48.91600 32.97600
H  12.42900 53.06800 28.48400
H  13.92800 52.88000 22.28200
H  19.53200 50.27300 23.50100
H  15.91400 50.88800 30.93700
H  14.25600 53.17200 30.36900
H  13.60800 50.54600 31.41900
H  12.92200 50.41700 29.83100
H  12.32600 51.63200 31.00700
H  16.07700 53.84500 30.96700
H  17.56700 53.23700 30.35500
H  16.95000 54.00700 32.93300
H  18.00400 52.56300 32.63300
H  10.66500 53.24600 27.53400
H  9.80400 53.61900 26.00700
H  10.66100 54.88400 26.58100
H  10.37400 55.64400 24.44700
H  9.50500 54.18000 23.67800
H  10.20400 55.66200 22.77900
H  16.15600 52.55200 20.88100
H  17.75200 50.18000 21.33500
H  14.57500 50.08400 21.35100
H  15.80000 50.13500 19.97800
H  14.51500 51.29500 20.09800
H  19.38000 52.30100 21.91500
H  18.14400 53.12600 20.98100
H  20.39400 51.53100 19.92500
H  19.16200 52.52400 19.03600
H  18.85300 50.82200 19.49500
H  21.55400 50.23200 24.60600
H  21.08100 48.62800 25.21700
H  22.01400 49.77000 26.26800
H  19.25200 51.49100 30.30700
H  18.90400 47.90200 32.58000
H  17.86700 49.05200 33.45200
H  19.56600 49.02300 33.78000

