158

Mg 48.23500 16.36700 28.64800
C  46.16600 15.91500 31.37100
C  50.40600 18.00000 30.76400
C  49.97400 17.17700 25.97000
C  45.65700 15.07900 26.53500
N  48.23800 16.94700 30.82300
C  47.35000 16.55600 31.76600
C  47.76900 16.98800 33.16700
C  48.99100 17.91500 32.90500
C  49.25500 17.68900 31.39200
C  48.78100 19.49200 33.15300
C  48.12300 15.61800 33.80600
C  48.59300 15.64700 35.27900
H  48.59500 16.93800 36.21900
N  50.05700 17.39200 28.44100
C  50.82400 17.85700 29.43700
C  52.03100 18.40600 28.79200
C  51.97100 18.15200 27.36100
C  50.58400 17.59500 27.15000
C  53.07000 19.13100 29.55500
C  52.95800 18.35800 26.24500
O  52.70100 18.25100 25.06800
C  54.41600 18.69800 26.47300
N  47.82000 16.13000 26.48500
C  48.78500 16.45700 25.62800
C  48.34500 16.18200 24.17200
C  47.12300 15.26300 24.38200
C  46.82200 15.47600 25.90000
C  48.09700 17.43600 23.20800
C  47.32400 13.72100 24.10500
C  47.68300 12.75300 25.29100
N  46.33700 15.58900 28.85800
C  45.37000 15.07400 27.95100
C  44.24900 14.67600 28.61900
C  44.49100 15.03100 29.96100
C  45.76300 15.54500 30.05600
C  43.09100 14.09600 27.99600
C  43.89800 14.89800 31.27000
O  42.86100 14.35800 31.69300
C  44.96300 15.57800 32.19300
C  44.34200 16.71100 32.87900
O  43.93200 17.76000 32.45300
O  44.21200 16.39600 34.21500
C  43.60400 17.38100 35.09700
H  51.17100 18.39700 31.43500
H  50.54700 17.31000 25.05000
H  44.81600 14.61800 26.01300
H  46.98300 17.45000 33.76400
H  49.82700 17.47100 33.44600
H  47.79100 19.73800 33.53800
H  48.84300 20.00300 32.19300
H  49.57300 19.83900 33.81600
H  48.98800 15.20400 33.28800
H  47.41600 14.82300 33.56700
H  49.62700 15.33100 35.14200
H  48.07600 14.85800 35.82400
H  52.51400 19.84100 30.16600
H  53.73000 19.77000 28.96700
H  53.58300 18.39400 30.17200
H  55.02300 17.88800 26.87800
H  54.48100 19.52800 27.17600
H  54.84900 19.10000 25.55700
H  49.07100 15.51100 23.71300
H  46.25200 15.64100 23.84700
H  48.59000 18.28200 23.68700
H  47.06100 17.72800 23.03100
H  48.60300 17.08500 22.30800
H  48.15600 13.67500 23.40300
H  46.50000 13.29300 23.53500
H  47.81900 13.20900 26.27200
H  48.47500 12.03200 25.08500
H  46.85800 12.07400 25.50500
H  42.77600 14.85100 27.27600
H  42.33100 14.05200 28.77700
H  43.23100 13.09600 27.58600
H  45.22000 14.80200 32.91500
H  43.50000 18.40100 34.72600
H  44.08700 17.32900 36.07300
H  42.61200 16.95100 35.23500
Mg -9.94900 39.16000 39.63000
C  -8.53900 36.07900 39.38100
C  -6.73300 40.38200 38.57600
C  -11.39900 42.13800 38.77900
C  -13.03400 37.82400 40.05700
N  -7.75000 38.38900 39.24400
C  -7.54700 37.06100 39.09400
C  -6.02200 36.77300 38.70600
C  -5.45200 38.19700 38.94200
C  -6.69800 39.05200 38.92100
C  -4.61800 38.31400 40.30500
C  -5.87000 36.01100 37.37000
C  -5.16700 36.72600 36.22200
H  -5.65600 36.33400 34.76500
N  -9.20600 41.01200 38.91800
C  -7.87100 41.24700 38.47300
C  -7.79100 42.67600 38.10100
C  -9.09200 43.21400 38.15600
C  -9.98700 42.11400 38.57600
C  -6.52000 43.40400 37.71600
C  -9.42800 44.59800 37.60000
O  -8.61100 45.36100 37.15000
C  -10.86600 45.03700 37.55200
N  -11.97800 39.90200 39.27900
C  -12.29200 41.18500 39.13000
C  -13.84200 41.35800 39.08500
C  -14.32500 39.92800 39.50400
C  -13.06800 39.11800 39.60700
C  -14.43800 42.57800 39.88400
C  -15.45600 39.39700 38.63100
C  -15.12200 38.95500 37.23100
N  -10.64600 37.38400 39.83100
C  -11.91300 36.96000 40.17100
C  -11.81300 35.55700 40.45200
C  -10.56100 35.16600 39.99500
C  -9.85100 36.27700 39.67100
C  -12.92500 34.62300 40.86900
C  -9.74200 33.98000 39.70600
O  -9.92600 32.79700 39.74900
C  -8.38300 34.52800 39.21900
C  -7.36700 33.69800 39.99400
O  -7.27100 33.57600 41.20400
O  -6.60100 33.01500 39.09400
C  -5.53200 32.31400 39.70300
H  -5.80600 40.82900 38.21000
H  -12.00000 43.03900 38.63900
H  -13.98200 37.33700 40.29600
H  -5.51500 36.16900 39.45900
H  -4.75700 38.58100 38.19500
H  -4.25400 37.40500 40.78300
H  -5.28200 38.65000 41.10100
H  -3.75400 38.96500 40.16800
H  -6.84900 35.69600 37.01000
H  -5.31300 35.09200 37.55000
H  -4.10900 36.49800 36.35100
H  -5.38400 37.79300 36.27200
H  -6.33100 43.22200 36.65800
H  -5.66700 43.06200 38.30200
H  -6.55100 44.49300 37.73100
H  -11.26100 45.02100 38.56700
H  -11.44400 44.35100 36.93200
H  -10.95300 46.05200 37.16400
H  -13.95600 41.56100 38.02000
H  -14.81000 39.98600 40.47900
H  -15.10100 42.19000 40.65700
H  -15.10600 43.17000 39.25900
H  -13.68300 43.21000 40.35200
H  -16.25700 40.13100 38.53900
H  -15.89400 38.52700 39.12100
H  -15.59300 39.71600 36.61000
H  -15.51600 37.95300 37.06100
H  -14.08600 38.76300 36.94900
H  -12.67600 33.60300 40.57400
H  -13.84100 34.80400 40.30700
H  -13.24100 34.74000 41.90500
H  -8.37700 34.42100 38.13500
H  -5.93700 31.57700 40.39700
H  -4.83400 32.89600 40.30500
H  -4.86000 31.77700 39.03300

