158

Mg 30.04400 58.90700 40.76400
C  27.34100 56.90200 39.67200
C  32.12100 56.36500 39.66600
C  32.81400 60.92100 40.75200
C  27.94400 61.54500 41.16100
N  29.71400 56.92900 39.75000
C  28.56400 56.32400 39.38500
C  28.79700 55.17000 38.42000
C  30.23600 54.78300 38.80200
C  30.73900 56.10600 39.47900
C  30.26000 53.56300 39.70500
C  28.56100 55.54100 36.92500
C  27.36800 55.08100 36.17100
H  26.62000 56.05200 35.30700
N  32.20100 58.56000 40.42500
C  32.83100 57.49200 39.97700
C  34.31200 57.62000 39.90000
C  34.53000 58.97500 40.28800
C  33.12600 59.57100 40.44200
C  35.30700 56.61200 39.26900
C  35.85100 59.74200 40.54600
O  36.90300 59.10600 40.51800
C  35.94400 61.12300 41.17600
N  30.33800 60.94700 40.90700
C  31.55100 61.52900 41.04500
C  31.43700 63.03700 41.34100
C  29.93000 63.18600 41.46300
C  29.33000 61.83700 41.17000
C  32.31500 63.58500 42.44800
C  29.24400 64.31700 40.55900
C  30.00900 65.60000 40.33000
N  28.06300 59.17200 40.71400
C  27.31400 60.29500 40.95100
C  25.86900 59.88800 40.91800
C  25.88000 58.57100 40.41400
C  27.20100 58.20300 40.24500
C  24.69300 60.82600 41.15100
C  25.02200 57.59100 39.93900
O  23.77900 57.63500 39.96700
C  25.93800 56.37700 39.45600
C  25.53300 55.21300 40.21000
O  25.96400 54.92800 41.28500
O  24.55700 54.52300 39.50200
C  24.06100 53.31600 40.17100
H  32.78700 55.57400 39.31600
H  33.60900 61.66900 40.78600
H  27.28400 62.38700 41.37900
H  28.24300 54.28700 38.74200
H  30.92500 54.61000 37.97500
H  29.27600 53.28700 40.08200
H  30.91700 53.74200 40.55600
H  30.54100 52.70000 39.10100
H  29.48300 55.25800 36.41600
H  28.62300 56.62500 36.83400
H  26.71700 54.56400 36.87600
H  27.71100 54.37500 35.41500
H  36.25100 56.99000 38.87700
H  34.88100 56.21100 38.35000
H  35.41100 55.71000 39.87100
H  35.28700 61.15000 42.04500
H  35.50800 61.83100 40.47100
H  37.00000 61.23600 41.42300
H  31.64300 63.50600 40.37900
H  29.63000 63.43300 42.48200
H  32.96700 62.81000 42.85100
H  31.76800 63.99900 43.29600
H  32.88000 64.41000 42.01400
H  28.21000 64.47400 40.86600
H  29.04500 63.85500 39.59200
H  29.26200 66.38600 40.44200
H  30.44100 65.70300 39.33400
H  30.70900 65.72200 41.15700
H  24.51200 61.24400 40.16100
H  25.09800 61.47400 41.92900
H  23.87800 60.22600 41.55700
H  25.61700 56.17400 38.43400
H  24.06400 53.21500 41.25600
H  24.63100 52.42200 39.91500
H  23.05600 53.13300 39.79100
Mg 35.66700 49.31200 24.87000
C  35.49400 47.53200 27.92600
C  34.29500 52.03400 26.43800
C  35.08400 50.74900 21.81700
C  36.60500 46.37500 23.31800
N  35.07900 49.75700 26.93400
C  35.09200 48.89300 28.03100
C  34.89400 49.66400 29.34100
C  34.36500 51.04700 28.93600
C  34.62900 50.97900 27.35100
C  32.94200 51.39600 29.26800
C  36.08100 49.77600 30.28900
C  35.78200 49.45100 31.81600
H  34.33200 49.63500 32.36200
N  34.74300 51.14000 24.24700
C  34.29700 52.19100 25.03500
C  33.87000 53.25500 24.23200
C  34.00400 52.83700 22.85200
C  34.61800 51.49300 22.90700
C  33.44700 54.58000 24.83100
C  33.65800 53.64900 21.60800
O  33.84300 53.16600 20.45500
C  33.03800 55.09400 21.68500
N  35.57300 48.60800 22.79300
C  35.47400 49.42300 21.79000
C  35.88400 48.76200 20.41700
C  36.55500 47.45500 20.95500
C  36.27500 47.43500 22.49900
C  34.78500 48.54300 19.38300
C  38.11700 47.47100 20.84400
C  38.77800 46.69500 19.69200
N  36.09900 47.32400 25.46000
C  36.56500 46.22500 24.72500
C  36.73600 45.11700 25.58900
C  36.30000 45.57000 26.86900
C  35.92700 46.89800 26.71900
C  37.20400 43.73500 25.20800
C  36.02500 45.18500 28.25700
O  36.17200 44.12900 28.83600
C  35.62800 46.48200 29.06500
C  34.39500 46.15100 29.84900
O  33.26600 46.40500 29.52700
O  34.73000 45.79900 31.15900
C  33.64800 45.41700 32.11000
H  34.11100 53.00600 26.90000
H  35.15000 51.17900 20.81500
H  36.93400 45.50600 22.74400
H  34.10300 49.16800 29.90400
H  34.93800 51.84900 29.40000
H  32.58200 50.75000 30.06800
H  32.25600 51.47600 28.42500
H  32.96400 52.38200 29.73300
H  36.59100 50.73900 30.25500
H  36.93000 49.14300 30.03100
H  36.41600 50.04900 32.46900
H  36.21500 48.46400 31.97600
H  32.43800 54.78100 24.47200
H  34.01700 55.47800 24.59300
H  33.42000 54.56300 25.92100
H  32.67200 55.21900 20.66500
H  33.70100 55.91900 21.94700
H  32.13800 55.02100 22.29600
H  36.64100 49.39500 19.95300
H  36.16500 46.55500 20.48000
H  35.13600 49.10600 18.51800
H  33.85200 49.04800 19.63000
H  34.61300 47.48500 19.18200
H  38.57400 46.97500 21.70000
H  38.36600 48.53000 20.77800
H  38.87900 45.62600 19.88000
H  39.78700 47.07400 19.53300
H  38.17300 46.88700 18.80600
H  37.86000 43.43300 26.02400
H  37.84500 43.82500 24.33000
H  36.42200 42.97700 25.19500
H  36.50200 46.71300 29.67400
H  33.69700 44.33100 32.18600
H  32.69200 45.82600 31.78300
H  33.88700 45.97100 33.01800

