158

Mg 35.15700 49.18600 25.10500
C  35.21400 47.51400 28.23300
C  33.78700 52.00400 26.73900
C  34.43400 50.49300 22.16700
C  36.04200 46.13500 23.63400
N  34.48500 49.64600 27.24500
C  34.73600 48.86800 28.36800
C  34.29300 49.60400 29.65700
C  33.77400 51.02200 29.12000
C  34.08500 50.94100 27.59400
C  32.28800 51.41700 29.43800
C  35.48500 49.67000 30.62300
C  35.19000 49.15100 32.07800
H  33.68800 48.96200 32.55300
N  34.29200 51.04700 24.49600
C  33.84200 52.06600 25.31600
C  33.30600 53.20400 24.45600
C  33.40800 52.70500 23.11700
C  34.07600 51.39200 23.16700
C  32.62300 54.47700 25.08000
C  33.01100 53.36400 21.84300
O  33.06300 52.81600 20.69300
C  32.33200 54.76200 21.80200
N  35.38200 48.45100 23.15600
C  35.05400 49.21300 22.14100
C  35.38700 48.48800 20.77900
C  35.90700 47.08500 21.28400
C  35.76600 47.20100 22.77100
C  34.20700 48.40700 19.78700
C  37.33000 46.84000 20.79500
C  38.33900 47.85600 21.39900
N  35.64700 47.22200 25.74200
C  36.09700 46.09700 25.02000
C  36.40700 45.00300 25.99600
C  36.11900 45.56400 27.23300
C  35.65800 46.88400 27.03000
C  36.78300 43.54600 25.76200
C  36.05500 45.19300 28.59300
O  36.31900 44.17000 29.24200
C  35.44800 46.52600 29.31600
C  34.22300 45.95600 30.05100
O  33.07400 45.96300 29.65400
O  34.53800 45.46500 31.28000
C  33.43500 44.81100 32.10700
H  33.49300 52.93300 27.23200
H  34.22300 50.94000 21.19300
H  36.38700 45.21600 23.15700
H  33.51700 48.91600 29.99100
H  34.44700 51.73700 29.59500
H  31.57000 50.63500 29.68500
H  31.92400 51.90300 28.53200
H  32.39500 52.14000 30.24600
H  36.03900 50.59700 30.76600
H  36.26200 49.01400 30.23100
H  35.79100 49.76700 32.74600
H  35.56800 48.13500 32.18900
H  32.52600 55.41500 24.53200
H  33.04200 54.71500 26.05800
H  31.62600 54.18100 25.40600
H  32.45000 55.03100 20.75200
H  32.91600 55.50400 22.34700
H  31.32300 54.56000 22.16000
H  36.16700 49.06300 20.27900
H  35.26200 46.25600 20.99300
H  34.62700 48.55400 18.79200
H  33.31600 49.02400 19.90600
H  33.75700 47.41500 19.78300
H  37.31500 47.09800 19.73600
H  37.73300 45.83000 20.87000
H  38.02600 48.52300 22.20200
H  38.62900 48.44100 20.52700
H  39.23900 47.34400 21.73900
H  37.20200 43.60100 24.75700
H  35.91800 42.88300 25.76000
H  37.60000 43.34500 26.45500
H  36.21500 46.93400 29.97400
H  33.24000 43.75100 31.94400
H  32.42500 45.19600 31.96400
H  33.66300 44.91100 33.16800
Mg 25.86700 50.01100 27.18500
C  23.71200 50.87800 29.87500
C  28.07600 48.92200 29.50800
C  27.96300 49.69600 24.71800
C  23.39700 51.45300 25.01000
N  25.94300 49.96900 29.37500
C  24.96900 50.35400 30.25800
C  25.34200 49.92100 31.77400
C  26.82100 49.48700 31.59800
C  26.95000 49.44600 30.04500
C  27.77700 50.39500 32.38500
C  24.36800 48.86100 32.44500
C  23.60300 49.09100 33.80100
H  24.23300 49.96000 34.91200
N  27.73800 49.32500 27.10000
C  28.53400 48.87700 28.14300
C  29.78100 48.36200 27.65600
C  29.80400 48.60600 26.24800
C  28.46100 49.24600 25.97500
C  30.80100 47.86800 28.56200
C  30.81900 48.39900 25.26500
O  30.81800 49.03700 24.21700
C  31.96700 47.55800 25.66800
N  25.69300 50.57400 25.20500
C  26.72400 50.31400 24.36600
C  26.33600 50.59400 22.95200
C  24.83300 50.95100 23.00600
C  24.63900 50.97000 24.50400
C  27.09500 51.75000 22.20700
C  24.02200 49.83600 22.24100
C  24.23600 48.31400 22.56200
N  23.87900 50.84100 27.34200
C  23.10600 51.46000 26.38200
C  21.89800 51.84300 27.05600
C  22.07700 51.66100 28.42300
C  23.32200 51.00900 28.54500
C  20.67700 52.37100 26.46100
C  21.53400 51.93500 29.72000
O  20.46600 52.49700 30.01700
C  22.63100 51.51800 30.76700
C  23.04500 52.76500 31.52100
O  23.54500 53.77000 31.07200
O  22.69300 52.52400 32.77300
C  22.95200 53.47500 33.80000
H  28.65100 48.45700 30.31100
H  28.61000 49.42600 23.88100
H  22.60800 51.72400 24.30500
H  25.19200 50.91400 32.19700
H  26.88700 48.46000 31.95800
H  28.10300 49.97100 33.33500
H  27.30500 51.34500 32.63500
H  28.59200 50.64800 31.70600
H  24.88900 47.92100 32.62800
H  23.60300 48.55600 31.73200
H  23.42900 48.09700 34.21300
H  22.64100 49.55600 33.58500
H  30.77100 46.77800 28.54800
H  30.53500 48.02400 29.60800
H  31.80400 48.27700 28.44500
H  31.61800 46.60200 26.05700
H  32.63300 47.99500 26.41300
H  32.43200 47.37600 24.69900
H  26.52200 49.70100 22.35500
H  24.51600 51.93200 22.65400
H  26.49900 52.42900 21.59800
H  27.86900 51.29700 21.58700
H  27.55500 52.33000 23.00700
H  24.35000 49.93700 21.20600
H  22.96900 50.12000 22.26200
H  23.27300 47.82400 22.70700
H  24.77800 48.10700 23.48500
H  24.82700 47.80000 21.80400
H  20.40100 51.81500 25.56600
H  20.69900 53.40700 26.12400
H  19.83900 52.25500 27.14900
H  22.22900 50.80700 31.48900
H  22.06200 53.81500 34.32900
H  23.58100 54.23100 33.33000
H  23.54500 52.94500 34.54500

