158

Mg 17.79300 52.99900 25.76100
C  19.64600 51.59100 28.43700
C  15.19400 53.42500 27.93200
C  15.82800 53.83100 23.27000
C  20.32100 51.89700 23.52200
N  17.47000 52.73000 27.94500
C  18.37900 52.08100 28.80100
C  17.82200 52.06100 30.18400
C  16.26400 52.45500 30.00300
C  16.33400 52.93600 28.55800
C  15.20400 51.45400 30.44300
C  18.57900 53.14100 31.07500
C  18.45100 53.09300 32.61200
H  17.40600 52.21800 33.23200
N  15.98400 53.87700 25.72500
C  15.05800 53.94900 26.64500
C  13.91600 54.71900 26.18400
C  14.12000 54.91700 24.79600
C  15.33900 54.18600 24.51900
C  12.73900 55.07700 27.04200
C  13.30600 55.68000 23.74100
O  13.67800 55.94300 22.58100
C  11.91600 56.16800 24.06300
N  18.11900 52.88000 23.72900
C  17.08300 53.28200 22.87600
C  17.47900 53.18300 21.41700
C  19.02400 52.69800 21.57300
C  19.15000 52.41100 23.03500
C  16.58200 52.14300 20.69300
C  20.14100 53.70400 21.10500
C  20.36900 55.03600 21.94100
N  19.63200 51.89800 25.90900
C  20.58800 51.61500 24.89900
C  21.71800 51.05100 25.57300
C  21.43400 51.08600 26.99300
C  20.09200 51.51800 27.10500
C  22.98100 50.63300 25.03000
C  21.95900 50.73800 28.34300
O  23.00600 50.29400 28.65000
C  20.79000 51.08200 29.21800
C  20.45900 49.95300 30.12800
O  19.94300 48.91800 29.75200
O  20.73800 50.26800 31.43500
C  20.29700 49.20800 32.38300
H  14.35200 53.64800 28.59100
H  15.16100 53.98600 22.41900
H  21.12200 51.51300 22.88900
H  17.99300 51.09400 30.65700
H  16.21500 53.40000 30.54400
H  14.39800 51.92700 31.00500
H  15.55800 50.57400 30.98000
H  14.67600 51.06300 29.57400
H  18.23200 54.13900 30.80400
H  19.63600 53.06600 30.81900
H  18.30700 54.11800 32.95300
H  19.43800 52.86400 33.01400
H  12.08400 54.21600 27.17400
H  12.14500 55.91200 26.66900
H  12.97300 55.39100 28.05900
H  11.45000 56.48500 23.13000
H  12.08600 57.02400 24.71500
H  11.24300 55.46500 24.55400
H  17.42900 54.19400 21.01100
H  19.14600 51.77300 21.00900
H  15.76000 51.86000 21.35000
H  17.08200 51.26600 20.28100
H  16.00400 52.59900 19.88900
H  19.87300 53.81500 20.05400
H  21.07500 53.15400 20.99200
H  20.02100 54.81800 22.95000
H  19.81500 55.81200 21.41400
H  21.40100 55.38700 21.93400
H  23.28900 51.36900 24.28800
H  22.86300 49.62200 24.63800
H  23.71700 50.79000 25.81800
H  21.21500 51.98000 29.66700
H  20.97900 48.35800 32.37900
H  19.27000 48.84900 32.31100
H  20.21200 49.67100 33.36600
Mg -4.31000 24.71100 26.00900
C  -2.96000 25.82400 28.94900
C  -6.60700 22.84700 27.86600
C  -5.66000 23.36700 23.19200
C  -1.94900 26.30000 24.16700
N  -4.56700 24.33500 28.14300
C  -4.10100 25.09800 29.22700
C  -4.67500 24.65300 30.58000
C  -5.56000 23.46400 30.15700
C  -5.61300 23.51700 28.61900
C  -5.10800 22.12600 30.74600
C  -5.52700 25.87900 31.25300
C  -5.69700 25.80000 32.82200
H  -4.95900 24.70600 33.73400
N  -5.97800 23.38300 25.60200
C  -6.79700 22.80800 26.49000
C  -7.81700 22.05500 25.81600
C  -7.59900 22.23000 24.40100
C  -6.36500 23.06200 24.33000
C  -8.98400 21.33200 26.51000
C  -8.43300 21.73600 23.18500
O  -8.03900 21.79600 22.01000
C  -9.71000 21.06500 23.48100
N  -3.88000 24.91300 23.94700
C  -4.52000 24.22100 22.99000
C  -3.71700 24.27600 21.68000
C  -2.52300 25.21300 22.02500
C  -2.74500 25.47900 23.42800
C  -3.26200 22.84200 21.28900
C  -2.43500 26.45900 21.14200
C  -1.19800 26.51800 20.26600
N  -2.75000 25.93500 26.43600
C  -1.82600 26.50400 25.54500
C  -0.89000 27.32900 26.31700
C  -1.31400 27.11100 27.67800
C  -2.36500 26.17400 27.65800
C  0.22400 28.20200 25.94600
C  -0.92300 27.37300 29.09600
O  -0.10100 28.16200 29.50500
C  -2.01200 26.67800 29.89500
C  -1.37800 26.00200 31.03100
O  -0.47400 25.16300 30.85700
O  -1.85500 26.44700 32.17200
C  -1.10300 25.91100 33.28200
H  -7.34100 22.17600 28.31700
H  -5.93000 22.88100 22.25200
H  -1.30900 26.97800 23.59800
H  -3.90900 24.39700 31.31200
H  -6.57400 23.56700 30.54300
H  -5.98000 21.75100 31.28200
H  -4.28900 22.19700 31.46100
H  -4.86100 21.36800 30.00300
H  -6.49200 26.04800 30.77700
H  -4.92700 26.78700 31.19400
H  -6.78200 25.69700 32.83200
H  -5.54800 26.70200 33.41500
H  -9.06100 21.63000 27.55600
H  -8.80200 20.26200 26.41000
H  -9.92600 21.59000 26.02600
H  -10.16900 20.78300 22.53400
H  -10.28500 21.80200 24.04100
H  -9.56800 20.22000 24.15600
H  -4.39600 24.75300 20.97300
H  -1.58100 24.68700 21.86900
H  -2.18000 22.71100 21.29100
H  -3.49000 22.63800 20.24300
H  -3.49600 22.10700 22.05900
H  -2.42700 27.38000 21.72600
H  -3.30500 26.50600 20.48800
H  -0.60400 25.60600 20.20700
H  -0.52700 27.22700 20.75000
H  -1.32700 26.99800 19.29500
H  0.39500 28.21100 24.87000
H  1.10900 27.78100 26.42400
H  0.09900 29.25200 26.20900
H  -2.54900 27.52500 30.32200
H  -0.04800 25.98000 33.02000
H  -1.32100 24.85700 33.45600
H  -1.36900 26.50700 34.15500

