158

Mg -1.34400 16.96800 25.91200
C  -1.93100 14.84000 28.76500
C  -1.79600 19.72400 28.02000
C  -1.25200 18.83700 23.26300
C  -1.57300 14.09300 23.97800
N  -1.93800 17.30900 28.12800
C  -2.10500 16.24100 29.11600
C  -2.44900 16.93500 30.47500
C  -2.33900 18.48600 30.23100
C  -1.92300 18.50200 28.72300
C  -3.56100 19.38200 30.59800
C  -1.72700 16.45100 31.76300
C  -1.97300 17.20400 33.08000
H  -1.90200 16.31400 34.27900
N  -1.42700 19.04300 25.63500
C  -1.66900 19.98800 26.60500
C  -1.61300 21.27500 25.96000
C  -1.42200 21.07200 24.60300
C  -1.28800 19.61000 24.45900
C  -1.80300 22.54100 26.79500
C  -1.52100 22.13000 23.52200
O  -1.30300 21.88400 22.31900
C  -1.91500 23.56700 23.90800
N  -1.27300 16.46900 23.86500
C  -1.20800 17.48300 22.92300
C  -1.44900 16.93800 21.46800
C  -1.70300 15.39900 21.74400
C  -1.55300 15.29600 23.28300
C  -2.67400 17.65400 20.69900
C  -0.68100 14.50500 21.00400
C  0.80500 14.64500 21.49000
N  -1.45500 14.89500 26.22100
C  -1.43900 13.84800 25.32400
C  -1.53000 12.66300 26.06900
C  -1.61700 12.97800 27.39500
C  -1.75300 14.34300 27.45800
C  -1.63500 11.25000 25.44000
C  -1.72600 12.45300 28.72400
O  -1.66900 11.26900 29.07900
C  -1.89200 13.61800 29.66400
C  -0.79900 13.59900 30.60400
O  0.31100 14.06400 30.50100
O  -1.22400 12.77500 31.62400
C  -0.38800 12.67900 32.85700
H  -1.76500 20.61300 28.65200
H  -1.31100 19.56400 22.45000
H  -1.87700 13.17000 23.48100
H  -3.50000 16.69500 30.63700
H  -1.43600 18.93600 30.64300
H  -4.10600 18.82500 31.36100
H  -4.18500 19.47400 29.70900
H  -3.32700 20.43200 30.77300
H  -0.69300 16.30700 31.44800
H  -2.20400 15.49700 31.98900
H  -2.96000 17.66300 33.11900
H  -1.18500 17.95500 33.14200
H  -2.77400 22.98100 26.56900
H  -0.97400 23.19500 26.52600
H  -1.85300 22.33700 27.86500
H  -1.80800 24.18400 23.01600
H  -1.24600 23.99000 24.65800
H  -2.91100 23.54700 24.35000
H  -0.55200 17.01400 20.85300
H  -2.72300 15.03400 21.62700
H  -3.26900 16.98600 20.07600
H  -2.36700 18.52200 20.11600
H  -3.34700 17.92500 21.51300
H  -0.70200 14.97900 20.02300
H  -0.99100 13.46400 21.10100
H  0.99000 15.26400 22.36800
H  1.36800 15.07200 20.66000
H  1.17800 13.63200 21.64200
H  -0.93300 11.28000 24.60700
H  -2.66600 10.98700 25.20200
H  -1.26500 10.49700 26.13500
H  -2.89200 13.51200 30.08500
H  -1.03200 12.67400 33.73600
H  0.28400 13.53300 32.93600
H  0.15400 11.73400 32.83100
Mg 26.33900 0.14800 29.02200
C  27.92700 0.01200 32.24600
C  23.24300 0.14200 30.74100
C  24.69500 0.11300 26.14800
C  29.34200 -0.66000 27.63500
N  25.71200 -0.01700 31.21500
C  26.50500 0.19100 32.30200
C  25.72700 0.61700 33.54900
C  24.29900 0.50400 33.05900
C  24.41700 0.11900 31.58900
C  23.47200 -0.57800 33.79400
C  26.10500 2.00000 34.16100
C  25.40300 2.40000 35.50500
H  26.32300 2.62800 36.67900
N  24.27500 0.29600 28.52800
C  23.19500 0.21400 29.36900
C  21.95900 0.23200 28.60200
C  22.31600 0.40000 27.25200
C  23.80500 0.31000 27.22400
C  20.62700 0.09600 29.28200
C  21.53000 0.64400 26.00100
O  22.00700 0.75600 24.84400
C  20.09500 0.64300 26.03300
N  26.99200 -0.22400 27.24200
C  26.09800 -0.16400 26.17600
C  26.88900 -0.31900 24.86100
C  28.38000 -0.38500 25.34400
C  28.25800 -0.37300 26.85300
C  26.56600 -1.43300 23.80900
C  29.28200 0.77500 24.87300
C  29.98100 0.54600 23.53000
N  28.25400 -0.18500 29.69200
C  29.36500 -0.50500 28.98200
C  30.55400 -0.47600 29.80200
C  29.97900 -0.25600 31.13800
C  28.66300 -0.10400 31.00600
C  31.93300 -0.79700 29.48400
C  30.36500 -0.06600 32.52500
O  31.47600 -0.29600 33.07500
C  28.99600 0.19200 33.23100
C  28.96500 -0.66000 34.35700
O  28.97200 -1.87600 34.34400
O  28.89400 0.07700 35.52400
C  28.63700 -0.69800 36.75200
H  22.35100 0.10600 31.37000
H  24.31700 0.23900 25.13100
H  30.27900 -0.97100 27.16900
H  25.92000 -0.18100 34.26500
H  23.74600 1.43700 33.16700
H  22.70400 -0.06500 34.37100
H  24.02700 -1.08600 34.58300
H  23.04800 -1.23400 33.03400
H  25.87200 2.73700 33.39200
H  27.17200 1.98100 34.38300
H  24.64800 1.68400 35.83100
H  24.83400 3.30400 35.28400
H  20.25500 1.12000 29.24100
H  20.70900 -0.22400 30.32100
H  19.90600 -0.58700 28.83300
H  19.85700 1.30900 26.86200
H  19.70900 -0.33200 26.33100
H  19.53800 0.93400 25.14300
H  26.69600 0.57900 24.27400
H  28.84600 -1.35700 25.18400
H  27.40800 -2.08500 23.57600
H  26.16300 -0.89000 22.95500
H  25.73700 -2.04400 24.16500
H  29.96000 0.94600 25.70900
H  28.69600 1.68800 24.77100
H  30.90500 -0.02000 23.65400
H  30.12200 1.49400 23.01200
H  29.45300 -0.19700 22.93200
H  32.40500 -0.00200 28.90800
H  31.88200 -1.74100 28.94200
H  32.49000 -0.90500 30.41500
H  29.12500 1.25200 33.45200
H  27.77300 -1.36400 36.76400
H  28.52200 -0.03200 37.60700
H  29.51400 -1.32300 36.92200

