158

Mg 24.08800 -4.85300 45.40500
C  25.99500 -2.25500 44.00500
C  21.52100 -4.18300 43.33100
C  22.70500 -7.55400 46.51600
C  27.08900 -5.82500 47.05700
N  23.85100 -3.39600 43.85600
C  24.67600 -2.41700 43.45000
C  24.02800 -1.47400 42.40800
C  22.49900 -1.91100 42.48600
C  22.58400 -3.24800 43.31000
C  21.50600 -0.90500 43.20300
C  24.77400 -1.78800 41.06700
C  25.40400 -0.63200 40.22600
H  25.11700 -0.60700 38.74400
N  22.28300 -5.78300 45.01500
C  21.30800 -5.32900 44.12300
C  20.16000 -6.16100 44.19800
C  20.45200 -7.11200 45.18700
C  21.82900 -6.82700 45.66200
C  18.91500 -5.83000 43.35100
C  19.49700 -8.23600 45.55700
O  18.35500 -8.37300 45.07200
C  19.92900 -9.37800 46.52000
N  24.96100 -6.56400 46.42000
C  24.02800 -7.45700 46.90200
C  24.65100 -8.41000 47.90300
C  25.93000 -7.69300 48.25200
C  26.08200 -6.66700 47.12100
C  23.79200 -8.97300 49.09400
C  27.17600 -8.66100 48.41800
C  27.88500 -8.86900 49.76200
N  26.14800 -4.20300 45.47500
C  27.21600 -4.75800 46.15600
C  28.34800 -3.86500 46.03600
C  27.92500 -2.90000 45.15100
C  26.57600 -3.12600 44.92300
C  29.71800 -4.00000 46.64300
C  28.40600 -1.74100 44.43300
O  29.49000 -1.22300 44.30200
C  27.06600 -1.33700 43.64300
C  26.74900 0.06500 44.08000
O  26.43100 0.51000 45.17400
O  27.02800 0.85000 42.98000
C  27.22300 2.29500 43.16200
H  20.69000 -3.91300 42.67600
H  22.22300 -8.34400 47.09600
H  27.95800 -6.03500 47.68400
H  24.23400 -0.42800 42.63500
H  22.09700 -2.02500 41.48000
H  22.10100 -0.14300 43.70700
H  20.86900 -1.41100 43.92800
H  20.81500 -0.51200 42.45800
H  24.02500 -2.34700 40.50700
H  25.54800 -2.53900 41.23100
H  26.46300 -0.80200 40.41900
H  25.06700 0.34600 40.57100
H  18.00800 -6.29500 43.73500
H  19.00800 -6.29200 42.36800
H  18.72300 -4.76100 43.26100
H  19.12300 -10.09900 46.65500
H  20.14300 -8.96900 47.50800
H  20.79000 -9.94200 46.16100
H  24.94700 -9.32300 47.38600
H  25.75700 -7.04900 49.11400
H  22.92800 -8.33200 49.26700
H  24.46900 -8.96300 49.94800
H  23.35700 -9.94100 48.84500
H  27.93400 -8.40000 47.68000
H  26.98000 -9.70400 48.16800
H  27.60400 -9.86300 50.11000
H  27.50300 -8.12900 50.46600
H  28.94600 -8.72400 49.56200
H  29.45600 -4.02200 47.70100
H  30.33200 -3.10800 46.52100
H  30.19600 -4.95100 46.40500
H  27.26600 -1.44400 42.57700
H  26.71100 2.72800 44.02100
H  26.89800 2.79300 42.24800
H  28.28400 2.54200 43.16300
Mg 34.41100 2.86400 29.20300
C  32.43100 4.11800 31.72900
C  37.05800 2.46300 31.67600
C  36.59700 2.49400 26.72800
C  31.96500 3.74100 26.86100
N  34.70600 3.20900 31.48300
C  33.70300 3.69100 32.24200
C  34.09500 3.66100 33.74900
C  35.60100 3.40000 33.63400
C  35.83700 3.05900 32.19600
C  36.45500 4.71900 34.00500
C  33.27600 2.67600 34.60000
C  33.07500 3.26500 36.02200
H  34.05800 4.28400 36.58600
N  36.45800 2.30900 29.18000
C  37.30300 2.19200 30.28200
C  38.60400 1.79300 29.78300
C  38.65900 1.99500 28.36700
C  37.20800 2.31400 28.00900
C  39.74800 1.55000 30.67300
C  39.80000 1.86600 27.33800
O  39.56900 1.99900 26.11600
C  41.23300 1.54700 27.63600
N  34.26500 3.13700 27.18700
C  35.26800 2.81600 26.37700
C  34.97700 3.00800 24.90800
C  33.47300 3.08100 24.90800
C  33.17400 3.25400 26.41800
C  35.74300 4.10700 24.28600
C  32.66000 1.84400 24.35400
C  32.32500 0.64500 25.14200
N  32.56900 3.77800 29.21800
C  31.64200 3.93900 28.21900
C  30.36900 4.42500 28.75600
C  30.59100 4.47200 30.14700
C  31.99000 4.15200 30.35300
C  29.18400 4.65900 27.94100
C  30.05100 4.84700 31.41000
O  28.94200 5.27600 31.73000
C  31.21400 4.55200 32.50300
C  31.31300 5.82800 33.21100
O  32.11500 6.69700 32.99500
O  30.37500 5.93200 34.22900
C  30.46200 7.04900 35.18000
H  37.77500 2.30600 32.48500
H  37.22500 2.46600 25.83400
H  31.25400 3.92100 26.05300
H  33.86000 4.66800 34.09600
H  36.00500 2.63100 34.29200
H  36.92100 4.43200 34.94700
H  35.83300 5.56100 34.30800
H  37.08900 4.93700 33.14500
H  33.95800 1.84800 34.79000
H  32.32800 2.38700 34.14500
H  33.09800 2.43400 36.72600
H  32.15100 3.84000 35.97300
H  40.14000 0.56900 30.40500
H  39.53800 1.53100 31.74200
H  40.43200 2.39500 30.59500
H  41.53100 2.12200 28.51200
H  41.93700 1.77400 26.83500
H  41.33200 0.48400 27.85900
H  35.16000 2.06600 24.39100
H  33.07200 4.02500 24.53800
H  36.44000 4.67200 24.90600
H  35.03900 4.74700 23.75400
H  36.35100 3.58600 23.54700
H  33.27600 1.41500 23.56400
H  31.79100 2.29500 23.87400
H  31.23600 0.61600 25.11400
H  32.54700 0.82100 26.19400
H  32.81500 -0.25100 24.76300
H  29.32200 5.42400 27.17700
H  28.26300 4.67700 28.52300
H  29.04700 3.70800 27.42500
H  30.95300 3.84000 33.28600
H  29.55000 7.10200 35.77400
H  30.54600 7.92000 34.53000
H  31.34000 6.97700 35.82200

