158

Mg 9.67800 4.37300 27.78600
C  10.81600 2.71000 30.84200
C  7.85500 6.37600 29.65900
C  8.10300 5.46900 24.89100
C  11.10500 1.81200 25.88500
N  9.27800 4.42200 30.05400
C  10.02600 3.86900 31.08600
C  9.75400 4.55100 32.41100
C  8.60600 5.54600 32.01900
C  8.55100 5.44200 30.46400
C  7.18000 5.23400 32.67800
C  11.04100 5.17000 33.13800
C  11.60900 4.41500 34.31400
H  11.90700 5.28200 35.58100
N  8.26900 5.81300 27.40100
C  7.63000 6.56900 28.26300
C  6.78400 7.58600 27.62500
C  6.99300 7.42200 26.21100
C  7.86800 6.26000 26.04200
C  6.07700 8.65500 28.48300
C  6.48200 8.21400 25.01800
O  6.74200 7.98600 23.87700
C  5.61100 9.51600 25.24700
N  9.78700 3.85700 25.66600
C  8.85100 4.24800 24.80200
C  8.98400 3.57000 23.40900
C  10.14800 2.55500 23.67600
C  10.45100 2.78800 25.15200
C  7.79800 2.95800 22.81300
C  11.36600 2.76900 22.72100
C  11.62500 1.93500 21.44400
N  10.77800 2.68400 28.19300
C  11.17500 1.67300 27.32300
C  11.67800 0.55400 28.08200
C  11.60700 0.95000 29.44800
C  11.04800 2.18100 29.47600
C  12.15500 -0.74200 27.49400
C  11.89700 0.50600 30.83800
O  12.40200 -0.57800 31.19700
C  11.45800 1.72300 31.83100
C  10.57200 1.11200 32.84100
O  9.37000 1.15800 32.84000
O  11.31500 0.47500 33.82000
C  10.67200 0.37700 35.11400
H  7.58300 7.18500 30.34200
H  7.69800 5.69700 23.90300
H  11.50300 1.04200 25.22100
H  9.33200 3.68000 32.91400
H  8.86900 6.57400 32.27200
H  7.16300 4.37600 33.35000
H  6.48400 5.04100 31.86200
H  6.78300 6.05900 33.27000
H  10.80200 6.21000 33.36000
H  11.68900 5.15000 32.26100
H  12.54100 3.95700 33.98300
H  10.81500 3.72500 34.59700
H  4.99900 8.72600 28.33600
H  6.57100 9.57700 28.17800
H  6.17200 8.50100 29.55700
H  5.44600 9.87100 24.23000
H  6.07400 10.34100 25.78800
H  4.60500 9.22300 25.54800
H  9.21800 4.40800 22.75200
H  9.85300 1.50800 23.59600
H  7.88700 1.89000 22.61700
H  7.61800 3.55000 21.91600
H  6.88900 3.07700 23.40300
H  12.24100 2.62900 23.35500
H  11.39800 3.78900 22.33700
H  11.88200 2.57800 20.60200
H  10.74300 1.31800 21.27400
H  12.41400 1.19600 21.58300
H  11.94600 -1.59700 28.13700
H  13.17600 -0.62700 27.12800
H  11.58400 -0.90500 26.58000
H  12.37200 2.14400 32.25100
H  11.48900 0.41200 35.83500
H  10.15800 -0.58400 35.14100
H  9.90900 1.12100 35.33900
Mg 35.65300 -0.12100 29.57000
C  33.62500 1.24900 32.07500
C  38.20800 -0.44200 31.83400
C  37.57700 -1.37300 27.16800
C  33.01900 0.43000 27.29500
N  35.86900 0.32600 31.71200
C  34.91500 0.90100 32.50100
C  35.50300 1.14900 33.88800
C  37.06300 0.91400 33.77800
C  37.09300 0.18300 32.41300
C  37.85900 2.16400 33.80200
C  34.87700 0.28100 34.97800
C  34.89800 0.77700 36.41500
H  35.92300 1.84600 36.75300
N  37.50000 -1.06500 29.61000
C  38.35900 -1.03400 30.60000
C  39.58400 -1.83100 30.25600
C  39.32900 -2.20300 28.92000
C  38.08200 -1.55500 28.44900
C  40.73100 -2.02400 31.18700
C  40.28100 -2.99200 28.01900
O  40.03800 -3.16800 26.85500
C  41.55400 -3.78000 28.58200
N  35.29100 -0.43200 27.47100
C  36.34300 -0.88800 26.66800
C  35.99500 -0.52400 25.12500
C  34.41200 -0.26400 25.22200
C  34.21200 -0.06700 26.72600
C  36.68300 0.74800 24.57000
C  33.54100 -1.43700 24.78200
C  32.49000 -1.02300 23.68300
N  33.66400 0.63000 29.66100
C  32.71500 0.74000 28.64500
C  31.57200 1.41100 29.19900
C  31.83700 1.58500 30.56000
C  33.15300 1.09300 30.75100
C  30.34400 1.66500 28.39900
C  31.31000 2.09100 31.81400
O  30.25700 2.63400 32.14700
C  32.45100 1.90300 32.86100
C  32.68100 3.28700 33.35000
O  32.97400 4.29000 32.72300
O  32.45000 3.23500 34.72400
C  32.49700 4.39800 35.53800
H  38.96400 -0.36400 32.61900
H  38.33300 -1.46000 26.38500
H  32.15400 0.66900 26.67400
H  35.34700 2.21600 34.04600
H  37.39700 0.27600 34.59600
H  37.20100 3.02600 33.69400
H  38.57200 2.16500 32.97800
H  38.44800 2.18200 34.71900
H  35.25300 -0.74100 35.00400
H  33.84800 0.12500 34.65600
H  35.03100 -0.05600 37.10500
H  33.93900 1.25400 36.61900
H  41.60000 -1.91600 30.53900
H  40.79200 -2.96300 31.73700
H  40.76800 -1.20400 31.90400
H  41.72900 -4.58000 27.86200
H  41.43900 -4.18400 29.58800
H  42.50400 -3.24800 28.62500
H  36.29400 -1.44300 24.61900
H  34.12600 0.71300 24.83200
H  37.50300 1.07100 25.21200
H  36.04800 1.61300 24.37700
H  37.20300 0.41100 23.67300
H  32.96600 -1.81900 25.62500
H  34.15500 -2.17200 24.26200
H  31.48100 -1.34400 23.94200
H  32.79700 -1.58000 22.79800
H  32.45700 0.06100 23.56600
H  29.62500 2.17500 29.04100
H  29.82800 0.72900 28.18800
H  30.58900 2.26900 27.52500
H  32.06500 1.22700 33.62400
H  32.82300 4.08700 36.53100
H  31.52500 4.83200 35.77000
H  33.01500 5.23300 35.06600

