158

Mg 9.56200 48.01900 24.86500
C  7.55800 47.93500 27.68300
C  12.18800 49.18600 26.74600
C  11.47500 47.76600 22.08000
C  6.77700 47.13800 23.02700
N  9.84000 48.42700 26.95600
C  8.88000 48.32900 27.90700
C  9.39900 48.85000 29.19500
C  10.74100 49.58400 28.78600
C  11.00200 48.98800 27.38600
C  10.57300 51.12500 28.88300
C  9.71500 47.77600 30.27900
C  9.06500 47.94700 31.64000
H  9.05700 46.88600 32.65300
N  11.54200 48.33000 24.49400
C  12.51500 48.77200 25.41100
C  13.82900 48.73200 24.82600
C  13.59000 48.33800 23.41000
C  12.19900 48.13200 23.26400
C  15.08000 48.99900 25.62200
C  14.56200 48.42500 22.32500
O  14.28900 48.05000 21.17200
C  15.90300 48.95200 22.58700
N  9.17700 47.68400 22.86600
C  10.11500 47.51400 21.88100
C  9.50700 47.18700 20.51100
C  8.00400 47.15100 20.83800
C  7.95800 47.34700 22.31200
C  9.93600 48.15100 19.40500
C  7.38800 45.81800 20.32300
C  7.84900 44.54700 20.95200
N  7.49300 47.68400 25.17200
C  6.46000 47.33600 24.36100
C  5.24600 47.11100 25.10200
C  5.61700 47.32400 26.41000
C  6.98300 47.66000 26.40000
C  3.91500 46.64000 24.50100
C  5.20600 47.35300 27.80600
O  4.12000 47.07200 28.21400
C  6.45400 47.70000 28.68700
C  6.70800 46.57800 29.60300
O  7.48900 45.66800 29.37100
O  5.95000 46.75800 30.75600
C  6.02100 45.72800 31.83100
H  12.98200 49.72300 27.26700
H  11.96300 47.64400 21.11000
H  5.85800 46.83100 22.52300
H  8.63300 49.58600 29.43900
H  11.62100 49.40200 29.40300
H  10.82200 51.72600 28.00800
H  11.27000 51.37100 29.68400
H  9.56800 51.37100 29.22500
H  10.77800 47.85200 30.51100
H  9.61100 46.75800 29.90400
H  8.05500 48.34800 31.55800
H  9.65300 48.70100 32.16400
H  14.92600 48.85900 26.69200
H  15.47700 50.01000 25.53800
H  15.92200 48.31800 25.49800
H  16.46300 49.00500 21.65300
H  16.48500 48.20900 23.13200
H  15.82900 49.92800 23.06800
H  9.82100 46.21400 20.13000
H  7.55600 48.02900 20.37400
H  10.57400 48.95600 19.77000
H  9.09500 48.58800 18.86600
H  10.43900 47.62300 18.59500
H  7.65700 45.80900 19.26700
H  6.30100 45.89700 20.34400
H  8.85700 44.71500 21.33300
H  7.87900 43.78500 20.17400
H  7.15400 44.23700 21.73200
H  3.49400 47.17400 23.64900
H  3.20000 46.67500 25.32300
H  4.05000 45.63500 24.10200
H  6.39500 48.54600 29.37200
H  6.72400 44.90700 31.68700
H  5.05900 45.22400 31.92200
H  6.19100 46.40200 32.67100
Mg -12.19100 17.01400 42.36000
C  -9.17300 15.40500 42.21900
C  -10.93000 19.74500 40.73300
C  -15.37900 18.18200 41.93400
C  -13.65300 13.80000 43.04600
N  -10.27400 17.45400 41.40500
C  -9.17300 16.69100 41.65000
C  -7.93800 17.29700 40.88400
C  -8.50100 18.77500 40.53800
C  -9.99300 18.67100 40.93800
C  -7.81800 20.02000 41.31700
C  -7.55400 16.41400 39.67100
C  -6.08500 15.99800 39.63400
H  -5.31800 16.38300 38.38600
N  -13.04500 18.75600 41.51100
C  -12.33900 19.80300 40.97900
C  -13.22200 20.86800 40.68800
C  -14.50800 20.50900 41.21000
C  -14.35800 19.10400 41.60200
C  -12.81400 22.19600 39.95800
C  -15.78000 21.35500 41.26600
O  -15.76500 22.35700 40.58800
C  -17.05400 20.99100 41.97600
N  -14.26500 16.13500 42.38400
C  -15.42000 16.89500 42.32100
C  -16.68700 16.11200 42.71300
C  -16.07800 14.65500 43.06000
C  -14.57800 14.87000 42.76800
C  -17.63800 16.77900 43.67800
C  -16.80100 13.45100 42.39600
C  -16.81400 12.19100 43.22000
N  -11.54400 15.04200 42.72300
C  -12.20600 13.86500 42.97800
C  -11.26400 12.76800 43.14900
C  -10.07100 13.34000 42.96100
C  -10.28700 14.70500 42.71000
C  -11.67700 11.39600 43.35300
C  -8.68000 13.09700 42.88300
O  -8.04400 12.08700 43.08600
C  -7.99900 14.41800 42.53100
C  -7.10200 15.01900 43.53400
O  -7.57900 15.77100 44.38300
O  -5.78300 14.65300 43.32100
C  -4.81800 15.33900 44.19900
H  -10.45100 20.64800 40.34900
H  -16.38400 18.59600 42.03600
H  -14.05800 12.79600 43.18900
H  -7.11900 17.41500 41.59200
H  -8.34100 18.87100 39.46400
H  -6.92700 19.74300 41.88100
H  -8.48300 20.51200 42.02600
H  -7.43500 20.76500 40.61900
H  -7.69800 16.93500 38.72500
H  -8.15400 15.51100 39.55800
H  -5.91900 14.92400 39.71900
H  -5.48800 16.43100 40.43700
H  -12.93800 23.11800 40.52700
H  -13.50300 22.25400 39.11500
H  -11.76900 22.10300 39.66200
H  -16.84200 20.69500 43.00400
H  -17.58900 20.17900 41.48200
H  -17.64500 21.90700 41.99800
H  -17.26900 15.87400 41.82200
H  -16.10000 14.71800 44.14800
H  -17.14100 17.49100 44.33800
H  -18.05100 16.14000 44.45900
H  -18.45000 17.31900 43.19200
H  -16.31300 13.27900 41.43700
H  -17.83500 13.58400 42.07600
H  -16.27800 11.39200 42.70700
H  -17.83700 11.83300 43.33400
H  -16.29100 12.32000 44.16800
H  -12.56200 11.34500 43.98700
H  -10.84300 10.78400 43.69500
H  -11.97300 10.99100 42.38500
H  -7.32500 14.27700 41.68600
H  -5.24300 15.54000 45.18200
H  -4.53500 16.34400 43.88600
H  -3.96200 14.71300 44.45100

