158

Mg 49.44100 35.00800 27.98800
C  47.20600 33.89400 30.62100
C  49.70200 37.92500 29.85900
C  50.89900 36.50600 25.31100
C  48.34000 32.49100 26.01400
N  48.40900 35.81900 29.97700
C  47.80800 35.09000 30.98000
C  47.68600 35.87300 32.25200
C  48.19900 37.31800 31.82300
C  48.86200 36.96700 30.48900
C  47.00900 38.38500 31.69300
C  48.29200 35.11000 33.44700
C  49.36900 35.83700 34.18000
H  49.13600 37.00400 35.12700
N  50.38400 36.81700 27.70800
C  50.30900 37.91900 28.51400
C  51.12900 38.97700 27.97100
C  51.54900 38.57100 26.66000
C  50.96900 37.23600 26.50600
C  51.61100 40.21300 28.88700
C  52.37700 39.28200 25.64000
O  52.70400 38.82600 24.53900
C  53.07500 40.70000 26.04200
N  49.71400 34.52300 25.94900
C  50.37400 35.29500 24.98500
C  50.16100 34.65900 23.57900
C  49.50800 33.28500 23.90100
C  49.12500 33.40300 25.35700
C  49.29500 35.58100 22.68100
C  50.40700 32.02400 23.73100
C  49.74000 30.68800 23.19800
N  48.17400 33.47800 28.29600
C  47.83300 32.49800 27.33100
C  47.18200 31.44300 28.04500
C  46.74700 32.00300 29.22300
C  47.42200 33.26600 29.37900
C  46.72100 30.09400 27.47900
C  45.99600 31.85700 30.41800
O  45.28200 30.90300 30.73800
C  46.06700 33.16400 31.26400
C  46.33600 32.70100 32.65400
O  47.30800 32.01300 33.01300
O  45.33600 33.21800 33.46200
C  45.38600 32.61500 34.81100
H  49.85900 38.84300 30.42900
H  51.20000 37.01700 24.39400
H  48.09700 31.61400 25.41000
H  46.65700 35.99000 32.59100
H  48.98400 37.71200 32.47000
H  46.89800 38.79000 30.68800
H  47.25100 39.26100 32.29500
H  46.09900 37.93000 32.08400
H  48.66600 34.21300 32.95500
H  47.50900 34.85000 34.15900
H  50.04700 36.14700 33.38500
H  49.92200 35.03100 34.66100
H  51.44400 40.06200 29.95300
H  51.32300 41.24800 28.70100
H  52.69800 40.21000 28.79900
H  53.78000 40.76400 26.87000
H  52.16800 41.24800 26.29900
H  53.44300 41.14100 25.11500
H  51.09900 34.50700 23.04600
H  48.56000 33.21000 23.36900
H  48.59300 34.97200 22.11300
H  49.97300 36.18200 22.07400
H  48.74500 36.27300 23.31800
H  50.96700 31.95700 24.66300
H  51.23900 32.21200 23.05200
H  50.02400 30.61300 22.14800
H  48.67300 30.59400 23.40300
H  50.22300 29.89600 23.76900
H  46.73500 29.25600 28.17700
H  47.40100 29.78200 26.68600
H  45.73800 30.13700 27.01200
H  45.11500 33.69300 31.19800
H  44.40100 32.76100 35.25500
H  46.13100 33.06400 35.46900
H  45.57800 31.55000 34.68400
Mg 36.88800 49.45900 25.19900
C  37.03500 47.79500 28.20500
C  35.41000 52.11900 27.02100
C  36.49000 51.03100 22.27500
C  38.06800 46.73900 23.48900
N  36.12300 49.85400 27.32700
C  36.42300 49.04000 28.40700
C  35.91500 49.61200 29.72500
C  35.25900 50.95100 29.27100
C  35.62200 50.99500 27.80400
C  33.75500 51.13400 29.52700
C  37.16700 49.84100 30.64600
C  37.15300 49.24800 32.06900
H  35.82900 49.24900 32.86900
N  36.12600 51.31700 24.75500
C  35.55100 52.24200 25.61600
C  35.00300 53.32400 24.80300
C  35.39300 53.08200 23.46700
C  36.04200 51.76500 23.42600
C  34.23200 54.50900 25.38700
C  35.11700 53.98500 22.29500
O  35.45600 53.68100 21.10700
C  34.58200 55.39200 22.48500
N  37.37100 48.97100 23.15700
C  37.08000 49.76400 22.13500
C  37.43200 49.19100 20.79100
C  38.14600 47.86300 21.22500
C  37.95000 47.86500 22.70200
C  36.25900 49.02200 19.83600
C  39.67100 47.92400 20.96100
C  40.18800 47.72800 19.52300
N  37.45600 47.57600 25.70800
C  37.89200 46.56300 24.87200
C  38.28000 45.50300 25.77000
C  37.99100 45.89000 27.06700
C  37.41800 47.15600 26.99500
C  38.93000 44.23900 25.28100
C  38.07500 45.55300 28.47400
O  38.54500 44.56200 28.99300
C  37.28700 46.73600 29.29300
C  36.07300 46.11100 29.99400
O  34.88800 46.22100 29.68400
O  36.54200 45.50300 31.15300
C  35.59000 44.87800 32.13500
H  35.14800 53.04200 27.54300
H  36.37800 51.63300 21.37100
H  38.35200 45.87200 22.89000
H  35.32500 48.79500 30.14100
H  35.70000 51.80600 29.78200
H  33.30500 50.35100 30.13700
H  33.23300 51.26400 28.57900
H  33.61700 52.05800 30.08900
H  37.38000 50.90800 30.70600
H  38.04600 49.45000 30.13300
H  37.69200 50.01500 32.62500
H  37.64700 48.28000 32.14900
H  34.06000 54.33500 26.44900
H  33.26900 54.71700 24.92000
H  34.88900 55.37400 25.30100
H  35.13100 55.87400 23.29400
H  33.51800 55.43400 22.71900
H  34.74400 55.91400 21.54200
H  38.20900 49.78200 20.30800
H  37.76200 46.93900 20.79500
H  36.59000 49.47000 18.89900
H  35.40100 49.56400 20.23400
H  35.92600 48.03700 19.50700
H  40.03600 47.13200 21.61500
H  40.07500 48.87200 21.31500
H  40.75300 48.61300 19.23200
H  39.42500 47.31900 18.86100
H  40.87800 46.92200 19.77500
H  40.01000 44.27700 25.13900
H  38.48400 43.87200 24.35700
H  38.78700 43.54900 26.11300
H  37.92400 47.09400 30.10200
H  35.86200 43.84200 32.33700
H  34.56200 44.91800 31.77500
H  35.70200 45.41600 33.07700

