158

Mg 47.65000 34.01000 26.92000
C  45.80100 32.55600 29.50600
C  48.07500 36.81400 29.07400
C  49.04600 35.81000 24.37400
C  46.95500 31.47900 24.85000
N  46.93500 34.65500 29.02800
C  46.24100 33.81800 29.91000
C  46.08900 34.55700 31.27300
C  46.44300 35.97900 30.82100
C  47.25300 35.78300 29.58200
C  45.21300 36.86800 30.61100
C  47.02700 33.99700 32.31000
C  46.49400 33.97600 33.75800
H  45.62200 35.06600 34.33100
N  48.65200 35.93800 26.77900
C  48.72200 36.86800 27.80200
C  49.55700 37.90400 27.30500
C  49.80800 37.71200 25.95000
C  49.13500 36.47200 25.62700
C  50.06600 39.06200 28.22100
C  50.51300 38.58000 24.87400
O  50.64600 38.26200 23.72000
C  51.29900 39.74800 25.40500
N  47.87500 33.78500 24.94300
C  48.55400 34.62600 24.03900
C  48.60200 34.01300 22.67000
C  48.25100 32.45600 23.00000
C  47.65400 32.56200 24.37400
C  47.97100 34.73500 21.47000
C  49.44800 31.48500 23.00700
C  49.30100 30.28600 22.07500
N  46.61000 32.37600 27.08500
C  46.42300 31.40100 26.15700
C  45.71700 30.30800 26.80800
C  45.48400 30.66700 28.14200
C  46.06500 31.95500 28.23500
C  45.25400 29.02200 26.15900
C  44.83200 30.26100 29.35100
O  44.26000 29.23800 29.61700
C  44.85600 31.51200 30.21500
C  45.21400 31.14500 31.64500
O  46.32800 30.88900 32.01900
O  44.07600 30.89800 32.35200
C  44.39600 30.30900 33.68600
H  48.32500 37.61000 29.78000
H  49.61000 36.30600 23.58200
H  46.82900 30.63400 24.17100
H  45.07900 34.40000 31.65200
H  47.06500 36.36100 31.63100
H  44.24200 36.40900 30.80100
H  45.09400 37.22900 29.59000
H  45.16100 37.68700 31.32800
H  47.94200 34.57400 32.44200
H  47.39300 33.00000 32.06500
H  47.43100 34.05400 34.30900
H  46.12900 32.95900 33.89900
H  51.08900 39.42500 28.12400
H  50.18000 38.69100 29.24000
H  49.36900 39.87600 28.02300
H  50.60100 40.43600 25.88200
H  51.63600 40.17900 24.46300
H  52.11300 39.65000 26.12400
H  49.68500 34.07100 22.56500
H  47.42900 32.17700 22.33900
H  47.80800 34.13800 20.57300
H  48.55600 35.59500 21.14300
H  46.94100 34.99400 21.71600
H  49.67800 31.21700 24.03800
H  50.34400 32.05800 22.76600
H  49.45800 29.45500 22.76300
H  50.04600 30.44400 21.29500
H  48.35500 30.16400 21.54900
H  45.54700 28.23700 26.85600
H  45.79000 28.86400 25.22300
H  44.17300 28.96900 26.03300
H  43.86100 31.94000 30.33600
H  44.89700 31.02300 34.34000
H  44.98500 29.39600 33.60400
H  43.47100 29.99400 34.16900
Mg -5.01500 25.23700 26.49100
C  -3.50600 26.86000 29.03700
C  -6.54700 23.09400 28.65700
C  -6.54400 23.59800 23.80900
C  -3.65200 27.48800 24.25700
N  -4.93700 24.96300 28.55200
C  -4.45100 25.88900 29.45300
C  -4.81600 25.48100 30.90000
C  -5.58800 24.14000 30.68800
C  -5.72600 24.10100 29.18300
C  -4.73400 22.96200 31.27500
C  -5.58800 26.68400 31.56700
C  -5.86700 26.69900 33.11200
H  -5.55700 25.41700 33.91800
N  -6.29100 23.53000 26.29500
C  -6.79000 22.84600 27.33300
C  -7.62400 21.72200 26.83300
C  -7.76700 21.87200 25.46300
C  -6.81800 22.99500 25.11600
C  -8.30200 20.70800 27.69900
C  -8.53200 21.09400 24.41600
O  -8.42300 21.42600 23.27200
C  -9.59000 20.04600 24.91700
N  -5.07600 25.53900 24.28900
C  -5.91200 24.81700 23.45900
C  -5.77300 25.30500 22.06000
C  -4.84900 26.66000 22.21500
C  -4.50700 26.55900 23.65900
C  -5.26300 24.40900 20.86500
C  -5.54800 27.96200 21.80200
C  -5.07600 28.54300 20.41700
N  -3.73800 26.70200 26.55000
C  -3.23300 27.53800 25.59500
C  -2.29800 28.49700 26.16100
C  -2.34100 28.24500 27.49600
C  -3.24700 27.15100 27.66200
C  -1.39900 29.54100 25.48000
C  -1.78900 28.66400 28.73800
O  -0.85000 29.46300 29.00700
C  -2.62900 27.83600 29.80900
C  -2.00200 27.19700 30.95600
O  -1.24000 26.26500 30.85600
O  -2.36800 27.88700 32.12700
C  -1.89200 27.22000 33.27800
H  -7.12900 22.55300 29.40600
H  -6.87700 23.14200 22.87400
H  -3.30300 28.35100 23.68500
H  -3.90500 25.27800 31.46300
H  -6.55300 24.28100 31.17500
H  -5.29400 22.39300 32.01600
H  -3.74500 23.18000 31.67800
H  -4.47200 22.35100 30.41100
H  -6.47000 26.87500 30.95600
H  -4.96400 27.56900 31.43800
H  -6.90500 26.99500 33.26400
H  -5.34400 27.58000 33.48500
H  -7.94100 19.70600 27.47000
H  -9.37000 20.79900 27.49800
H  -8.21100 20.83500 28.77800
H  -9.31800 19.23400 25.59000
H  -10.15700 19.72300 24.04300
H  -10.32900 20.68400 25.40200
H  -6.78700 25.59000 21.77800
H  -3.92800 26.48000 21.66100
H  -4.22700 24.50000 20.53800
H  -5.93000 24.76400 20.08000
H  -5.52400 23.35500 20.95400
H  -5.36200 28.71900 22.56400
H  -6.57700 27.60500 21.84800
H  -4.34800 29.30700 20.68900
H  -5.89000 28.99700 19.85100
H  -4.57500 27.76600 19.84100
H  -1.58700 29.49000 24.40800
H  -0.35000 29.33100 25.68900
H  -1.78300 30.52400 25.75400
H  -3.38800 28.50100 30.22100
H  -1.04700 27.74400 33.72400
H  -1.60600 26.18100 33.11400
H  -2.71700 27.09200 33.98000

