158

Mg 0.68700 -1.79700 43.35600
C  4.09500 -1.99400 42.65000
C  0.63200 1.09000 41.37400
C  -2.70500 -1.83500 43.45600
C  0.88600 -4.93200 44.83300
N  2.13400 -0.64500 42.12200
C  3.49000 -0.86700 42.11500
C  4.26700 0.24600 41.32300
C  3.19800 1.37700 41.08600
C  1.91100 0.60500 41.62100
C  3.46600 2.76400 41.91300
C  4.97800 -0.20600 40.05600
C  6.31000 0.43600 39.90400
H  6.49500 1.59500 38.87600
N  -0.84500 -0.60800 42.47800
C  -0.69100 0.60900 41.74800
C  -1.98200 1.15700 41.33400
C  -2.97400 0.29700 41.96200
C  -2.23000 -0.81700 42.64500
C  -2.13300 2.35700 40.39600
C  -4.48800 0.56900 42.04400
O  -4.91000 1.56200 41.51900
C  -5.58500 -0.26200 42.70500
N  -0.71800 -3.29000 43.91800
C  -2.04300 -2.94400 44.13900
C  -2.78000 -3.91100 45.01700
C  -1.60300 -4.95900 45.25400
C  -0.36000 -4.38300 44.66300
C  -3.61700 -3.35100 46.19700
C  -1.94100 -6.37000 44.62700
C  -2.52300 -7.47300 45.63600
N  2.22600 -3.17200 43.86400
C  2.13000 -4.40300 44.46100
C  3.46600 -4.90800 44.62500
C  4.28800 -4.01600 43.89300
C  3.48100 -2.99500 43.46600
C  3.81300 -6.22800 45.16400
C  5.62200 -3.78000 43.40500
O  6.67500 -4.42400 43.50800
C  5.51900 -2.46100 42.48100
C  6.54100 -1.44500 42.93400
O  6.50200 -0.66800 43.89400
O  7.58800 -1.70400 42.13800
C  8.79700 -0.83800 42.34700
H  0.58300 2.01400 40.79400
H  -3.77900 -1.86700 43.65300
H  1.00700 -5.87400 45.37300
H  4.97400 0.65600 42.04500
H  3.05900 1.71000 40.05700
H  2.62700 2.82600 42.60500
H  3.39500 3.62500 41.24700
H  4.37900 2.76000 42.50800
H  4.29600 0.07300 39.25300
H  5.03400 -1.29400 40.01500
H  7.10000 -0.27500 39.66100
H  6.62700 0.89800 40.84000
H  -3.16600 2.70700 40.41300
H  -1.96400 2.03700 39.36800
H  -1.43200 3.13500 40.69800
H  -6.59900 0.02200 42.42300
H  -5.48200 -0.34800 43.78600
H  -5.36400 -1.26000 42.32500
H  -3.53800 -4.32400 44.35300
H  -1.47000 -5.06100 46.33100
H  -3.41500 -3.90700 47.11300
H  -4.69600 -3.31300 46.04700
H  -3.38900 -2.32000 46.46900
H  -1.02600 -6.85500 44.28600
H  -2.69900 -6.17600 43.86800
H  -3.56900 -7.56300 45.34300
H  -2.22200 -7.18700 46.64300
H  -2.05200 -8.45500 45.59000
H  3.48000 -6.23600 46.20200
H  4.87600 -6.42100 45.02000
H  3.15700 -6.96600 44.70200
H  5.85300 -2.78900 41.49700
H  9.24900 -1.07000 43.31100
H  8.47600 0.20300 42.35400
H  9.51400 -1.05600 41.55600
Mg 25.70400 -0.12900 29.20000
C  27.50200 -0.15800 32.23100
C  22.87400 0.45900 30.82700
C  24.21900 -0.00600 26.20100
C  28.64700 -1.23900 27.60300
N  25.30700 0.18400 31.25400
C  26.13400 0.27500 32.34400
C  25.39500 0.58100 33.64700
C  24.02400 0.79100 33.12400
C  23.99700 0.40300 31.64300
C  23.03500 0.02300 33.96400
C  26.03500 1.78600 34.43300
C  26.92800 1.70100 35.74800
H  26.48600 2.61800 36.84900
N  23.79200 0.17800 28.53000
C  22.69600 0.37400 29.41300
C  21.49100 0.50000 28.59500
C  21.89300 0.40900 27.22100
C  23.33900 0.15300 27.27400
C  20.12400 0.67900 29.22700
C  21.13100 0.35500 25.92300
O  21.59400 0.15700 24.77300
C  19.73400 0.60500 26.14900
N  26.30500 -0.85400 27.27500
C  25.49400 -0.51400 26.19400
C  26.21900 -0.68600 24.91000
C  27.63500 -1.14000 25.36600
C  27.51300 -1.07900 26.83400
C  25.56900 -1.55900 23.90600
C  28.81200 -0.26700 24.81600
C  29.02000 1.07400 25.37700
N  27.70100 -0.60500 29.73800
C  28.79300 -1.03200 29.02000
C  29.99700 -1.13300 29.82700
C  29.45500 -0.86700 31.14400
C  28.09300 -0.55600 31.01900
C  31.40500 -1.44800 29.28400
C  29.83400 -0.85500 32.53000
O  30.88600 -1.17100 33.08000
C  28.55600 -0.27000 33.26900
C  28.21000 -1.22400 34.30100
O  27.40600 -2.13700 34.18400
O  29.01300 -1.08100 35.44200
C  28.86300 -2.10700 36.44100
H  21.98200 0.70600 31.40600
H  23.79500 0.06500 25.19800
H  29.61400 -1.59400 27.24000
H  25.59400 -0.27000 34.29800
H  23.80800 1.85800 33.18100
H  23.20600 0.13400 35.03500
H  23.04000 -1.05800 33.82800
H  22.01200 0.35900 33.79200
H  25.26100 2.54300 34.56800
H  26.75300 2.20800 33.73000
H  27.93300 2.04700 35.50700
H  26.88600 0.64000 35.99500
H  19.89300 1.74400 29.25700
H  20.06600 0.26100 30.23200
H  19.35700 0.09700 28.71700
H  19.30000 -0.33400 26.49200
H  19.42000 0.86500 25.13800
H  19.57000 1.38700 26.89000
H  26.28700 0.26900 24.38800
H  27.89000 -2.14800 25.03900
H  25.16500 -2.39200 24.48200
H  26.17800 -1.89500 23.06700
H  24.72700 -0.97500 23.53400
H  28.55000 -0.10900 23.76900
H  29.74300 -0.83000 24.76100
H  29.80100 1.06300 26.13800
H  28.05200 1.42800 25.72900
H  29.09300 1.74100 24.51800
H  31.57300 -0.50600 28.76100
H  31.42800 -2.39000 28.73600
H  32.16600 -1.56300 30.05600
H  28.81300 0.65400 33.78900
H  29.78700 -2.24700 37.00200
H  28.58700 -3.04500 35.96100
H  28.09000 -1.79400 37.14300

