158

Mg 16.71500 53.25700 26.37800
C  18.54300 51.56400 28.93900
C  14.37600 54.06600 28.91900
C  14.78800 54.27800 24.09600
C  18.84800 51.78800 24.11800
N  16.47400 52.91300 28.71100
C  17.45400 52.32600 29.50300
C  17.01800 52.36400 31.01300
C  15.61400 53.06400 30.93500
C  15.43400 53.37400 29.41500
C  14.40900 52.25500 31.53100
C  18.15700 53.11100 31.89000
C  18.32900 52.60600 33.30400
H  17.32400 51.68200 34.01800
N  14.84500 54.17000 26.50400
C  14.05100 54.43800 27.60800
C  12.80500 55.02200 27.13600
C  12.76900 54.89300 25.72500
C  14.16600 54.47700 25.35000
C  11.62900 55.51400 28.11300
C  11.74200 55.39800 24.72900
O  11.90000 55.21500 23.51400
C  10.44100 55.99800 25.19600
N  16.84800 53.09800 24.40500
C  15.99500 53.70700 23.63600
C  16.29100 53.58300 22.18300
C  17.58700 52.69800 22.18600
C  17.80000 52.48800 23.63200
C  15.24400 53.05600 21.21600
C  18.84200 53.05500 21.33900
C  19.40200 51.91900 20.38400
N  18.46300 52.03500 26.46600
C  19.17100 51.49900 25.44400
C  20.23400 50.78800 26.00000
C  20.08500 50.73400 27.35300
C  18.90100 51.50000 27.61900
C  21.41100 50.18900 25.07100
C  20.53700 50.12400 28.65900
O  21.47700 49.34800 28.82100
C  19.63500 50.67200 29.76600
C  19.04800 49.56100 30.61700
O  17.99400 48.95000 30.46700
O  19.89500 49.31700 31.70800
C  19.45800 48.40300 32.78500
H  13.55100 54.26900 29.60500
H  14.27900 54.85600 23.32100
H  19.34800 51.22500 23.32700
H  16.91600 51.28600 31.14000
H  15.80400 54.02000 31.42200
H  13.75100 51.99800 30.70100
H  13.98700 52.84400 32.34600
H  14.83900 51.32400 31.90100
H  17.91300 54.17300 31.89600
H  19.15800 53.08500 31.46000
H  18.60300 53.47700 33.90000
H  19.28500 52.10800 33.14300
H  11.35400 56.48900 27.71100
H  11.94400 55.58000 29.15400
H  10.84900 54.76000 28.00700
H  9.83000 55.41600 25.88700
H  9.91100 56.33800 24.30700
H  10.72100 56.85600 25.80700
H  16.53900 54.57600 21.80900
H  17.27200 51.68800 21.92300
H  15.09100 52.05500 21.62000
H  15.51000 52.89600 20.17100
H  14.38900 53.73200 21.23000
H  19.63700 53.28300 22.04900
H  18.74000 53.99000 20.78700
H  20.42600 51.65100 20.64100
H  19.40300 52.17100 19.32300
H  18.74200 51.05600 20.47900
H  22.22700 49.80900 25.68600
H  21.78600 51.03900 24.50300
H  20.92300 49.50000 24.38100
H  20.35100 51.19200 30.40300
H  19.97100 47.44700 32.68200
H  18.38700 48.21600 32.70100
H  19.64000 48.69900 33.81800
Mg -9.78900 39.07800 41.69400
C  -9.05900 35.67800 41.28600
C  -6.76900 39.91200 40.88000
C  -10.89200 42.32900 41.57900
C  -13.15500 38.10800 42.10300
N  -8.22100 37.94200 40.85700
C  -8.05500 36.61400 40.83900
C  -6.70800 36.23200 40.20200
C  -5.90900 37.55900 40.49700
C  -7.02100 38.55100 40.82600
C  -4.79900 37.49800 41.59100
C  -6.74400 35.55900 38.81200
C  -5.35100 34.94200 38.43100
H  -4.54500 35.51500 37.25000
N  -8.93200 40.87200 41.28900
C  -7.71600 41.03100 40.97400
C  -7.33200 42.41500 40.95800
C  -8.51000 43.19000 41.22000
C  -9.54700 42.17000 41.38100
C  -6.00400 42.95500 40.61900
C  -8.64300 44.74100 41.16600
O  -7.70700 45.42500 40.84800
C  -9.90800 45.51400 41.49300
N  -11.73700 40.09400 41.66300
C  -11.84200 41.40700 41.89500
C  -13.27300 41.88100 42.20600
C  -14.03600 40.52500 42.25100
C  -12.92800 39.50700 41.90300
C  -13.58200 42.84400 43.43200
C  -15.27500 40.33100 41.35100
C  -16.60700 39.97800 42.09400
N  -10.92000 37.24300 41.87900
C  -12.24000 37.01100 42.13000
C  -12.42700 35.54700 42.34500
C  -11.19000 34.99100 42.11300
C  -10.30700 36.05400 41.71800
C  -13.73600 34.86000 42.73300
C  -10.40800 33.79800 42.07200
O  -10.67800 32.70200 42.47800
C  -9.02400 34.24200 41.47100
C  -7.87300 33.90500 42.31800
O  -7.47200 34.54500 43.27400
O  -7.14700 32.87500 41.69000
C  -5.73500 32.77500 42.07700
H  -5.80100 40.38000 40.68800
H  -11.22300 43.35600 41.41200
H  -14.17100 37.79300 42.35200
H  -6.34600 35.41000 40.82000
H  -5.50100 37.81800 39.52000
H  -4.93100 38.18100 42.43000
H  -3.85000 37.75500 41.11900
H  -4.70200 36.50800 42.03600
H  -7.01400 36.28200 38.04200
H  -7.48900 34.76400 38.80500
H  -5.65700 33.91200 38.24500
H  -4.66800 34.73800 39.25600
H  -5.29000 42.29400 40.12800
H  -5.54800 43.38000 41.51300
H  -6.16400 43.74100 39.88100
H  -10.32600 45.10900 42.41400
H  -10.52900 45.28900 40.62600
H  -9.84200 46.59200 41.63800
H  -13.59100 42.42400 41.31600
H  -14.28000 40.32000 43.29400
H  -14.21900 43.64600 43.05900
H  -12.63900 43.28400 43.75900
H  -14.02600 42.46100 44.35100
H  -15.11100 39.47900 40.69100
H  -15.35900 41.31700 40.89200
H  -17.10000 40.94500 42.19500
H  -16.46900 39.61900 43.11400
H  -17.22600 39.27700 41.53400
H  -14.38800 35.45300 43.37400
H  -13.55900 34.00400 43.38300
H  -14.32000 34.48700 41.89200
H  -8.88000 33.76600 40.50100
H  -5.06800 32.26900 41.37900
H  -5.70900 32.12500 42.95200
H  -5.31400 33.73500 42.37700

