158

Mg 8.48100 2.36800 27.50800
C  10.16300 1.20100 30.19500
C  6.64700 4.44200 29.68400
C  6.84400 3.64700 24.90200
C  10.12600 0.00100 25.48600
N  8.35700 2.69000 29.74000
C  9.24300 2.22200 30.59800
C  8.96500 2.70700 31.97400
C  7.79500 3.78200 31.69000
C  7.50600 3.58100 30.23400
C  6.61700 3.67600 32.67200
C  10.18300 3.36400 32.76300
C  10.46900 2.77100 34.11900
H  10.58800 3.85600 35.24200
N  6.82300 3.83200 27.34300
C  6.40400 4.69500 28.32600
C  5.56500 5.75400 27.73300
C  5.49500 5.44800 26.34000
C  6.39600 4.22900 26.10600
C  4.74100 6.75300 28.54200
C  4.65500 6.16500 25.29400
O  4.56700 5.78500 24.11500
C  3.91700 7.41600 25.60600
N  8.24400 1.74100 25.57100
C  7.60000 2.49200 24.58400
C  7.84400 1.94500 23.18100
C  8.99900 0.94700 23.43200
C  9.15800 0.88700 24.94100
C  6.48300 1.35300 22.48400
C  10.35200 1.38200 22.69800
C  11.11700 0.13000 22.12300
N  9.94100 0.89500 27.75400
C  10.51700 0.03800 26.81000
C  11.47900 -0.78200 27.50500
C  11.35700 -0.41700 28.86100
C  10.36700 0.58000 28.95900
C  12.35200 -1.84300 26.93100
C  11.81600 -0.65900 30.26700
O  12.48200 -1.52500 30.75800
C  11.12100 0.46600 31.15400
C  10.32800 -0.28100 32.15900
O  9.30300 -0.88900 31.85000
O  10.86900 -0.25000 33.39600
C  10.05900 -0.77500 34.49000
H  6.15200 5.07600 30.42200
H  6.60500 4.28400 24.04700
H  10.68500 -0.64600 24.80700
H  8.64400 1.79200 32.47100
H  8.21600 4.78400 31.77900
H  5.78600 3.09500 32.27200
H  6.34200 4.62600 33.13100
H  7.03300 3.18100 33.54900
H  10.10200 4.44500 32.87600
H  11.07200 3.24100 32.14500
H  11.51400 2.46600 34.06900
H  9.70400 2.03000 34.34900
H  5.02400 6.89500 29.58500
H  3.67400 6.52600 28.53300
H  4.93000 7.72900 28.09600
H  3.18700 7.34500 26.41200
H  3.22100 7.62900 24.79600
H  4.57600 8.26300 25.79500
H  8.19600 2.74300 22.52800
H  8.87000 -0.07500 23.07500
H  5.71300 1.23700 23.24700
H  6.65700 0.42500 21.94000
H  6.17700 2.12400 21.77700
H  10.95700 1.82800 23.48600
H  10.16800 2.06300 21.86700
H  11.12500 0.24000 21.03800
H  10.55400 -0.72500 22.49800
H  12.14800 0.16000 22.47400
H  11.58000 -2.59100 26.74900
H  13.13400 -2.06400 27.65800
H  12.75100 -1.51800 25.97000
H  11.80900 1.10600 31.70600
H  10.19800 -1.83800 34.68700
H  9.00900 -0.52600 34.33600
H  10.28200 -0.31700 35.45300
Mg 47.02500 16.13300 28.07000
C  44.75200 15.84800 30.74100
C  49.22100 17.99700 30.09800
C  48.81700 17.04200 25.36200
C  44.44700 15.12100 25.94100
N  47.00600 16.88000 30.20200
C  46.05300 16.49100 31.10900
C  46.38400 17.00500 32.49300
C  47.76000 17.70500 32.29900
C  48.03000 17.60500 30.73300
C  48.01700 19.21800 32.61200
C  46.47700 15.83700 33.49900
C  45.76200 15.95600 34.83500
H  45.25400 17.40900 35.32400
N  48.92100 17.13800 27.79700
C  49.73200 17.73300 28.73800
C  50.96000 18.06600 28.17300
C  50.88700 17.83800 26.74300
C  49.49200 17.28200 26.56800
C  52.16900 18.62200 28.92100
C  51.92100 18.07000 25.61500
O  51.72900 17.81800 24.43000
C  53.22300 18.63400 25.95900
N  46.70000 16.06700 25.95000
C  47.56900 16.51400 25.04100
C  46.96900 16.47600 23.61900
C  45.77000 15.59600 23.82800
C  45.62700 15.57100 25.32200
C  46.61200 17.90900 23.13700
C  45.98100 14.20800 23.25200
C  44.76100 13.69900 22.52400
N  45.00200 15.63700 28.18700
C  44.11500 15.16500 27.29500
C  42.93700 14.59300 27.98100
C  43.16100 14.84500 29.27900
C  44.44100 15.47000 29.40800
C  41.70100 14.09200 27.36900
C  42.49700 14.80200 30.55300
O  41.38600 14.35700 30.87300
C  43.50900 15.42200 31.57800
C  42.87700 16.57600 32.25500
O  42.72700 17.66300 31.69100
O  42.37800 16.22700 33.47300
C  41.39400 17.14600 34.05700
H  49.95000 18.46600 30.76300
H  49.48100 17.25600 24.52100
H  43.63000 14.77700 25.30300
H  45.59900 17.59200 32.97100
H  48.60600 17.29200 32.84900
H  47.16100 19.64800 33.13200
H  48.23500 19.88300 31.77600
H  48.89100 19.30600 33.25800
H  47.50000 15.46200 33.53700
H  45.96000 15.00800 33.01700
H  46.34400 15.40200 35.57200
H  44.81300 15.42900 34.74000
H  53.06400 18.07300 28.62600
H  51.97800 18.58200 29.99400
H  52.29000 19.70100 28.83300
H  53.79000 17.84300 26.45100
H  53.07500 19.53500 26.55400
H  53.67600 18.94500 25.01800
H  47.75300 16.10700 22.95700
H  44.85900 15.95400 23.34700
H  45.55000 18.05600 22.94400
H  47.24200 18.19800 22.29500
H  46.98500 18.52300 23.95600
H  46.20200 13.52600 24.07300
H  46.84000 14.09100 22.59100
H  43.85300 13.98500 23.05500
H  44.59300 12.62300 22.57300
H  44.80600 14.00900 21.48000
H  41.02100 13.83200 28.18100
H  41.74200 13.20500 26.73800
H  41.07000 14.84800 26.90200
H  43.88600 14.69000 32.29300
H  40.40000 16.88600 33.69300
H  41.60900 18.15400 33.70100
H  41.28900 17.09000 35.14000

