158

Mg 16.90900 -1.88100 28.05100
C  16.18000 0.35300 30.54700
C  19.00600 -3.66300 30.13800
C  18.37000 -3.56100 25.46200
C  15.29700 0.30800 25.81800
N  17.64700 -1.62400 30.03300
C  17.08200 -0.71400 30.93900
C  17.58700 -1.06300 32.32300
C  18.69100 -2.18700 32.09800
C  18.35600 -2.56800 30.64600
C  20.17000 -1.69100 32.17600
C  16.40900 -1.44900 33.22800
C  16.47500 -0.99900 34.69400
H  17.64800 -0.11100 35.21900
N  18.31800 -3.61900 27.84600
C  19.04400 -4.15300 28.80800
C  19.80100 -5.25900 28.31000
C  19.56200 -5.27200 26.89700
C  18.68100 -4.16200 26.69000
C  20.52900 -6.28900 29.21900
C  20.17300 -6.13000 25.78100
O  19.85100 -6.00300 24.60900
C  21.20500 -7.22700 26.15600
N  16.72900 -1.75200 25.99700
C  17.60800 -2.42600 25.17600
C  17.42100 -1.97100 23.73000
C  16.21700 -0.96300 23.76300
C  15.98400 -0.83600 25.25500
C  18.71200 -1.37800 23.17800
C  14.96900 -1.47900 22.99900
C  13.96100 -0.45400 22.56800
N  15.80200 -0.13300 28.14800
C  15.20100 0.59000 27.16000
C  14.44700 1.65500 27.77700
C  14.75800 1.60500 29.12800
C  15.70700 0.55500 29.23800
C  13.45100 2.58300 27.08400
C  14.50400 2.22100 30.41300
O  13.88800 3.22000 30.74700
C  15.57300 1.47400 31.38900
C  16.56800 2.41000 32.16500
O  17.83500 2.30200 32.09900
O  15.87900 3.28300 33.04000
C  16.79000 3.76900 34.12400
H  19.63600 -4.22600 30.83000
H  18.84200 -3.95800 24.56100
H  14.78800 0.93800 25.08500
H  18.01900 -0.17000 32.77400
H  18.54000 -2.99800 32.81000
H  20.46000 -1.69500 33.22600
H  20.28400 -0.64500 31.89100
H  20.87500 -2.26300 31.57400
H  16.39000 -2.53900 33.24700
H  15.45300 -1.16900 32.78600
H  16.55200 -1.90700 35.29100
H  15.46500 -0.67500 34.94100
H  21.60900 -6.14200 29.22800
H  20.28100 -7.31700 28.95500
H  20.22500 -6.17300 30.26000
H  21.27100 -7.85700 25.26900
H  20.80200 -7.88500 26.92600
H  22.17300 -6.83600 26.46800
H  17.19800 -2.92600 23.25500
H  16.59200 -0.08000 23.24400
H  19.35400 -1.16800 24.03400
H  18.56000 -0.38400 22.75900
H  19.17400 -2.13400 22.54400
H  14.42700 -2.15400 23.66200
H  15.33000 -2.05900 22.15000
H  14.34100 0.52900 22.84600
H  12.98900 -0.67500 23.01000
H  13.90900 -0.43900 21.47900
H  13.31500 2.41100 26.01600
H  13.86900 3.58800 27.15500
H  12.54200 2.61400 27.68400
H  15.01000 1.11800 32.25100
H  16.38400 4.74100 34.40400
H  17.86000 3.82600 33.92500
H  16.66200 3.15100 35.01300
Mg -5.89000 24.86600 26.24000
C  -4.37600 26.57000 28.98400
C  -7.14100 22.64600 28.70500
C  -7.44200 23.42400 23.84900
C  -4.10700 27.02200 24.00800
N  -5.81400 24.63800 28.58300
C  -5.27100 25.57800 29.43200
C  -5.51400 25.19600 30.93300
C  -6.16200 23.70200 30.80500
C  -6.46100 23.63800 29.27500
C  -5.22700 22.56400 31.14800
C  -6.15300 26.28400 31.82100
C  -7.25600 25.79100 32.77100
H  -6.91800 24.81600 33.98800
N  -7.09800 23.21900 26.24200
C  -7.47500 22.42600 27.32400
C  -8.25100 21.33000 26.84200
C  -8.51200 21.58900 25.45400
C  -7.63500 22.75700 25.09600
C  -8.78300 20.20400 27.78700
C  -9.41800 20.90700 24.56500
O  -9.54300 21.11500 23.37000
C  -10.33600 19.77400 25.16200
N  -5.76500 25.16600 24.22200
C  -6.53100 24.40600 23.42300
C  -6.39700 24.96700 21.95300
C  -5.60900 26.28500 22.07300
C  -5.10700 26.14000 23.51300
C  -5.86800 23.92800 20.91900
C  -6.52400 27.56000 21.91800
C  -6.96500 27.95700 20.51100
N  -4.49000 26.46600 26.42200
C  -3.83900 27.17200 25.41000
C  -2.88300 27.98400 26.02500
C  -3.04900 27.86500 27.41600
C  -4.01200 26.85900 27.62200
C  -2.02300 28.97900 25.38600
C  -2.62800 28.37700 28.69100
O  -1.85500 29.32200 28.90600
C  -3.48500 27.56000 29.76600
C  -2.52900 26.82600 30.71500
O  -2.00100 25.80600 30.33600
O  -2.47600 27.45400 31.95800
C  -1.95400 26.62500 33.04700
H  -7.53200 21.93500 29.43600
H  -8.04100 22.94800 23.07000
H  -3.66400 27.81800 23.40500
H  -4.51300 25.06600 31.34400
H  -7.12700 23.53400 31.28200
H  -4.36100 22.78000 31.77300
H  -4.95000 21.94100 30.29800
H  -5.85000 21.93100 31.78000
H  -6.64700 27.03500 31.20400
H  -5.40700 26.83400 32.39500
H  -8.06500 25.34700 32.19300
H  -7.65300 26.69300 33.23700
H  -9.76400 20.52200 28.13700
H  -8.14200 20.24600 28.66800
H  -8.72400 19.23500 27.29000
H  -9.65900 18.92100 25.21000
H  -11.11800 19.75200 24.40200
H  -10.72800 20.10000 26.12500
H  -7.37900 25.28700 21.60500
H  -4.73400 26.49500 21.45700
H  -4.77800 23.94800 20.89900
H  -6.33600 24.01600 19.93800
H  -6.11100 22.92200 21.25900
H  -5.92800 28.41300 22.24100
H  -7.42700 27.46900 22.52000
H  -8.01400 27.72200 20.33500
H  -6.37600 27.50600 19.71200
H  -6.90800 29.04300 20.43200
H  -2.60400 29.72600 24.84400
H  -1.38300 28.35800 24.75900
H  -1.21800 29.45600 25.94500
H  -4.07800 28.33200 30.25600
H  -2.01100 25.54100 32.95200
H  -2.53500 26.83300 33.94600
H  -0.91000 26.85800 33.25400

