158

Mg 29.43200 58.69200 41.73700
C  26.35300 57.18700 40.32000
C  31.00200 55.87800 40.16400
C  32.16900 60.31700 41.78600
C  27.41900 61.53800 42.19600
N  28.76900 56.80000 40.40800
C  27.53500 56.51900 39.97000
C  27.49400 55.20500 39.11600
C  28.83400 54.52500 39.60200
C  29.59300 55.84800 40.01600
C  28.77400 53.56000 40.80700
C  27.38700 55.43400 37.57300
C  26.45300 54.53300 36.74200
H  25.53600 55.24000 35.67000
N  31.42400 58.09300 41.22100
C  31.86200 56.92000 40.63700
C  33.28300 57.01800 40.59100
C  33.70200 58.34700 41.08900
C  32.41100 58.93300 41.38500
C  34.20300 55.97200 40.11300
C  35.03100 58.94400 41.19400
O  35.98600 58.26400 40.84100
C  35.36700 60.22300 41.72000
N  29.76300 60.59600 41.95800
C  30.99800 61.01700 42.10900
C  31.02800 62.51100 42.49300
C  29.56300 62.96600 42.48300
C  28.85400 61.61500 42.25200
C  31.86000 62.84800 43.78300
C  29.18400 63.96200 41.34300
C  28.33900 65.21600 41.76900
N  27.21900 59.25000 41.57700
C  26.58100 60.41200 41.86900
C  25.18200 60.25500 41.63300
C  25.00400 59.01100 41.06500
C  26.31400 58.38700 41.03400
C  24.08400 61.28500 41.86800
C  24.07200 58.12300 40.33300
O  22.89000 58.15700 40.06200
C  24.90000 56.93600 39.99800
C  24.49400 55.71800 40.77600
O  24.84500 55.42900 41.91000
O  23.54400 55.08500 40.00600
C  23.16500 53.73200 40.32800
H  31.64600 55.07700 39.79500
H  33.06000 60.89800 42.03200
H  26.79000 62.41800 42.34200
H  26.69000 54.53700 39.42400
H  29.36500 54.05500 38.77400
H  27.75300 53.21600 40.97100
H  29.14300 54.16600 41.63400
H  29.56300 52.84500 40.57400
H  28.35500 55.35600 37.07900
H  27.09100 56.47300 37.43000
H  25.75300 53.98100 37.36900
H  27.05500 53.76400 36.25800
H  34.03400 55.04500 40.66000
H  35.27700 56.15300 40.14400
H  33.89800 55.70500 39.10100
H  35.10600 60.99300 40.99400
H  36.45600 60.21500 41.77900
H  34.96600 60.43200 42.71100
H  31.43500 62.99400 41.60400
H  29.35100 63.43400 43.44400
H  32.46800 62.02000 44.14600
H  31.24100 63.21900 44.60000
H  32.60600 63.63300 43.65800
H  28.62200 63.46400 40.55300
H  30.02300 64.36500 40.77500
H  28.88200 66.12000 41.49200
H  28.19700 65.23000 42.85000
H  27.35600 65.23400 41.29700
H  23.98500 61.59700 42.90700
H  23.13500 60.85400 41.55100
H  24.28300 62.23500 41.37100
H  24.70900 56.79800 38.93400
H  23.09600 53.16100 39.40200
H  22.16300 53.77300 40.75600
H  23.91900 53.25500 40.95400
Mg -5.19400 24.46400 27.31600
C  -3.83000 26.48000 29.67100
C  -6.49300 22.50700 29.77300
C  -5.97000 22.17200 24.98400
C  -3.61800 26.27300 24.77000
N  -5.20400 24.57000 29.42500
C  -4.70400 25.53000 30.24000
C  -4.94100 25.26900 31.72800
C  -5.66000 23.91100 31.72300
C  -5.79800 23.65200 30.26000
C  -4.99400 22.78200 32.57700
C  -5.73400 26.43900 32.45500
C  -5.52700 26.52000 33.98000
H  -6.73500 26.56000 34.90500
N  -6.32500 22.74000 27.32200
C  -6.69900 22.07800 28.43900
C  -7.33200 20.85900 28.10100
C  -7.19100 20.69500 26.71500
C  -6.47500 21.89700 26.21200
C  -8.09900 20.08100 29.02200
C  -7.76100 19.60200 25.82900
O  -7.73600 19.69900 24.61600
C  -8.42500 18.39800 26.39600
N  -4.91600 24.30200 25.13400
C  -5.14600 23.23500 24.45700
C  -4.73000 23.31000 22.96800
C  -4.24200 24.82400 22.91000
C  -4.25500 25.20600 24.37400
C  -3.63300 22.17800 22.75300
C  -5.23300 25.75700 22.12100
C  -4.65500 27.09500 21.82500
N  -4.01000 26.01400 27.21500
C  -3.44900 26.63400 26.11100
C  -2.69300 27.78200 26.58900
C  -2.77700 27.77600 27.95600
C  -3.59200 26.66100 28.28900
C  -2.11700 28.73300 25.67000
C  -2.48300 28.45300 29.21800
O  -1.95800 29.56500 29.49900
C  -3.03200 27.52800 30.39700
C  -1.88500 27.10000 31.20500
O  -0.84800 26.59300 30.77500
O  -2.19100 27.35100 32.53000
C  -1.16700 26.78100 33.42700
H  -6.75700 21.85800 30.61100
H  -6.06300 21.36100 24.25800
H  -2.99800 26.76100 24.01400
H  -3.96300 25.25800 32.20900
H  -6.64900 23.95200 32.18100
H  -4.13800 23.05700 33.19300
H  -4.42500 22.06000 31.99200
H  -5.75800 22.35200 33.22600
H  -6.79200 26.40500 32.19600
H  -5.38800 27.39600 32.06400
H  -5.08300 27.50800 34.10500
H  -4.87800 25.73700 34.37200
H  -9.01100 19.82100 28.48500
H  -8.44300 20.61300 29.90900
H  -7.61800 19.25300 29.54300
H  -9.45600 18.59700 26.68900
H  -7.97900 17.99700 27.30700
H  -8.42100 17.63100 25.62200
H  -5.56800 23.08800 22.30700
H  -3.25300 24.95600 22.47200
H  -3.99900 21.31100 22.20300
H  -3.31400 21.92000 23.76300
H  -2.92700 22.65700 22.07500
H  -6.14200 25.85200 22.71400
H  -5.43400 25.16300 21.22900
H  -5.22500 27.86400 22.34600
H  -4.75900 27.28600 20.75700
H  -3.59600 27.14600 22.07800
H  -1.82300 29.68000 26.12200
H  -2.78000 28.99000 24.84400
H  -1.27900 28.16000 25.27200
H  -3.67600 28.19300 30.97300
H  -1.65800 26.75800 34.40000
H  -0.28200 27.40600 33.54700
H  -0.90800 25.78400 33.07000

