158

Mg -2.37400 17.31000 26.63100
C  -2.52700 15.08300 29.15700
C  -2.56600 19.87400 28.81300
C  -2.36900 19.52100 23.86500
C  -2.86200 14.75900 24.26400
N  -2.47500 17.47500 28.75500
C  -2.46000 16.40700 29.62500
C  -2.46800 16.89700 31.15500
C  -2.72300 18.43300 30.93900
C  -2.53400 18.59200 29.38700
C  -4.00000 19.07300 31.56900
C  -1.22700 16.42300 32.02500
C  -0.70500 17.37800 33.11600
H  -0.37500 16.61600 34.40000
N  -2.40200 19.40200 26.41500
C  -2.48200 20.29300 27.44500
C  -2.41000 21.66100 26.89100
C  -2.25900 21.58900 25.50000
C  -2.28800 20.15200 25.18900
C  -2.51000 22.88700 27.76500
C  -1.97300 22.62400 24.47700
O  -1.82300 22.30700 23.29400
C  -1.90200 24.08500 24.83500
N  -2.71900 17.20000 24.30700
C  -2.57700 18.24700 23.48000
C  -2.60400 17.75400 22.00800
C  -2.83800 16.26000 22.12900
C  -2.84500 16.04000 23.64800
C  -3.76600 18.37100 21.08600
C  -1.93100 15.32400 21.22000
C  -2.51400 14.59800 19.96000
N  -2.63400 15.33900 26.66900
C  -2.72400 14.37400 25.66700
C  -2.70900 13.01600 26.32900
C  -2.59900 13.26700 27.64400
C  -2.58200 14.68200 27.80500
C  -2.75700 11.67100 25.76400
C  -2.41200 12.60600 28.98600
O  -2.15400 11.43400 29.33900
C  -2.45600 13.84000 30.02500
C  -1.22800 13.60100 30.83200
O  -0.09500 13.94800 30.63100
O  -1.68000 12.89200 31.88700
C  -0.75000 12.54300 33.02000
H  -2.66700 20.68800 29.53300
H  -2.40900 20.06600 22.91900
H  -3.00300 13.92300 23.57600
H  -3.35800 16.51000 31.65000
H  -1.82800 18.93100 31.31200
H  -4.66600 19.61200 30.89600
H  -3.57000 19.82900 32.22600
H  -4.50100 18.33100 32.19100
H  -0.43600 16.32600 31.28100
H  -1.27500 15.47100 32.55300
H  -1.47800 18.11900 33.31700
H  0.28100 17.75700 32.84500
H  -1.56000 23.37500 27.98300
H  -2.85600 22.55100 28.74300
H  -3.30700 23.57100 27.47200
H  -2.81600 24.39700 25.34100
H  -1.73800 24.70100 23.95100
H  -0.97800 24.21800 25.39800
H  -1.65200 18.06200 21.57700
H  -3.85700 15.96400 21.87800
H  -3.41200 18.47700 20.06100
H  -4.08000 19.33000 21.50000
H  -4.65000 17.73400 21.06500
H  -1.35200 14.63500 21.83400
H  -1.24400 16.03600 20.76400
H  -2.12600 13.58500 19.84900
H  -2.27800 15.24300 19.11400
H  -3.60200 14.57100 19.90400
H  -1.78300 11.18100 25.77100
H  -3.26700 11.75100 24.80400
H  -3.37200 11.04500 26.41000
H  -3.36900 13.72700 30.60900
H  0.01800 11.82100 32.74200
H  -1.18800 11.94100 33.81700
H  -0.21800 13.44100 33.33500
Mg 0.70900 42.34500 26.02900
C  2.28900 42.40200 29.25200
C  -2.18800 41.31800 27.77400
C  -0.61600 41.58300 23.15200
C  3.63400 43.35200 24.67500
N  0.07500 42.16600 28.37900
C  0.93800 42.16900 29.44800
C  0.20400 41.96000 30.79500
C  -1.16200 41.48300 30.28800
C  -1.14200 41.71100 28.70500
C  -1.41400 40.01500 30.73100
C  0.19000 43.35700 31.59000
C  0.40600 43.38400 33.13000
H  0.14800 42.10300 33.88400
N  -1.16300 41.66200 25.46400
C  -2.21300 41.30900 26.35300
C  -3.34700 40.86600 25.56100
C  -2.92200 41.01300 24.21000
C  -1.53900 41.39400 24.23000
C  -4.66000 40.54500 26.26500
C  -3.74400 40.73300 22.96300
O  -3.36100 40.93000 21.80700
C  -5.16800 40.28300 23.12300
N  1.48100 42.18800 24.24400
C  0.74700 41.97000 23.14300
C  1.51300 42.31400 21.80600
C  2.79400 42.98400 22.35400
C  2.59500 42.95500 23.85100
C  1.73200 41.00100 21.10600
C  3.03700 44.45900 21.76600
C  1.84200 45.41800 21.67200
N  2.66600 42.82800 26.70100
C  3.77300 43.19000 26.00900
C  4.88300 43.27200 26.92000
C  4.38200 42.93700 28.17000
C  2.96400 42.72000 28.04900
C  6.30000 43.72600 26.69300
C  4.72400 42.74900 29.57200
O  5.78000 42.68200 30.18900
C  3.29700 42.56700 30.30600
C  3.45100 41.42200 31.25000
O  3.19400 40.26200 30.99500
O  3.93000 41.88200 32.43600
C  4.08000 40.83000 33.47300
H  -3.01800 40.94400 28.37800
H  -1.00200 41.45600 22.13900
H  4.45100 43.80600 24.10800
H  0.76400 41.26500 31.42200
H  -1.97600 42.08200 30.69500
H  -2.39100 39.99300 31.21400
H  -0.66100 39.75700 31.47600
H  -1.32400 39.30500 29.90900
H  -0.79200 43.82200 31.49700
H  0.93800 44.04300 31.19400
H  -0.24000 44.11300 33.61700
H  1.43600 43.69700 33.30300
H  -4.29000 40.02200 27.14700
H  -5.36900 39.94700 25.69200
H  -5.19000 41.42600 26.62500
H  -5.60000 40.11200 22.13700
H  -5.77500 41.08900 23.53500
H  -5.10800 39.41400 23.77900
H  1.01700 42.96500 21.08600
H  3.72700 42.45900 22.14600
H  2.73100 40.98900 20.67000
H  0.95700 40.92200 20.34400
H  1.63200 40.10000 21.71100
H  3.59200 44.46500 20.82700
H  3.69100 45.06200 22.39600
H  0.93000 45.04500 22.13900
H  1.76100 45.64900 20.61000
H  2.10300 46.36000 22.15500
H  6.91700 42.88200 26.38700
H  6.63100 44.18200 27.62700
H  6.26300 44.51100 25.93800
H  3.13600 43.44300 30.93500
H  5.10900 40.47000 33.47300
H  3.47000 39.95300 33.25800
H  3.83300 41.26600 34.44100

