158

Mg 17.27000 -1.99600 28.28900
C  16.21900 0.19200 30.87500
C  19.16800 -3.73000 30.78500
C  18.69800 -3.72900 25.85100
C  15.36100 -0.16000 26.06400
N  17.73100 -1.63500 30.57900
C  16.99800 -0.80400 31.40100
C  17.17100 -1.15300 32.82700
C  18.34000 -2.31300 32.84100
C  18.42100 -2.67600 31.34600
C  19.67100 -1.85300 33.52300
C  15.93300 -1.68000 33.54500
C  15.74300 -1.04600 34.91400
H  16.88200 -0.44600 35.76300
N  18.66100 -3.51800 28.30300
C  19.25100 -4.17000 29.35900
C  20.08800 -5.25800 28.91100
C  20.15700 -5.16400 27.47600
C  19.14400 -4.12400 27.13000
C  20.85800 -6.12700 29.87100
C  21.10700 -5.92600 26.49800
O  21.04800 -5.72800 25.28100
C  22.07000 -7.00800 27.08300
N  17.08800 -1.90600 26.30600
C  17.74900 -2.75000 25.47700
C  17.09100 -2.74100 23.98400
C  15.98300 -1.68000 24.13700
C  16.10400 -1.27200 25.61900
C  18.16500 -2.52300 22.85500
C  14.51000 -2.13600 23.72900
C  14.38200 -2.19000 22.17800
N  16.07700 -0.26400 28.36000
C  15.30300 0.30800 27.39500
C  14.62100 1.40900 27.96400
C  14.94500 1.39200 29.29900
C  15.79200 0.33100 29.53100
C  13.64400 2.37700 27.34500
C  14.81000 2.17000 30.49100
O  14.22300 3.24500 30.77100
C  15.51900 1.36300 31.63300
C  16.42400 2.26600 32.39000
O  17.58600 2.59600 32.09400
O  15.66300 2.61200 33.58600
C  16.31700 3.52200 34.54400
H  19.62700 -4.36500 31.54500
H  19.10100 -4.28400 25.00100
H  14.75600 0.31100 25.28600
H  17.54600 -0.25200 33.31400
H  18.08800 -3.27900 33.27900
H  19.55200 -0.87500 33.98800
H  20.47000 -1.80800 32.78400
H  20.00400 -2.50700 34.32900
H  15.87000 -2.76200 33.65900
H  15.05400 -1.44300 32.94500
H  15.23100 -1.75700 35.56200
H  15.04200 -0.22500 34.76200
H  20.94200 -7.17100 29.56800
H  20.25800 -6.20000 30.77800
H  21.81100 -5.61700 30.01000
H  22.51500 -6.60000 27.99100
H  22.80500 -7.02300 26.27900
H  21.62000 -7.97400 27.31500
H  16.66500 -3.73900 23.87400
H  16.21500 -0.82800 23.49800
H  19.11800 -2.20700 23.28000
H  17.84400 -1.83600 22.07200
H  18.22700 -3.50800 22.39200
H  13.87600 -1.31800 24.07200
H  14.28900 -3.08500 24.21900
H  13.68600 -3.01200 22.01300
H  15.31600 -2.44800 21.67900
H  13.96300 -1.24800 21.82300
H  13.14000 1.95000 26.47700
H  14.18400 3.24100 26.95800
H  13.05700 2.75200 28.18300
H  14.60200 0.98800 32.08800
H  15.76800 3.44900 35.48300
H  16.45600 4.54800 34.20300
H  17.30700 3.10800 34.73600
Mg 42.60800 3.67700 48.25800
C  40.92100 6.66500 47.96900
C  39.79900 1.96200 47.67900
C  44.41100 0.78700 47.99700
C  45.63800 5.54100 48.19000
N  40.67800 4.28500 47.84500
C  40.12400 5.54000 47.80900
C  38.63500 5.62900 47.57100
C  38.27600 4.08300 47.70000
C  39.64900 3.33700 47.75200
C  37.43800 3.68400 48.92400
C  38.16300 6.17500 46.15700
C  39.04300 5.77600 44.95100
H  39.38500 6.82800 43.86100
N  42.13900 1.58700 48.10100
C  40.91900 1.11900 47.79900
C  40.84100 -0.32200 47.70100
C  42.18300 -0.70400 47.81700
C  42.97300 0.54400 47.98900
C  39.61200 -1.16600 47.43000
C  42.68900 -2.13200 47.66600
O  41.86500 -3.02800 47.47600
C  44.17700 -2.53100 47.53400
N  44.72600 3.23700 48.04400
C  45.19500 1.98200 48.06800
C  46.70300 1.91700 48.20300
C  47.10200 3.43400 48.02200
C  45.75900 4.13500 48.00200
C  47.26700 1.31800 49.56600
C  47.83000 3.73100 46.71200
C  48.91400 4.84000 46.72400
N  43.23600 5.68300 48.00900
C  44.44200 6.30400 48.19700
C  44.29700 7.75600 48.25600
C  42.90900 7.93600 48.14200
C  42.33000 6.67500 48.07300
C  45.34300 8.68100 48.20500
C  41.93500 8.94400 48.03000
O  41.99000 10.15900 47.97900
C  40.55300 8.11100 47.99400
C  39.66000 8.47500 49.10900
O  39.58600 7.87400 50.21200
O  38.85500 9.51700 48.75100
C  37.67100 9.77200 49.68500
H  38.87100 1.45100 47.41500
H  45.06100 -0.09000 47.96700
H  46.61300 6.00400 48.35700
H  38.29700 6.27600 48.38000
H  37.71700 3.78500 46.81300
H  36.99600 4.56500 49.39100
H  37.98800 3.01300 49.58400
H  36.54100 3.23800 48.49400
H  37.96000 7.24600 46.15300
H  37.30500 5.62700 45.76800
H  38.73200 4.83200 44.50500
H  40.06600 5.62600 45.29500
H  39.74500 -1.96800 46.70400
H  38.77100 -0.55200 47.10900
H  39.31000 -1.69200 48.33600
H  44.67200 -1.99300 46.72500
H  44.05800 -3.57300 47.23600
H  44.77800 -2.53300 48.44300
H  47.09900 1.36300 47.35200
H  47.67100 3.80200 48.87500
H  47.64500 0.31300 49.37900
H  46.51500 1.36700 50.35300
H  48.14700 1.88500 49.86900
H  47.04700 4.09900 46.05000
H  48.23300 2.87100 46.17700
H  48.71800 5.42200 45.82300
H  49.91500 4.43900 46.56800
H  48.77900 5.57500 47.51700
H  45.76000 8.76500 47.20100
H  46.16400 8.30000 48.81300
H  45.08200 9.64500 48.63900
H  40.02200 8.43300 47.09800
H  36.85200 9.09200 49.44800
H  37.35900 10.79600 49.47900
H  37.96900 9.60300 50.71900

