158

Mg 56.22200 22.32400 43.48100
C  53.98400 24.47200 42.15600
C  53.85500 19.74100 43.26300
C  58.50600 20.06800 44.32300
C  58.63100 24.83900 43.33800
N  54.14600 22.13900 42.71100
C  53.44600 23.18600 42.27400
C  52.01100 22.73800 42.02300
C  51.86200 21.50500 42.93100
C  53.34800 21.03700 43.01100
C  51.13700 21.68800 44.28900
C  51.72200 22.52900 40.51200
C  50.57600 23.28900 39.93700
H  49.95400 23.02800 38.58100
N  56.19000 20.21700 43.72600
C  55.17100 19.34800 43.53600
C  55.64400 18.01400 43.68200
C  56.95800 18.00500 44.17100
C  57.27400 19.47800 44.10400
C  54.64600 16.87600 43.52300
C  57.85900 16.80500 44.41200
O  57.52800 15.66500 44.06000
C  59.09000 16.93500 45.20500
N  58.32200 22.39300 43.53700
C  59.00800 21.29000 44.00900
C  60.47300 21.66300 44.39600
C  60.54200 23.20400 44.03600
C  59.07300 23.55100 43.55500
C  61.01900 21.39000 45.87500
C  61.72100 23.65100 43.04600
C  63.17900 23.73500 43.63000
N  56.33700 24.37700 42.92300
C  57.37500 25.27300 42.99300
C  56.87800 26.57800 42.67200
C  55.58300 26.34000 42.32000
C  55.28900 24.96200 42.48100
C  57.66300 27.87000 42.77000
C  54.31000 26.98600 41.98100
O  54.05400 28.15300 41.80500
C  53.31600 25.73100 41.63200
C  53.27400 25.69600 40.18300
O  53.90800 25.02100 39.38600
O  52.26600 26.54800 39.70600
C  51.96200 26.49700 38.28800
H  53.10900 18.95500 43.12800
H  59.13900 19.34900 44.84700
H  59.46100 25.54800 43.39000
H  51.23400 23.44800 42.30500
H  51.20500 20.77900 42.45200
H  50.65000 22.65800 44.39200
H  51.83100 21.74200 45.12800
H  50.61200 20.80000 44.64000
H  51.55200 21.52000 40.13500
H  52.64800 22.73500 39.97700
H  50.83700 24.33800 40.07700
H  49.63600 23.05900 40.44000
H  54.94600 15.97500 44.05900
H  54.66600 16.56000 42.48000
H  53.59000 17.04500 43.73100
H  59.90500 17.30300 44.58000
H  59.38100 15.91100 45.43900
H  58.90100 17.60900 46.04100
H  61.14700 21.12100 43.73300
H  60.72100 23.71500 44.98100
H  60.24600 20.91600 46.48000
H  61.32400 22.29500 46.39900
H  61.90500 20.76200 45.78300
H  61.45800 24.62500 42.63400
H  61.84400 22.99500 42.18500
H  63.63600 24.62300 43.19400
H  63.87200 22.98100 43.25300
H  63.14800 23.71600 44.71900
H  56.94000 28.68100 42.86000
H  58.46300 27.94300 42.03300
H  58.12200 27.81500 43.75700
H  52.26800 25.88900 41.88800
H  52.54900 27.26700 37.78800
H  50.89600 26.63500 38.10600
H  52.24700 25.54700 37.83700
Mg 28.30300 56.76700 40.79500
C  26.20100 54.04100 39.79300
C  31.05100 54.79200 39.66000
C  30.28300 59.46000 41.01200
C  25.47400 58.69800 40.88500
N  28.50000 54.75600 39.49200
C  27.54900 53.80800 39.34000
C  28.11500 52.40200 38.96600
C  29.68500 52.63100 39.15200
C  29.80600 54.21300 39.33300
C  30.31900 51.82900 40.23800
C  27.52100 51.92700 37.59100
C  28.08300 52.60500 36.38000
H  27.08300 53.16300 35.38200
N  30.39400 57.07500 40.51800
C  31.34600 56.11800 40.11600
C  32.64800 56.61200 40.20800
C  32.53700 57.98700 40.68700
C  31.02400 58.24600 40.75700
C  33.90100 55.77700 39.95300
C  33.64700 58.93800 40.98000
O  34.80200 58.47500 40.82200
C  33.41600 60.38300 41.32600
N  27.92500 58.81200 40.82400
C  28.90800 59.72400 41.06200
C  28.37800 61.12600 41.33500
C  26.81800 60.85300 41.31400
C  26.70800 59.35600 41.01000
C  28.84700 61.84400 42.64700
C  26.10900 61.73700 40.15000
C  25.21700 62.86000 40.65500
N  26.15700 56.45700 40.55200
C  25.16100 57.33700 40.75500
C  23.84700 56.64400 40.70300
C  24.21200 55.31700 40.40900
C  25.61800 55.28900 40.21600
C  22.44900 57.14500 40.76400
C  23.71500 53.94400 40.23000
O  22.61700 53.41500 40.42700
C  25.00000 53.13000 39.75200
C  25.18100 51.93100 40.62400
O  25.14400 50.78700 40.19500
O  25.31000 52.23200 41.94500
C  25.32600 51.14700 42.93700
H  31.88900 54.09300 39.71100
H  30.81400 60.38700 41.23700
H  24.52400 59.23100 40.96400
H  27.77600 51.63100 39.65800
H  30.22800 52.38300 38.24000
H  29.55400 51.08300 40.45400
H  30.57800 52.34600 41.16200
H  31.20800 51.30200 39.89000
H  26.45500 52.15300 37.61400
H  27.63300 50.84600 37.51000
H  28.72700 51.88300 35.88000
H  28.74800 53.39700 36.72300
H  34.63600 56.35100 39.39000
H  33.74700 54.86300 39.37900
H  34.28900 55.55700 40.94800
H  33.04100 60.42000 42.34900
H  32.71100 60.80300 40.60900
H  34.32900 60.96700 41.21400
H  28.68900 61.83100 40.56400
H  26.40800 61.01300 42.31200
H  28.03200 62.29800 43.21100
H  29.66500 62.55100 42.51200
H  29.23600 61.13100 43.37400
H  25.42900 61.05100 39.64500
H  26.76200 61.96900 39.31000
H  25.59900 63.18600 41.62300
H  24.18600 62.51900 40.75000
H  25.42000 63.64500 39.92700
H  22.41100 57.94900 41.50000
H  21.69700 56.39900 41.02200
H  22.06600 57.63600 39.86900
H  24.82200 52.83700 38.71800
H  24.34300 50.99600 43.38400
H  25.98700 51.56900 43.69500
H  25.67500 50.24200 42.43900

