158

Mg 25.51100 1.87600 29.15900
C  27.63800 1.48200 31.85100
C  22.88500 2.17800 31.32000
C  23.35100 1.62500 26.58500
C  28.21800 1.13300 27.09400
N  25.33700 1.87400 31.26800
C  26.34200 1.76700 32.19200
C  25.87800 1.83800 33.66600
C  24.35000 2.09100 33.49600
C  24.17200 1.93700 31.94200
C  23.39800 1.07800 34.28600
C  26.55700 2.89600 34.63200
C  25.67400 3.58200 35.70700
H  26.24100 4.02100 37.07600
N  23.36500 2.06500 28.97300
C  22.41000 2.14900 30.01700
C  21.07900 2.21400 29.48300
C  21.24900 1.86100 28.09300
C  22.72300 1.83400 27.81800
C  19.84700 2.53100 30.38500
C  20.25100 1.58800 27.07800
O  20.42600 1.11200 25.92900
C  18.80000 1.87600 27.41500
N  25.78400 1.53600 27.07100
C  24.70900 1.56700 26.23100
C  25.17700 1.26300 24.77400
C  26.71800 1.27100 24.88900
C  26.92900 1.25300 26.41300
C  24.50600 -0.04000 24.15000
C  27.45200 2.47300 24.37300
C  28.12000 2.17000 22.97800
N  27.55300 1.40500 29.34800
C  28.50800 1.10700 28.46700
C  29.72400 0.86400 29.12900
C  29.43600 1.03700 30.47700
C  28.08900 1.30000 30.55300
C  31.05100 0.37600 28.56000
C  29.99700 0.92600 31.81100
O  31.10500 0.72000 32.21000
C  28.76100 1.24400 32.76500
C  28.62000 0.12500 33.72700
O  27.92900 -0.85300 33.42400
O  29.05200 0.40700 34.98700
C  28.85300 -0.53400 36.04800
H  22.12400 2.22300 32.10200
H  22.70500 1.50200 25.71400
H  29.08000 1.03100 26.43200
H  25.98300 0.81200 34.02100
H  23.98900 3.06100 33.83500
H  23.20000 0.16000 33.73300
H  22.42900 1.57500 34.23600
H  23.76400 0.82100 35.28000
H  27.11600 3.59400 34.01000
H  27.38000 2.46100 35.19900
H  24.86500 2.95900 36.08700
H  25.11700 4.46400 35.38900
H  20.06600 2.55500 31.45200
H  19.09900 1.74300 30.30300
H  19.38400 3.47200 30.08600
H  18.26800 2.16900 26.51000
H  18.80800 2.71200 28.11500
H  18.26800 1.04100 27.87000
H  24.73500 2.12900 24.28200
H  27.13500 0.31900 24.56000
H  25.31500 -0.56600 23.64400
H  23.87600 0.25300 23.31100
H  24.00400 -0.70500 24.85300
H  28.22000 2.76700 25.08800
H  26.81300 3.33800 24.19700
H  27.61100 2.69900 22.17200
H  27.96700 1.14400 22.64200
H  29.18000 2.42200 22.97800
H  30.80100 -0.35300 27.78900
H  31.61200 -0.22500 29.27500
H  31.59500 1.15900 28.03100
H  28.93000 2.15800 33.33500
H  28.96900 -1.57400 35.74100
H  27.89400 -0.33100 36.52400
H  29.62600 -0.45400 36.81300
Mg 35.43100 3.34500 29.17400
C  33.36600 4.19800 31.77600
C  38.09400 3.34600 31.26400
C  37.34800 3.04300 26.44600
C  32.70500 3.75200 26.89300
N  35.76000 3.45600 31.36600
C  34.67900 3.85300 32.24400
C  35.20200 3.78700 33.67800
C  36.77500 3.71900 33.45900
C  36.94700 3.42900 31.96100
C  37.50900 4.98300 33.88600
C  34.51000 2.51500 34.27900
C  34.14200 2.54000 35.77200
H  34.86900 3.63900 36.56700
N  37.43100 3.05400 28.94900
C  38.40800 3.12800 29.91600
C  39.71200 2.88000 29.30300
C  39.50200 2.77400 27.88700
C  38.04000 2.97000 27.70800
C  40.98100 2.87500 30.09700
C  40.45000 2.38800 26.73900
O  40.10600 2.27000 25.56100
C  41.82200 1.86700 27.10800
N  34.99100 3.08400 26.90800
C  36.03600 3.13000 26.07300
C  35.51400 2.98000 24.60800
C  33.96000 3.18800 24.76400
C  33.87200 3.44700 26.25400
C  36.20200 3.89100 23.51400
C  33.01100 2.09300 24.25300
C  31.92900 2.68400 23.34400
N  33.45900 3.80900 29.31300
C  32.47600 3.95400 28.28400
C  31.21000 4.32900 28.91300
C  31.51900 4.47700 30.28200
C  32.89600 4.17900 30.46100
C  29.96300 4.63600 28.13400
C  30.97500 4.78000 31.60500
O  29.86000 5.15500 31.89900
C  32.13700 4.42500 32.59300
C  32.31000 5.56900 33.53100
O  32.89700 6.63700 33.32100
O  31.80200 5.22200 34.76900
C  31.51800 6.26500 35.70500
H  38.99500 3.42300 31.87700
H  37.91700 3.00000 25.51500
H  31.89700 3.93200 26.18100
H  34.84900 4.72800 34.10000
H  37.19500 2.80300 33.87500
H  38.17700 5.43300 33.15200
H  38.21300 4.60000 34.62400
H  36.97100 5.74300 34.45400
H  35.04200 1.60300 34.00900
H  33.50000 2.34400 33.90600
H  34.59300 1.62600 36.15800
H  33.06200 2.60300 35.90100
H  40.89400 3.42100 31.03600
H  41.79100 3.31400 29.51400
H  41.23200 1.82400 30.24500
H  42.12100 1.14100 26.35200
H  41.88800 1.27000 28.01800
H  42.49200 2.72700 27.09500
H  35.70100 1.97700 24.22500
H  33.75100 4.11000 24.22000
H  36.49600 3.23700 22.69200
H  37.02200 4.44700 23.96800
H  35.59200 4.71000 23.13300
H  32.49800 1.70600 25.13400
H  33.62200 1.32100 23.78400
H  31.73500 1.94000 22.57200
H  32.15600 3.68600 22.97900
H  31.00300 2.80900 23.90600
H  29.85000 4.36300 27.08500
H  29.71500 5.69200 28.23700
H  29.19800 4.11300 28.70900
H  31.84900 3.49500 33.08300
H  32.20900 6.17700 36.54300
H  30.50100 6.03000 36.01900
H  31.43300 7.26400 35.27700

