158

Mg -0.32600 6.85800 26.23100
C  0.59900 8.84800 29.23900
C  -0.45100 4.11400 28.33600
C  -0.82700 5.01500 23.54500
C  0.25300 9.72900 24.39400
N  -0.19100 6.59800 28.57800
C  0.15400 7.51800 29.55600
C  0.09800 6.87300 30.98300
C  0.11100 5.34100 30.51500
C  -0.21800 5.30300 29.02700
C  1.42200 4.53900 30.87000
C  -1.14700 7.35600 31.79200
C  -1.05500 7.62600 33.31300
H  -0.25700 6.61300 34.19100
N  -0.50100 4.88000 25.96000
C  -0.48500 3.88300 26.95200
C  -0.65400 2.56600 26.37600
C  -0.83100 2.79300 24.97000
C  -0.68300 4.30900 24.80300
C  -0.65100 1.29100 27.13800
C  -1.06500 1.73100 23.86000
O  -1.32000 2.07800 22.72300
C  -1.01700 0.25400 24.12400
N  -0.11300 7.27700 24.28200
C  -0.52400 6.36800 23.35700
C  -0.61600 6.96400 21.95100
C  -0.31200 8.50100 22.14800
C  0.04600 8.55700 23.67400
C  0.36500 6.37600 20.87100
C  -1.51300 9.38000 21.70100
C  -2.85400 9.18500 22.31700
N  0.01100 8.89600 26.69700
C  0.21200 9.93600 25.81000
C  0.56200 11.19900 26.54100
C  0.75700 10.73100 27.86100
C  0.37400 9.38600 27.94100
C  0.90100 12.46600 25.87000
C  1.15800 11.15700 29.15000
O  1.62900 12.22300 29.43200
C  0.99100 10.02300 30.10500
C  2.07100 9.94600 31.12400
O  3.22000 9.79700 30.75800
O  1.64700 10.00700 32.43500
C  2.69800 10.16700 33.47300
H  -0.53900 3.23500 28.97700
H  -1.15400 4.38500 22.71600
H  0.37300 10.68500 23.88100
H  1.03900 7.23700 31.39600
H  -0.70400 4.84500 31.04200
H  1.22600 3.72600 31.56900
H  2.14100 5.15000 31.41600
H  1.89000 4.07400 30.00200
H  -1.95200 6.64000 31.62100
H  -1.38300 8.27400 31.25500
H  -2.08400 7.70300 33.66300
H  -0.63000 8.62800 33.35700
H  0.24100 0.70700 26.91000
H  -1.61300 0.85800 26.86400
H  -0.77800 1.39200 28.21600
H  -1.87700 0.00700 24.74700
H  -0.10100 -0.08800 24.60600
H  -1.08700 -0.30800 23.19300
H  -1.68000 6.79400 21.78400
H  0.63300 8.70600 21.64500
H  0.08800 5.33400 20.71100
H  1.39200 6.28300 21.22600
H  0.28200 7.00900 19.98700
H  -1.64700 9.33200 20.62100
H  -1.28400 10.44200 21.78200
H  -3.32100 10.08300 22.72200
H  -2.87600 8.34300 23.00900
H  -3.53800 8.86200 21.53200
H  1.19300 13.20000 26.62100
H  -0.01000 12.81000 25.38000
H  1.67300 12.24400 25.13300
H  0.11900 10.20900 30.73200
H  2.77300 11.18800 33.84500
H  3.68700 9.80600 33.19100
H  2.37100 9.51100 34.28000
Mg 16.78100 51.65400 26.59700
C  18.98400 50.56500 29.24300
C  14.60000 52.70000 29.13400
C  14.91000 52.96700 24.22400
C  19.33500 51.05200 24.36100
N  16.77500 51.60700 28.86400
C  17.72200 51.14500 29.72300
C  17.36600 51.39300 31.19100
C  15.91200 51.75000 31.10600
C  15.74000 52.03500 29.58400
C  15.00600 50.59600 31.64100
C  18.33900 52.46700 31.83100
C  18.64600 52.36400 33.30400
H  17.65800 51.58600 34.22100
N  15.01700 52.71400 26.67500
C  14.25100 53.07900 27.75300
C  13.03700 53.84200 27.32900
C  13.05400 53.81800 25.89600
C  14.33500 53.12000 25.53500
C  12.03600 54.29500 28.37400
C  12.09800 54.43200 24.87000
O  12.25700 54.46900 23.65800
C  10.99500 55.13300 25.46400
N  16.97500 51.86500 24.52900
C  16.08000 52.42300 23.74300
C  16.49500 52.31500 22.25500
C  17.95800 51.95600 22.33300
C  18.17000 51.73300 23.88900
C  15.56600 51.38100 21.54100
C  18.96100 53.17100 21.92600
C  20.15200 52.89800 21.03000
N  18.64100 50.73800 26.67600
C  19.53100 50.50700 25.66800
C  20.64900 49.81500 26.17300
C  20.42300 49.72900 27.59000
C  19.30100 50.38700 27.85000
C  21.96500 49.44800 25.49500
C  21.10000 49.34900 28.86100
O  22.15400 48.72500 29.01700
C  20.22500 49.97900 30.00100
C  19.87300 48.84500 30.90600
O  19.22100 47.88400 30.59000
O  20.22800 49.14500 32.22200
C  20.10800 48.06200 33.26500
H  13.91200 53.00000 29.92700
H  14.33700 53.48700 23.45300
H  20.13000 50.98300 23.61600
H  17.55600 50.48800 31.76800
H  15.85700 52.74300 31.55200
H  15.52500 49.74700 32.08600
H  14.29900 50.21500 30.90500
H  14.42000 50.99700 32.46800
H  17.87500 53.42700 31.60500
H  19.29300 52.46700 31.30400
H  18.85800 53.31700 33.79000
H  19.58400 51.81600 33.21200
H  11.07200 53.78700 28.40700
H  11.83200 55.35500 28.21900
H  12.44800 54.22900 29.38100
H  10.49900 55.45500 24.54900
H  11.38900 55.99400 26.00400
H  10.38900 54.51500 26.12600
H  16.37500 53.35300 21.94700
H  18.22300 51.08800 21.72800
H  14.66800 51.02600 22.04600
H  16.09900 50.45600 21.31800
H  15.32900 51.82700 20.57500
H  19.41800 53.70300 22.76000
H  18.37600 53.90800 21.37500
H  20.17900 51.86500 20.68500
H  21.12500 53.08300 21.48500
H  20.18500 53.50800 20.12700
H  22.13400 50.29800 24.83400
H  21.96300 48.52100 24.92100
H  22.70900 49.38800 26.28900
H  20.79300 50.73300 30.54500
H  20.09800 47.05400 32.85000
H  19.40600 48.32700 34.05500
H  21.07200 48.20200 33.75500

