158

Mg 43.58500 4.33000 46.69600
C  41.73900 7.41000 46.65000
C  40.58800 2.65600 46.60300
C  45.22500 1.62800 45.83200
C  46.61200 6.23700 46.36300
N  41.49500 5.01500 46.62200
C  40.95200 6.27100 46.64300
C  39.39500 6.27500 46.68200
C  39.11300 4.72600 46.78200
C  40.48100 4.05000 46.71900
C  38.20100 4.15600 47.93900
C  38.69400 6.94100 45.44000
C  39.20700 6.55100 44.08500
H  40.00500 7.56100 43.24200
N  42.99800 2.32700 46.57400
C  41.71300 1.81700 46.47100
C  41.73400 0.41100 46.22000
C  43.06900 0.00500 46.13300
C  43.84900 1.31000 46.13100
C  40.49900 -0.45400 46.18900
C  43.57500 -1.38600 45.96700
O  42.76700 -2.36000 45.88200
C  45.05800 -1.61100 46.16400
N  45.60100 4.03200 46.23700
C  46.05000 2.75200 46.03600
C  47.49900 2.66100 45.78700
C  48.03600 3.97900 46.29400
C  46.73100 4.81600 46.32300
C  48.24500 1.40800 46.32500
C  49.16800 4.65100 45.41300
C  50.18800 5.40300 46.23400
N  44.16300 6.39600 46.48800
C  45.41300 7.00000 46.43800
C  45.20400 8.46700 46.39500
C  43.80100 8.64600 46.58400
C  43.19300 7.35100 46.57700
C  46.27500 9.51700 46.35800
C  42.79000 9.62700 46.86000
O  42.90300 10.85200 47.06200
C  41.42600 8.87800 46.85300
C  40.65800 9.07100 48.14900
O  41.01500 8.77400 49.25300
O  39.47500 9.71700 47.96100
C  38.53300 9.74600 49.07200
H  39.61100 2.17500 46.52900
H  45.82200 0.80400 45.43600
H  47.50300 6.84200 46.54400
H  39.16600 6.81900 47.59800
H  38.63900 4.35200 45.87400
H  38.68900 3.49800 48.65900
H  37.43000 3.54800 47.46600
H  37.71700 4.92600 48.53900
H  38.77500 8.02400 45.53100
H  37.63900 6.66800 45.47000
H  38.32000 6.36800 43.47900
H  39.77200 5.62600 44.20200
H  40.82400 -1.47600 46.38300
H  40.17300 -0.49400 45.14900
H  39.74000 -0.25800 46.94600
H  45.46800 -0.85000 46.82900
H  45.59000 -1.66800 45.21400
H  45.10900 -2.54800 46.71800
H  47.68900 2.68000 44.71300
H  48.29100 3.77800 47.33500
H  47.75800 0.97600 47.20000
H  49.21700 1.73300 46.69500
H  48.45300 0.64400 45.57500
H  48.70200 5.38200 44.75200
H  49.75000 3.94200 44.82400
H  51.15100 4.89200 46.25000
H  49.85900 5.46700 47.27200
H  50.40600 6.41800 45.90300
H  45.87900 10.43300 45.92000
H  47.11700 9.21400 45.73600
H  46.61100 9.72700 47.37300
H  40.74800 9.31700 46.12100
H  38.64600 10.66300 49.65000
H  38.48600 8.89700 49.75500
H  37.53700 9.80500 48.63200
Mg -11.74300 38.25600 42.33500
C  -9.53000 35.61900 41.78700
C  -9.23100 40.34600 41.41100
C  -14.02300 40.66700 42.21500
C  -14.25700 35.89100 42.86300
N  -9.61600 37.99200 41.71000
C  -8.91100 36.82200 41.50600
C  -7.48900 37.08800 40.94400
C  -7.28900 38.56900 41.19400
C  -8.78500 39.06000 41.50400
C  -6.27200 39.17200 42.24600
C  -7.27800 36.55900 39.42200
C  -6.32700 35.30400 39.24900
H  -6.54500 34.35600 38.09800
N  -11.67200 40.25800 41.82900
C  -10.53400 40.95600 41.62600
C  -10.89200 42.37900 41.53200
C  -12.29300 42.51500 41.64900
C  -12.73000 41.12800 41.84800
C  -9.87900 43.48600 41.23200
C  -13.11200 43.85700 41.54500
O  -12.55500 44.97200 41.34100
C  -14.55800 43.79600 41.59500
N  -13.80600 38.30600 42.48800
C  -14.47400 39.42400 42.48800
C  -16.06000 39.17700 42.60700
C  -16.00700 37.64700 42.98700
C  -14.63300 37.27500 42.74000
C  -16.61300 40.07600 43.77700
C  -17.14900 36.85800 42.32300
C  -16.81900 36.23700 40.92100
N  -11.94500 36.14500 42.42400
C  -13.02000 35.31200 42.53300
C  -12.61900 33.92200 42.57300
C  -11.22400 33.98300 42.27800
C  -10.89500 35.37200 42.17800
C  -13.57800 32.80700 42.75500
C  -9.98500 33.26200 41.93900
O  -9.89600 32.02500 41.75300
C  -8.86000 34.24200 41.73900
C  -7.71200 34.13800 42.71200
O  -7.70600 34.75000 43.79700
O  -6.72000 33.39000 42.19600
C  -5.46200 33.22300 42.92100
H  -8.40100 41.05300 41.35400
H  -14.80800 41.42300 42.27100
H  -14.97500 35.16300 43.24600
H  -6.82600 36.59700 41.65500
H  -6.94400 38.95900 40.23700
H  -5.74800 38.43600 42.85500
H  -6.80000 39.85500 42.91300
H  -5.51200 39.74300 41.71200
H  -6.81200 37.31100 38.78600
H  -8.21100 36.28500 38.93000
H  -6.15300 34.78400 40.19100
H  -5.35700 35.78000 39.11100
H  -9.98900 43.66800 40.16300
H  -8.92600 43.07100 41.56000
H  -10.04900 44.35900 41.86200
H  -15.02000 43.04500 40.95500
H  -14.92300 44.78300 41.31200
H  -14.88200 43.70800 42.63200
H  -16.49600 39.36200 41.62600
H  -16.10100 37.56800 44.07000
H  -15.81500 40.64400 44.25500
H  -17.12100 39.59100 44.61200
H  -17.39400 40.74800 43.42100
H  -18.03500 37.49200 42.30000
H  -17.28300 36.01700 43.00300
H  -17.65900 36.36900 40.23900
H  -16.68700 35.16200 41.04500
H  -16.01500 36.72100 40.36700
H  -13.92600 32.70900 43.78300
H  -13.05300 31.90000 42.45700
H  -14.39700 32.94400 42.04800
H  -8.51600 34.01000 40.73000
H  -4.70400 32.95700 42.18400
H  -5.41900 32.55200 43.77800
H  -5.13400 34.19400 43.29300

