158

Mg 16.39600 -2.84200 27.29400
C  15.75900 -0.92900 30.17000
C  18.13600 -5.16300 29.20900
C  17.71100 -4.10900 24.46200
C  14.79800 -0.29900 25.36000
N  16.91700 -2.97800 29.37100
C  16.44600 -2.14200 30.35700
C  17.01700 -2.61000 31.73500
C  17.71800 -4.00700 31.41300
C  17.58900 -4.09500 29.89100
C  19.22400 -4.06300 31.94900
C  15.87500 -2.56400 32.87700
C  16.20100 -1.82300 34.18400
H  17.60000 -1.49600 34.63700
N  17.72600 -4.44900 26.92000
C  18.18800 -5.39700 27.77500
C  18.80200 -6.50100 27.03400
C  18.66100 -6.18400 25.62000
C  17.99900 -4.80500 25.61700
C  19.44300 -7.71900 27.62400
C  19.03700 -7.04300 24.38800
O  18.73800 -6.78800 23.23000
C  19.77100 -8.36200 24.43300
N  16.35900 -2.22500 25.17800
C  17.01300 -2.91800 24.26100
C  16.76900 -2.32300 22.81600
C  15.66300 -1.20300 23.14300
C  15.53500 -1.21800 24.62400
C  18.11100 -1.60500 22.30900
C  14.20600 -1.38800 22.49100
C  12.99600 -1.69800 23.31500
N  15.38600 -0.93600 27.66200
C  14.74600 -0.08300 26.75000
C  14.14100 1.01200 27.53100
C  14.58600 0.81000 28.83400
C  15.29300 -0.45100 28.89300
C  13.32500 2.12500 26.93400
C  14.37300 1.18900 30.26700
O  13.76300 2.15100 30.74600
C  15.25800 0.16500 31.09600
C  16.39100 1.07400 31.49100
O  17.24300 1.49600 30.70700
O  16.31900 1.41800 32.79500
C  17.19700 2.43500 33.28000
H  18.50500 -6.03700 29.75100
H  18.00900 -4.45300 23.46900
H  14.35600 0.48500 24.74200
H  17.79400 -1.93400 32.09100
H  17.10600 -4.81900 31.80600
H  19.26700 -4.73200 32.80900
H  19.64100 -3.09100 32.21100
H  19.84600 -4.37200 31.10900
H  15.48900 -3.52800 33.20900
H  14.94900 -2.14600 32.48100
H  15.80700 -2.48100 34.95800
H  15.55900 -0.94400 34.24200
H  19.68700 -7.62600 28.68200
H  20.39600 -7.74100 27.09600
H  18.80500 -8.58700 27.45900
H  20.75600 -8.24800 24.88700
H  19.90700 -8.67800 23.39900
H  19.10200 -9.02000 24.98700
H  16.40800 -3.09400 22.13500
H  16.03000 -0.23000 22.81700
H  18.14400 -0.57600 22.66600
H  18.11800 -1.40900 21.23700
H  19.02800 -2.15100 22.53000
H  14.33300 -2.18500 21.75800
H  14.02500 -0.44100 21.98300
H  12.52300 -0.72200 23.42700
H  13.08500 -2.29200 24.22500
H  12.32100 -2.23500 22.64900
H  13.94100 2.80600 26.34700
H  12.87100 2.68600 27.75100
H  12.49200 1.67100 26.39700
H  14.73800 -0.17300 31.99300
H  16.97600 3.36000 32.74800
H  18.26300 2.23200 33.17500
H  16.85200 2.58500 34.30300
Mg -9.71700 39.37800 42.43300
C  -8.07600 36.42500 41.50200
C  -7.16000 41.17500 40.92700
C  -11.65100 42.19100 42.46600
C  -12.50500 37.50100 43.43800
N  -7.95000 38.89200 41.18200
C  -7.36100 37.60400 41.10400
C  -6.08500 37.64400 40.19200
C  -5.60600 39.11600 40.54600
C  -6.96900 39.79400 40.85500
C  -4.60300 39.46900 41.65500
C  -6.17100 37.42200 38.64300
C  -5.74200 36.04700 38.15900
H  -4.57000 35.94100 37.10500
N  -9.42400 41.39700 41.88400
C  -8.29100 41.96300 41.33700
C  -8.41700 43.37300 41.23400
C  -9.63300 43.72700 41.83600
C  -10.34400 42.40400 42.09100
C  -7.37300 44.22600 40.63500
C  -10.18300 45.15800 41.96200
O  -9.51900 46.11100 41.49200
C  -11.46800 45.39300 42.69400
N  -11.79800 39.81000 42.87100
C  -12.28900 40.99800 42.78900
C  -13.76100 41.04300 43.37200
C  -14.08800 39.59100 43.69300
C  -12.68200 38.90000 43.43600
C  -14.00900 42.04300 44.51800
C  -15.24200 39.01400 42.84600
C  -14.93800 38.78800 41.31700
N  -10.19300 37.33500 42.66300
C  -11.38500 36.74300 43.06700
C  -11.10400 35.25900 42.95400
C  -9.82900 35.15600 42.42200
C  -9.34100 36.44000 42.15400
C  -11.97800 34.12000 43.40300
C  -8.76800 34.18200 41.98400
O  -8.77000 32.97000 42.01000
C  -7.55700 35.05900 41.41000
C  -6.36800 34.90700 42.33600
O  -5.89900 35.75700 43.13700
O  -5.75700 33.69500 42.13100
C  -4.61700 33.23500 43.01100
H  -6.21800 41.60400 40.58100
H  -12.25900 43.08800 42.59900
H  -13.44000 37.13600 43.86800
H  -5.20000 37.11500 40.54600
H  -5.28900 39.53700 39.59200
H  -4.75400 40.43700 42.13300
H  -3.57800 39.46000 41.28400
H  -4.60900 38.65200 42.37600
H  -5.52700 38.07500 38.05500
H  -7.20800 37.60800 38.36500
H  -6.66800 35.63100 37.76200
H  -5.41000 35.50400 39.04500
H  -6.95700 44.83900 41.43400
H  -7.71500 44.89500 39.84600
H  -6.51200 43.67500 40.25500
H  -12.30000 45.14500 42.03500
H  -11.52100 46.45300 42.94100
H  -11.47400 44.89000 43.66100
H  -14.38100 41.38700 42.54500
H  -14.42300 39.43700 44.71900
H  -14.40400 41.53700 45.40000
H  -14.64700 42.87800 44.22700
H  -13.00700 42.29900 44.86400
H  -16.12900 39.64800 42.85900
H  -15.71800 38.14600 43.30400
H  -13.91900 38.92600 40.95700
H  -15.64100 39.33700 40.69000
H  -15.05400 37.71700 41.15500
H  -11.43600 33.20000 43.18300
H  -12.95600 34.24100 42.93700
H  -12.03000 34.16600 44.49100
H  -7.34200 34.77900 40.37900
H  -4.85600 33.00200 44.04900
H  -3.83500 33.99400 43.05400
H  -4.15900 32.37600 42.52000

