158

Mg 1.49800 -1.59500 43.23100
C  4.95400 -1.04000 42.55900
C  0.83100 1.26000 41.35000
C  -1.76000 -2.25000 43.45500
C  2.35200 -4.68500 44.51300
N  2.81300 -0.16600 41.95200
C  4.17800 -0.07000 41.93200
C  4.68000 1.07700 41.02000
C  3.36100 1.81300 40.64200
C  2.23400 0.93400 41.30200
C  3.30800 3.28900 40.98900
C  5.53000 0.57200 39.86200
C  7.01500 1.20900 39.81200
H  7.55900 1.71000 38.37300
N  -0.21300 -0.62200 42.59500
C  -0.26800 0.52900 41.79300
C  -1.64300 0.87900 41.48300
C  -2.48800 -0.11900 42.13500
C  -1.48300 -1.03900 42.83800
C  -2.02800 2.09700 40.62900
C  -3.99700 -0.15200 42.06800
O  -4.65900 0.76100 41.54300
C  -4.78700 -1.26700 42.65500
N  0.42800 -3.33000 43.70000
C  -0.95200 -3.27000 43.90100
C  -1.43700 -4.62200 44.43200
C  -0.11300 -5.45700 44.73600
C  0.94700 -4.44900 44.26600
C  -2.52500 -4.62500 45.52100
C  0.00500 -6.82300 44.02400
C  0.60600 -7.91600 44.84800
N  3.26100 -2.69000 43.53500
C  3.46900 -3.89400 44.17100
C  4.87800 -4.11800 44.38700
C  5.52700 -2.96700 43.84200
C  4.47300 -2.18100 43.27200
C  5.51600 -5.30700 44.97000
C  6.83300 -2.30400 43.53700
O  7.94400 -2.66400 43.82600
C  6.48200 -1.04900 42.75400
C  7.03600 0.07000 43.51300
O  6.90100 0.18700 44.71800
O  7.59200 1.05000 42.72300
C  7.75700 2.35600 43.37700
H  0.65300 2.25200 40.93000
H  -2.79600 -2.56700 43.59500
H  2.59300 -5.59500 45.06700
H  5.23600 1.77600 41.64400
H  3.25000 1.68700 39.56500
H  2.23700 3.48000 41.05500
H  3.71000 3.83200 40.13400
H  3.87800 3.61600 41.85900
H  4.95500 0.90100 38.99700
H  5.72400 -0.49800 39.78600
H  7.71400 0.49000 40.23800
H  7.11100 2.07100 40.47300
H  -2.96000 2.03800 40.06500
H  -1.16600 2.24800 39.98000
H  -1.99700 2.97300 41.27500
H  -5.83200 -0.95800 42.64200
H  -4.46700 -1.41000 43.68700
H  -4.60600 -2.13100 42.01500
H  -1.97500 -5.08300 43.60400
H  -0.00300 -5.59600 45.81200
H  -2.08000 -4.97100 46.45400
H  -3.24700 -5.38800 45.23000
H  -3.02300 -3.67100 45.69900
H  0.66700 -6.68400 43.16800
H  -0.96300 -7.09300 43.60200
H  0.01100 -8.82900 44.85200
H  0.81900 -7.61200 45.87300
H  1.57800 -8.13300 44.40600
H  4.94300 -5.73400 45.79400
H  6.55100 -5.28100 45.31100
H  5.59300 -6.01100 44.14100
H  7.08500 -1.11300 41.84800
H  8.59700 2.26900 44.06600
H  6.87500 2.73700 43.89100
H  8.00400 3.14800 42.67000
Mg 17.39200 -1.52600 27.02600
C  16.25700 0.61600 29.52500
C  19.23600 -3.14300 29.24200
C  18.70600 -3.34200 24.42300
C  15.72800 0.51800 24.61300
N  17.95000 -1.05500 29.16100
C  17.18100 -0.31600 30.00300
C  17.45900 -0.59800 31.51100
C  18.66800 -1.66700 31.34300
C  18.62700 -2.03100 29.82900
C  19.99800 -0.96900 31.76400
C  16.25100 -1.13400 32.36600
C  16.26100 -0.78500 33.87900
H  17.50600 -0.12100 34.41900
N  18.64900 -3.16300 26.85300
C  19.22700 -3.72300 27.90200
C  19.88600 -4.91600 27.51900
C  19.85500 -4.98700 26.07200
C  19.05200 -3.80200 25.71800
C  20.59700 -5.87900 28.52300
C  20.48700 -5.97100 25.07100
O  20.19100 -5.84100 23.88900
C  21.50100 -6.95600 25.55300
N  17.05600 -1.52200 24.81500
C  17.87200 -2.23000 23.97800
C  17.87700 -1.66200 22.54200
C  16.74100 -0.57200 22.64900
C  16.47000 -0.54800 24.10800
C  19.20200 -1.16000 21.95700
C  15.60200 -0.74100 21.64000
C  14.18100 -0.98600 22.06700
N  16.18800 0.15100 27.00600
C  15.54700 0.78500 25.95800
C  14.63600 1.75100 26.56000
C  14.92600 1.78900 27.92500
C  15.92300 0.85700 28.16000
C  13.62400 2.63500 25.86600
C  14.54400 2.35700 29.23400
O  13.64000 3.15700 29.57000
C  15.41800 1.64300 30.35200
C  16.19500 2.75800 31.03900
O  17.36900 3.01300 30.72500
O  15.42100 3.28500 32.04000
C  16.30300 3.87900 33.11400
H  19.82100 -3.77300 29.91500
H  19.22400 -3.74900 23.55200
H  15.24900 1.19900 23.90700
H  17.69400 0.38900 31.91100
H  18.62900 -2.50400 32.03900
H  20.65300 -1.71400 32.21500
H  19.82800 -0.15100 32.46400
H  20.53600 -0.49200 30.94400
H  16.25200 -2.20600 32.56200
H  15.30800 -0.94000 31.85600
H  16.07900 -1.69800 34.44500
H  15.49800 -0.06100 34.16400
H  20.05100 -6.03700 29.45300
H  21.58400 -5.47800 28.75300
H  20.63900 -6.87400 28.08000
H  21.05100 -7.76200 26.13200
H  22.29000 -6.43500 26.09700
H  21.90400 -7.39300 24.64000
H  17.72200 -2.55200 21.93100
H  17.24200 0.39400 22.58800
H  19.15400 -0.09800 21.71700
H  19.35200 -1.74100 21.04700
H  19.93900 -1.35200 22.73700
H  15.89000 -1.50300 20.91600
H  15.52400 0.21800 21.12900
H  13.76300 -1.71200 21.37100
H  13.55500 -0.09500 22.00800
H  14.10400 -1.31700 23.10300
H  12.64700 2.57600 26.34500
H  13.55100 2.36800 24.81100
H  14.01800 3.65100 25.87800
H  14.83200 1.20900 31.16200
H  16.77300 4.73700 32.63300
H  17.07400 3.19900 33.47300
H  15.77000 4.25900 33.98600

