158

Mg 9.49300 3.51300 27.96400
C  10.61400 1.99100 31.06800
C  7.83700 5.72700 30.03300
C  7.94500 4.56800 25.25300
C  10.90800 0.82000 26.20700
N  9.18800 3.73100 30.41800
C  9.92700 3.15900 31.43100
C  9.61000 3.80500 32.82700
C  8.61100 4.91900 32.39500
C  8.46300 4.75900 30.83200
C  7.22300 5.03100 33.03500
C  10.91700 4.36300 33.55300
C  11.33500 3.51900 34.77200
H  11.56100 4.48000 35.95400
N  8.15600 4.95600 27.66400
C  7.61500 5.82400 28.58600
C  6.81000 6.81300 27.87100
C  6.79100 6.47200 26.49800
C  7.69400 5.39000 26.41400
C  5.91700 7.74800 28.58300
C  6.11600 7.19100 25.29100
O  6.12000 6.83900 24.15500
C  5.42100 8.47500 25.68700
N  9.41200 2.77400 26.03000
C  8.69100 3.39300 25.07800
C  8.78700 2.57900 23.71400
C  9.78200 1.51700 24.04600
C  10.03000 1.66300 25.56100
C  7.43400 2.14000 23.10300
C  11.05700 1.40100 23.16600
C  10.94700 0.85100 21.73300
N  10.59800 1.81500 28.46700
C  11.17800 0.84500 27.60800
C  11.88500 -0.13200 28.43700
C  11.68500 0.23800 29.81300
C  10.87300 1.40500 29.79800
C  12.59300 -1.42300 27.99700
C  12.01800 -0.04000 31.19800
O  12.72100 -0.89700 31.64600
C  11.33200 1.09500 32.06700
C  10.46400 0.55600 33.13700
O  9.24900 0.40600 33.06500
O  11.23000 0.27100 34.21500
C  10.53000 -0.27400 35.30700
H  7.26300 6.43200 30.63700
H  7.57400 4.92700 24.29000
H  11.40200 0.02400 25.64600
H  8.98900 3.30600 33.57100
H  9.08200 5.90100 32.41900
H  7.12900 4.74200 34.08200
H  6.52000 4.49000 32.40000
H  6.80900 6.02900 32.89300
H  10.87800 5.41500 33.83200
H  11.68100 4.22100 32.78800
H  12.22000 2.92500 34.54700
H  10.54700 2.82200 35.06000
H  4.91200 7.33700 28.48100
H  5.85300 8.76500 28.19400
H  6.02600 7.89100 29.65800
H  4.61500 8.23600 26.38100
H  4.80200 8.76800 24.83900
H  6.09600 9.27600 25.99100
H  9.22200 3.29000 23.01100
H  9.30400 0.53800 24.05300
H  6.78300 1.58300 23.77700
H  7.49900 1.59200 22.16300
H  6.90400 3.07600 22.93200
H  11.77400 0.75700 23.67600
H  11.42800 2.42500 23.13400
H  9.88200 0.84200 21.50200
H  11.31300 -0.17400 21.66800
H  11.58100 1.48300 21.11100
H  12.87600 -1.31200 26.95000
H  12.02500 -2.33100 28.19500
H  13.46700 -1.47400 28.64700
H  12.20300 1.64300 32.42500
H  9.69400 0.39800 35.50000
H  11.22300 -0.14300 36.13700
H  10.26500 -1.31800 35.13500
Mg 44.23100 2.94800 46.50200
C  42.30800 5.86000 46.25000
C  41.43800 1.08900 46.08700
C  46.25400 0.27300 46.26900
C  47.07900 5.01600 46.40200
N  42.11700 3.44300 46.25900
C  41.56100 4.64800 46.15400
C  40.04000 4.54200 46.17600
C  39.74400 3.01800 46.39900
C  41.15000 2.42900 46.23100
C  39.03700 2.58600 47.71800
C  39.22000 5.28000 45.07100
C  39.56800 4.84500 43.67600
H  40.31100 5.83500 42.82100
N  43.83500 0.88900 46.21200
C  42.60100 0.36200 46.09900
C  42.71900 -1.07700 45.88700
C  44.10500 -1.33700 45.93100
C  44.84700 -0.07300 46.13000
C  41.54400 -1.99200 45.69300
C  44.71900 -2.73300 45.82300
O  43.95800 -3.70000 45.71200
C  46.08700 -3.06000 45.68500
N  46.37200 2.68100 46.35700
C  46.90500 1.47000 46.36200
C  48.40600 1.55300 46.51300
C  48.66700 3.10400 46.21100
C  47.29900 3.64900 46.41000
C  48.80000 0.99500 47.90300
C  49.31900 3.43000 44.83500
C  50.75600 4.03100 44.98500
N  44.67400 5.06300 46.35100
C  45.88800 5.75700 46.42200
C  45.66200 7.20200 46.47800
C  44.27900 7.28400 46.43700
C  43.74100 5.99800 46.38600
C  46.71400 8.36000 46.49900
C  43.21100 8.17500 46.47700
O  43.19200 9.45100 46.63900
C  41.87600 7.28200 46.25200
C  40.87700 7.82000 47.21400
O  40.66300 7.44500 48.37900
O  40.10800 8.77200 46.55600
C  39.01000 9.38100 47.36300
H  40.47600 0.57300 46.08000
H  46.85600 -0.63600 46.21700
H  48.01900 5.56900 46.33900
H  39.82700 5.06400 47.10800
H  39.09600 2.67000 45.59400
H  39.15100 3.30500 48.52900
H  39.54800 1.67700 48.03400
H  37.99700 2.46600 47.41400
H  39.55200 6.30900 45.20800
H  38.15500 5.06000 45.14100
H  38.64400 4.57400 43.16600
H  40.24200 3.99100 43.75200
H  41.81600 -2.70000 44.91000
H  40.54200 -1.58300 45.55800
H  41.52000 -2.42800 46.69100
H  46.57600 -2.61500 44.81900
H  46.22000 -4.13400 45.55100
H  46.59400 -2.84900 46.62700
H  48.98400 0.93200 45.82900
H  49.30000 3.39100 47.05100
H  49.43500 0.11100 47.97200
H  47.94300 0.75300 48.53200
H  49.31200 1.78600 48.45100
H  48.78400 4.13200 44.19600
H  49.43700 2.54200 44.21400
H  50.85600 4.88300 44.31200
H  51.46700 3.22400 44.80600
H  51.05800 4.49200 45.92500
H  46.46900 9.22500 45.88400
H  47.68200 7.97300 46.18100
H  46.83600 8.75600 47.50700
H  41.61800 7.69900 45.27800
H  38.01100 9.00200 47.14800
H  39.00500 10.46100 47.21500
H  39.19800 9.35100 48.43700

