158

Mg -9.43500 39.65000 41.64400
C  -8.35400 36.24700 41.32100
C  -6.28200 40.57000 40.39400
C  -10.74300 42.60700 40.88600
C  -12.76300 38.34200 42.15700
N  -7.53300 38.54200 40.98400
C  -7.35300 37.17300 40.92300
C  -5.98500 36.87700 40.39700
C  -5.24700 38.30800 40.44700
C  -6.43200 39.21700 40.63100
C  -4.07800 38.52300 41.48000
C  -6.15100 36.26700 38.96800
C  -5.71500 34.77300 38.85800
H  -4.98600 34.35600 37.56300
N  -8.57900 41.36900 40.80700
C  -7.32500 41.54400 40.40600
C  -7.25400 42.92200 39.82500
C  -8.47900 43.57900 40.13500
C  -9.29900 42.50500 40.64000
C  -6.10000 43.55000 39.18800
C  -8.86100 45.07500 39.86400
O  -8.12100 45.81300 39.16000
C  -10.15600 45.69200 40.22500
N  -11.45400 40.37000 41.47800
C  -11.69600 41.65000 41.31900
C  -13.21300 42.07800 41.73800
C  -13.77000 40.63200 42.01900
C  -12.60800 39.71400 41.89300
C  -13.27400 43.07600 42.93800
C  -15.05900 40.21300 41.18800
C  -16.35500 40.00900 42.00300
N  -10.44400 37.70900 41.79100
C  -11.76200 37.34600 42.00500
C  -11.84800 35.98500 42.04200
C  -10.56300 35.48000 41.85400
C  -9.68100 36.56700 41.63600
C  -13.15200 35.29100 42.21900
C  -9.74200 34.28900 41.76300
O  -10.06900 33.14100 41.88400
C  -8.29200 34.72400 41.38000
C  -7.30000 34.26800 42.45200
O  -6.94300 34.81800 43.46100
O  -6.75600 33.15500 41.91600
C  -5.54000 32.63400 42.65500
H  -5.23900 40.81700 40.18100
H  -11.10300 43.63600 40.81700
H  -13.77300 38.13200 42.51400
H  -5.51600 36.10800 41.01000
H  -4.89500 38.53700 39.44100
H  -4.17000 39.25800 42.28000
H  -3.39500 39.04500 40.81000
H  -3.71800 37.57300 41.87500
H  -5.42000 36.74200 38.31400
H  -7.17300 36.48600 38.65900
H  -6.65500 34.24500 38.70100
H  -5.26900 34.43100 39.79200
H  -6.27700 43.91300 38.17500
H  -5.33100 42.77900 39.14000
H  -5.63800 44.31700 39.81000
H  -10.44700 45.43700 41.24400
H  -10.87200 45.31400 39.49600
H  -10.09100 46.78000 40.23100
H  -13.57300 42.50800 40.80400
H  -13.97000 40.61500 43.09100
H  -12.24700 43.33100 43.19800
H  -13.73700 42.70500 43.85200
H  -13.88400 43.92700 42.63300
H  -14.84000 39.30100 40.63300
H  -15.32100 41.07000 40.56900
H  -16.25900 40.12900 43.08200
H  -16.66800 38.96900 41.91000
H  -17.03100 40.73700 41.55500
H  -13.40800 34.98600 41.20400
H  -14.00700 35.82900 42.62800
H  -13.14600 34.45200 42.91500
H  -8.02500 34.19400 40.46600
H  -4.84500 32.14700 41.97100
H  -5.86800 31.92700 43.41700
H  -5.05800 33.44700 43.19800
Mg -6.51600 24.92400 25.06300
C  -4.62400 26.22500 27.58100
C  -8.31300 23.00500 27.39500
C  -8.22300 23.48800 22.43300
C  -4.36200 26.47000 22.72300
N  -6.33500 24.60500 27.24500
C  -5.48600 25.25900 28.06900
C  -5.79800 24.93000 29.50100
C  -6.75200 23.64600 29.37300
C  -7.19200 23.73900 27.90000
C  -6.23400 22.24700 29.81200
C  -6.47500 26.11100 30.26100
C  -5.98600 26.31000 31.71600
H  -5.41300 25.07800 32.47900
N  -8.14600 23.48900 24.91100
C  -8.75300 22.86800 26.03600
C  -9.84700 22.14100 25.47700
C  -9.89100 22.30700 24.00000
C  -8.70100 23.09900 23.73100
C  -10.74800 21.51100 26.45900
C  -10.98000 21.90700 23.02200
O  -11.01500 22.37100 21.87300
C  -11.96500 20.87300 23.30200
N  -6.17000 24.85400 22.83800
C  -7.18600 24.36800 21.98100
C  -6.68300 24.62100 20.48700
C  -5.76500 25.82200 20.75200
C  -5.34000 25.65700 22.16400
C  -6.06800 23.39500 19.86600
C  -6.40800 27.21700 20.51600
C  -5.73500 28.02800 19.32900
N  -4.87500 26.13900 25.04800
C  -4.10700 26.69900 24.08500
C  -3.10900 27.61800 24.71900
C  -3.27000 27.43900 26.08000
C  -4.38200 26.58900 26.21900
C  -2.20100 28.46400 23.93100
C  -2.85400 27.87000 27.33300
O  -2.07100 28.76200 27.66400
C  -3.55400 26.95100 28.34800
C  -2.56000 26.08000 29.01500
O  -2.33800 24.91400 28.71400
O  -2.09000 26.68000 30.17000
C  -1.32600 25.90600 31.19200
H  -8.87700 22.48600 28.17300
H  -8.70100 22.94100 21.61800
H  -3.71400 26.82700 21.91900
H  -4.81100 24.74500 29.92500
H  -7.59700 23.80200 30.04300
H  -6.01300 21.73100 28.87700
H  -7.06100 21.67800 30.23600
H  -5.35900 22.25300 30.46200
H  -7.56400 26.10700 30.20600
H  -6.11100 26.97600 29.70700
H  -6.65400 26.77900 32.43800
H  -5.18600 27.04400 31.61700
H  -11.04800 20.58000 25.97900
H  -11.64600 22.12900 26.46800
H  -10.45500 21.20800 27.46400
H  -12.83300 21.38200 23.72000
H  -11.51400 20.14800 23.98000
H  -12.38500 20.37200 22.43000
H  -7.47300 25.05400 19.87400
H  -4.96300 25.70600 20.02300
H  -6.11600 22.48300 20.46100
H  -5.03400 23.57200 19.56900
H  -6.59500 23.20200 18.93200
H  -6.34900 27.92400 21.34300
H  -7.47300 27.06100 20.34100
H  -5.88400 29.10500 19.24900
H  -6.18300 27.56900 18.44800
H  -4.64900 27.93500 19.32000
H  -2.21700 28.42800 22.84100
H  -1.26500 28.10000 24.35400
H  -2.32500 29.51100 24.20700
H  -3.94500 27.67000 29.06800
H  -1.67200 24.87400 31.12600
H  -1.54000 26.35900 32.16100
H  -0.30400 25.90600 30.81600

