158

Mg 48.02500 16.03800 28.55700
C  45.99300 15.65700 31.35200
C  50.17400 17.95300 30.44500
C  49.81700 16.38800 25.78200
C  45.45800 14.44600 26.61500
N  48.06000 16.69100 30.63200
C  47.17000 16.37600 31.60800
C  47.63300 16.78800 32.96300
C  48.73100 17.83900 32.62600
C  49.02200 17.56100 31.14700
C  48.16200 19.31300 32.93500
C  48.12900 15.59900 33.76800
C  48.15200 15.89000 35.31200
H  47.72000 17.22400 35.85100
N  49.74100 16.93100 28.17900
C  50.48200 17.71100 29.07200
C  51.71500 18.23700 28.41500
C  51.69000 17.66500 27.11700
C  50.32700 17.00100 26.94000
C  52.71800 19.12600 29.09800
C  52.83200 17.66200 26.09200
O  52.71100 17.18300 24.94900
C  54.24000 18.15700 26.39600
N  47.57600 15.68500 26.41100
C  48.57900 15.74000 25.52600
C  48.22500 15.11800 24.17400
C  46.82900 14.51900 24.48400
C  46.58300 14.87700 25.91900
C  48.25500 16.20300 23.02100
C  46.78900 12.92600 24.25900
C  45.57600 12.15900 23.80700
N  46.16500 15.14900 28.86700
C  45.21900 14.64000 27.97500
C  44.07600 14.32100 28.73600
C  44.32000 14.58700 30.09500
C  45.61100 15.19000 30.06900
C  42.85900 13.70500 28.21700
C  43.67500 14.64500 31.40000
O  42.53000 14.30100 31.74500
C  44.84300 15.18000 32.34600
C  44.31000 16.22900 33.24800
O  44.40100 17.44600 32.98400
O  43.84200 15.67400 34.45500
C  43.24900 16.55800 35.45600
H  50.84400 18.55100 31.06600
H  50.53400 16.46100 24.96100
H  44.74000 13.85800 26.04000
H  46.79000 17.23700 33.48800
H  49.64600 17.61900 33.17600
H  47.08300 19.45900 32.88400
H  48.65700 20.00300 32.25300
H  48.40600 19.63300 33.94800
H  49.18700 15.40600 33.59100
H  47.49700 14.75000 33.51000
H  49.13300 15.67600 35.73600
H  47.45700 15.12000 35.64600
H  53.53900 18.54300 29.51500
H  52.35100 19.71700 29.93700
H  53.13500 19.85400 28.40100
H  54.52100 17.83800 27.39900
H  54.19800 19.20600 26.10100
H  54.95200 17.63500 25.75600
H  49.02900 14.38400 24.13000
H  46.00700 14.96300 23.92300
H  48.91700 15.84600 22.23200
H  48.64300 17.11200 23.48000
H  47.25700 16.36100 22.61300
H  47.03700 12.42000 25.19200
H  47.61000 12.61800 23.61100
H  45.38700 11.44000 24.60400
H  45.86500 11.66200 22.88100
H  44.65600 12.72900 23.67300
H  43.10200 12.77500 27.70300
H  42.53800 14.42500 27.46400
H  42.20100 13.61800 29.08200
H  45.04000 14.34200 33.01600
H  42.19600 16.62200 35.18000
H  43.58800 17.59400 35.47400
H  43.24600 16.14100 36.46300
Mg -10.38500 41.05100 40.57500
C  -9.18700 37.76700 39.75400
C  -7.24200 42.19100 39.33200
C  -11.71600 43.95800 39.98500
C  -13.44900 39.60800 41.18200
N  -8.40700 40.03300 39.73200
C  -8.17800 38.72900 39.48800
C  -6.80400 38.45100 38.92900
C  -6.14200 39.86800 39.07900
C  -7.32400 40.76200 39.47400
C  -5.01700 39.96000 40.08600
C  -6.90100 37.95500 37.46300
C  -5.49600 37.61300 36.91600
H  -5.46200 36.63600 35.73800
N  -9.57000 42.88100 39.91700
C  -8.29600 43.14200 39.50500
C  -8.16600 44.54100 39.44800
C  -9.40300 45.07800 39.57300
C  -10.31700 43.97800 39.70500
C  -6.79100 45.13800 39.11100
C  -9.61300 46.58900 39.63900
O  -8.65100 47.32100 39.49500
C  -10.89300 47.29500 39.88200
N  -12.28600 41.71200 40.62800
C  -12.62400 42.98500 40.43000
C  -14.08500 43.28300 40.73300
C  -14.59500 41.88300 41.15900
C  -13.39100 41.01200 40.97600
C  -14.35700 44.54300 41.58800
C  -15.84400 41.50500 40.37400
C  -16.85400 40.72700 41.13000
N  -11.12500 39.03500 40.63700
C  -12.41100 38.63900 40.94000
C  -12.42800 37.23100 40.95400
C  -11.18600 36.76200 40.47900
C  -10.45400 37.95600 40.21700
C  -13.55200 36.28600 41.21400
C  -10.35700 35.63800 40.16300
O  -10.55100 34.44400 40.25400
C  -9.02700 36.28200 39.55600
C  -7.94300 35.82400 40.36900
O  -7.92900 35.92300 41.56700
O  -7.14000 34.96900 39.61800
C  -6.26500 34.08900 40.41800
H  -6.24000 42.54900 39.08400
H  -12.18400 44.93800 39.87200
H  -14.39300 39.08800 41.36200
H  -6.21700 37.65100 39.37900
H  -5.74800 40.21500 38.12400
H  -4.02800 40.04600 39.63500
H  -5.00300 39.10800 40.76600
H  -5.12200 40.77000 40.80800
H  -7.28000 38.69000 36.75200
H  -7.64800 37.18800 37.25600
H  -4.93800 37.24600 37.77700
H  -5.10100 38.61000 36.72100
H  -6.88800 46.07500 38.56200
H  -6.16400 44.52900 38.46000
H  -6.29000 45.33800 40.05800
H  -10.51700 48.29300 40.10500
H  -11.25900 46.80000 40.78200
H  -11.56500 47.19100 39.03000
H  -14.49100 43.46100 39.73700
H  -14.77400 41.93400 42.23300
H  -15.23000 44.36100 42.21400
H  -14.61000 45.34300 40.89300
H  -13.45500 44.84000 42.12500
H  -15.51300 40.97000 39.48400
H  -16.32800 42.40600 39.99600
H  -16.80600 39.71400 40.73100
H  -17.85200 41.16400 41.09000
H  -16.59500 40.72000 42.18800
H  -13.80000 35.58400 40.41900
H  -14.49200 36.74200 41.52800
H  -13.28900 35.68700 42.08600
H  -8.88600 36.07400 38.49600
H  -5.67100 33.48600 39.73100
H  -6.96900 33.46300 40.96600
H  -5.64600 34.70700 41.06800

