158

Mg 17.18200 -2.16400 27.16200
C  16.32400 0.19900 29.67500
C  19.01200 -3.88000 29.47200
C  18.32800 -3.97400 24.66100
C  16.00500 0.31600 24.80200
N  17.51700 -1.94200 29.29400
C  17.12500 -0.86600 30.11700
C  17.58800 -1.15000 31.54300
C  18.54000 -2.37700 31.39500
C  18.32900 -2.75800 29.91300
C  20.04100 -2.22400 31.78200
C  16.40500 -1.50100 32.55700
C  16.50800 -0.94000 34.03400
H  17.93800 -0.59700 34.50900
N  18.32900 -3.79700 27.04000
C  19.00900 -4.36400 28.13300
C  19.58900 -5.67500 27.79600
C  19.53800 -5.60200 26.31600
C  18.71500 -4.46100 25.94800
C  20.27600 -6.52800 28.76500
C  20.31600 -6.45400 25.38200
O  20.30100 -6.33800 24.17500
C  21.12600 -7.65700 25.93000
N  17.21200 -1.85700 25.05100
C  17.71400 -2.79200 24.22200
C  17.65800 -2.26600 22.73800
C  16.82400 -0.99900 22.86700
C  16.67900 -0.82000 24.35500
C  19.09100 -1.99200 22.19000
C  15.47400 -1.19600 22.09900
C  15.21600 -0.15500 20.96700
N  16.21900 -0.25400 27.22300
C  15.75000 0.56200 26.16800
C  15.12600 1.71700 26.73000
C  15.23900 1.59100 28.16200
C  15.92100 0.37300 28.39600
C  14.35700 2.75800 26.02700
C  15.06300 2.24800 29.46900
O  14.56100 3.32500 29.73500
C  15.72500 1.32900 30.54500
C  16.69500 2.08500 31.41100
O  17.78100 2.55100 31.09500
O  16.12400 2.25800 32.63900
C  16.84000 3.18300 33.53000
H  19.53400 -4.44600 30.24600
H  18.66100 -4.66900 23.88800
H  15.67800 1.06600 24.07800
H  18.23700 -0.30500 31.77200
H  18.14500 -3.15500 32.04800
H  20.34100 -3.15500 32.26300
H  20.15400 -1.38300 32.46700
H  20.70900 -2.05000 30.93900
H  16.24700 -2.56500 32.73200
H  15.49600 -1.09600 32.11100
H  16.13400 -1.57100 34.84100
H  15.93500 -0.01300 34.04400
H  20.58400 -7.52600 28.45200
H  19.62200 -6.69800 29.62000
H  21.19100 -6.06300 29.13200
H  21.53800 -8.13300 25.04000
H  20.48000 -8.36400 26.45100
H  21.90900 -7.27900 26.58700
H  17.18500 -2.99900 22.08500
H  17.14800 -0.01900 22.51800
H  19.93800 -1.99200 22.87600
H  19.12400 -0.96800 21.81700
H  19.41300 -2.69500 21.42100
H  14.60600 -1.12500 22.75500
H  15.43600 -2.11700 21.51600
H  16.19000 0.06300 20.53000
H  14.70500 0.76300 21.25700
H  14.55400 -0.54700 20.19500
H  13.98900 2.39700 25.06700
H  14.89500 3.69900 25.90900
H  13.43100 2.96700 26.56400
H  14.88300 0.94700 31.12100
H  16.25100 3.49800 34.39100
H  17.33300 4.03400 33.05900
H  17.66200 2.77700 34.12000
Mg 48.02100 34.62100 27.26800
C  45.87700 33.07200 29.76600
C  48.67100 37.16900 29.52700
C  49.22100 36.32800 24.84900
C  47.10400 31.99400 25.23600
N  47.25700 35.02000 29.26900
C  46.49400 34.24300 30.18700
C  46.77500 34.79600 31.59800
C  47.03900 36.33200 31.35500
C  47.75800 36.15300 29.97400
C  45.85000 37.24300 31.29900
C  47.99400 34.03400 32.39100
C  47.60400 33.54800 33.84000
H  48.07900 34.38600 35.01100
N  48.90200 36.45300 27.16000
C  49.17600 37.29600 28.24700
C  49.81000 38.54300 27.75800
C  50.02700 38.26700 26.34300
C  49.33600 36.99300 26.07800
C  50.24000 39.67400 28.62200
C  50.69300 39.22600 25.45000
O  50.80100 38.98600 24.29200
C  51.03000 40.61700 25.92800
N  48.10300 34.25700 25.29400
C  48.77000 35.12700 24.51000
C  48.78900 34.58600 23.00900
C  48.29400 33.07300 23.21300
C  47.74500 33.11000 24.67700
C  47.94300 35.44100 21.98200
C  49.40800 32.01100 23.10900
C  50.71600 32.00600 23.95900
N  46.82500 32.90400 27.43800
C  46.59400 31.87600 26.57000
C  45.76300 30.85600 27.07700
C  45.47600 31.25400 28.34500
C  46.09400 32.52200 28.49200
C  45.63000 29.55200 26.40900
C  44.82200 30.90800 29.58200
O  44.20300 29.95800 29.95700
C  44.98600 32.12400 30.53100
C  45.49000 31.60500 31.76600
O  46.60700 31.12900 31.86700
O  44.48400 31.56200 32.71200
C  44.84000 30.83700 33.97900
H  48.88700 37.89700 30.31200
H  49.73900 36.81000 24.01700
H  46.86200 31.31500 24.41600
H  45.82500 34.81500 32.13200
H  47.68600 36.80200 32.09600
H  44.98500 36.58300 31.23900
H  45.81800 37.87500 30.41100
H  45.74700 37.84600 32.20200
H  48.87200 34.67500 32.47500
H  48.37300 33.16400 31.85500
H  47.85000 32.50800 34.05400
H  46.53300 33.63400 34.02000
H  51.31800 39.81300 28.69400
H  50.01200 39.41500 29.65600
H  49.68000 40.55000 28.29600
H  50.20200 41.19200 26.34200
H  51.28400 41.28500 25.10600
H  51.86200 40.61800 26.63300
H  49.82800 34.51700 22.68800
H  47.55000 32.81200 22.46100
H  48.55600 36.23300 21.55100
H  47.06900 35.91700 22.42800
H  47.53000 34.77400 21.22500
H  49.81500 32.23200 22.12200
H  49.07100 30.97500 23.08700
H  50.75800 31.01100 24.40100
H  50.69700 32.78300 24.72300
H  51.57500 32.05300 23.28900
H  46.08300 28.83000 27.08900
H  46.28500 29.55000 25.53800
H  44.63000 29.25100 26.09800
H  44.01600 32.60500 30.65000
H  45.19400 31.63400 34.63400
H  45.54400 30.01700 33.83700
H  43.97300 30.37200 34.44700

