158

Mg 26.17000 0.53100 28.31200
C  28.13000 0.29000 31.31300
C  23.47600 1.30000 30.33100
C  24.50700 0.89400 25.60600
C  29.00300 -0.50300 26.54900
N  25.84300 0.64000 30.61000
C  26.83500 0.75500 31.56300
C  26.17900 0.90800 32.93300
C  24.72100 1.31200 32.64900
C  24.64400 1.00900 31.10500
C  23.69600 0.67700 33.63100
C  26.86300 2.00300 33.78400
C  27.33800 1.70000 35.21500
H  27.53200 2.84900 36.26200
N  24.21300 0.90900 27.99800
C  23.26200 1.17100 28.93700
C  22.02400 1.41300 28.20000
C  22.30200 1.38800 26.83700
C  23.70600 0.90700 26.75400
C  20.67700 1.63000 28.97300
C  21.37500 1.72300 25.71000
O  21.69700 1.68500 24.50700
C  19.95800 2.11500 26.03300
N  26.70800 0.21300 26.32800
C  25.82100 0.61400 25.39100
C  26.39500 0.28000 23.99600
C  27.85300 -0.20500 24.28100
C  27.93600 -0.11800 25.85300
C  25.55500 -0.68000 23.12500
C  28.80100 0.67000 23.54600
C  29.00100 2.08300 24.05700
N  28.18500 0.00500 28.76800
C  29.17100 -0.47500 27.92500
C  30.36600 -0.81800 28.74800
C  30.00100 -0.58200 30.07100
C  28.65300 0.02500 30.04500
C  31.61600 -1.47700 28.19300
C  30.44400 -0.70800 31.46900
O  31.45500 -1.17400 31.97200
C  29.26900 -0.09100 32.29700
C  28.77900 -1.07200 33.28900
O  27.91100 -1.92300 33.08100
O  29.46900 -0.96600 34.47700
C  29.00500 -1.71100 35.59300
H  22.62200 1.69300 30.88700
H  23.96800 1.15800 24.69400
H  29.91500 -0.94300 26.14000
H  26.25500 -0.05100 33.44600
H  24.53100 2.37500 32.79600
H  22.85500 0.22400 33.10600
H  23.38600 1.39100 34.39500
H  24.25900 -0.08400 34.17100
H  26.20700 2.87300 33.81000
H  27.76300 2.37100 33.29200
H  28.37000 1.35800 35.14100
H  26.95100 0.76300 35.61600
H  20.56300 1.15400 29.94700
H  19.91700 1.07100 28.42600
H  20.31400 2.65700 28.99800
H  19.41600 1.25700 26.43000
H  19.40100 2.34200 25.12400
H  20.12000 2.94900 26.71500
H  26.39100 1.22600 23.45600
H  28.08800 -1.23100 23.99700
H  25.73000 -0.35000 22.10100
H  24.48400 -0.57700 23.30200
H  25.89300 -1.70000 23.30900
H  28.33200 0.74000 22.56500
H  29.72300 0.08800 23.56100
H  29.18200 2.74000 23.20700
H  29.83600 2.11400 24.75700
H  28.12000 2.32900 24.65000
H  31.96500 -1.26400 27.18200
H  31.43800 -2.54900 28.28500
H  32.49400 -1.18200 28.76800
H  29.69000 0.76700 32.82200
H  27.93000 -1.67300 35.76800
H  29.59600 -1.53000 36.49100
H  29.13200 -2.72700 35.22100
Mg 16.25000 52.38100 26.67900
C  17.79600 50.88200 29.46000
C  14.10600 53.86000 28.92100
C  14.78500 53.56800 23.95200
C  18.54900 50.67300 24.64500
N  16.03400 52.46600 28.90000
C  16.80400 51.78600 29.82600
C  16.38200 52.07800 31.25800
C  14.95500 52.71300 30.99700
C  15.01200 53.04500 29.52000
C  13.69300 51.88400 31.49300
C  17.36000 53.07100 32.01000
C  17.61100 52.76000 33.52700
H  16.63100 51.89800 34.31100
N  14.68500 53.53300 26.45800
C  13.98900 54.15800 27.48600
C  13.00300 55.00500 26.88100
C  13.20900 54.96700 25.47200
C  14.22900 53.98900 25.23400
C  11.88700 55.74000 27.66000
C  12.50400 55.76100 24.35200
O  12.68400 55.66300 23.18200
C  11.30500 56.64800 24.79700
N  16.66900 52.16400 24.51800
C  15.78400 52.71200 23.60700
C  16.22900 52.42500 22.21700
C  17.57500 51.62100 22.39900
C  17.63200 51.42900 23.94700
C  15.12000 51.71600 21.42800
C  18.89600 52.37600 21.91600
C  19.76600 51.52000 20.91600
N  17.79700 51.03300 26.92300
C  18.72600 50.56200 26.04000
C  19.74200 49.72000 26.74600
C  19.51700 49.97700 28.08500
C  18.28900 50.62700 28.17200
C  20.81400 48.94200 26.07000
C  19.96500 49.63700 29.39400
O  20.95000 49.04500 29.75800
C  18.78300 50.16000 30.38500
C  18.25200 48.90800 31.04200
O  17.62400 48.01500 30.52500
O  18.59400 48.78100 32.41300
C  18.36700 47.51300 33.05200
H  13.41600 54.30400 29.64200
H  14.36300 53.95000 23.02100
H  19.28800 50.15900 24.02600
H  16.24500 51.09600 31.70900
H  14.79200 53.71100 31.40400
H  13.11300 51.60300 30.61400
H  13.00100 52.55300 32.00400
H  13.98800 51.10300 32.19400
H  17.04400 54.11300 31.96400
H  18.37300 53.03400 31.60900
H  17.76800 53.64200 34.14700
H  18.55800 52.22300 33.59100
H  11.86600 56.82700 27.57500
H  11.76600 55.40200 28.68900
H  10.94300 55.39100 27.24200
H  10.38900 56.14200 25.10400
H  11.05900 57.08300 23.82800
H  11.75600 57.36800 25.48000
H  16.42300 53.40900 21.79000
H  17.43600 50.62700 21.97400
H  14.20500 51.75000 22.01900
H  15.31900 50.65600 21.26700
H  15.07500 52.32000 20.52200
H  19.54600 52.61800 22.75600
H  18.72400 53.30900 21.37900
H  19.17600 50.68800 20.53300
H  20.59900 51.20200 21.54300
H  20.21300 52.12000 20.12300
H  20.55500 48.19000 25.32500
H  21.34500 48.43000 26.87300
H  21.47600 49.68600 25.62800
H  19.20700 50.75000 31.19800
H  18.99800 47.32600 33.92200
H  18.60400 46.69900 32.36700
H  17.34500 47.36200 33.40100

