158

Mg 44.86000 4.73700 47.47300
C  42.81600 7.50400 47.14300
C  42.07400 2.77600 46.92100
C  46.93700 2.11500 47.09600
C  47.52500 6.93800 47.51100
N  42.67500 5.17200 47.07400
C  42.06400 6.35600 46.96400
C  40.57700 6.22000 46.55300
C  40.34300 4.70900 46.96300
C  41.80300 4.15600 47.02800
C  39.46300 4.45400 48.26100
C  40.44300 6.41500 45.01600
C  39.72800 7.63900 44.58600
H  40.17600 8.38200 43.28700
N  44.51400 2.72800 47.18200
C  43.31500 2.12700 46.94900
C  43.49000 0.68500 46.75000
C  44.92200 0.46400 46.82300
C  45.55500 1.76900 47.05200
C  42.40800 -0.35600 46.49200
C  45.49300 -0.90900 46.72200
O  44.79900 -1.87200 46.59400
C  46.96600 -1.18600 46.82900
N  46.92100 4.55700 47.18200
C  47.55900 3.33600 47.33600
C  49.10200 3.48000 47.39800
C  49.25100 4.95500 47.72200
C  47.84100 5.54000 47.53600
C  49.70100 2.50300 48.42000
C  50.44900 5.70500 47.00300
C  51.36100 6.66000 47.75800
N  45.15300 6.79800 47.35800
C  46.31300 7.54700 47.32900
C  45.95300 8.99000 47.35200
C  44.60600 8.99900 47.31800
C  44.19500 7.63200 47.23800
C  46.95400 10.22000 47.37200
C  43.40200 9.80000 47.31900
O  43.29300 11.04400 47.40300
C  42.17700 8.87700 47.11200
C  41.25800 9.07300 48.33000
O  41.21600 8.32900 49.32900
O  40.34200 10.07800 48.04900
C  39.33300 10.29700 49.08300
H  41.16600 2.21900 46.68100
H  47.59300 1.24200 47.09400
H  48.34000 7.65900 47.59600
H  39.93800 6.92100 47.08900
H  40.00500 4.14200 46.09500
H  38.81800 5.31700 48.42600
H  40.18700 4.33200 49.06700
H  38.98400 3.47500 48.24400
H  39.94000 5.53600 44.61200
H  41.47900 6.42900 44.67900
H  39.69900 8.35700 45.40500
H  38.67300 7.44800 44.38900
H  42.62800 -0.85200 45.54600
H  41.44000 0.11400 46.31500
H  42.17400 -1.02800 47.31800
H  47.29000 -2.22000 46.71100
H  47.28800 -0.85100 47.81500
H  47.55600 -0.62400 46.10500
H  49.44400 3.21100 46.39800
H  49.31200 5.23100 48.77500
H  50.32200 3.05700 49.12500
H  50.36700 1.74900 48.00200
H  48.95400 1.94600 48.98600
H  49.96300 6.39300 46.31200
H  51.04500 5.01500 46.40600
H  51.06400 6.58400 48.80400
H  51.18100 7.69300 47.46000
H  52.43300 6.49400 47.65000
H  47.41900 10.36400 46.39700
H  47.72500 10.04400 48.12300
H  46.44200 11.14600 47.63500
H  41.65700 9.10700 46.18200
H  38.92900 11.27800 48.83200
H  39.70300 10.38300 50.10500
H  38.49300 9.62700 48.90100
Mg 48.03700 16.41100 28.68200
C  46.09400 16.16900 31.64100
C  50.33500 18.17300 30.39600
C  49.54800 16.70600 25.74200
C  45.18400 14.83700 27.06500
N  48.14300 17.11300 30.73500
C  47.31900 16.83700 31.78800
C  47.82400 17.32500 33.16300
C  49.04100 18.22000 32.70000
C  49.20900 17.82900 31.16300
C  48.98600 19.73000 33.03600
C  48.11000 16.03400 34.06800
C  47.94200 16.14700 35.61600
H  47.49400 17.50000 36.22900
N  49.76700 17.20900 28.13200
C  50.62200 17.90800 29.00200
C  51.90100 18.15300 28.32900
C  51.72900 17.70500 26.95700
C  50.37200 17.19600 26.91400
C  53.18400 18.74000 29.06300
C  52.69200 17.72700 25.87800
O  52.38100 17.26400 24.78400
C  54.06700 18.19600 26.07400
N  47.45000 15.75900 26.75600
C  48.30000 16.12200 25.69100
C  47.64200 15.71600 24.33900
C  46.34500 14.96800 24.75400
C  46.31400 15.19000 26.26600
C  47.52200 16.82600 23.35800
C  46.25700 13.41600 24.50500
C  46.04600 12.95600 23.06400
N  46.14900 15.53300 29.29100
C  45.12000 14.98200 28.45000
C  43.94600 14.78300 29.25800
C  44.30100 15.18000 30.53000
C  45.59500 15.67300 30.47500
C  42.57700 14.25700 28.69000
C  43.75600 15.28900 31.83000
O  42.66500 14.99800 32.38400
C  45.01900 15.77800 32.64600
C  44.57700 16.96100 33.36900
O  44.13800 18.00700 32.87600
O  44.45100 16.60700 34.70700
C  43.50300 17.24100 35.66300
H  51.07600 18.75000 30.95400
H  50.03200 16.71100 24.76300
H  44.34000 14.51200 26.45300
H  46.96800 17.86600 33.56700
H  49.94000 17.78200 33.13400
H  48.86700 20.44100 32.21800
H  49.86200 19.96600 33.64000
H  48.08400 19.89000 33.62600
H  49.13100 15.73500 33.83100
H  47.48500 15.23200 33.67500
H  48.91400 15.91600 36.05300
H  47.17400 15.38000 35.71100
H  53.93800 17.95900 29.15300
H  53.05400 19.05700 30.09700
H  53.47100 19.61900 28.48700
H  54.61500 18.04400 25.14400
H  54.38500 17.56100 26.90200
H  54.01700 19.25700 26.32000
H  48.33700 15.04000 23.84100
H  45.49100 15.51700 24.35800
H  48.21200 16.62800 22.53800
H  47.89800 17.71900 23.85800
H  46.48900 17.00200 23.06000
H  45.77000 12.85400 25.30200
H  47.26700 13.07200 24.72700
H  46.49000 11.96900 22.93000
H  46.47100 13.66400 22.35300
H  44.96200 12.93300 22.95200
H  42.20000 14.77100 27.80600
H  41.87000 14.45100 29.49800
H  42.68400 13.19100 28.48900
H  45.25500 14.99700 33.36700
H  42.80500 16.43800 35.89800
H  42.88800 17.98100 35.15000
H  43.90800 17.60100 36.60900

