158

Mg 54.24200 24.40700 44.41700
C  51.67400 26.65800 43.66200
C  52.23300 21.86100 43.19900
C  56.95300 22.51600 44.43800
C  56.34600 27.28500 44.66500
N  52.22000 24.25100 43.65000
C  51.35000 25.31500 43.45400
C  49.97900 24.75300 42.93900
C  50.07800 23.22400 43.28300
C  51.59900 23.06700 43.37200
C  49.38700 22.71100 44.58500
C  49.72300 24.96500 41.44100
C  48.26100 25.25900 41.01000
H  48.05300 24.79100 39.57400
N  54.55000 22.38500 43.96200
C  53.59800 21.46300 43.44700
C  54.22700 20.20500 43.41400
C  55.60400 20.34800 43.85200
C  55.79000 21.78800 44.12600
C  53.45200 19.01400 42.85200
C  56.64300 19.19400 43.83600
O  56.41600 18.13500 43.28200
C  57.98300 19.35000 44.46200
N  56.37000 24.83400 44.29700
C  57.26900 23.89200 44.57300
C  58.64500 24.47700 44.93100
C  58.41300 25.91600 45.04700
C  56.95400 26.01000 44.65800
C  59.34600 23.83600 46.18700
C  59.34800 26.75900 44.14300
C  59.91400 27.97500 44.75400
N  54.06100 26.60600 44.34400
C  55.01200 27.65000 44.54900
C  54.34400 28.90800 44.69600
C  53.01900 28.57500 44.31600
C  52.91200 27.13000 44.10900
C  54.91100 30.21100 44.93000
C  51.64900 29.12400 44.13700
O  51.26600 30.28900 44.32100
C  50.83400 27.92100 43.44900
C  50.45300 28.22800 42.07500
O  51.24700 28.24200 41.14400
O  49.09100 28.71200 41.98700
C  48.74700 29.19300 40.61400
H  51.54000 21.09400 42.84700
H  57.76700 21.78800 44.44900
H  57.08400 28.07000 44.84300
H  49.20900 25.31000 43.47300
H  49.86200 22.54500 42.45900
H  50.07500 22.05900 45.12300
H  48.43100 22.20800 44.43600
H  49.22500 23.53400 45.28100
H  50.11000 24.14300 40.83900
H  50.40100 25.73900 41.08100
H  48.06400 26.33000 41.04300
H  47.53400 24.85300 41.71400
H  53.62500 18.81000 41.79600
H  52.37800 19.17300 42.94800
H  53.65500 18.20700 43.55700
H  58.46200 18.38600 44.63700
H  57.75600 19.88100 45.38600
H  58.69300 19.99400 43.94300
H  59.18500 24.24400 44.01300
H  58.38300 26.22000 46.09300
H  58.59300 23.37900 46.82900
H  59.87200 24.52900 46.84300
H  60.07100 23.11600 45.80800
H  58.91200 27.13600 43.21900
H  60.23900 26.20000 43.85600
H  59.77900 28.90900 44.20900
H  61.00000 27.90700 44.81100
H  59.49800 28.02600 45.76000
H  54.28000 30.55300 45.75100
H  54.62800 30.82500 44.07500
H  55.95800 30.18500 45.23100
H  50.04600 27.73000 44.17700
H  49.55300 29.51500 39.95500
H  48.20900 30.14000 40.59000
H  48.14800 28.36800 40.22800
Mg 47.59600 16.50400 28.63100
C  45.60400 16.26200 31.57400
C  49.81100 18.33200 30.50800
C  49.23200 17.02700 25.81700
C  45.04500 14.66500 26.89800
N  47.69200 17.20400 30.80100
C  46.76600 17.00300 31.78800
C  47.18500 17.60700 33.12300
C  48.41500 18.53500 32.74500
C  48.74300 17.95900 31.27500
C  48.17400 20.09900 32.75400
C  47.36900 16.47800 34.20300
C  46.83100 16.82400 35.57200
H  46.65200 18.34100 35.92500
N  49.33300 17.46300 28.25200
C  50.15100 18.16400 29.07500
C  51.40300 18.53900 28.43100
C  51.21800 18.16200 27.06200
C  49.87200 17.58000 26.96800
C  52.53400 19.22000 29.20000
C  52.24100 18.17000 25.95800
O  52.01000 17.83700 24.83200
C  53.66600 18.59000 26.27900
N  47.21600 15.87900 26.64100
C  48.09900 16.21800 25.66500
C  47.64100 15.68300 24.33900
C  46.26900 14.89900 24.66500
C  46.13300 15.16000 26.14300
C  47.29500 16.74200 23.27700
C  46.23100 13.35900 24.16600
C  45.08100 12.94200 23.21500
N  45.68800 15.61600 29.13700
C  44.83100 14.90400 28.29200
C  43.61600 14.67900 29.00200
C  43.85900 15.13300 30.33000
C  45.17100 15.71600 30.33400
C  42.33900 14.07600 28.44300
C  43.32700 15.33200 31.65600
O  42.25100 14.87300 32.10800
C  44.39500 16.04000 32.49900
C  43.74600 17.22400 33.04100
O  43.73300 18.30800 32.44000
O  43.04800 16.93600 34.18700
C  42.11100 17.91100 34.74500
H  50.48200 18.94000 31.11800
H  49.68100 17.26300 24.85000
H  44.29200 14.14900 26.29900
H  46.36100 18.25600 33.41800
H  49.27900 18.30100 33.36800
H  47.25500 20.50900 33.17200
H  48.26300 20.47800 31.73600
H  48.98700 20.45900 33.38600
H  48.43800 16.32200 34.34300
H  46.88500 15.54500 33.91500
H  47.47700 16.43000 36.35600
H  45.79800 16.48900 35.65600
H  52.15200 19.87500 29.98300
H  53.03400 19.82500 28.44400
H  53.31600 18.56900 29.59200
H  54.17000 18.14600 27.13800
H  53.64200 19.67900 26.32100
H  54.27000 18.29300 25.42200
H  48.44900 15.08600 23.91600
H  45.39400 15.45900 24.33500
H  47.70400 17.67800 23.66000
H  46.25200 16.88700 22.99800
H  47.87700 16.42600 22.41100
H  46.08500 12.65700 24.98700
H  47.24000 13.32900 23.75600
H  45.72800 12.72300 22.36600
H  44.34400 13.71700 23.00000
H  44.59600 12.04900 23.60900
H  42.18600 13.05900 28.80600
H  42.37400 13.99100 27.35700
H  41.45900 14.68600 28.64400
H  44.67100 15.37400 33.31600
H  42.55500 18.90700 34.74000
H  41.69800 17.71500 35.73400
H  41.32700 17.97300 33.99000

