158

Mg 44.10400 3.57200 47.35000
C  42.31200 6.58500 47.11100
C  41.13900 1.86200 46.97900
C  45.91600 0.64800 47.10600
C  47.07800 5.39400 47.31000
N  41.93600 4.18400 47.01600
C  41.46900 5.45100 47.07000
C  39.97200 5.52200 46.93700
C  39.61000 3.95500 47.07500
C  40.95100 3.25900 47.01400
C  38.76700 3.47500 48.20300
C  39.46600 6.20500 45.58900
C  39.91500 5.64100 44.28500
H  40.91600 6.53200 43.50300
N  43.59300 1.51900 47.19900
C  42.30800 1.06200 47.05100
C  42.38600 -0.39700 46.88100
C  43.72800 -0.79400 46.79100
C  44.48400 0.43600 47.04400
C  41.12300 -1.21400 46.54600
C  44.28100 -2.20000 46.54200
O  43.43100 -3.06200 46.74600
C  45.71800 -2.48700 46.20200
N  46.16500 3.11600 47.10600
C  46.68100 1.90300 47.18300
C  48.18000 1.94900 47.16400
C  48.52700 3.43200 47.50700
C  47.17900 4.03100 47.20600
C  48.84400 0.85900 47.95800
C  49.74900 4.02300 46.70700
C  50.96900 4.53800 47.52600
N  44.64200 5.50400 47.34000
C  45.86400 6.11800 47.37200
C  45.69700 7.52800 47.48300
C  44.29700 7.80300 47.39500
C  43.70900 6.48800 47.27500
C  46.77700 8.52300 47.70100
C  43.25000 8.83100 47.38900
O  43.33100 10.00600 47.44400
C  41.88500 8.07500 47.11200
C  40.88700 8.47300 48.19200
O  40.76200 7.78300 49.21800
O  40.05400 9.57600 47.88100
C  38.82200 9.73800 48.66500
H  40.21500 1.31600 46.77800
H  46.56200 -0.23100 47.07800
H  47.96000 5.98600 47.56400
H  39.45200 6.14300 47.66600
H  38.97900 3.67100 46.23300
H  39.30900 2.98900 49.01400
H  38.11300 2.67100 47.86600
H  38.22700 4.24400 48.75500
H  39.59700 7.28600 45.64000
H  38.37700 6.23700 45.58900
H  39.02800 5.35900 43.71700
H  40.43000 4.72200 44.56300
H  40.23700 -0.79800 47.02500
H  41.21500 -2.19600 47.01000
H  41.04000 -1.37000 45.47000
H  45.97300 -1.97200 45.27600
H  45.92000 -3.55800 46.20400
H  46.42800 -2.08400 46.92400
H  48.43400 1.74000 46.12400
H  48.81100 3.44500 48.56000
H  49.82800 1.20000 48.28200
H  48.96300 -0.01200 47.31400
H  48.35200 0.52800 48.87300
H  49.30500 4.80900 46.09600
H  50.09400 3.20300 46.07600
H  50.78800 4.65300 48.59500
H  51.06200 5.58300 47.23000
H  51.85300 3.93100 47.33500
H  46.59100 8.86900 48.71800
H  46.79000 9.35600 46.99800
H  47.76200 8.08100 47.84900
H  41.69800 8.37400 46.08000
H  38.25600 10.60700 48.33000
H  39.10000 9.83300 49.71400
H  38.24800 8.82000 48.53800
Mg 41.41300 7.67300 29.62400
C  42.85200 8.97300 32.52900
C  38.99700 6.19200 31.69000
C  40.09000 6.11200 26.90400
C  44.16500 8.68700 27.74300
N  40.93400 7.64800 31.93300
C  41.72000 8.27800 32.88500
C  41.13500 7.96500 34.30200
C  39.93600 6.98400 33.94800
C  39.97900 6.85100 32.44200
C  39.93900 5.65500 34.72400
C  40.66800 9.24300 35.14000
C  40.80800 9.26200 36.72600
H  40.92100 10.58400 37.29400
N  39.67800 6.54600 29.29800
C  38.83900 6.00500 30.27800
C  37.77600 5.32200 29.59200
C  37.99000 5.43800 28.24800
C  39.29000 6.06200 28.08600
C  36.64100 4.53900 30.37600
C  37.05000 5.09600 27.13200
O  37.42300 4.98200 25.96700
C  35.65400 4.69200 27.44500
N  42.03000 7.44000 27.58000
C  41.26900 6.81000 26.68300
C  41.88600 6.99600 25.26200
C  43.06300 7.97700 25.44500
C  43.06700 8.06700 26.96900
C  42.25200 5.61400 24.62600
C  42.94000 9.39900 24.84900
C  41.76700 10.33300 25.28100
N  43.10800 8.68700 29.97400
C  44.18100 8.98800 29.14300
C  45.12300 9.75000 29.92600
C  44.63800 9.81900 31.21700
C  43.42800 9.07400 31.22300
C  46.44600 10.33400 29.54100
C  44.76700 10.42200 32.50500
O  45.64400 11.15800 32.88600
C  43.61900 9.83300 33.44300
C  44.32100 9.19400 34.51400
O  44.79000 8.06700 34.45000
O  44.19300 9.96000 35.62000
C  44.84200 9.66700 36.87200
H  38.20500 5.71500 32.27200
H  39.62600 5.57300 26.07500
H  44.98400 9.07200 27.13200
H  41.91900 7.47300 34.87700
H  39.04900 7.47200 34.35200
H  40.79100 5.65200 35.40400
H  40.14700 4.90600 33.96000
H  38.97600 5.45800 35.19700
H  39.64600 9.40700 34.80100
H  41.26900 10.03800 34.69800
H  41.68700 8.74100 37.10500
H  39.89900 8.75900 37.05500
H  36.91400 4.38300 31.42000
H  36.27900 3.62700 29.90200
H  35.74600 5.14000 30.53800
H  35.09300 4.63700 26.51300
H  35.15000 5.29900 28.19800
H  35.79700 3.66200 27.77100
H  41.09500 7.47200 24.68200
H  44.02200 7.56600 25.12800
H  42.22900 4.87700 25.42900
H  43.27300 5.64400 24.24400
H  41.67300 5.35700 23.73900
H  42.96900 9.32900 23.76200
H  43.85800 9.93400 25.09400
H  42.15300 11.09900 25.95400
H  41.01500 9.68200 25.72900
H  41.31600 10.77200 24.39100
H  47.03100 9.42100 29.43700
H  46.86000 11.03200 30.27000
H  46.35400 10.77800 28.55000
H  43.02600 10.68400 33.77700
H  45.12200 8.62100 36.75000
H  44.13600 9.61600 37.70100
H  45.70200 10.26200 37.17800

