158

Mg 3.01300 -0.68300 43.66000
C  6.31000 0.39700 43.25900
C  1.90100 2.09400 41.84600
C  -0.07000 -2.10400 43.41500
C  4.18900 -3.60800 45.03800
N  3.95700 0.91700 42.43400
C  5.30500 1.22000 42.56800
C  5.50800 2.63500 42.14600
C  4.18500 3.28700 42.06000
C  3.27400 2.02600 42.17900
C  3.86200 4.37400 43.14600
C  6.33900 2.78800 40.84000
C  5.81700 2.18600 39.54800
H  5.71700 3.16700 38.38300
N  1.08900 -0.02700 42.83600
C  0.85400 1.15400 42.16600
C  -0.54100 1.23100 41.83700
C  -1.17600 -0.05300 42.24700
C  -0.07600 -0.78200 42.94500
C  -1.11800 2.47700 41.21200
C  -2.56100 -0.44000 41.95200
O  -3.28900 0.32400 41.39500
C  -3.08000 -1.85100 42.23400
N  2.22300 -2.69100 44.04300
C  0.92600 -2.99700 43.95900
C  0.65600 -4.47600 44.13800
C  2.01000 -4.94300 44.69900
C  2.89700 -3.69800 44.59600
C  -0.57900 -4.78300 44.97300
C  2.74500 -6.13800 43.85900
C  3.59700 -7.08100 44.67800
N  4.94100 -1.52300 44.13600
C  5.23000 -2.55500 44.86200
C  6.64700 -2.61600 45.10500
C  7.12000 -1.46800 44.48500
C  6.01300 -0.80200 43.94500
C  7.33700 -3.64500 45.84400
C  8.27200 -0.66500 44.24500
O  9.46800 -0.82700 44.55700
C  7.80800 0.64600 43.43600
C  8.16100 1.86800 44.22500
O  8.79700 2.83700 43.83200
O  7.98400 1.64500 45.59400
C  8.56800 2.65400 46.45300
H  1.57000 2.96000 41.26900
H  -1.04400 -2.59900 43.39400
H  4.45000 -4.56200 45.50100
H  6.02600 3.10600 42.98200
H  4.09600 3.86600 41.14100
H  3.40600 5.19600 42.59300
H  4.76100 4.71800 43.65700
H  3.10700 4.05400 43.86400
H  7.28500 2.27600 41.01200
H  6.66400 3.80200 40.60800
H  4.82300 1.77600 39.72400
H  6.44800 1.32400 39.33400
H  -0.87700 2.52200 40.15000
H  -0.75500 3.38800 41.68800
H  -2.19300 2.57800 41.36400
H  -4.04700 -1.92900 41.73700
H  -3.19700 -2.08600 43.29200
H  -2.41500 -2.53300 41.70400
H  0.57500 -4.93700 43.15300
H  1.87600 -5.28200 45.72600
H  -1.16300 -3.92400 45.30200
H  -0.23200 -5.30300 45.86500
H  -1.28500 -5.38100 44.39700
H  3.29500 -5.80200 42.98000
H  2.02800 -6.80200 43.37500
H  3.30300 -8.11900 44.52700
H  3.66800 -6.82600 45.73600
H  4.61700 -7.06100 44.29300
H  7.57300 -4.56200 45.30500
H  6.60000 -3.92400 46.59700
H  8.21300 -3.21600 46.33100
H  8.34600 0.69200 42.48900
H  9.65700 2.68500 46.45300
H  8.28200 2.55500 47.50100
H  8.11500 3.59600 46.14400
Mg 35.52800 49.58700 26.03400
C  35.39800 47.78300 29.08000
C  35.00500 52.50000 27.97200
C  35.65700 51.53300 23.25200
C  36.15700 46.82300 24.33700
N  35.11200 50.05800 28.28000
C  35.14400 49.10500 29.31800
C  35.11600 49.83200 30.67700
C  34.74600 51.32700 30.31200
C  35.00000 51.32200 28.78000
C  33.34100 51.79500 30.80900
C  36.50300 49.68700 31.45200
C  36.55500 49.09200 32.88400
H  35.35100 49.25800 33.83900
N  35.24500 51.76200 25.67800
C  35.13300 52.72400 26.56300
C  35.17600 53.93500 25.91400
C  35.25600 53.69800 24.53900
C  35.29800 52.27700 24.37400
C  35.19500 55.31000 26.61100
C  35.32700 54.82100 23.44100
O  35.60300 54.47900 22.28600
C  35.05200 56.34400 23.60200
N  35.79100 49.27800 24.10700
C  35.92200 50.15300 23.10000
C  36.24000 49.49700 21.79800
C  36.64300 48.06700 22.28500
C  36.17300 48.05900 23.69500
C  35.07900 49.49800 20.70800
C  38.17900 47.67400 22.09600
C  38.51500 46.22900 21.59900
N  35.53300 47.55600 26.44000
C  35.88500 46.54700 25.66600
C  35.92100 45.31200 26.41300
C  35.71100 45.72200 27.80000
C  35.49800 47.10500 27.75300
C  36.28900 43.95700 25.87400
C  35.68700 45.30600 29.18500
O  35.96700 44.21900 29.73800
C  35.45200 46.59900 30.05100
C  34.21300 46.35500 31.00600
O  33.06900 46.59000 30.68900
O  34.60700 45.75900 32.20400
C  33.65800 45.47900 33.37600
H  34.90400 53.36900 28.62600
H  35.75900 52.07800 22.31000
H  36.52800 45.94500 23.80500
H  34.33400 49.40300 31.30500
H  35.38400 52.02900 30.85000
H  32.80400 50.96600 31.27100
H  32.82500 52.00300 29.87100
H  33.42000 52.68000 31.43900
H  37.09100 50.60500 31.45300
H  37.17600 49.16400 30.77200
H  37.33200 49.57500 33.47700
H  36.74100 48.02400 32.77000
H  36.05700 55.90400 26.31000
H  35.33300 55.14500 27.68000
H  34.23900 55.83400 26.62500
H  34.54400 56.73700 22.72200
H  35.99300 56.81800 23.88300
H  34.29400 56.42700 24.38100
H  37.02000 50.16900 21.44100
H  35.97500 47.39400 21.74800
H  35.42000 49.82600 19.72600
H  34.19000 50.04900 21.01600
H  34.86400 48.43300 20.62100
H  38.76900 47.92400 22.97800
H  38.55200 48.33000 21.30900
H  37.64600 45.58300 21.72300
H  39.38300 45.76300 22.06500
H  38.81300 46.13000 20.55600
H  36.35700 43.96300 24.78600
H  35.43200 43.35100 26.16800
H  37.21400 43.57800 26.30900
H  36.32200 46.68400 30.70300
H  33.43800 44.41400 33.30800
H  32.74600 46.06600 33.48200
H  34.25400 45.68200 34.26700

