158

Mg 41.04400 40.85400 26.99300
C  40.54600 43.20100 29.60700
C  42.16700 38.69400 29.27500
C  41.78700 38.71000 24.42900
C  40.40400 43.31200 24.68000
N  41.25700 40.94300 29.22100
C  40.95600 41.95900 30.04900
C  40.98600 41.51400 31.56900
C  41.56200 40.04200 31.39200
C  41.71500 39.85900 29.87700
C  42.89000 39.84800 32.17900
C  39.57600 41.56900 32.23800
C  39.41000 42.43800 33.51200
H  39.05800 41.88100 34.96900
N  41.82300 38.95500 26.88100
C  42.17600 38.25400 27.94900
C  42.62500 36.94400 27.49600
C  42.45500 36.84000 26.08800
C  41.98000 38.19000 25.79100
C  43.26300 35.97900 28.41900
C  42.60400 35.68500 25.20500
O  42.52100 35.87000 23.96900
C  42.88900 34.30000 25.66200
N  41.00600 40.88000 24.88700
C  41.35100 39.89100 23.98200
C  41.09200 40.20800 22.52100
C  40.81700 41.77700 22.62700
C  40.65400 41.99800 24.18500
C  42.17000 39.88500 21.39600
C  39.53900 42.29700 21.92500
C  39.88000 43.45600 21.00000
N  40.34000 42.79200 27.03000
C  40.12400 43.70900 26.02800
C  39.95200 44.97700 26.53800
C  39.95900 44.82300 27.87900
C  40.30600 43.48200 28.20000
C  39.74400 46.26700 25.78200
C  39.80900 45.51800 29.17600
O  39.40100 46.63500 29.42000
C  40.17300 44.49100 30.31200
C  41.31100 45.00400 31.17600
O  42.46600 45.08900 30.84800
O  40.84600 45.28300 32.45300
C  41.73900 45.98700 33.40500
H  42.49800 37.96000 30.01300
H  41.96300 38.02900 23.59400
H  40.20700 44.09900 23.94900
H  41.71300 42.10700 32.12500
H  40.76300 39.40200 31.76900
H  43.12800 40.78200 32.68800
H  43.69000 39.73200 31.44800
H  43.02000 39.02700 32.88500
H  39.12200 40.61600 32.50900
H  38.90500 42.03900 31.51900
H  38.56300 43.08800 33.29400
H  40.30200 43.03100 33.71500
H  42.58800 35.21800 28.81000
H  43.71000 36.44400 29.29800
H  44.03600 35.44000 27.87200
H  42.21400 34.10900 26.49600
H  43.92200 34.30100 26.00800
H  42.76100 33.58100 24.85200
H  40.16600 39.68400 22.28300
H  41.66900 42.41300 22.38500
H  42.62400 40.78000 20.97000
H  41.73400 39.25100 20.62400
H  42.97800 39.40500 21.94800
H  38.76300 42.64700 22.60600
H  39.16700 41.53800 21.23700
H  39.10100 44.20100 21.15900
H  39.93300 43.13700 19.95900
H  40.83500 43.95900 21.15000
H  39.15100 46.99800 26.33200
H  39.28000 46.11400 24.80800
H  40.72600 46.73300 25.70000
H  39.32700 44.23500 30.95000
H  42.72600 46.07900 32.95100
H  41.82500 45.31100 34.25600
H  41.19700 46.91600 33.58200
Mg 16.56700 51.82000 26.40800
C  18.47500 50.83000 29.20200
C  14.08400 52.75000 28.46900
C  14.85900 52.82100 23.65900
C  19.21300 50.86600 24.34800
N  16.33900 51.85000 28.55100
C  17.22000 51.40000 29.53700
C  16.65500 51.58100 30.93500
C  15.15000 51.89000 30.61000
C  15.19400 52.17800 29.10800
C  14.05500 50.82300 30.99500
C  17.40600 52.65500 31.78600
C  17.80800 52.21000 33.15600
H  16.80700 52.70100 34.20100
N  14.78000 52.75700 26.15200
C  13.84300 53.01400 27.12800
C  12.72300 53.73100 26.54200
C  12.91000 53.74600 25.14100
C  14.19800 53.02900 24.95400
C  11.54600 54.30300 27.39400
C  12.07200 54.36700 24.02600
O  12.39100 54.37300 22.87900
C  10.68200 54.95200 24.31800
N  16.89000 51.68500 24.29100
C  16.05700 52.24700 23.36900
C  16.68800 52.29300 21.95500
C  18.08200 51.65900 22.20900
C  18.12600 51.47800 23.69500
C  15.84400 51.67300 20.85400
C  19.33100 52.50600 21.75200
C  20.29300 51.90500 20.72900
N  18.39000 50.82500 26.65600
C  19.38200 50.54700 25.72500
C  20.55100 49.92000 26.39100
C  20.24300 50.07800 27.76400
C  18.90900 50.58900 27.86200
C  21.85100 49.44200 25.81900
C  20.72000 49.88000 29.11300
O  21.84000 49.52300 29.49400
C  19.56400 50.20000 30.13000
C  19.14100 48.94000 30.83800
O  18.65400 47.95600 30.31100
O  19.21700 49.14900 32.16700
C  18.73800 48.05500 33.08600
H  13.32800 53.08200 29.18400
H  14.37300 53.07200 22.71400
H  20.10900 50.60100 23.78400
H  16.74000 50.60500 31.41200
H  14.85300 52.79700 31.13800
H  13.47000 51.12400 31.86500
H  14.59200 49.87700 31.05500
H  13.36600 50.67900 30.16200
H  16.90200 53.62100 31.79600
H  18.37200 52.83200 31.31300
H  18.77900 52.63500 33.41100
H  17.90800 51.12700 33.22800
H  10.62500 53.87600 26.99700
H  11.55200 55.38700 27.28600
H  11.57900 53.99300 28.43800
H  10.20500 55.09100 23.34800
H  10.89200 55.76800 25.00900
H  10.07600 54.11300 24.66100
H  16.83600 53.35300 21.75300
H  18.15300 50.67400 21.74700
H  16.19200 50.73600 20.41800
H  15.73400 52.50800 20.16200
H  14.92000 51.35200 21.33600
H  19.86100 52.92900 22.60500
H  18.96400 53.40500 21.25600
H  21.18100 52.53600 20.75900
H  19.81500 51.99900 19.75400
H  20.44400 50.83400 20.86900
H  21.72600 48.51600 25.25800
H  22.59800 49.36900 26.61000
H  22.07100 50.15300 25.02200
H  20.07200 50.83300 30.85600
H  17.68700 48.29900 33.24000
H  19.23300 48.06600 34.05700
H  18.88300 47.06200 32.66200

