158

Mg 44.28700 5.37600 46.58800
C  42.29700 8.18700 46.49600
C  41.20700 3.49700 46.06100
C  45.98200 2.48700 46.47300
C  47.18100 7.24100 46.50100
N  42.00000 5.75400 46.42700
C  41.47300 7.03100 46.32300
C  39.95900 7.01700 46.08700
C  39.63000 5.47500 45.97000
C  40.98900 4.85500 46.24000
C  38.37500 5.09300 46.80900
C  39.32100 7.73300 44.77900
C  40.30100 7.81300 43.56900
H  39.92000 7.06500 42.26400
N  43.67100 3.31800 46.16000
C  42.39000 2.78400 46.03900
C  42.58000 1.35000 45.78900
C  43.98600 1.02400 45.85900
C  44.61200 2.28400 46.21800
C  41.53000 0.39800 45.47000
C  44.66200 -0.29700 45.65200
O  43.91600 -1.17200 45.24300
C  46.19100 -0.62300 45.78100
N  46.18500 5.00200 46.22400
C  46.66000 3.73700 46.51100
C  48.15000 3.61500 46.92800
C  48.64800 5.09800 46.63300
C  47.29700 5.84400 46.44600
C  48.28200 3.24800 48.43700
C  49.48300 5.19100 45.34800
C  50.98900 5.21300 45.56100
N  44.67400 7.30900 46.58800
C  45.91600 7.97100 46.44400
C  45.59500 9.37800 46.52900
C  44.24100 9.50800 46.58700
C  43.69600 8.24400 46.56400
C  46.64900 10.51900 46.50800
C  43.11300 10.49000 46.66700
O  43.11400 11.72200 46.80800
C  41.88500 9.62200 46.60700
C  41.04900 9.82900 47.77800
O  41.02800 9.13400 48.76800
O  40.21800 10.84900 47.49500
C  39.14000 10.84000 48.45700
H  40.41600 2.86000 45.66000
H  46.63200 1.61400 46.55900
H  48.11600 7.78500 46.64800
H  39.47400 7.35500 47.00300
H  39.55400 5.11200 44.94500
H  37.62200 5.87500 46.89800
H  38.72700 4.95700 47.83200
H  37.94200 4.17500 46.41100
H  39.10100 8.76800 45.04200
H  38.38700 7.24100 44.50700
H  41.35300 7.64500 43.79800
H  40.38900 8.85100 43.24800
H  41.61200 -0.20100 44.56400
H  40.54100 0.81900 45.29200
H  41.38700 -0.33500 46.26400
H  46.54700 -0.30400 46.76100
H  46.66500 0.03900 45.05700
H  46.49500 -1.66700 45.70500
H  48.59100 2.95900 46.17700
H  49.14100 5.48100 47.52600
H  47.35000 2.75500 48.71500
H  48.45000 4.09900 49.09600
H  49.05100 2.48100 48.53000
H  49.21600 6.13800 44.87900
H  49.22100 4.38500 44.66300
H  51.25400 5.01700 46.60000
H  51.33200 6.18300 45.20000
H  51.41800 4.49100 44.86700
H  46.87500 10.81500 45.48300
H  47.59300 10.13800 46.90000
H  46.16000 11.39000 46.94300
H  41.22900 9.85700 45.76900
H  38.54700 11.67100 48.07600
H  39.27600 11.31300 49.43000
H  38.48800 9.98000 48.60600
Mg -12.51300 16.60100 41.71400
C  -9.41200 14.94100 41.20700
C  -10.98300 19.44600 40.49500
C  -15.46300 17.91200 41.47000
C  -13.83400 13.50800 42.52100
N  -10.42700 17.05200 40.79600
C  -9.28300 16.29200 40.79900
C  -7.98000 17.15600 40.57700
C  -8.58800 18.56300 40.54900
C  -10.12700 18.34800 40.58400
C  -8.00900 19.53100 41.64300
C  -7.06800 16.82000 39.33500
C  -5.57700 16.53400 39.30400
H  -5.20900 15.29000 38.51500
N  -13.13100 18.42100 41.08300
C  -12.37400 19.48300 40.58600
C  -13.27900 20.68500 40.35100
C  -14.59400 20.18000 40.63200
C  -14.41800 18.79000 41.07300
C  -12.72300 21.95100 39.87500
C  -15.88800 21.04200 40.59700
O  -15.79500 22.15600 40.14500
C  -17.23100 20.50200 40.93100
N  -14.43700 15.70400 41.74400
C  -15.45600 16.59800 41.86900
C  -16.72400 15.83900 42.16700
C  -16.23700 14.41200 42.62400
C  -14.73200 14.55000 42.41600
C  -17.88000 16.47400 42.96800
C  -16.83600 13.08800 41.87200
C  -17.43700 11.99600 42.75200
N  -11.78200 14.62200 41.94500
C  -12.47200 13.45100 42.25800
C  -11.56300 12.32100 42.28900
C  -10.33800 12.87300 41.91600
C  -10.52800 14.22500 41.67900
C  -12.00000 10.87700 42.60200
C  -8.93000 12.58900 41.69000
O  -8.28600 11.54900 41.68800
C  -8.21200 13.91000 41.27300
C  -7.15900 14.30000 42.21200
O  -7.30800 14.90200 43.25500
O  -5.95700 13.96300 41.58600
C  -4.73800 14.25500 42.39800
H  -10.37700 20.33200 40.29200
H  -16.51100 18.22100 41.45100
H  -14.23400 12.56100 42.88900
H  -7.42700 17.07300 41.51300
H  -8.39700 19.03100 39.58400
H  -7.78000 20.46100 41.12100
H  -7.09800 19.17700 42.12400
H  -8.70300 19.77400 42.44700
H  -7.08700 17.73300 38.73900
H  -7.52700 16.04800 38.71800
H  -5.10600 16.48700 40.28500
H  -5.07600 17.34900 38.78100
H  -13.16200 22.81900 40.36600
H  -12.99200 22.01800 38.82100
H  -11.63900 21.98500 39.99200
H  -17.23600 20.24100 41.98900
H  -17.43700 19.67700 40.24900
H  -17.91400 21.30400 40.65000
H  -17.18600 15.64300 41.20000
H  -16.41000 14.29800 43.69400
H  -18.22100 15.88800 43.82200
H  -18.75900 16.61500 42.33900
H  -17.63300 17.48400 43.29800
H  -16.19000 12.78100 41.05000
H  -17.68900 13.44900 41.29800
H  -17.09400 11.07600 42.27900
H  -18.52400 12.04000 42.81900
H  -17.11000 12.22900 43.76600
H  -12.05500 10.41400 41.61600
H  -12.95600 10.78000 43.11700
H  -11.26900 10.27400 43.14000
H  -7.75200 13.77900 40.29400
H  -4.85900 15.24400 42.84100
H  -3.87700 14.29200 41.73100
H  -4.51800 13.41300 43.05500

