158

Mg 17.27300 52.19500 26.38800
C  19.11700 50.46900 28.87900
C  14.87500 52.80500 28.91900
C  15.30000 53.27100 24.00100
C  19.57500 50.99500 24.14300
N  16.97200 51.41400 28.60700
C  17.96800 51.01100 29.42300
C  17.65000 51.25200 30.87500
C  16.16700 51.70500 30.83300
C  16.03000 52.05500 29.33400
C  14.95700 50.73100 31.22000
C  18.50800 52.31700 31.49000
C  18.70600 52.22800 33.04900
H  17.68700 51.50600 33.96300
N  15.30400 52.91300 26.43500
C  14.53800 53.18400 27.54100
C  13.36100 53.96000 27.10200
C  13.46000 54.05700 25.63600
C  14.73400 53.35800 25.28300
C  12.38500 54.59100 28.13100
C  12.72900 55.09600 24.68700
O  13.12900 55.30000 23.50000
C  11.52900 55.89300 25.13600
N  17.41300 52.23300 24.39800
C  16.46800 52.68100 23.54700
C  16.75800 52.44400 22.05400
C  18.25900 52.00800 22.19200
C  18.48100 51.76800 23.66300
C  15.83100 51.25700 21.54900
C  19.29200 52.95600 21.51700
C  19.08800 54.46200 21.79200
N  18.99200 50.83300 26.38800
C  19.84400 50.50200 25.37300
C  20.96000 49.76100 25.83300
C  20.76000 49.73100 27.23400
C  19.47500 50.31600 27.49100
C  22.03500 49.17800 24.95000
C  21.23800 49.19200 28.49500
O  22.16300 48.46300 28.74700
C  20.26200 49.79300 29.60100
C  19.85500 48.69300 30.52800
O  19.12100 47.74900 30.32400
O  20.53500 48.82900 31.73300
C  20.07800 48.01400 32.88000
H  14.26800 53.08900 29.78100
H  14.58000 53.54600 23.22700
H  20.33400 50.78100 23.38700
H  17.65600 50.34700 31.48200
H  15.89400 52.60300 31.38700
H  14.33800 51.15800 32.00900
H  15.36400 49.76900 31.53300
H  14.21200 50.54000 30.44800
H  18.03500 53.25700 31.20500
H  19.54000 52.25500 31.14400
H  18.63900 53.29100 33.28200
H  19.73200 51.86300 33.08100
H  11.57200 53.86700 28.18400
H  12.06100 55.61100 27.92500
H  12.93300 54.55800 29.07300
H  10.82300 55.22600 25.63200
H  11.11000 56.31800 24.22400
H  11.76000 56.74900 25.77000
H  16.63100 53.27600 21.36200
H  18.44800 51.03000 21.75000
H  16.49600 50.44700 21.84800
H  15.70000 51.54000 20.50500
H  14.86000 51.05200 22.00000
H  19.36200 52.64300 20.47500
H  20.28800 52.64200 21.82700
H  18.92200 54.99200 20.85400
H  19.92500 54.94500 22.29700
H  18.26800 54.63000 22.49000
H  21.46000 48.76200 24.12300
H  22.39800 48.32300 25.52200
H  22.82800 49.78100 24.51000
H  20.87000 50.37200 30.29600
H  20.29900 46.95300 32.76400
H  18.99000 47.97700 32.93800
H  20.60500 48.38900 33.75700
Mg -11.04600 38.55500 41.49500
C  -9.04500 35.67400 40.91900
C  -8.50500 40.31900 39.57000
C  -13.21300 41.07900 40.93500
C  -13.63400 36.45500 42.44000
N  -9.06800 38.07900 40.38800
C  -8.50300 36.82600 40.23100
C  -7.17500 36.87200 39.53800
C  -6.91900 38.41400 39.32500
C  -8.15900 39.03100 39.93200
C  -5.64500 38.99200 39.99700
C  -7.16200 36.04000 38.21900
C  -5.89600 35.08000 38.17300
H  -4.78300 35.52800 37.14100
N  -10.82600 40.51400 40.56800
C  -9.75300 40.96800 39.83100
C  -10.04800 42.34000 39.46200
C  -11.31100 42.70200 40.03800
C  -11.85300 41.39800 40.57900
C  -9.08000 43.19500 38.69000
C  -12.04900 44.03200 39.96700
O  -11.54300 45.02700 39.43300
C  -13.43100 44.29800 40.81200
N  -13.03500 38.76400 41.60400
C  -13.70300 39.93700 41.49200
C  -15.22100 39.88400 41.86100
C  -15.43900 38.40400 42.21600
C  -13.93100 37.83800 42.12600
C  -15.57800 40.95900 42.97500
C  -16.54600 37.53500 41.50400
C  -17.40700 36.59800 42.45700
N  -11.26700 36.48000 42.00900
C  -12.36100 35.85900 42.41100
C  -12.02500 34.43000 42.61400
C  -10.66000 34.36800 42.07500
C  -10.30200 35.58900 41.59600
C  -12.86800 33.43400 43.28900
C  -9.45800 33.48600 41.79600
O  -9.18900 32.37200 42.17300
C  -8.57800 34.25800 40.82500
C  -7.14400 33.97300 41.18800
O  -6.57300 32.93600 40.89300
O  -6.66400 34.95200 41.99100
C  -5.27900 34.92800 42.48300
H  -7.75200 40.75300 38.90900
H  -13.91000 41.90000 40.75800
H  -14.53300 35.84000 42.52200
H  -6.41100 36.45500 40.19400
H  -7.02300 38.72800 38.28600
H  -5.91200 39.18400 41.03600
H  -5.33700 39.85400 39.40600
H  -4.76200 38.35400 39.96600
H  -6.95900 36.69700 37.37300
H  -8.07600 35.46000 38.08600
H  -6.26800 34.12400 37.80600
H  -5.42600 35.00300 39.15400
H  -9.52200 44.13700 38.36600
H  -8.88300 42.64000 37.77200
H  -8.28100 43.55700 39.33600
H  -13.31700 43.85800 41.80300
H  -14.21700 43.87600 40.18500
H  -13.54500 45.38000 40.87800
H  -15.87700 40.13900 41.02900
H  -15.70100 38.42400 43.27300
H  -14.67800 41.12100 43.56800
H  -16.36400 40.64100 43.65900
H  -15.96300 41.77100 42.35700
H  -15.99200 36.89300 40.82000
H  -17.16700 38.19100 40.89400
H  -17.62500 37.07000 43.41500
H  -16.89500 35.64000 42.54500
H  -18.28700 36.45500 41.83000
H  -13.88300 33.82900 43.33700
H  -12.48200 33.24500 44.29000
H  -12.68900 32.54900 42.67900
H  -8.64000 33.96900 39.77600
H  -5.15400 35.43100 43.44200
H  -4.52100 35.24500 41.76700
H  -5.08400 33.87300 42.67800

