158

Mg 26.72400 51.16300 26.43900
C  24.96700 52.33200 29.17300
C  29.16700 50.08600 28.67700
C  28.57100 50.17200 23.75400
C  24.63500 52.98900 24.35600
N  26.94200 51.23900 28.70600
C  26.05900 51.60200 29.65500
C  26.42200 51.18500 31.05200
C  27.86800 50.63000 30.85200
C  27.98100 50.66100 29.30700
C  29.00800 51.40100 31.51900
C  25.35500 50.23400 31.72300
C  24.81400 50.71700 33.08000
H  25.86800 51.19000 34.10800
N  28.41800 50.02100 26.24100
C  29.29300 49.66500 27.31000
C  30.38800 48.87900 26.66600
C  30.08500 48.69400 25.31400
C  28.97000 49.66700 25.02400
C  31.40800 48.12800 27.50800
C  30.71400 47.87600 24.22300
O  30.22900 47.76800 23.07500
C  31.95500 47.16500 24.49900
N  26.67800 51.58200 24.33500
C  27.55900 51.03400 23.42700
C  27.15600 51.43100 21.98000
C  25.75200 52.22500 22.21300
C  25.68100 52.24600 23.75000
C  28.28300 52.28900 21.29800
C  24.39700 51.66100 21.59200
C  24.18400 51.97300 20.15100
N  25.14200 52.41100 26.69300
C  24.36500 53.06700 25.75900
C  23.21200 53.64300 26.36700
C  23.46300 53.45700 27.72400
C  24.64200 52.68500 27.89300
C  22.22500 54.42400 25.65500
C  22.94300 53.77800 29.01900
O  21.96600 54.45700 29.37400
C  23.88100 53.03700 30.00000
C  24.40600 54.14600 30.97500
O  25.22100 55.04300 30.74100
O  23.68100 54.03500 32.15900
C  23.83800 55.03900 33.20600
H  29.83300 49.70000 29.45200
H  29.29400 50.00500 22.95400
H  23.94900 53.40800 23.61700
H  26.41200 52.06300 31.69700
H  27.92300 49.64900 31.32400
H  29.81700 50.73800 31.82700
H  28.65500 51.80400 32.46800
H  29.37400 52.07400 30.74400
H  25.77600 49.23500 31.84200
H  24.56600 50.14200 30.97600
H  24.22200 49.96400 33.59800
H  24.20900 51.57600 32.78800
H  31.24300 47.05900 27.37300
H  31.43700 48.52200 28.52400
H  32.30300 48.43100 26.96500
H  32.76500 47.77000 24.90700
H  32.32700 46.66600 23.60400
H  31.74300 46.40100 25.24700
H  27.02700 50.54600 21.35700
H  25.98200 53.22800 21.85300
H  28.72000 53.04200 21.95500
H  27.88400 52.86000 20.46000
H  28.95600 51.63000 20.74900
H  23.49900 51.93900 22.14300
H  24.48000 50.57400 21.62600
H  24.29900 51.08900 19.52400
H  24.82400 52.81100 19.87500
H  23.17500 52.33200 19.94900
H  22.73800 55.38100 25.55900
H  21.24400 54.45400 26.13000
H  22.02700 54.08000 24.64000
H  23.29000 52.29600 30.53800
H  24.04700 56.05500 32.87300
H  24.50400 54.63500 33.96800
H  22.87100 55.18000 33.68800
Mg -4.58300 25.51300 25.77300
C  -3.67000 27.05500 28.80700
C  -6.65200 23.51800 27.57500
C  -5.06500 23.63200 23.06500
C  -2.36600 27.52500 24.21000
N  -5.07100 25.37200 28.00600
C  -4.60000 26.03600 29.03600
C  -5.17200 25.53200 30.35200
C  -6.10400 24.29100 29.97700
C  -5.94300 24.37200 28.43900
C  -5.49800 22.92700 30.36400
C  -5.84800 26.73200 31.16700
C  -5.46800 26.94000 32.57400
H  -5.25000 25.74400 33.42500
N  -5.80700 23.82700 25.37600
C  -6.60800 23.23700 26.18800
C  -7.40600 22.26900 25.44500
C  -6.96000 22.22100 24.08600
C  -5.92700 23.29200 24.11400
C  -8.45600 21.42400 26.09000
C  -7.31400 21.31300 22.89300
O  -6.84600 21.40900 21.71600
C  -8.10500 20.13100 23.16900
N  -3.89000 25.64200 23.85300
C  -4.21200 24.77000 22.83900
C  -3.43400 25.18000 21.55600
C  -2.86300 26.56500 21.92100
C  -3.08100 26.64200 23.39900
C  -2.45500 24.09100 21.03200
C  -3.65300 27.73900 21.22100
C  -3.03700 28.49800 20.01200
N  -3.35200 27.04400 26.26400
C  -2.43100 27.77200 25.54100
C  -1.73000 28.77500 26.37800
C  -2.26600 28.55100 27.63300
C  -3.18100 27.47900 27.55500
C  -0.56100 29.61800 26.02700
C  -2.00800 28.86000 29.03400
O  -1.21600 29.59400 29.59900
C  -2.96100 27.92400 29.80000
C  -2.19300 27.18700 30.83200
O  -1.63700 26.10200 30.61700
O  -2.18100 27.89500 32.00700
C  -1.26400 27.42400 33.04000
H  -7.30500 22.90700 28.20200
H  -5.21300 23.04500 22.15600
H  -1.78900 28.20100 23.57500
H  -4.39000 25.16500 31.01700
H  -7.18300 24.38700 30.10200
H  -4.49200 23.02800 30.77000
H  -5.48000 22.32100 29.45900
H  -6.27900 22.57600 31.03900
H  -6.88200 26.39000 31.12600
H  -5.77600 27.69300 30.65800
H  -6.33100 27.41800 33.03700
H  -4.59300 27.57700 32.70100
H  -7.99600 20.54800 26.54800
H  -9.29100 21.12700 25.45600
H  -9.00100 21.98600 26.84900
H  -8.19300 19.55500 22.24700
H  -9.07600 20.58400 23.37300
H  -7.66900 19.50100 23.94300
H  -4.22400 25.16400 20.80400
H  -1.78500 26.49100 21.77900
H  -2.32800 23.29900 21.76900
H  -1.41800 24.42400 20.98400
H  -2.86600 23.72900 20.08900
H  -3.80900 28.53700 21.94700
H  -4.64500 27.34600 20.99900
H  -2.92100 29.57300 20.14900
H  -3.61600 28.20200 19.13700
H  -1.99600 28.18400 19.93300
H  -0.21600 30.25300 26.84300
H  -0.87700 30.18000 25.14800
H  0.18900 28.88000 25.74400
H  -3.62000 28.51200 30.43900
H  -0.36300 28.01700 32.88300
H  -1.00300 26.36800 32.95800
H  -1.55700 27.68200 34.05700

