158

Mg 16.76400 -1.99500 27.67200
C  15.55600 0.16100 30.19900
C  18.43900 -3.78300 29.87400
C  17.73000 -3.90900 25.12600
C  15.05200 0.17000 25.45500
N  16.88700 -1.84800 29.71500
C  16.38800 -0.87000 30.56300
C  16.84900 -1.19500 31.99700
C  17.89100 -2.29700 31.87000
C  17.85600 -2.67100 30.39700
C  19.33900 -1.84800 32.22500
C  15.64800 -1.58400 32.92900
C  15.64100 -1.15000 34.36700
H  16.91200 -0.82800 35.18500
N  18.00900 -3.63900 27.46200
C  18.52000 -4.33200 28.52800
C  19.24900 -5.47100 28.09100
C  19.05700 -5.57600 26.70000
C  18.20200 -4.36700 26.33200
C  20.00700 -6.38700 29.07000
C  19.55400 -6.54900 25.69300
O  19.26500 -6.54700 24.50300
C  20.45500 -7.67900 26.15800
N  16.43800 -1.86400 25.64600
C  16.96700 -2.74000 24.78800
C  16.90900 -2.17600 23.36200
C  15.63600 -1.19700 23.48300
C  15.74600 -0.90500 24.96100
C  18.19600 -1.47800 22.91400
C  14.32900 -1.85700 22.94500
C  13.34500 -2.59600 23.86700
N  15.53900 -0.10600 27.76200
C  14.89600 0.62800 26.72900
C  13.99600 1.66700 27.32600
C  14.33400 1.50400 28.68500
C  15.24400 0.46600 28.86400
C  12.96900 2.54400 26.62400
C  14.04700 2.11100 29.97300
O  13.36100 3.04900 30.21800
C  14.78600 1.17300 31.01900
C  15.58400 2.11900 31.84400
O  16.51500 2.79600 31.39700
O  15.19300 2.14300 33.14100
C  15.95000 2.91000 34.07900
H  19.06800 -4.35000 30.56200
H  18.18300 -4.34200 24.23100
H  14.58900 0.78300 24.67900
H  17.23300 -0.27400 32.43600
H  17.64000 -3.18900 32.44400
H  19.34700 -0.95800 32.85400
H  19.93400 -1.60700 31.34400
H  19.78700 -2.61100 32.86200
H  15.49600 -2.66200 32.87500
H  14.76400 -1.10200 32.51100
H  15.23600 -2.00000 34.91600
H  14.86800 -0.43900 34.65900
H  19.97500 -6.04800 30.10600
H  21.01500 -6.59000 28.70800
H  19.52000 -7.36100 29.02000
H  20.02400 -8.30400 26.94000
H  21.29400 -7.26200 26.71400
H  20.77000 -8.31000 25.32700
H  16.83700 -3.03700 22.69700
H  15.90300 -0.29800 22.92700
H  19.05600 -1.56000 23.57900
H  18.10900 -0.45600 22.54400
H  18.55100 -2.02200 22.03900
H  14.68500 -2.53600 22.17000
H  13.71300 -1.01600 22.62800
H  12.68600 -1.86800 24.34000
H  13.90100 -3.10400 24.65500
H  12.87900 -3.28500 23.16200
H  12.09800 2.07000 27.07600
H  12.92300 2.44600 25.54000
H  12.99200 3.57900 26.96600
H  13.98900 0.76800 31.64200
H  15.24000 3.44800 34.70800
H  16.58900 3.75000 33.80800
H  16.39600 2.12800 34.69400
Mg 43.16600 42.01200 26.05900
C  42.40500 44.30200 28.58300
C  43.85600 39.67700 28.37500
C  44.14000 39.93200 23.55900
C  42.88900 44.55100 23.69900
N  43.32200 42.09400 28.25900
C  42.68900 43.07000 29.04300
C  42.59000 42.65400 30.49700
C  43.20200 41.15000 30.45300
C  43.47100 40.92700 28.91600
C  44.54300 41.08300 31.28800
C  41.16900 42.61000 31.11500
C  41.20100 42.12200 32.51700
H  41.10700 43.24500 33.61500
N  43.82900 40.05500 25.98700
C  44.12500 39.28900 27.07400
C  44.53300 37.96900 26.65100
C  44.46700 37.98400 25.20500
C  44.17100 39.38500 24.85300
C  44.98800 36.77100 27.57300
C  44.57700 36.85500 24.29900
O  44.49300 37.08900 23.08100
C  44.77700 35.43400 24.74600
N  43.61200 42.19600 23.96400
C  43.89400 41.22200 23.13200
C  44.14700 41.67300 21.72500
C  43.49200 43.03300 21.72000
C  43.37800 43.29900 23.20400
C  45.64500 41.85300 21.30100
C  42.12300 43.08800 21.01200
C  40.87600 42.29000 21.61800
N  42.72100 43.99300 26.09900
C  42.61800 44.88400 25.04500
C  42.12100 46.15600 25.57400
C  41.95400 45.93400 26.96400
C  42.46500 44.64000 27.20100
C  41.92000 47.45300 24.96100
C  41.51500 46.56200 28.16200
O  41.06500 47.70800 28.33100
C  41.90000 45.61700 29.34500
C  42.95500 46.19000 30.13700
O  44.13600 46.11500 29.92100
O  42.34600 46.75500 31.26600
C  43.17900 47.29400 32.31100
H  43.89400 38.99500 29.22700
H  44.61400 39.38800 22.74000
H  42.54100 45.38700 23.08800
H  43.17400 43.29600 31.15600
H  42.45300 40.44100 30.80500
H  45.21900 41.86200 30.93400
H  44.96600 40.07900 31.24500
H  44.41000 41.29400 32.34900
H  40.51800 41.99400 30.49500
H  40.75300 43.61500 31.03800
H  42.12400 41.66300 32.87100
H  40.45100 41.34700 32.67000
H  44.28300 35.94200 27.50300
H  44.99100 37.20100 28.57400
H  46.03900 36.48500 27.52400
H  45.03000 34.81900 23.88200
H  43.82200 35.15300 25.19100
H  45.66400 35.37800 25.37700
H  43.56700 40.97500 21.12100
H  44.12100 43.83500 21.33300
H  45.71400 41.50500 20.27000
H  46.21000 41.25700 22.01800
H  46.02300 42.86900 21.41900
H  42.29300 42.59200 20.05700
H  41.73400 44.10700 21.01500
H  41.20200 41.54000 22.33900
H  40.38600 41.74800 20.81000
H  40.17000 42.90100 22.18100
H  41.03600 47.32900 24.33500
H  42.72200 47.47800 24.22300
H  42.09200 48.39100 25.48800
H  40.98200 45.46200 29.91200
H  44.24400 47.37200 32.09400
H  43.21600 46.56100 33.11700
H  42.70200 48.15600 32.77700

