158

Mg 46.61000 16.81400 27.62600
C  44.71000 16.54000 30.53600
C  48.94100 18.64600 29.57200
C  48.55600 17.40800 24.96500
C  44.13700 15.49700 25.76100
N  46.79000 17.64200 29.86500
C  45.86900 17.24300 30.88500
C  46.29200 17.70600 32.28000
C  47.55500 18.58100 31.95400
C  47.78100 18.36500 30.35100
C  47.55000 20.20700 32.15300
C  46.64300 16.47000 33.30600
C  46.42900 16.72700 34.78200
H  46.39000 18.19300 35.33800
N  48.60100 17.67900 27.38700
C  49.34700 18.36400 28.28800
C  50.60400 18.75900 27.62100
C  50.48600 18.32100 26.28100
C  49.21100 17.78200 26.14600
C  51.79700 19.25900 28.39600
C  51.49600 18.58800 25.18800
O  51.27900 18.58100 23.98100
C  52.95700 18.99700 25.58800
N  46.41100 16.53200 25.72600
C  47.30000 16.82600 24.70400
C  46.90800 16.26300 23.32000
C  45.66400 15.49400 23.69700
C  45.37700 15.86400 25.13200
C  46.58000 17.33500 22.33100
C  45.80100 13.98300 23.52100
C  45.18400 13.43100 22.20100
N  44.73500 16.14900 27.98300
C  43.88200 15.51800 27.12600
C  42.73900 15.02100 27.90800
C  43.00800 15.45700 29.24600
C  44.28100 16.10200 29.20000
C  41.50000 14.21200 27.36000
C  42.45100 15.54800 30.60400
O  41.37600 15.20300 31.00800
C  43.53400 16.32600 31.45900
C  42.89800 17.53900 32.02200
O  42.93300 18.65100 31.51700
O  42.36300 17.13900 33.24900
C  41.62600 18.16000 33.93700
H  49.68900 19.31600 30.00300
H  49.18000 17.71600 24.12300
H  43.43500 14.93500 25.14100
H  45.55800 18.35700 32.75400
H  48.40700 18.19400 32.51200
H  48.25900 20.36200 32.96600
H  46.66900 20.79700 32.40300
H  47.91700 20.73100 31.27000
H  47.69400 16.20600 33.18200
H  46.07200 15.57400 33.06600
H  47.24100 16.14000 35.21200
H  45.50800 16.18300 34.98800
H  52.69900 18.73300 28.08300
H  51.71900 19.18800 29.48100
H  51.92200 20.30600 28.12000
H  53.55200 18.28200 26.15800
H  52.89200 19.91200 26.17700
H  53.52500 19.12700 24.66700
H  47.66300 15.58300 22.92400
H  44.75100 15.83500 23.20900
H  45.50800 17.45400 22.17700
H  47.00900 17.03200 21.37600
H  46.95500 18.30900 22.64800
H  45.41100 13.43300 24.37800
H  46.80600 13.56000 23.49500
H  44.53200 14.24500 21.88600
H  44.48600 12.59900 22.29300
H  45.89400 13.27200 21.38900
H  41.79300 13.87300 26.36600
H  40.59300 14.81700 27.34000
H  41.33700 13.36300 28.02400
H  43.78900 15.64400 32.27000
H  42.29700 18.97700 34.20200
H  41.19400 17.78200 34.86400
H  40.89500 18.64700 33.29100
Mg 2.02200 42.79300 26.50600
C  3.16900 42.84300 29.66100
C  -0.96300 41.36900 27.62600
C  1.16700 41.69300 23.34400
C  5.08400 43.65700 25.36100
N  1.19100 42.21600 28.36300
C  1.92200 42.28500 29.49300
C  1.01100 42.09500 30.70800
C  -0.27200 41.42300 30.10500
C  0.01500 41.65200 28.62600
C  -0.44500 39.93300 30.59800
C  0.83600 43.29900 31.58200
C  0.99500 43.11600 33.11800
H  0.44800 41.89800 33.73300
N  0.26500 41.85000 25.65700
C  -0.89100 41.46500 26.26000
C  -1.85400 40.95900 25.27300
C  -1.20300 40.97100 23.98100
C  0.11400 41.58200 24.29900
C  -3.14600 40.43200 25.62200
C  -1.68200 40.57700 22.67500
O  -1.09200 40.64300 21.64000
C  -3.01800 39.99500 22.45500
N  2.97300 42.63200 24.63000
C  2.42200 42.29400 23.48600
C  3.41300 42.38400 22.34300
C  4.51700 43.35400 22.89100
C  4.15900 43.29500 24.40700
C  3.97800 41.02100 21.87500
C  4.43700 44.79700 22.24900
C  3.80600 45.98300 23.08800
N  3.75000 43.21800 27.30700
C  4.92500 43.57300 26.76200
C  5.90700 43.67300 27.74800
C  5.28900 43.54400 28.96300
C  3.94500 43.21300 28.60100
C  7.39400 43.86100 27.56700
C  5.50200 43.37100 30.34300
O  6.48100 43.39400 31.09600
C  4.05900 42.92300 30.92900
C  4.31100 41.65900 31.58900
O  4.74900 40.69400 31.03600
O  4.07900 41.79300 32.96000
C  4.15400 40.44900 33.66900
H  -1.92400 41.03400 28.02300
H  1.08300 41.18300 22.38200
H  6.01500 44.16100 25.09400
H  1.56700 41.35700 31.28700
H  -1.14500 42.00800 30.39500
H  0.33900 39.49300 31.21400
H  -0.61500 39.31600 29.71600
H  -1.32900 39.98300 31.23200
H  -0.15600 43.74100 31.48600
H  1.49000 44.15300 31.40700
H  0.54500 43.94200 33.66900
H  2.06900 43.15500 33.30100
H  -3.09900 39.37400 25.88000
H  -3.96000 40.64300 24.92800
H  -3.53600 40.88900 26.53200
H  -3.16300 39.28500 23.27000
H  -3.07600 39.44200 21.51800
H  -3.66200 40.87200 22.50100
H  2.97600 42.78900 21.43000
H  5.49500 42.87200 22.88400
H  3.34800 40.25100 22.32000
H  4.95300 40.89000 22.34400
H  4.08800 40.94400 20.79300
H  3.79800 44.71800 21.36900
H  5.44200 45.05700 21.91500
H  3.46500 45.67800 24.07800
H  2.98300 46.35500 22.47900
H  4.64000 46.65900 23.28000
H  7.65100 44.60400 26.81200
H  7.91900 42.98500 27.18600
H  7.83100 44.09400 28.53900
H  3.72000 43.66000 31.65600
H  5.02800 40.47600 34.32100
H  4.09000 39.55800 33.04500
H  3.44400 40.22500 34.46600

