158

Mg 47.94000 34.71500 26.75600
C  46.09000 33.49400 29.39800
C  48.62800 37.51300 28.69600
C  49.57200 36.04200 24.13800
C  47.03300 31.92600 24.82300
N  47.29500 35.39900 28.79700
C  46.70500 34.64100 29.73100
C  46.87600 35.20900 31.18200
C  47.38600 36.62700 30.86300
C  47.79300 36.55500 29.32400
C  46.45600 37.79200 31.15200
C  47.96600 34.37000 31.86500
C  48.23200 34.61000 33.31300
H  47.35600 35.56000 34.12600
N  49.00900 36.54200 26.42500
C  49.23800 37.53200 27.35000
C  50.11500 38.57600 26.77900
C  50.28500 38.12900 25.41200
C  49.62000 36.84300 25.24800
C  50.52400 39.74400 27.62400
C  51.09000 38.74500 24.38200
O  51.33500 38.30500 23.24900
C  51.66300 40.10400 24.69600
N  48.23200 34.13100 24.76500
C  48.99000 34.78500 23.89500
C  49.18500 34.09700 22.49800
C  48.66200 32.62300 22.89700
C  47.95500 32.89700 24.30300
C  48.34100 34.84900 21.33900
C  49.78500 31.56900 23.07800
C  49.95900 30.49900 22.04100
N  46.81200 33.03500 26.96100
C  46.41100 32.04500 26.10400
C  45.51100 31.12600 26.69700
C  45.34900 31.63400 27.98200
C  46.22100 32.77400 28.13100
C  44.97300 29.88400 26.10800
C  44.71300 31.41400 29.17600
O  44.01400 30.47000 29.59400
C  45.13000 32.55600 30.19800
C  45.58500 31.82900 31.49500
O  46.41700 30.97200 31.66500
O  44.73900 32.27100 32.52700
C  44.97900 31.85600 33.97000
H  48.80700 38.39300 29.31800
H  50.22700 36.29600 23.30200
H  46.88500 31.06000 24.17500
H  45.98000 35.19000 31.80200
H  48.29800 36.86400 31.41100
H  45.99100 38.10000 30.21600
H  46.90400 38.66700 31.62300
H  45.68000 37.40500 31.81200
H  48.86400 34.52400 31.26700
H  47.77100 33.31100 31.69700
H  49.21900 35.06300 33.41500
H  48.22700 33.61800 33.76500
H  49.86000 40.54200 27.29300
H  51.49000 40.16400 27.34400
H  50.58500 39.59500 28.70200
H  51.95500 40.59300 23.76700
H  52.44900 40.05100 25.45000
H  50.78200 40.66700 25.00600
H  50.22600 34.08800 22.17200
H  47.92000 32.32600 22.15600
H  47.35100 34.46600 21.58600
H  48.69900 34.49100 20.37400
H  48.57500 35.89200 21.55700
H  49.58700 30.93300 23.94100
H  50.74300 32.05300 23.26700
H  49.81200 29.56400 22.58200
H  50.96700 30.47700 21.62600
H  49.25600 30.63600 21.22000
H  45.63900 29.02200 26.13800
H  44.76000 30.09500 25.06000
H  44.05100 29.60500 26.61700
H  44.26500 33.15600 30.48000
H  45.96300 31.43500 34.17600
H  44.15200 31.26600 34.36600
H  45.00200 32.85700 34.40000
Mg -4.64800 25.20800 25.92900
C  -3.95100 26.70400 28.89200
C  -6.69700 22.82400 27.56700
C  -5.11200 23.52000 23.12500
C  -2.18800 27.24900 24.35800
N  -5.29000 24.91200 27.95000
C  -4.88900 25.65900 29.02200
C  -5.73400 25.26100 30.29300
C  -6.48100 23.98300 29.90200
C  -6.11700 23.81700 28.36400
C  -6.26600 22.67200 30.71100
C  -6.67100 26.40800 30.85400
C  -6.47000 26.69300 32.31500
H  -6.17100 25.56400 33.34800
N  -5.92300 23.59500 25.33100
C  -6.55700 22.70000 26.15900
C  -7.30700 21.75600 25.32100
C  -6.91200 21.92900 24.00600
C  -5.95000 23.07200 24.13800
C  -8.35900 20.79500 25.92400
C  -7.34200 21.27200 22.67300
O  -6.87600 21.69100 21.66300
C  -8.40400 20.15300 22.69900
N  -3.90700 25.45200 24.04400
C  -4.18100 24.54900 23.06900
C  -3.26800 24.76600 21.87300
C  -2.60700 26.07800 22.11200
C  -2.87700 26.34000 23.59500
C  -2.29900 23.57000 21.64600
C  -3.04100 27.16700 21.16300
C  -4.54800 27.45400 21.02800
N  -3.34700 26.75600 26.43700
C  -2.45900 27.54200 25.73600
C  -1.79700 28.47300 26.66000
C  -2.38200 28.20700 27.93700
C  -3.28900 27.15100 27.74700
C  -0.86200 29.55700 26.31500
C  -2.29000 28.49500 29.37200
O  -1.49000 29.27800 29.93200
C  -3.42200 27.56900 30.06200
C  -2.76900 26.92200 31.23300
O  -2.28000 25.76400 31.14100
O  -2.55300 27.76400 32.26200
C  -1.86700 27.07800 33.37700
H  -7.43800 22.22200 28.09700
H  -5.06400 23.20500 22.08100
H  -1.57300 27.92600 23.76100
H  -4.93200 24.92900 30.95200
H  -7.54200 24.22900 29.88700
H  -6.31100 22.94400 31.76600
H  -5.27300 22.29900 30.46300
H  -7.05100 21.94500 30.50400
H  -7.67500 26.01500 30.69800
H  -6.53000 27.32600 30.28300
H  -7.45900 27.04100 32.61200
H  -5.75600 27.49200 32.51600
H  -7.70500 20.03600 26.35400
H  -8.94300 20.16800 25.25000
H  -9.02400 21.27300 26.64400
H  -8.59400 19.66200 21.74500
H  -9.32900 20.57600 23.09300
H  -7.99300 19.37800 23.34600
H  -3.97600 24.80000 21.04400
H  -1.55300 25.84700 21.95800
H  -1.26700 23.92100 21.64500
H  -2.50100 23.18600 20.64600
H  -2.55100 22.79600 22.37100
H  -2.64700 26.88100 20.18800
H  -2.55200 28.08600 21.48900
H  -5.23600 26.61500 21.12900
H  -4.66100 27.84100 20.01500
H  -4.84200 28.17200 21.79400
H  -1.28300 30.56200 26.33800
H  -0.56600 29.53400 25.26600
H  -0.04700 29.45600 27.03100
H  -4.26400 28.18300 30.38300
H  -1.81700 27.85000 34.14600
H  -0.87600 26.72700 33.08700
H  -2.57700 26.30700 33.67600

