158

Mg 30.82400 58.14700 40.92400
C  28.10800 56.45400 39.25100
C  32.88600 55.79700 39.51200
C  33.43600 60.13400 41.54200
C  28.56700 60.81700 41.42700
N  30.50700 56.38500 39.62200
C  29.36800 55.86500 39.07100
C  29.61000 54.55400 38.31600
C  31.10100 54.22600 38.74300
C  31.54900 55.57400 39.31200
C  31.40100 52.97400 39.71800
C  29.28100 54.72900 36.83800
C  28.40700 53.58700 36.20900
H  27.76600 53.93000 34.82900
N  32.85200 57.96700 40.61500
C  33.52500 56.93000 40.05500
C  34.98000 57.14400 40.11400
C  35.12200 58.38000 40.77100
C  33.76800 58.89100 41.02000
C  36.04300 56.26500 39.54700
C  36.42700 59.12400 41.15100
O  37.48800 58.76000 40.64200
C  36.48300 60.42700 42.10600
N  30.99300 60.25000 41.26300
C  32.16100 60.76800 41.71800
C  32.06400 62.26300 42.03700
C  30.50300 62.39300 42.29700
C  29.97400 61.06000 41.64000
C  32.96700 62.83100 43.17100
C  29.87300 63.68700 41.72800
C  28.86700 64.40400 42.65700
N  28.75700 58.55600 40.55400
C  27.97200 59.61700 40.96400
C  26.65300 59.44000 40.43900
C  26.61900 58.21300 39.80300
C  27.92700 57.67400 39.91600
C  25.48700 60.39200 40.63700
C  25.87000 57.29900 39.03600
O  24.71500 57.26900 38.69000
C  26.77300 55.97200 38.77900
C  26.34100 54.78600 39.65200
O  26.10000 54.88000 40.84400
O  26.29000 53.65300 38.94700
C  26.21800 52.33500 39.67300
H  33.58400 55.02800 39.17300
H  34.19400 60.88300 41.78200
H  27.87200 61.62700 41.65700
H  28.98400 53.81700 38.81900
H  31.80400 54.12300 37.91700
H  30.61900 52.21500 39.70600
H  31.51300 53.44300 40.69600
H  32.35900 52.55200 39.41500
H  30.27200 54.76100 36.38500
H  28.88300 55.73800 36.73300
H  27.62100 53.25500 36.88700
H  29.09800 52.75000 36.10500
H  36.73200 55.97700 40.34100
H  36.57800 56.79700 38.76000
H  35.68400 55.32700 39.12200
H  36.14900 61.33400 41.60200
H  37.52800 60.64300 42.32700
H  35.97800 60.29300 43.06300
H  32.38300 62.71300 41.09700
H  30.38000 62.30800 43.37700
H  33.76800 63.40400 42.70200
H  33.28800 61.97000 43.75800
H  32.38300 63.51300 43.78900
H  29.31000 63.34600 40.86000
H  30.58300 64.42400 41.35400
H  28.66100 63.74000 43.49700
H  27.93500 64.50900 42.10300
H  29.25300 65.40800 42.83600
H  25.65400 61.38700 40.22400
H  25.42800 60.48200 41.72200
H  24.58800 59.92800 40.23200
H  26.68600 55.61700 37.75200
H  25.66000 51.58000 39.11900
H  25.98400 52.42800 40.73400
H  27.14500 51.76100 39.66600
Mg 36.24500 50.20100 25.04600
C  36.30000 48.11500 27.87900
C  35.31500 52.74500 27.01900
C  35.64700 52.06300 22.17600
C  36.99600 47.34800 23.13900
N  35.71100 50.33700 27.19600
C  36.05200 49.45800 28.22900
C  35.97700 50.13200 29.63300
C  35.47100 51.56100 29.28500
C  35.55400 51.60200 27.75300
C  34.17900 52.05300 29.85700
C  37.34100 50.02200 30.41400
C  37.36500 49.92600 31.93900
H  36.10600 49.50000 32.66700
N  35.62800 52.12600 24.64800
C  35.35200 53.06200 25.66600
C  35.14400 54.32000 25.06100
C  35.22200 54.16200 23.61200
C  35.47600 52.72700 23.41900
C  34.97400 55.59100 25.86800
C  35.09400 55.23500 22.52400
O  35.09100 54.93700 21.33100
C  34.98200 56.65800 22.88900
N  36.26100 49.74300 23.03100
C  36.02100 50.67400 22.01700
C  36.01700 49.99800 20.64600
C  36.81900 48.60900 20.94000
C  36.69900 48.48200 22.46300
C  34.64500 49.83600 19.91600
C  38.29900 48.55800 20.56400
C  38.96100 47.20700 20.11800
N  36.49400 48.12000 25.35300
C  36.80700 47.10000 24.50500
C  36.98500 45.84700 25.25800
C  36.79500 46.19100 26.58800
C  36.43700 47.59300 26.60700
C  37.26700 44.42700 24.65800
C  36.85100 45.67300 28.02500
O  37.22800 44.62400 28.49600
C  36.46800 46.93100 28.89000
C  35.27200 46.45300 29.56600
O  34.13900 46.81000 29.33700
O  35.60200 45.55700 30.58600
C  34.49500 45.37000 31.46500
H  35.11300 53.59400 27.67600
H  35.47400 52.68200 21.29400
H  37.25400 46.57100 22.41600
H  35.21500 49.65200 30.24800
H  36.27200 52.22500 29.61000
H  34.46900 52.77100 30.62300
H  33.54500 51.25800 30.25000
H  33.64500 52.62500 29.09800
H  37.99200 50.83200 30.08400
H  37.88100 49.11400 30.14600
H  37.62400 50.89000 32.37700
H  38.13100 49.16300 32.07900
H  35.78500 56.29400 25.67900
H  34.91200 55.40400 26.94000
H  34.08500 56.15000 25.57500
H  35.76900 56.98600 23.56800
H  34.01600 56.84700 23.35700
H  35.13300 57.15000 21.92900
H  36.69200 50.65300 20.09500
H  36.28500 47.82500 20.40100
H  34.57900 50.50900 19.06100
H  33.86800 50.12900 20.62200
H  34.47900 48.80900 19.59000
H  38.89900 48.69900 21.46300
H  38.44600 49.34500 19.82500
H  39.86600 47.33800 19.52400
H  38.23000 46.58100 19.60700
H  39.15100 46.62000 21.01700
H  37.90100 44.53200 23.77800
H  36.32500 44.01600 24.29600
H  37.59800 43.62000 25.31100
H  37.29700 47.25000 29.52200
H  34.17000 46.23600 32.04100
H  34.70100 44.67300 32.27700
H  33.59700 44.98900 30.97900

