158

Mg 40.95000 7.82700 29.50800
C  42.68500 9.28200 32.20100
C  38.72000 6.56600 31.70000
C  39.66700 6.20900 26.98000
C  43.62000 8.84200 27.49400
N  40.70900 7.99800 31.71100
C  41.54900 8.60900 32.59600
C  41.05000 8.49800 33.99800
C  39.99300 7.36300 33.87300
C  39.74300 7.36900 32.28600
C  40.35900 5.91800 34.33300
C  40.45700 9.84900 34.54100
C  40.00200 9.92700 36.03700
H  40.80000 10.50600 37.15500
N  39.45900 6.56100 29.38200
C  38.54600 6.26900 30.36500
C  37.38300 5.57800 29.90500
C  37.58200 5.49700 28.47800
C  39.00200 6.09600 28.21600
C  36.25900 4.91000 30.72800
C  36.58200 5.00400 27.35200
O  36.88300 4.93500 26.21800
C  35.21000 4.62000 27.77400
N  41.63900 7.34700 27.58500
C  40.76500 6.86500 26.68700
C  41.30900 6.92900 25.30900
C  42.39000 8.07100 25.45300
C  42.58700 8.07800 26.90700
C  41.86700 5.55300 24.79500
C  41.89700 9.39000 24.69200
C  40.83800 10.25500 25.37200
N  42.73100 8.89400 29.69700
C  43.77100 9.22200 28.79700
C  44.83000 9.99200 29.42600
C  44.39400 10.12600 30.77200
C  43.20700 9.38300 30.89200
C  46.10000 10.51900 28.80000
C  44.76800 10.62600 32.03100
O  45.85200 11.19100 32.36900
C  43.66400 10.20500 33.04200
C  44.38100 9.41000 34.07600
O  45.18600 8.53600 33.93600
O  44.01300 9.87200 35.31900
C  44.55600 9.11800 36.44600
H  37.96500 6.19800 32.39800
H  39.12600 5.76900 26.14000
H  44.42100 9.07600 26.79000
H  41.91600 8.15500 34.56500
H  39.01100 7.59400 34.28600
H  40.26500 5.28000 33.45400
H  39.69600 5.57300 35.12700
H  41.39700 5.92900 34.66500
H  39.50600 10.04100 34.04500
H  41.03500 10.76100 34.38800
H  39.69000 8.94400 36.38900
H  39.12800 10.56200 36.18700
H  35.34400 5.45500 30.49500
H  36.44300 4.84100 31.80000
H  36.10700 3.88600 30.38600
H  35.14000 3.57100 28.05900
H  34.64400 4.63500 26.84200
H  34.68500 5.33300 28.40900
H  40.50200 7.33200 24.69700
H  43.30400 7.88600 24.89000
H  42.95500 5.56900 24.73400
H  41.28000 5.40800 23.88800
H  41.52200 4.83500 25.54000
H  41.39900 9.02700 23.79300
H  42.74900 10.03300 24.47000
H  40.19900 9.70400 26.06200
H  40.12800 10.49700 24.58200
H  41.27600 11.14500 25.82500
H  46.83300 9.72200 28.92600
H  46.55900 11.24300 29.47400
H  45.87800 10.79400 27.76900
H  43.23700 11.08400 33.52600
H  43.99100 8.19600 36.31100
H  44.47100 9.60000 37.42000
H  45.63000 8.93000 36.42900
Mg -9.40900 18.68500 42.49800
C  -6.03900 17.99600 42.58100
C  -8.70500 22.05000 41.84200
C  -12.59100 19.31700 42.38900
C  -9.98600 15.20800 42.48300
N  -7.58100 19.79300 41.97100
C  -6.30200 19.26300 42.20100
C  -5.24400 20.36700 42.13100
C  -6.13700 21.69700 42.11700
C  -7.55600 21.15800 41.98700
C  -5.99800 22.58100 43.34100
C  -4.15100 20.26800 40.98200
C  -4.42000 19.55000 39.67600
H  -3.98600 20.19300 38.33200
N  -10.53700 20.40700 42.02700
C  -10.04700 21.66400 41.84300
C  -11.13100 22.57800 41.62500
C  -12.30600 21.81400 41.86400
C  -11.86900 20.50200 42.10500
C  -10.99300 24.04600 41.26700
C  -13.70300 22.34900 41.74800
O  -14.00900 23.50000 41.35000
C  -14.86100 21.44800 41.88300
N  -11.07400 17.41400 42.24600
C  -12.29200 17.90800 42.48000
C  -13.33700 16.86100 42.82600
C  -12.50000 15.48800 42.79000
C  -11.09200 16.05900 42.43200
C  -13.95400 17.21600 44.23400
C  -12.98400 14.43400 41.80500
C  -13.72800 13.25900 42.49400
N  -8.25800 16.93500 42.49100
C  -8.64700 15.62800 42.65900
C  -7.49100 14.83000 42.91200
C  -6.44800 15.73000 42.92500
C  -6.97100 16.98300 42.64700
C  -7.45800 13.35300 43.23700
C  -5.02300 15.84400 43.15600
O  -4.17100 15.00800 43.34000
C  -4.65300 17.34900 42.95400
C  -4.11900 17.90800 44.22700
O  -2.98200 18.32800 44.36000
O  -5.12000 18.06600 45.13400
C  -4.71900 18.74900 46.33700
H  -8.59200 23.13500 41.80300
H  -13.66500 19.48900 42.49000
H  -10.26300 14.15900 42.60700
H  -4.71200 20.34200 43.08200
H  -5.78200 22.34100 41.31200
H  -6.89300 22.86000 43.89600
H  -5.43000 23.47700 43.08800
H  -5.32300 22.17100 44.09200
H  -3.21800 19.87500 41.38400
H  -3.72300 21.24700 40.76500
H  -5.49400 19.38200 39.59100
H  -3.84700 18.62500 39.73200
H  -10.23800 24.54000 41.87800
H  -11.84500 24.72600 41.23100
H  -10.60800 24.11900 40.25000
H  -14.99400 21.11700 42.91300
H  -14.80400 20.67000 41.12200
H  -15.77500 22.02800 41.74900
H  -14.09600 16.83800 42.04400
H  -12.44600 15.09400 43.80400
H  -14.77700 17.90300 44.03500
H  -13.24000 17.68800 44.90900
H  -14.42800 16.32400 44.64200
H  -12.04700 14.06000 41.39200
H  -13.61000 14.68100 40.94700
H  -13.15000 12.34000 42.58800
H  -14.66200 13.05100 41.97200
H  -13.88000 13.40900 43.56200
H  -6.46900 13.09900 42.85600
H  -8.32300 12.82000 42.84200
H  -7.41100 13.21500 44.31700
H  -3.81600 17.65300 42.32500
H  -5.60000 18.89900 46.96000
H  -4.26000 19.71200 46.11700
H  -3.93000 18.20000 46.85200

