158

Mg 30.82400 58.14700 40.92400
C  28.10800 56.45400 39.25100
C  32.88600 55.79700 39.51200
C  33.43600 60.13400 41.54200
C  28.56700 60.81700 41.42700
N  30.50700 56.38500 39.62200
C  29.36800 55.86500 39.07100
C  29.61000 54.55400 38.31600
C  31.10100 54.22600 38.74300
C  31.54900 55.57400 39.31200
C  31.40100 52.97400 39.71800
C  29.28100 54.72900 36.83800
C  28.40700 53.58700 36.20900
H  27.76600 53.93000 34.82900
N  32.85200 57.96700 40.61500
C  33.52500 56.93000 40.05500
C  34.98000 57.14400 40.11400
C  35.12200 58.38000 40.77100
C  33.76800 58.89100 41.02000
C  36.04300 56.26500 39.54700
C  36.42700 59.12400 41.15100
O  37.48800 58.76000 40.64200
C  36.48300 60.42700 42.10600
N  30.99300 60.25000 41.26300
C  32.16100 60.76800 41.71800
C  32.06400 62.26300 42.03700
C  30.50300 62.39300 42.29700
C  29.97400 61.06000 41.64000
C  32.96700 62.83100 43.17100
C  29.87300 63.68700 41.72800
C  28.86700 64.40400 42.65700
N  28.75700 58.55600 40.55400
C  27.97200 59.61700 40.96400
C  26.65300 59.44000 40.43900
C  26.61900 58.21300 39.80300
C  27.92700 57.67400 39.91600
C  25.48700 60.39200 40.63700
C  25.87000 57.29900 39.03600
O  24.71500 57.26900 38.69000
C  26.77300 55.97200 38.77900
C  26.34100 54.78600 39.65200
O  26.10000 54.88000 40.84400
O  26.29000 53.65300 38.94700
C  26.21800 52.33500 39.67300
H  33.58400 55.02800 39.17300
H  34.19400 60.88300 41.78200
H  27.87200 61.62700 41.65700
H  28.98400 53.81700 38.81900
H  31.80400 54.12300 37.91700
H  30.61900 52.21500 39.70600
H  31.51300 53.44300 40.69600
H  32.35900 52.55200 39.41500
H  30.27200 54.76100 36.38500
H  28.88300 55.73800 36.73300
H  27.62100 53.25500 36.88700
H  29.09800 52.75000 36.10500
H  36.73200 55.97700 40.34100
H  36.57800 56.79700 38.76000
H  35.68400 55.32700 39.12200
H  36.14900 61.33400 41.60200
H  37.52800 60.64300 42.32700
H  35.97800 60.29300 43.06300
H  32.38300 62.71300 41.09700
H  30.38000 62.30800 43.37700
H  33.76800 63.40400 42.70200
H  33.28800 61.97000 43.75800
H  32.38300 63.51300 43.78900
H  29.31000 63.34600 40.86000
H  30.58300 64.42400 41.35400
H  28.66100 63.74000 43.49700
H  27.93500 64.50900 42.10300
H  29.25300 65.40800 42.83600
H  25.65400 61.38700 40.22400
H  25.42800 60.48200 41.72200
H  24.58800 59.92800 40.23200
H  26.68600 55.61700 37.75200
H  25.66000 51.58000 39.11900
H  25.98400 52.42800 40.73400
H  27.14500 51.76100 39.66600
Mg 16.93200 52.81600 26.62300
C  18.75900 51.32200 29.22600
C  14.51700 53.62400 28.89600
C  14.82300 53.73800 24.12100
C  19.27900 51.76100 24.34900
N  16.76900 52.64500 28.84400
C  17.63400 52.04700 29.67300
C  17.07300 51.91300 31.12400
C  15.67700 52.66400 31.00900
C  15.58900 52.96700 29.47200
C  14.43300 51.84200 31.61200
C  17.83700 52.62800 32.22000
C  17.60900 51.69800 33.47800
H  17.21100 52.52400 34.71500
N  15.03000 53.56300 26.53200
C  14.17200 53.87400 27.55300
C  12.89600 54.41900 27.11500
C  13.06800 54.68000 25.71400
C  14.36100 53.94100 25.41300
C  11.91800 54.83700 28.04600
C  12.20300 55.30800 24.71400
O  12.52100 55.44900 23.54400
C  10.93400 55.95500 25.11800
N  17.19000 52.94100 24.55000
C  16.12700 53.19500 23.72100
C  16.49200 53.05600 22.19800
C  18.07800 52.75800 22.35800
C  18.24700 52.50800 23.81400
C  15.87400 51.93400 21.38600
C  19.04500 53.98100 21.96200
C  20.36000 53.76100 21.08000
N  18.73100 51.80600 26.74100
C  19.51700 51.39900 25.66800
C  20.55100 50.58200 26.18700
C  20.35400 50.53700 27.57300
C  19.19400 51.29500 27.87600
C  21.53300 49.86700 25.26400
C  20.72300 49.92200 28.83500
O  21.65200 49.15200 29.05900
C  19.74600 50.50600 29.96400
C  19.09000 49.31000 30.65600
O  18.45600 48.38100 30.11500
O  19.60700 49.18800 31.94200
C  19.15400 48.03200 32.63100
H  13.68200 53.87800 29.55200
H  14.22900 53.99800 23.24200
H  20.00200 51.46000 23.58700
H  16.76800 50.88100 31.29600
H  15.64500 53.62100 31.53000
H  13.89200 52.35500 32.40700
H  14.90400 50.96100 32.04800
H  13.79400 51.65400 30.74900
H  17.52600 53.64800 32.44600
H  18.89100 52.63900 31.94600
H  18.52000 51.22000 33.83900
H  16.92600 50.86600 33.31000
H  12.25400 55.78300 28.47000
H  11.70900 54.11300 28.83400
H  10.95300 54.97400 27.55800
H  11.13000 56.62000 25.95900
H  10.31100 55.20100 25.60000
H  10.40600 56.35400 24.25200
H  16.35100 54.03700 21.74500
H  18.41400 51.90200 21.77200
H  15.10700 51.45400 21.99500
H  16.56200 51.21900 20.93400
H  15.36600 52.27100 20.48300
H  19.29600 54.55500 22.85400
H  18.45900 54.64200 21.32400
H  20.65400 54.63100 20.49200
H  20.16900 52.92600 20.40500
H  21.27500 53.43500 21.57400
H  22.23900 50.62700 24.92900
H  21.16900 49.40500 24.34500
H  21.92100 49.00000 25.79800
H  20.31600 51.12400 30.65700
H  19.74100 48.11600 33.54600
H  19.34500 47.12800 32.05300
H  18.09200 48.12100 32.85800

