158

Mg 35.36600 2.12700 30.22600
C  33.12400 3.25500 32.64500
C  37.91900 2.15900 32.44600
C  37.51000 1.21100 27.69200
C  32.99700 2.71400 27.84700
N  35.47000 2.73300 32.24500
C  34.43200 3.05900 33.11600
C  34.83300 2.84000 34.55400
C  36.38200 2.91900 34.41400
C  36.66600 2.62400 32.90100
C  37.04100 4.30900 34.82400
C  34.23100 1.48600 35.10700
C  33.81700 1.55800 36.58400
H  34.61300 2.48400 37.57300
N  37.38600 1.61500 30.08100
C  38.24500 1.67600 31.12100
C  39.56600 1.20700 30.81600
C  39.49400 1.00000 29.41600
C  38.10100 1.23600 28.99700
C  40.69900 1.05200 31.83800
C  40.61500 0.68700 28.44000
O  40.41700 0.54900 27.24200
C  42.01300 0.45400 29.00900
N  35.35400 1.98100 28.06900
C  36.32700 1.61400 27.19600
C  35.84900 1.49000 25.72500
C  34.36700 1.97500 25.81600
C  34.22000 2.29100 27.32400
C  36.63300 2.43100 24.78500
C  33.33500 0.85600 25.34100
C  33.16700 0.54700 23.81600
N  33.48800 2.78400 30.14800
C  32.66800 3.03500 29.11200
C  31.32400 3.26600 29.61000
C  31.42500 3.39400 31.01500
C  32.80900 3.12400 31.28400
C  30.11000 3.49500 28.79200
C  30.67200 3.70200 32.27000
O  29.52600 4.07300 32.51600
C  31.85100 3.66200 33.36200
C  31.89100 4.92800 34.09200
O  32.23300 6.04300 33.74700
O  31.56500 4.48300 35.39300
C  32.04700 5.47800 36.36900
H  38.67300 2.33800 33.21500
H  38.06700 0.96400 26.78600
H  32.19300 2.79400 27.11200
H  34.54300 3.72900 35.11400
H  36.83000 2.17400 35.07200
H  36.33200 5.03200 35.22600
H  37.55800 4.76600 33.98000
H  37.66700 3.99500 35.65900
H  34.88900 0.61700 35.08400
H  33.39000 1.21900 34.46800
H  33.77900 0.57200 37.04700
H  32.75400 1.79500 36.54900
H  40.78400 -0.02400 31.98900
H  40.43000 1.61000 32.73400
H  41.48800 1.51200 31.24300
H  42.11500 -0.11900 29.93100
H  42.53400 1.40300 29.13700
H  42.51500 -0.11800 28.22800
H  35.79200 0.43800 25.44800
H  34.18300 2.89300 25.25700
H  37.34300 3.04200 25.34200
H  35.97500 3.00000 24.12800
H  37.23800 1.86200 24.07900
H  32.35300 0.97800 25.79800
H  33.67100 -0.12800 25.66600
H  33.76700 -0.33400 23.58800
H  33.61300 1.37700 23.26700
H  32.11800 0.32700 23.62100
H  29.39000 3.92100 29.49100
H  29.73100 2.57400 28.34900
H  30.37600 4.11700 27.93800
H  31.56100 2.80500 33.96900
H  32.03300 4.96200 37.32900
H  31.39900 6.35400 36.34600
H  33.08900 5.76500 36.22900
Mg 49.15100 45.37200 42.68000
C  45.79500 46.07500 41.61400
C  48.71100 42.28600 41.23500
C  52.39700 45.25700 42.77000
C  49.39400 48.99300 43.29500
N  47.41500 44.36100 41.49600
C  46.14300 44.79400 41.27800
C  45.31500 43.71700 40.57900
C  46.16700 42.46000 40.71100
C  47.51700 43.04700 41.03200
C  45.69900 41.50300 41.82700
C  44.88500 44.10000 39.08400
C  45.86200 44.93900 38.24800
H  45.73800 44.88500 36.78000
N  50.34500 43.89000 42.31300
C  50.03000 42.66100 41.74500
C  51.26900 41.88900 41.80400
C  52.29900 42.69300 42.30400
C  51.74000 44.00300 42.55700
C  51.30300 40.40700 41.40800
C  53.69000 42.14800 42.51500
O  54.04400 41.04900 42.01700
C  54.77500 42.80300 43.35900
N  50.57700 46.93400 43.03900
C  51.88700 46.56000 43.00100
C  52.84700 47.71000 43.19200
C  51.87600 48.94900 43.49800
C  50.53300 48.30900 43.23200
C  54.11800 47.41900 44.05700
C  52.06700 50.21600 42.61800
C  51.93300 51.61900 43.23600
N  47.84300 47.11800 42.69000
C  48.10300 48.45300 43.01600
C  46.86300 49.22700 43.01700
C  45.88000 48.30300 42.52300
C  46.57700 47.05500 42.22500
C  46.75100 50.58500 43.50000
C  44.53800 48.25600 42.11500
O  43.66900 49.14300 42.10400
C  44.41400 46.83600 41.47400
C  43.29700 46.02000 41.94900
O  42.36300 45.61800 41.27200
O  43.22000 46.06000 43.29500
C  42.06400 45.40000 43.88000
H  48.65200 41.26400 40.85500
H  53.47700 45.26000 42.92600
H  49.41300 50.08500 43.28300
H  44.39900 43.57200 41.15200
H  46.28000 41.91100 39.77500
H  46.55300 41.13500 42.39500
H  45.08300 40.73200 41.36300
H  45.10400 41.99400 42.59700
H  43.90300 44.57200 39.07100
H  44.62700 43.17900 38.56100
H  46.86600 44.66100 38.57000
H  45.65300 45.96500 38.54900
H  51.26300 39.82500 42.32900
H  52.22600 39.99500 41.00100
H  50.52100 40.15200 40.69300
H  55.57500 42.07800 43.51200
H  54.36300 43.15200 44.30600
H  55.12400 43.59600 42.69800
H  53.10500 47.85600 42.14300
H  52.05300 49.15600 44.55300
H  54.91200 47.23900 43.33200
H  54.02200 46.54600 44.70200
H  54.28100 48.28200 44.70200
H  51.21500 50.20900 41.93900
H  52.90500 50.18600 41.92200
H  52.94700 52.01800 43.26200
H  51.62600 51.65600 44.28100
H  51.28100 52.22400 42.60500
H  45.87400 50.66500 44.14300
H  46.54600 51.26500 42.67300
H  47.63600 50.80800 44.09500
H  44.17200 46.99800 40.42300
H  41.66700 44.57600 43.28700
H  41.33000 46.19800 43.99500
H  42.42200 45.02600 44.83900

