158

Mg 0.79400 8.26600 26.86700
C  1.42900 10.04100 29.91400
C  0.67900 5.28800 28.72000
C  0.73200 6.65000 24.05200
C  1.40200 11.22200 25.21100
N  0.97800 7.77500 29.03800
C  1.25400 8.68400 30.11700
C  1.10000 7.96300 31.44200
C  1.22700 6.45000 31.07400
C  0.91000 6.47800 29.56100
C  2.50800 5.68600 31.47500
C  -0.13900 8.29900 32.22800
C  0.10600 8.73100 33.70400
H  1.19500 7.90300 34.56200
N  0.57900 6.25900 26.43500
C  0.46100 5.18500 27.28700
C  0.11000 3.96800 26.53500
C  0.01700 4.39800 25.19400
C  0.50600 5.85900 25.14000
C  0.03500 2.61500 27.12200
C  -0.41100 3.54000 24.09000
O  -0.51800 3.97700 22.95000
C  -0.97600 2.05600 24.24300
N  1.30900 8.82200 24.89100
C  1.09400 7.96800 23.86600
C  1.29100 8.64000 22.48500
C  1.16100 10.12500 22.92800
C  1.33100 10.05100 24.44000
C  2.52700 8.19200 21.74300
C  -0.12400 10.76800 22.50900
C  -1.47800 10.32700 23.09600
N  1.27400 10.28900 27.44000
C  1.45000 11.37900 26.61400
C  1.74300 12.59400 27.33800
C  1.78200 12.13600 28.70100
C  1.54000 10.70100 28.69100
C  1.84700 14.00400 26.81200
C  1.89100 12.49200 30.06800
O  2.19200 13.61800 30.51400
C  1.65100 11.22400 30.92400
C  2.72300 11.07900 31.93500
O  3.84500 10.64900 31.72400
O  2.20200 11.42900 33.14100
C  3.22000 11.37000 34.14000
H  0.96500 4.38700 29.26800
H  0.61300 6.06900 23.13600
H  1.56800 12.14700 24.65500
H  1.98500 8.33600 31.95800
H  0.45300 5.96800 31.67100
H  2.24000 4.66600 31.74900
H  3.03300 6.21800 32.26800
H  3.10200 5.66600 30.56100
H  -0.72400 7.38400 32.32300
H  -0.68600 9.05200 31.66000
H  -0.81900 8.58400 34.26200
H  0.32900 9.79800 33.68400
H  0.66200 1.80400 26.75100
H  -0.99100 2.26700 27.00800
H  0.22200 2.67500 28.19400
H  -0.27800 1.24900 24.46500
H  -1.54100 1.85600 23.33200
H  -1.74900 2.11200 25.00900
H  0.42000 8.38100 21.88200
H  2.01700 10.66500 22.52300
H  2.22500 7.23800 21.31200
H  3.29700 8.00700 22.49300
H  2.77500 8.91000 20.96100
H  -0.18700 10.49900 21.45500
H  -0.14800 11.85600 22.55900
H  -2.04100 11.18900 23.45500
H  -1.39300 9.50200 23.80400
H  -2.04200 9.84700 22.29600
H  2.21000 14.13000 25.79200
H  2.53400 14.58700 27.42600
H  0.85000 14.44400 26.78800
H  0.75500 11.31200 31.53900
H  3.60200 10.34900 34.14600
H  2.80100 11.62500 35.11300
H  4.00900 12.06400 33.85200
Mg 41.73200 41.08600 26.98500
C  41.00400 43.43000 29.53400
C  42.86900 38.92200 29.52400
C  42.98400 38.94800 24.72000
C  41.52500 43.65600 24.73700
N  42.00700 41.21400 29.20300
C  41.48700 42.20700 30.03500
C  41.53900 41.83000 31.52500
C  42.39500 40.47300 31.50100
C  42.47300 40.18100 29.98000
C  43.73600 40.29800 32.37300
C  40.05700 41.62100 32.16000
C  39.73400 42.30900 33.50600
H  39.09800 41.44600 34.57900
N  42.62400 39.07200 27.09500
C  42.93900 38.34100 28.22700
C  43.32100 36.99800 27.80800
C  43.37100 36.98500 26.38500
C  42.92000 38.36000 25.97900
C  43.48900 35.88200 28.90600
C  43.67700 35.85500 25.45000
O  43.54900 35.85000 24.20500
C  44.22400 34.60000 26.03200
N  42.15300 41.30000 25.05300
C  42.64000 40.28600 24.23300
C  42.71100 40.72600 22.75900
C  42.10900 42.18100 22.75300
C  41.92300 42.43200 24.25600
C  44.20100 40.64100 22.23200
C  40.67300 42.31400 22.04200
C  40.60600 43.41000 21.00500
N  41.29300 43.16000 27.04800
C  41.26200 44.06900 26.06600
C  40.75800 45.35600 26.46600
C  40.55700 45.14800 27.82800
C  40.97100 43.79900 28.18300
C  40.63200 46.61500 25.64600
C  40.12100 45.72800 29.11700
O  39.72700 46.89700 29.32100
C  40.46500 44.66800 30.17800
C  41.39100 45.37200 31.05200
O  42.45200 45.82900 30.73100
O  40.93000 45.33400 32.33100
C  41.95400 45.56100 33.31300
H  43.15600 38.20700 30.29800
H  43.38900 38.31200 23.93100
H  41.36700 44.21300 23.81200
H  42.04000 42.58000 32.13800
H  41.77000 39.64800 31.84100
H  43.83300 41.15600 33.03900
H  44.50800 40.39400 31.61000
H  43.91200 39.35800 32.89600
H  39.79400 40.57300 32.30000
H  39.30100 42.04900 31.50100
H  39.01300 43.08200 33.23900
H  40.59400 42.84400 33.90700
H  43.34400 36.21400 29.93400
H  44.48100 35.43200 28.88700
H  42.79800 35.05700 28.73500
H  43.41900 34.14100 26.60600
H  44.97200 34.86800 26.77900
H  44.68100 33.94400 25.29200
H  41.98600 40.16100 22.17300
H  42.75800 42.92800 22.29700
H  44.77800 40.72000 23.15400
H  44.43300 41.57400 21.71900
H  44.38300 39.80100 21.56200
H  39.89900 42.38900 22.80700
H  40.40900 41.37000 21.56500
H  40.64600 42.97900 20.00400
H  41.38200 44.17100 21.08100
H  39.65300 43.92300 21.13300
H  39.92900 46.58300 24.81300
H  41.62800 46.85700 25.27500
H  40.30800 47.36400 26.36800
H  39.50200 44.49700 30.65900
H  42.41000 46.54200 33.18400
H  42.72900 44.80000 33.21600
H  41.56200 45.54000 34.33000

