158

Mg 41.88400 41.38100 26.75700
C  41.34300 43.87100 28.94300
C  42.75500 39.31900 29.33500
C  42.31100 38.82400 24.53600
C  41.46100 43.53500 24.00700
N  42.18100 41.63400 28.91700
C  41.74500 42.69100 29.62500
C  41.69200 42.38300 31.22100
C  42.13500 40.89000 31.23900
C  42.46700 40.63100 29.70500
C  43.30500 40.60600 32.27500
C  40.29200 42.69400 31.74900
C  40.04300 42.14000 33.13700
H  40.39300 43.06100 34.33400
N  42.50400 39.37500 26.92000
C  42.87500 38.72200 28.05100
C  43.08000 37.30200 27.85900
C  42.95600 37.11500 26.50400
C  42.58900 38.41500 25.89900
C  43.50000 36.29800 28.96500
C  43.04100 35.85300 25.74500
O  42.68500 35.74200 24.57500
C  43.29300 34.57100 26.47400
N  42.02600 41.23400 24.51900
C  42.13400 40.02800 23.91600
C  41.88500 40.16800 22.38200
C  41.41100 41.60400 22.28300
C  41.62400 42.19200 23.68400
C  43.14500 39.81000 21.53400
C  39.97800 41.78100 21.72900
C  38.93800 40.97600 22.51700
N  41.57400 43.28400 26.49000
C  41.46800 44.08200 25.33700
C  41.20700 45.43000 25.70300
C  41.20300 45.39900 27.16900
C  41.42500 44.08800 27.57000
C  40.96300 46.55600 24.78600
C  40.91200 46.19000 28.34600
O  40.58000 47.36600 28.50600
C  41.12400 45.20900 29.48200
C  42.23500 45.72600 30.25800
O  43.45300 45.68400 29.96800
O  41.76900 46.34400 31.39500
C  42.75700 46.65300 32.40200
H  42.89800 38.60700 30.15100
H  42.37700 37.95400 23.88000
H  41.41900 44.25200 23.18400
H  42.33400 43.12300 31.69900
H  41.35000 40.18600 31.51600
H  43.09400 39.74200 32.90400
H  43.48400 41.33900 33.06200
H  44.12500 40.28000 31.63500
H  39.56100 42.44400 30.98000
H  40.22600 43.77600 31.86000
H  40.67400 41.26800 33.31300
H  39.01800 41.82200 33.33100
H  42.67800 35.61500 29.17700
H  43.77200 36.69800 29.94200
H  44.38300 35.73400 28.66500
H  42.43100 34.47200 27.13300
H  44.25700 34.47600 26.97300
H  43.35100 33.73300 25.78000
H  41.15000 39.39100 22.17400
H  42.10600 42.05600 21.57600
H  43.02200 39.16800 20.66200
H  43.79400 39.22900 22.18800
H  43.84500 40.58500 21.22000
H  39.94200 41.38500 20.71400
H  39.61900 42.80700 21.64900
H  38.50200 40.19700 21.89100
H  38.18200 41.62400 22.96100
H  39.37000 40.31500 23.26800
H  41.95500 46.86900 24.46100
H  40.44200 47.33300 25.34500
H  40.32100 46.10600 24.02800
H  40.22200 45.10400 30.08600
H  42.71900 45.69900 32.92900
H  42.31300 47.44100 33.01200
H  43.83400 46.74800 32.26700
Mg 37.17600 50.14100 24.73200
C  36.86100 48.52400 27.91600
C  36.17000 53.08100 26.27300
C  37.29600 51.49600 21.72800
C  37.61600 46.96600 23.33600
N  36.53600 50.75500 26.89600
C  36.61400 49.93500 28.06100
C  36.24000 50.74000 29.34800
C  35.91400 52.19100 28.76300
C  36.19200 52.02700 27.21100
C  34.56000 52.75400 29.20200
C  37.34100 50.78800 30.39900
C  37.09500 50.01600 31.72100
H  35.80300 50.32900 32.36100
N  36.72200 52.02800 24.04100
C  36.41000 53.12400 24.80600
C  36.37700 54.27100 23.95500
C  36.76900 53.79600 22.67500
C  36.97900 52.38900 22.76500
C  36.02900 55.75200 24.40400
C  37.00300 54.61400 21.34300
O  37.58800 54.14700 20.35900
C  36.62300 56.04600 21.21000
N  37.34700 49.31700 22.87600
C  37.50900 50.10700 21.83400
C  37.78400 49.25200 20.51900
C  38.07300 47.88300 21.08400
C  37.64000 48.01500 22.51900
C  36.62100 49.29800 19.40700
C  39.61000 47.49600 21.06400
C  40.15700 46.24600 20.43400
N  37.25700 48.13300 25.37800
C  37.48500 46.90100 24.72300
C  37.60300 45.78900 25.65100
C  37.34500 46.42200 26.86900
C  37.14800 47.80400 26.68600
C  37.75300 44.40800 25.36500
C  37.34200 46.09600 28.29800
O  37.57100 45.01400 28.93500
C  36.95300 47.43200 28.98700
C  35.62600 47.27900 29.62100
O  34.52300 47.57400 29.13700
O  35.81200 46.47600 30.79600
C  34.60100 45.97200 31.46400
H  35.88500 54.06800 26.64200
H  37.43700 51.93700 20.73900
H  37.82700 46.03300 22.80800
H  35.38600 50.26500 29.83100
H  36.57700 52.99600 29.07800
H  33.89900 52.01900 29.66100
H  34.03000 52.90900 28.26200
H  34.64400 53.65100 29.81400
H  37.51900 51.80600 30.74600
H  38.28500 50.35700 30.06500
H  37.85400 50.25600 32.46500
H  37.20300 48.94100 31.57400
H  35.68300 55.92300 25.42300
H  35.33900 56.11500 23.64200
H  36.94400 56.34400 24.37400
H  36.77400 56.63800 22.11300
H  35.53800 56.01800 21.11600
H  37.18500 56.52300 20.40700
H  38.67500 49.76700 20.16200
H  37.45300 47.11800 20.61700
H  36.90600 49.81600 18.49100
H  35.78400 49.87500 19.79900
H  36.18500 48.31800 19.21300
H  39.97600 47.43500 22.08900
H  40.23500 48.28600 20.64600
H  40.00300 45.44700 21.15900
H  41.21900 46.30500 20.19600
H  39.64700 46.19100 19.47200
H  38.40000 44.25400 24.50100
H  36.81900 43.89000 25.14900
H  38.18400 43.88400 26.21800
H  37.64400 47.72100 29.77900
H  34.05200 46.71900 32.03700
H  34.63800 45.10000 32.11600
H  33.81600 45.73500 30.74500

