158

Mg 16.40900 -2.44300 27.45900
C  15.41200 -0.01800 29.82800
C  18.22000 -3.99800 29.91800
C  17.99800 -4.19200 25.05300
C  14.96400 -0.36600 24.98900
N  16.82600 -1.94400 29.54000
C  16.22100 -1.03000 30.32400
C  16.63800 -1.20400 31.88300
C  17.59000 -2.42800 31.82600
C  17.53200 -2.84500 30.33300
C  19.08800 -2.12400 32.24500
C  15.31100 -1.35900 32.67800
C  15.09300 -0.50100 33.95400
H  16.37900 0.00800 34.68500
N  17.75800 -3.97300 27.47800
C  18.34200 -4.54600 28.55200
C  19.23700 -5.60900 28.14200
C  19.20300 -5.68400 26.75000
C  18.26200 -4.62500 26.36600
C  19.93300 -6.50200 29.14700
C  19.95300 -6.58200 25.74100
O  19.72600 -6.61400 24.53500
C  20.97900 -7.57900 26.20200
N  16.47600 -2.28600 25.36500
C  17.14700 -3.16100 24.64700
C  17.12900 -2.77700 23.14200
C  16.11800 -1.62600 23.05400
C  15.81600 -1.37400 24.51600
C  18.57000 -2.53600 22.62700
C  14.84000 -1.99200 22.25000
C  13.62600 -2.47600 22.97100
N  15.30000 -0.66900 27.40600
C  14.68900 -0.03700 26.36400
C  13.85900 1.05500 26.84900
C  14.09700 1.09700 28.20100
C  14.99000 0.08600 28.48000
C  12.91900 1.86300 26.01300
C  13.76300 1.81400 29.45500
O  12.91000 2.65100 29.76500
C  14.57400 1.04400 30.56800
C  15.31500 2.09200 31.37200
O  16.37500 2.62500 31.09100
O  14.61800 2.45000 32.50700
C  15.10500 3.67900 33.25800
H  18.78000 -4.47200 30.72600
H  18.30200 -4.86600 24.24900
H  14.47100 0.27200 24.25200
H  17.23100 -0.37400 32.26600
H  17.14700 -3.21500 32.43700
H  19.72300 -2.13900 31.35900
H  19.39500 -2.86500 32.98200
H  19.28000 -1.16900 32.73400
H  15.21600 -2.39000 33.01800
H  14.40100 -1.22200 32.09400
H  14.58200 -1.17800 34.63900
H  14.56400 0.41300 33.68500
H  21.00100 -6.61900 28.96100
H  19.45000 -7.45300 28.92200
H  19.88700 -6.21700 30.19800
H  21.69000 -7.81700 25.41000
H  20.45700 -8.50600 26.44200
H  21.61900 -7.17000 26.98400
H  16.68700 -3.63600 22.63800
H  16.52000 -0.73600 22.57100
H  18.73800 -2.94400 21.63000
H  19.30800 -2.81000 23.38100
H  18.58900 -1.44700 22.58200
H  15.06400 -2.83200 21.59300
H  14.49300 -1.09100 21.74500
H  13.77900 -2.92500 23.95300
H  13.18800 -3.27500 22.37300
H  12.88800 -1.67600 22.92300
H  12.11600 2.20800 26.66400
H  12.69200 1.26100 25.13300
H  13.46600 2.76900 25.75200
H  13.84200 0.62200 31.25600
H  15.63200 4.36900 32.60000
H  15.84600 3.29400 33.95900
H  14.29500 4.12000 33.84000
Mg -1.93200 34.23400 26.49100
C  -3.36200 32.38400 29.24900
C  -0.04600 36.00700 28.94300
C  -0.43000 35.77200 24.05600
C  -3.82800 32.30700 24.39100
N  -1.76800 34.22400 28.86400
C  -2.38500 33.32200 29.72400
C  -2.06300 33.67300 31.21200
C  -1.07100 34.88700 31.10800
C  -0.92700 35.06600 29.54100
C  -1.58100 36.24900 31.72800
C  -1.49400 32.52100 32.00800
C  -0.88000 32.76000 33.47100
H  -1.31200 31.98700 34.76500
N  -0.51200 35.67900 26.48500
C  0.19300 36.29300 27.53400
C  1.13800 37.26800 26.99700
C  0.94300 37.28500 25.64800
C  -0.08200 36.22900 25.30600
C  2.09700 38.08000 27.86700
C  1.65400 38.13900 24.60900
O  1.29100 38.06300 23.40400
C  2.81900 38.91000 25.06200
N  -2.09300 34.10200 24.45900
C  -1.39700 34.86900 23.62200
C  -1.74900 34.53700 22.10300
C  -2.85900 33.46400 22.27700
C  -2.95100 33.23800 23.83000
C  -2.11400 35.76900 21.25600
C  -2.70300 32.18900 21.32000
C  -1.82100 31.08900 21.86700
N  -3.40300 32.76100 26.69200
C  -4.05400 32.03600 25.75200
C  -4.85000 31.06400 26.33900
C  -4.66400 31.14800 27.71300
C  -3.80700 32.26800 27.91500
C  -5.86400 30.12800 25.67300
C  -4.99600 30.63400 28.97000
O  -5.76100 29.80200 29.28700
C  -4.20300 31.41200 30.08900
C  -5.10200 32.08800 31.13300
O  -5.85100 33.07200 30.87200
O  -5.13400 31.44800 32.26300
C  -6.05800 32.06400 33.33200
H  0.32100 36.73900 29.66500
H  0.00000 36.30300 23.20400
H  -4.44600 31.69100 23.73400
H  -3.01000 33.88000 31.71000
H  -0.11100 34.80700 31.61900
H  -2.19200 36.78700 31.00300
H  -0.75400 36.83300 32.13300
H  -2.15000 35.96300 32.61200
H  -0.58200 32.23000 31.48900
H  -2.16300 31.66100 32.00200
H  -1.09900 33.80400 33.69500
H  0.19400 32.58800 33.54900
H  3.09600 38.33300 27.51200
H  2.23700 37.46100 28.75300
H  1.61200 39.03600 28.06500
H  2.46900 39.61900 25.81200
H  3.28700 39.41300 24.21600
H  3.66300 38.35700 25.47500
H  -0.89400 34.03900 21.64500
H  -3.77900 33.99300 22.02900
H  -1.23200 36.37200 21.04000
H  -2.79500 36.38600 21.84200
H  -2.55900 35.50700 20.29600
H  -2.57300 32.42400 20.26300
H  -3.71000 31.78400 21.41600
H  -2.38100 30.19000 22.12600
H  -1.32300 31.46300 22.76200
H  -1.11400 30.91900 21.05500
H  -5.20200 29.60100 24.98600
H  -6.60200 30.76200 25.18300
H  -6.31000 29.55400 26.48500
H  -3.56800 30.60200 30.44800
H  -6.86200 32.58100 32.80700
H  -5.49700 32.66000 34.05200
H  -6.56300 31.25100 33.85300

