158

Mg 2.35900 -2.32100 44.36600
C  5.79100 -1.51000 43.51700
C  1.40600 0.43700 42.67000
C  -0.76200 -3.45500 44.63000
C  3.57800 -5.43600 45.41800
N  3.47900 -0.71900 43.10800
C  4.86600 -0.53100 43.03400
C  5.10900 0.63800 42.07800
C  3.72400 1.35800 42.10800
C  2.79100 0.25700 42.68600
C  3.77400 2.66800 42.95200
C  5.49800 0.03900 40.67900
C  6.62400 0.76300 39.95600
H  6.65500 0.80700 38.44000
N  0.46300 -1.48700 43.80500
C  0.30100 -0.29200 43.20000
C  -1.10500 -0.04200 43.03600
C  -1.78200 -1.17700 43.59500
C  -0.73500 -2.13000 44.04000
C  -1.51300 1.11400 42.31000
C  -3.20000 -1.32800 43.63000
O  -3.91400 -0.55300 43.02700
C  -3.76500 -2.46000 44.28000
N  1.57400 -4.18300 44.81400
C  0.23700 -4.37900 44.91600
C  -0.15700 -5.76200 45.54500
C  1.26600 -6.39700 45.62300
C  2.23600 -5.25700 45.30900
C  -0.97900 -5.82400 46.87100
C  1.48200 -7.60800 44.62600
C  1.86500 -9.02300 45.17600
N  4.27600 -3.30500 44.63600
C  4.63500 -4.53200 45.08200
C  6.06100 -4.80400 44.97200
C  6.60800 -3.57400 44.45700
C  5.44900 -2.76900 44.19800
C  6.78700 -6.06700 45.34900
C  7.76000 -2.81700 44.09600
O  8.93000 -3.11600 44.05800
C  7.25300 -1.37500 43.59000
C  7.72200 -0.35300 44.57200
O  7.83600 -0.52400 45.75900
O  8.06900 0.81200 43.88800
C  8.18700 2.00800 44.67000
H  1.27300 1.31900 42.03900
H  -1.68100 -3.87500 45.04600
H  3.86300 -6.42600 45.78400
H  5.84300 1.33500 42.48400
H  3.43200 1.65900 41.10200
H  3.35200 3.55000 42.47100
H  4.81400 2.87700 43.20200
H  3.24100 2.59300 43.90000
H  4.59400 0.08300 40.07200
H  5.83000 -0.99400 40.78400
H  7.49900 0.15500 40.18400
H  6.77200 1.77200 40.34100
H  -2.47200 1.19700 41.79700
H  -0.85900 1.14600 41.43900
H  -1.52300 1.94800 43.01300
H  -3.27300 -3.39700 44.01700
H  -4.83800 -2.53100 44.10200
H  -3.57400 -2.25600 45.33300
H  -0.68500 -6.26200 44.73400
H  1.47500 -6.78100 46.62100
H  -1.18100 -4.93000 47.46000
H  -0.54800 -6.54000 47.57000
H  -2.00400 -6.09500 46.61600
H  2.35000 -7.27000 44.05900
H  0.58400 -7.65600 44.01000
H  1.04900 -9.72700 45.01300
H  1.93500 -8.92400 46.25900
H  2.85100 -9.32400 44.82300
H  6.60600 -6.67600 44.46300
H  6.31300 -6.54200 46.20800
H  7.83500 -5.86300 45.56900
H  7.62800 -1.12500 42.59800
H  7.29700 2.21900 45.26200
H  8.54500 2.82600 44.04500
H  9.03700 1.79100 45.31800
Mg 6.99100 52.93700 40.33000
C  6.83100 49.45800 39.98900
C  10.39400 52.71100 39.78900
C  7.09400 56.36500 39.68500
C  3.61400 53.01600 40.54300
N  8.38600 51.24900 39.64600
C  8.13200 49.86100 39.68000
C  9.35500 49.06300 39.50900
C  10.46300 50.07200 40.00600
C  9.70000 51.47500 39.70100
C  10.97700 50.02400 41.48600
C  9.55400 48.55400 38.03800
C  8.98800 49.39000 36.87900
H  7.68800 48.97200 36.20500
N  8.48900 54.37000 39.83400
C  9.87000 54.03300 39.66000
C  10.63100 55.21300 39.57700
C  9.68000 56.29600 39.46200
C  8.32300 55.71600 39.60800
C  12.08800 55.24400 39.39500
C  10.00200 57.80700 39.38900
O  11.19000 58.16400 39.49300
C  9.03200 58.90000 39.14400
N  5.53500 54.50400 40.14600
C  5.75800 55.83600 40.01400
C  4.41500 56.66800 40.02300
C  3.36400 55.59800 40.30300
C  4.19800 54.24600 40.32300
C  4.49900 57.75500 41.07000
C  2.34100 55.52100 39.06000
C  0.85300 55.59900 39.51700
N  5.55200 51.54700 40.46600
C  4.14700 51.73500 40.58500
C  3.50700 50.45000 40.81900
C  4.57500 49.56000 40.61000
C  5.79600 50.25900 40.39700
C  2.02800 50.15700 40.97700
C  4.82300 48.17700 40.63600
O  4.08400 47.23900 40.88400
C  6.25000 48.04600 40.07900
C  6.21400 47.28100 38.77400
O  5.48500 47.50300 37.82000
O  7.00500 46.18100 38.93600
C  6.75900 45.14900 37.93500
H  11.47400 52.65600 39.93600
H  7.08800 57.37300 39.26500
H  2.56400 53.05100 40.84000
H  9.42500 48.24300 40.22400
H  11.36800 50.04700 39.39900
H  10.53900 50.80300 42.10900
H  12.03500 50.27200 41.39600
H  10.76800 49.04100 41.90900
H  8.98600 47.63000 37.93200
H  10.62100 48.51900 37.82000
H  9.79400 49.57800 36.17000
H  8.75300 50.40800 37.19100
H  12.27200 55.88900 38.53500
H  12.57100 54.30000 39.14300
H  12.50200 55.73200 40.27700
H  8.22200 58.96500 39.87100
H  8.53200 58.60700 38.22100
H  9.47700 59.87900 38.96700
H  4.25200 57.09800 39.03500
H  2.79900 55.65100 41.23400
H  3.84400 57.68500 41.93900
H  4.23400 58.66500 40.53000
H  5.49500 57.86800 41.49900
H  2.40500 54.56300 38.54500
H  2.39800 56.26400 38.26400
H  0.75700 55.47900 40.59600
H  0.34900 54.73100 39.09200
H  0.39500 56.51700 39.14700
H  1.61700 50.09100 39.97000
H  1.41400 50.91000 41.47200
H  1.93700 49.21300 41.51400
H  6.66200 47.36300 40.82200
H  7.44100 44.33100 38.16900
H  6.78600 45.45000 36.88800
H  5.79500 44.66400 38.08900

