158

Mg 48.39500 45.50500 43.64200
C  45.02700 45.86300 42.54400
C  48.49900 42.39400 42.53400
C  51.73200 45.83800 43.65100
C  48.18400 49.02900 44.31100
N  46.92900 44.38600 42.57900
C  45.61300 44.59100 42.26900
C  44.87000 43.34200 41.67200
C  45.91800 42.24400 41.94800
C  47.19600 43.01800 42.39200
C  45.52900 41.22300 43.02000
C  44.35600 43.54800 40.16900
C  45.14500 44.44200 39.14400
H  46.20000 43.63200 38.37900
N  49.94700 44.29000 43.23700
C  49.75100 43.03100 42.82200
C  51.05500 42.33600 42.73700
C  52.01800 43.31400 43.13600
C  51.27000 44.57300 43.29000
C  51.16400 40.80300 42.54400
C  53.50500 42.94500 43.24200
O  53.85200 41.80500 42.93600
C  54.44500 43.92800 43.78400
N  49.81400 47.21300 43.93100
C  51.15100 47.00500 43.94200
C  51.92000 48.36200 44.16200
C  50.78900 49.26700 44.81000
C  49.46400 48.49500 44.31000
C  53.15200 48.18400 45.14100
C  50.92300 50.77500 44.63500
C  50.66300 51.62500 45.81800
N  46.85000 47.08500 43.76400
C  46.94100 48.44900 44.01600
C  45.62000 49.07600 43.91400
C  44.88100 48.04800 43.36700
C  45.69100 46.88600 43.23600
C  45.36200 50.59800 44.00400
C  43.63100 47.80400 42.82000
O  42.64700 48.54700 42.79000
C  43.63200 46.33100 42.25000
C  42.44100 45.64500 42.91000
O  41.56700 45.02100 42.30800
O  42.54700 45.76700 44.28600
C  41.36700 45.39000 45.02100
H  48.51500 41.31000 42.39800
H  52.82400 45.82900 43.67100
H  48.11000 50.11500 44.39200
H  43.99400 43.18400 42.30100
H  46.01900 41.75300 40.98000
H  45.94500 41.52600 43.98100
H  45.77500 40.23200 42.63800
H  44.44800 41.29300 43.13600
H  43.36900 44.00700 40.21900
H  44.20600 42.52700 39.81800
H  45.68000 45.26200 39.62300
H  44.38400 44.90800 38.51800
H  52.08100 40.53400 42.01900
H  50.32100 40.34100 42.03200
H  51.19600 40.34600 43.53400
H  54.53800 44.74300 43.06700
H  55.37000 43.39600 44.00600
H  54.02800 44.37900 44.68500
H  52.23100 48.73900 43.18700
H  50.93300 49.10900 45.87800
H  53.00100 47.26800 45.71200
H  53.28300 48.89800 45.95400
H  53.98000 48.05800 44.44400
H  50.27400 51.10800 43.82500
H  51.91300 50.89500 44.19500
H  51.46400 51.71500 46.55100
H  49.76400 51.30700 46.34600
H  50.53800 52.62500 45.40100
H  45.90600 51.06400 43.18200
H  45.60200 51.07200 44.95600
H  44.29300 50.74900 43.85200
H  43.47300 46.31600 41.17200
H  40.89600 44.46100 44.69900
H  40.67300 46.20400 44.81300
H  41.52000 45.26600 46.09300
Mg 30.36200 58.08600 40.33400
C  27.56600 56.16100 39.33700
C  32.46100 55.68800 39.48700
C  32.89600 60.43300 40.21400
C  28.05500 60.87700 40.57800
N  29.97600 56.15300 39.54400
C  28.81900 55.51500 39.22900
C  29.09300 54.04800 38.97800
C  30.61900 53.90300 39.22900
C  31.08400 55.39000 39.40600
C  31.05400 52.78600 40.25100
C  28.54600 53.50300 37.61500
C  29.32400 53.89900 36.33300
H  28.44500 54.35400 35.23300
N  32.35900 58.06200 39.90100
C  33.07000 56.96900 39.53600
C  34.43900 57.24800 39.26200
C  34.59400 58.62100 39.59500
C  33.25800 59.12600 39.93700
C  35.39400 56.18500 38.72700
C  35.96100 59.27800 39.59800
O  36.96900 58.57300 39.37700
C  36.14700 60.70500 39.91400
N  30.46700 60.42600 40.32400
C  31.66700 61.04400 40.43400
C  31.48800 62.50200 40.70800
C  29.94600 62.63300 41.03600
C  29.38700 61.24900 40.59400
C  32.42500 63.22100 41.76100
C  29.22100 63.76800 40.24800
C  27.95100 64.42900 40.76300
N  28.21600 58.40300 40.34100
C  27.45400 59.57700 40.40400
C  26.06400 59.19500 40.44400
C  26.04600 57.88000 40.06500
C  27.37600 57.45600 39.85200
C  25.02100 60.12800 40.71200
C  25.19500 56.76000 39.74900
O  23.94900 56.64500 39.72900
C  26.10800 55.59500 39.18800
C  25.79700 54.26200 39.80300
O  26.43900 53.64700 40.65200
O  24.92900 53.60700 38.97100
C  24.62300 52.18600 39.31000
H  33.09100 54.81300 39.30700
H  33.71000 61.16100 40.18300
H  27.32400 61.67600 40.72300
H  28.54000 53.47300 39.72100
H  31.00400 53.50500 38.29000
H  30.43900 51.90300 40.07800
H  30.85800 53.17800 41.24900
H  32.09900 52.48400 40.18300
H  27.56500 53.97000 37.53300
H  28.39000 52.44100 37.80400
H  29.95300 53.06400 36.02500
H  30.14100 54.58300 36.56400
H  36.04500 56.43900 37.89000
H  34.97900 55.23800 38.38200
H  35.85900 55.74500 39.60900
H  35.72300 60.96300 40.88500
H  35.62500 61.14100 39.06300
H  37.21600 60.91300 39.95300
H  31.69500 62.98600 39.75400
H  29.62700 62.68800 42.07700
H  31.89400 63.56200 42.65000
H  32.85500 64.10500 41.29000
H  33.17600 62.51700 42.11900
H  29.11600 63.36100 39.24200
H  29.96000 64.53000 39.99700
H  28.34700 65.37800 41.12500
H  27.49900 63.98700 41.65100
H  27.27200 64.58100 39.92400
H  25.05200 60.94700 39.99300
H  24.92000 60.57400 41.70200
H  24.18000 59.47500 40.47700
H  25.71700 55.50200 38.17500
H  25.22900 51.64600 38.58200
H  23.59600 52.02600 38.98200
H  24.87800 51.93400 40.33900

