158

Mg 9.39900 3.93000 28.08700
C  10.87700 2.31100 30.94800
C  7.70200 5.93500 30.17200
C  7.63900 4.92200 25.44000
C  10.77300 1.37700 26.14400
N  9.48400 4.14400 30.27600
C  10.10400 3.42000 31.24100
C  9.85700 3.94100 32.61400
C  8.64100 4.90500 32.40000
C  8.60300 5.04600 30.83400
C  7.27900 4.25200 32.92400
C  11.13700 4.50800 33.29800
C  11.37200 3.83500 34.67000
H  10.18000 3.74600 35.73300
N  8.09900 5.33600 27.86100
C  7.47100 6.04400 28.81000
C  6.66600 7.12900 28.13400
C  6.71700 6.90900 26.76300
C  7.49100 5.68300 26.63800
C  5.97500 8.25700 28.88000
C  6.14800 7.66300 25.65600
O  6.43200 7.42400 24.49900
C  5.25800 8.86100 25.91800
N  8.96600 3.02100 26.12900
C  8.31000 3.74600 25.20000
C  8.35200 3.10600 23.82900
C  9.50800 2.08500 23.98700
C  9.82700 2.21200 25.55100
C  6.98700 2.59500 23.40700
C  10.81400 2.53200 23.24900
C  11.58300 1.34000 22.52500
N  10.62800 2.21000 28.35800
C  11.11100 1.29800 27.50000
C  11.97400 0.40100 28.15800
C  11.89000 0.77400 29.53000
C  11.06500 1.87600 29.61900
C  12.39100 -0.86500 27.63700
C  12.37200 0.48800 30.80400
O  13.16400 -0.41000 31.14100
C  11.77400 1.46600 31.78700
C  10.91900 0.71400 32.75600
O  9.72800 0.69500 32.73100
O  11.67600 0.10500 33.73400
C  10.92500 -0.30900 34.97600
H  7.18100 6.63100 30.83400
H  7.25900 5.31800 24.49600
H  11.23500 0.61400 25.51500
H  9.51600 3.11200 33.23500
H  8.82100 5.88600 32.84000
H  7.32600 3.41300 33.61800
H  6.77600 3.88600 32.02800
H  6.80600 5.08500 33.44200
H  11.02400 5.57500 33.49400
H  11.95700 4.45900 32.58200
H  12.16700 4.35100 35.20700
H  11.63200 2.80500 34.42500
H  6.55300 9.15100 28.64400
H  5.91900 8.13300 29.96100
H  4.95200 8.42500 28.54300
H  5.89700 9.55100 26.47000
H  4.34900 8.54300 26.42900
H  5.03300 9.29200 24.94300
H  8.53700 3.89200 23.09700
H  9.16000 1.10200 23.67000
H  6.57000 2.91900 22.45400
H  6.21500 2.78100 24.15300
H  7.08500 1.52300 23.23600
H  11.40100 3.13400 23.94300
H  10.49600 3.17100 22.42600
H  11.44700 1.29400 21.44400
H  11.32000 0.36900 22.94400
H  12.65000 1.49800 22.68300
H  13.25800 -0.76700 26.98300
H  11.52400 -1.28100 27.12300
H  12.72800 -1.57900 28.38800
H  12.57600 1.99100 32.30700
H  10.23000 -1.13900 34.85400
H  10.34800 0.45400 35.49800
H  11.72400 -0.60300 35.65700
Mg -5.30100 24.38500 26.24900
C  -3.84200 26.60600 28.65400
C  -6.33100 22.41200 28.90600
C  -6.72800 22.48200 23.99300
C  -4.16600 26.64100 23.67100
N  -5.31200 24.62200 28.50700
C  -4.55100 25.53200 29.20100
C  -4.55700 25.20900 30.74500
C  -4.97200 23.66500 30.73500
C  -5.59400 23.58100 29.28900
C  -3.90800 22.53300 30.84700
C  -5.53200 26.12600 31.54300
C  -5.16600 26.20500 33.01400
H  -6.32700 26.21300 33.95300
N  -6.42100 22.68700 26.41500
C  -6.81700 22.00000 27.60800
C  -7.56900 20.87000 27.20500
C  -7.62000 20.85300 25.77600
C  -6.84300 21.99800 25.33200
C  -8.13600 19.86700 28.29100
C  -8.39400 19.89400 24.86000
O  -8.38000 19.96800 23.62700
C  -9.31100 18.80300 25.40900
N  -5.21200 24.52900 24.14300
C  -6.04600 23.62200 23.50500
C  -6.21800 24.06800 22.01300
C  -5.22300 25.26100 21.83600
C  -4.82100 25.50900 23.27300
C  -6.11800 22.96600 20.92500
C  -5.68800 26.57900 21.08000
C  -6.18100 26.51400 19.60300
N  -4.21700 26.21200 26.08400
C  -3.72400 26.93300 25.00400
C  -2.94200 28.08300 25.49200
C  -2.93400 27.94300 26.84000
C  -3.76200 26.82800 27.22600
C  -2.25400 29.13700 24.66300
C  -2.47700 28.60800 28.11400
O  -1.83100 29.61000 28.28500
C  -2.99300 27.69700 29.26400
C  -1.84500 27.20700 30.03200
O  -0.86900 26.51900 29.61000
O  -2.04800 27.53600 31.35400
C  -1.00400 27.02900 32.32800
H  -6.61200 21.70900 29.69300
H  -7.07800 21.76100 23.25000
H  -3.71000 27.28700 22.91800
H  -3.57400 25.34300 31.19700
H  -5.76000 23.51600 31.47300
H  -3.84000 22.04600 31.82000
H  -2.91600 22.96600 30.71600
H  -3.97700 21.81200 30.03200
H  -6.55100 25.74000 31.52100
H  -5.60400 27.15500 31.19100
H  -4.68300 27.14800 33.27300
H  -4.38500 25.48300 33.25000
H  -9.21400 19.73300 28.19600
H  -8.03900 20.17500 29.33200
H  -7.42300 19.04200 28.28700
H  -9.11000 17.92000 24.80100
H  -10.28200 19.29400 25.35200
H  -9.09500 18.55600 26.44800
H  -7.23300 24.46200 21.95200
H  -4.31700 25.02100 21.28000
H  -5.62500 22.12200 21.40700
H  -5.57100 23.31600 20.04900
H  -7.10700 22.68100 20.56700
H  -4.80800 27.21900 21.01600
H  -6.39600 27.14100 21.68800
H  -6.26700 25.48200 19.26400
H  -5.44400 26.89400 18.89500
H  -7.05800 27.14000 19.43800
H  -1.45500 29.52300 25.29500
H  -2.91100 29.98200 24.45900
H  -1.74200 28.75200 23.78000
H  -3.59700 28.33500 29.90900
H  -1.22100 26.01200 32.65600
H  -0.95700 27.77000 33.12600
H  -0.00200 26.98400 31.90000

