158

Mg 1.64000 -2.18900 43.04100
C  5.00300 -2.47200 42.40500
C  1.62100 0.82900 41.25500
C  -1.67000 -2.48600 42.74800
C  1.72500 -5.68200 44.13200
N  3.14400 -1.03000 41.86800
C  4.45200 -1.35100 41.76100
C  5.23900 -0.27600 41.01600
C  4.17200 0.84200 40.75600
C  2.89600 0.23300 41.32000
C  4.62000 2.18700 41.39100
C  5.89800 -0.75000 39.73400
C  7.02900 0.19900 39.21800
H  6.72100 1.01000 37.94800
N  0.14800 -0.97100 42.23900
C  0.39100 0.33300 41.68500
C  -0.91800 0.97300 41.45400
C  -1.84300 -0.03100 41.62800
C  -1.18500 -1.16800 42.26100
C  -1.00800 2.32300 40.79600
C  -3.30400 0.03300 41.31000
O  -3.82900 1.02500 40.75000
C  -4.10800 -1.12900 41.45200
N  0.26200 -3.98300 43.29800
C  -1.05700 -3.67300 43.28500
C  -1.95700 -4.85000 43.73500
C  -0.85800 -5.94200 44.09700
C  0.49500 -5.14900 43.88600
C  -2.93900 -4.53500 44.89100
C  -0.93100 -7.29400 43.38700
C  -0.69300 -8.50700 44.29000
N  3.10600 -3.70300 43.41400
C  3.03100 -5.03400 43.89100
C  4.35200 -5.56600 43.95500
C  5.21400 -4.56400 43.54800
C  4.35200 -3.47100 43.09700
C  4.60200 -7.07300 44.28600
C  6.55300 -4.22300 43.31200
O  7.54700 -4.80100 43.56000
C  6.48800 -2.83300 42.54100
C  7.37700 -1.81800 43.22100
O  7.07100 -1.02200 44.10700
O  8.61100 -1.85300 42.64800
C  9.63400 -0.89600 43.08200
H  1.58600 1.81900 40.79700
H  -2.74600 -2.53800 42.92700
H  1.79800 -6.72900 44.43600
H  5.97500 0.11100 41.72100
H  3.98900 1.08500 39.71000
H  3.97200 2.29800 42.26000
H  4.61700 3.00800 40.67500
H  5.61700 2.22900 41.82900
H  5.19600 -0.85700 38.90800
H  6.28800 -1.75500 39.89600
H  7.95600 -0.36600 39.12900
H  7.13700 0.97700 39.97500
H  -0.71600 2.31000 39.74600
H  -0.48300 3.07400 41.38700
H  -2.04400 2.65700 40.73900
H  -5.00500 -0.87900 40.88600
H  -4.44400 -1.29300 42.47600
H  -3.57500 -1.96000 40.99100
H  -2.53600 -5.15900 42.86500
H  -0.78400 -6.12600 45.16900
H  -2.64500 -5.04500 45.80800
H  -3.97200 -4.81600 44.68800
H  -2.89400 -3.45800 45.05200
H  -0.24500 -7.34700 42.54100
H  -1.97200 -7.41200 43.08600
H  -1.41300 -9.29700 44.07700
H  -0.70500 -8.22200 45.34200
H  0.33500 -8.78400 44.05600
H  5.43800 -7.37600 43.65600
H  3.72700 -7.68800 44.07000
H  4.99200 -7.17400 45.29900
H  6.94800 -3.07600 41.58300
H  9.69900 -0.60300 44.13000
H  9.37100 0.00200 42.52300
H  10.60300 -1.26000 42.74200
Mg 54.29800 24.31100 44.68800
C  51.58600 26.31500 43.75100
C  52.34000 21.61100 43.61900
C  56.97600 22.39200 44.96900
C  56.03900 27.17700 45.53300
N  52.34100 24.03400 43.57100
C  51.41700 25.00000 43.29300
C  50.18500 24.43000 42.51000
C  50.21400 23.04400 43.24400
C  51.73900 22.86300 43.48600
C  49.28300 22.90100 44.51700
C  50.54900 24.36400 40.97000
C  49.42800 24.34600 39.94600
H  49.74000 24.94100 38.52400
N  54.60600 22.33000 44.26100
C  53.71400 21.38500 43.87300
C  54.36800 20.15900 43.90500
C  55.69100 20.22700 44.43900
C  55.84100 21.67000 44.54900
C  53.80400 18.92800 43.39700
C  56.80300 19.08700 44.64900
O  56.59200 17.97800 44.18200
C  57.95000 19.40900 45.44800
N  56.28100 24.77900 45.02400
C  57.17900 23.81200 45.28000
C  58.50600 24.37100 45.81700
C  58.09300 25.88700 46.13300
C  56.68900 25.97600 45.50500
C  59.05000 23.60000 46.95600
C  59.20600 26.95000 45.75800
C  59.02100 27.71300 44.43900
N  53.88500 26.30100 44.79500
C  54.67400 27.36500 45.21100
C  53.93400 28.61400 45.15000
C  52.71100 28.20800 44.62400
C  52.72200 26.82700 44.39100
C  54.34800 30.01500 45.54500
C  51.40000 28.73200 44.02800
O  50.94700 29.85200 43.88400
C  50.58600 27.45700 43.62700
C  50.05200 27.68700 42.24600
O  50.62700 27.66900 41.23100
O  48.71900 27.89100 42.43000
C  47.98700 28.00600 41.18200
H  51.62500 20.79600 43.48600
H  57.90300 21.92200 45.30200
H  56.64700 28.01300 45.88500
H  49.28700 24.99900 42.75200
H  49.89200 22.38500 42.43700
H  48.50200 22.15400 44.37900
H  48.76800 23.85900 44.59300
H  49.65800 22.71000 45.52200
H  51.08400 23.42800 40.81100
H  51.31200 25.07900 40.66200
H  48.70800 25.06100 40.34500
H  48.96900 23.35700 39.93400
H  54.42400 18.37800 42.68900
H  52.88400 18.99500 42.81500
H  53.50200 18.29100 44.22900
H  57.71700 19.98600 46.34300
H  58.74100 19.88000 44.86400
H  58.47300 18.49100 45.71500
H  59.26300 24.42500 45.03400
H  57.99800 26.01500 47.21200
H  58.38700 22.79000 47.25900
H  59.42300 24.26600 47.73300
H  59.90500 23.04500 46.57000
H  60.21100 26.52700 45.78100
H  59.15500 27.65900 46.58300
H  58.04500 27.46900 44.01900
H  59.83100 27.61600 43.71700
H  58.92900 28.79400 44.54300
H  54.92500 30.43700 44.72300
H  55.04100 29.92900 46.38200
H  53.43000 30.53300 45.82300
H  49.76300 27.27300 44.31800
H  48.59700 28.65500 40.55500
H  47.01000 28.46100 41.34400
H  47.87300 27.06100 40.65100

