158

Mg 17.61500 -1.71000 27.01400
C  16.89700 0.45800 29.73000
C  19.64000 -3.62200 29.00700
C  18.73000 -3.44100 24.31600
C  15.66500 0.32300 24.99700
N  18.12400 -1.54200 29.09800
C  17.67200 -0.65400 30.11000
C  18.08900 -1.09900 31.55100
C  19.08500 -2.30000 31.12800
C  18.93600 -2.55900 29.61700
C  20.61300 -2.18500 31.56300
C  16.90000 -1.44600 32.40100
C  17.00900 -1.24600 33.91600
H  18.18800 -0.54900 34.56900
N  18.90700 -3.35300 26.73500
C  19.64700 -4.03600 27.66700
C  20.34600 -5.15800 27.11100
C  20.10600 -5.13700 25.69300
C  19.26400 -3.92900 25.54300
C  21.16800 -6.20000 27.91000
C  20.64200 -6.13300 24.65800
O  20.37400 -6.04100 23.43200
C  21.51300 -7.35100 24.93300
N  17.29900 -1.46000 24.95400
C  17.92000 -2.27000 24.08000
C  17.49500 -1.82200 22.61000
C  16.34700 -0.83500 22.86300
C  16.37300 -0.60300 24.33800
C  18.68100 -1.28000 21.80200
C  14.91300 -1.27200 22.44000
C  14.12500 -2.25000 23.34000
N  16.40700 -0.02900 27.29900
C  15.65700 0.64300 26.37700
C  15.07100 1.76100 27.05900
C  15.53600 1.73400 28.37000
C  16.31300 0.60900 28.43200
C  14.11100 2.73300 26.49700
C  15.39300 2.38900 29.64300
O  14.65000 3.33100 29.96800
C  16.22300 1.51800 30.63000
C  17.21400 2.33700 31.44100
O  18.32800 2.71200 31.15800
O  16.54200 2.77300 32.60700
C  17.24100 3.62600 33.57400
H  20.10100 -4.27100 29.75500
H  19.09500 -3.90400 23.39600
H  15.09700 1.03300 24.39300
H  18.70800 -0.31500 31.98700
H  18.79600 -3.23000 31.61600
H  20.94000 -1.25300 32.02300
H  21.24800 -2.43700 30.71300
H  20.88700 -2.94100 32.29900
H  16.83100 -2.52300 32.24400
H  16.02300 -0.94200 31.99600
H  16.87300 -2.28300 34.22300
H  16.13600 -0.69200 34.26100
H  22.20100 -6.25700 27.56900
H  20.61600 -7.11900 27.71600
H  21.35900 -5.98300 28.96100
H  22.37800 -7.15000 25.56600
H  21.97300 -7.81000 24.05800
H  20.94600 -8.08000 25.51200
H  17.04800 -2.69900 22.14000
H  16.50400 0.12200 22.36600
H  18.37400 -0.82000 20.86200
H  19.35800 -2.12700 21.69200
H  19.20800 -0.45700 22.28400
H  15.06800 -1.81000 21.50400
H  14.37300 -0.37000 22.15300
H  13.31000 -1.68600 23.79300
H  14.71300 -2.69000 24.14600
H  13.67000 -3.00400 22.69700
H  13.65200 2.55400 25.52500
H  14.69300 3.65500 26.48200
H  13.35600 2.99600 27.23900
H  15.53500 1.06400 31.34300
H  16.85600 4.64500 33.55000
H  18.27200 3.78800 33.25900
H  17.16000 3.26100 34.59800
Mg -5.81700 25.50600 26.18300
C  -4.10500 26.70300 28.95900
C  -7.15500 22.95100 28.14700
C  -6.96400 23.93200 23.37700
C  -4.00900 27.75900 24.22500
N  -5.47400 24.80600 28.28300
C  -4.93900 25.55900 29.28300
C  -5.42000 25.12000 30.63600
C  -6.21600 23.80300 30.34700
C  -6.31500 23.86900 28.83800
C  -5.57100 22.44600 30.88200
C  -6.26100 26.24400 31.34400
C  -5.88400 26.69400 32.78400
H  -5.55500 25.68100 33.86100
N  -6.93700 23.73100 25.84900
C  -7.40700 22.87500 26.82500
C  -8.31400 21.96800 26.20800
C  -8.11300 22.08100 24.82100
C  -7.33400 23.29800 24.63300
C  -9.26000 21.06400 27.01400
C  -8.74300 21.27900 23.72700
O  -8.58800 21.45800 22.47900
C  -9.50100 19.99200 24.17100
N  -5.49300 25.82000 24.02800
C  -6.11900 25.06000 23.14000
C  -5.94900 25.63300 21.71100
C  -5.14500 26.99100 21.92900
C  -4.94900 26.93900 23.46800
C  -5.26400 24.63700 20.79000
C  -5.88600 28.29200 21.50400
C  -5.40400 29.12400 20.32900
N  -4.30900 26.93700 26.48800
C  -3.68200 27.79700 25.59700
C  -2.76500 28.65700 26.31700
C  -2.90000 28.23400 27.71400
C  -3.87400 27.25700 27.73100
C  -2.01100 29.66500 25.73800
C  -2.56200 28.56700 29.01500
O  -1.87700 29.44200 29.48000
C  -3.34200 27.52800 29.93400
C  -2.26300 26.73300 30.63300
O  -1.33100 26.12300 30.05700
O  -2.45200 26.80900 32.01900
C  -1.38700 26.34700 32.90300
H  -7.66800 22.21000 28.76400
H  -7.52400 23.67100 22.47700
H  -3.47300 28.47400 23.59700
H  -4.51800 24.94700 31.22300
H  -7.26600 23.79800 30.63900
H  -6.22500 22.34600 31.74800
H  -4.54500 22.71200 31.13900
H  -5.59900 21.54500 30.27000
H  -7.32200 25.99600 31.34900
H  -6.15100 27.14400 30.74000
H  -6.82000 27.16500 33.08600
H  -5.12900 27.48000 32.75800
H  -8.83600 20.06100 27.07100
H  -10.29400 21.08200 26.66800
H  -9.33700 21.43400 28.03700
H  -9.74400 19.52400 23.21700
H  -10.41900 20.28500 24.68200
H  -8.92000 19.32300 24.80500
H  -6.91600 25.98900 21.35500
H  -4.20100 27.01800 21.38600
H  -5.91300 23.79400 20.55400
H  -4.35900 24.21400 21.22800
H  -5.03500 25.11500 19.83700
H  -5.80300 29.02600 22.30600
H  -6.96900 28.18800 21.43400
H  -5.09500 30.09300 20.72200
H  -6.25000 29.17700 19.64400
H  -4.51500 28.63500 19.92900
H  -2.38000 30.60500 26.14800
H  -2.03600 29.72900 24.65000
H  -1.06500 29.39100 26.20500
H  -4.03100 28.12100 30.53400
H  -0.73400 25.55200 32.54300
H  -1.96800 26.06700 33.78300
H  -0.90600 27.29700 33.13600

