158

Mg 35.17400 1.49200 29.50000
C  33.16300 3.00500 31.89900
C  37.78200 1.92900 31.55300
C  37.09800 0.81700 26.82100
C  32.48300 1.90500 27.19400
N  35.50400 2.42400 31.46800
C  34.47100 2.75800 32.30500
C  35.01700 2.78900 33.73800
C  36.53600 2.54800 33.60800
C  36.63000 2.24200 32.12100
C  37.38800 3.68200 34.05700
C  34.34100 1.77100 34.67400
C  33.87800 2.26500 36.06400
H  34.73000 3.13500 36.88800
N  37.23300 1.22300 29.28100
C  38.14900 1.47600 30.24200
C  39.47300 1.05000 29.72400
C  39.23300 0.83000 28.33900
C  37.78900 0.95800 28.08500
C  40.72800 1.00300 30.59900
C  40.26500 0.41300 27.23800
O  39.96400 0.25000 26.03900
C  41.73400 0.25400 27.52600
N  34.76200 1.22300 27.27300
C  35.70700 0.87500 26.44400
C  35.16400 0.54900 24.95400
C  33.64800 0.76600 25.06900
C  33.53200 1.19900 26.63000
C  35.85200 1.39200 23.82200
C  32.74000 -0.42000 24.78600
C  32.86000 -1.09800 23.43300
N  33.18800 2.13000 29.49000
C  32.31400 2.32500 28.50400
C  31.18200 3.08700 29.06300
C  31.43800 3.19600 30.42500
C  32.69600 2.69100 30.61900
C  30.00500 3.49300 28.30600
C  30.81700 3.65500 31.65900
O  29.72100 4.12200 31.80300
C  31.92100 3.33400 32.72400
C  32.06900 4.54000 33.59100
O  32.64900 5.54600 33.28800
O  31.30500 4.35700 34.71800
C  31.03500 5.60500 35.52800
H  38.60100 1.96100 32.27400
H  37.71500 0.34000 26.05500
H  31.77600 1.96000 26.36400
H  34.75000 3.78300 34.09800
H  36.91100 1.59600 33.98300
H  37.65000 4.23300 33.15400
H  38.19600 3.22800 34.63000
H  37.00300 4.28400 34.88000
H  34.97100 0.88800 34.78100
H  33.42800 1.39300 34.21500
H  33.77900 1.42700 36.75400
H  32.84400 2.60500 35.99800
H  41.38400 1.86600 30.47800
H  41.19500 0.02300 30.49700
H  40.43000 1.05400 31.64600
H  42.21200 -0.02500 26.58800
H  41.82700 -0.47200 28.33400
H  42.04800 1.20400 27.95800
H  35.34000 -0.48300 24.65100
H  33.38800 1.66600 24.51100
H  36.75700 0.85600 23.53800
H  36.17600 2.31600 24.30100
H  35.18300 1.63600 22.99700
H  31.76600 -0.05500 25.11200
H  33.04800 -1.14000 25.54500
H  31.93800 -1.54600 23.06100
H  33.50500 -1.97700 23.45200
H  33.24200 -0.43000 22.66200
H  30.37600 3.96600 27.39700
H  29.48700 4.29700 28.82800
H  29.32200 2.66700 28.10800
H  31.56500 2.42700 33.21200
H  31.19900 6.51100 34.94600
H  31.77600 5.70900 36.32000
H  30.08700 5.62500 36.06600
Mg -1.93500 34.78200 26.87900
C  -3.39500 32.77400 29.43500
C  -0.56400 36.61300 29.24300
C  -0.86000 36.88700 24.50400
C  -3.74000 33.02300 24.58500
N  -1.99700 34.67800 29.16200
C  -2.58500 33.81400 30.02100
C  -2.26300 34.04500 31.47600
C  -1.35900 35.33400 31.37900
C  -1.23800 35.54500 29.83900
C  -1.95300 36.67200 32.07700
C  -1.54000 32.87900 32.23200
C  -2.05700 32.55700 33.61700
H  -0.98900 32.43500 34.72000
N  -0.79400 36.58300 26.83900
C  -0.38100 37.19900 27.96000
C  0.48000 38.31400 27.57500
C  0.45200 38.35400 26.14100
C  -0.45900 37.22200 25.76900
C  1.15100 39.26900 28.61800
C  1.11500 39.20500 25.15100
O  1.05100 39.06400 23.92100
C  2.11100 40.21300 25.74400
N  -2.38100 34.96900 24.90900
C  -1.81200 35.92800 24.10600
C  -2.10800 35.78300 22.62700
C  -2.64200 34.30900 22.66700
C  -2.93200 34.06400 24.12700
C  -3.11700 36.85300 22.06000
C  -1.63400 33.26400 22.18900
C  -1.33400 33.18300 20.69900
N  -3.32700 33.22300 26.97300
C  -3.95400 32.63800 25.89700
C  -4.81200 31.52800 26.39800
C  -4.61700 31.54600 27.75300
C  -3.71700 32.60800 28.06200
C  -5.74600 30.61400 25.55000
C  -4.86000 30.82600 28.96700
O  -5.60500 29.87300 29.23100
C  -4.20300 31.65000 30.10000
C  -5.28800 32.10600 30.98400
O  -6.37500 32.55300 30.58500
O  -5.00300 31.88500 32.33500
C  -6.20300 31.73500 33.10700
H  -0.09400 37.22400 30.01700
H  -0.66400 37.58800 23.69000
H  -4.13000 32.53500 23.68900
H  -3.19100 34.30900 31.98300
H  -0.36000 35.03200 31.69400
H  -1.08800 37.14300 32.54500
H  -2.59400 36.24100 32.84600
H  -2.44300 37.43100 31.46700
H  -0.46000 32.99200 32.13600
H  -1.79700 31.98100 31.67000
H  -2.67600 31.66000 33.58800
H  -2.78800 33.29000 33.95900
H  2.19600 38.96600 28.68600
H  0.69000 38.99300 29.56700
H  0.99400 40.31800 28.36700
H  2.62400 40.60000 24.86400
H  2.86200 39.72700 26.36700
H  1.63800 41.11200 26.14000
H  -1.28500 36.00300 21.94600
H  -3.65200 34.10400 22.31100
H  -2.97300 37.83800 22.50400
H  -4.15600 36.52300 22.04800
H  -2.87200 36.95300 21.00300
H  -2.08600 32.31400 22.47500
H  -0.71200 33.40500 22.75300
H  -1.45500 32.15600 20.35300
H  -0.26200 33.30900 20.55500
H  -1.91400 33.82300 20.03500
H  -6.66100 31.19500 25.43700
H  -5.91800 29.61600 25.95300
H  -5.37500 30.46200 24.53700
H  -3.54000 30.97000 30.63500
H  -5.95200 32.20200 34.05900
H  -6.34100 30.67300 33.31100
H  -7.07500 32.30700 32.78900

