158

Mg -11.30300 38.28700 41.71100
C  -9.24400 35.43200 41.31700
C  -8.94900 40.11700 39.92200
C  -13.50400 40.59700 41.34600
C  -13.63700 36.15500 43.23700
N  -9.42100 37.74500 40.61100
C  -8.76400 36.56500 40.59300
C  -7.53100 36.66400 39.68000
C  -7.31100 38.19600 39.53300
C  -8.62900 38.71100 40.12200
C  -6.10500 38.83700 40.31200
C  -7.84100 35.95300 38.24100
C  -6.76200 35.06700 37.68100
H  -5.80300 35.73600 36.67500
N  -11.20700 40.14400 40.86900
C  -10.14900 40.80900 40.26100
C  -10.47100 42.11100 39.92300
C  -11.86500 42.21800 40.26400
C  -12.23700 40.96300 40.86500
C  -9.41600 43.04900 39.30200
C  -12.70900 43.49900 40.02700
O  -12.21500 44.58400 39.76800
C  -14.18700 43.58600 40.24800
N  -13.41200 38.35700 42.12700
C  -14.07700 39.49900 41.93100
C  -15.57100 39.41900 42.38800
C  -15.58700 37.88700 42.76000
C  -14.14200 37.40200 42.79100
C  -15.99400 40.53200 43.42700
C  -16.67500 37.06300 41.95200
C  -16.13300 36.33800 40.69800
N  -11.42200 36.21700 42.25000
C  -12.37800 35.52100 42.92300
C  -11.91700 34.23700 43.21800
C  -10.63200 34.13100 42.61500
C  -10.44200 35.32900 42.02300
C  -12.60400 33.17200 43.97300
C  -9.45500 33.27000 42.45500
O  -9.29500 32.05200 42.64900
C  -8.47400 34.16500 41.64300
C  -7.19400 34.24400 42.35800
O  -6.61700 33.22800 42.71400
O  -6.73200 35.52300 42.64400
C  -5.34500 35.70700 43.08000
H  -8.17500 40.70500 39.42500
H  -14.36500 41.26700 41.30700
H  -14.44200 35.53100 43.63100
H  -6.59400 36.23500 40.03700
H  -7.17100 38.51400 38.50000
H  -6.35000 39.83300 40.67900
H  -5.28700 38.94000 39.59900
H  -5.93900 38.12900 41.12500
H  -7.94700 36.79400 37.55600
H  -8.81600 35.46800 38.19600
H  -7.22100 34.13500 37.34900
H  -6.00000 34.78600 38.40700
H  -9.45100 42.77000 38.24900
H  -8.45400 42.94000 39.80200
H  -9.79200 44.06500 39.42300
H  -14.38800 43.54600 41.31800
H  -14.48400 42.66500 39.74700
H  -14.59800 44.47100 39.76000
H  -16.10900 39.64900 41.46800
H  -15.99300 37.72600 43.75800
H  -16.61500 41.14700 42.77500
H  -15.08700 41.05200 43.73500
H  -16.64500 40.17800 44.22600
H  -17.41300 37.72200 41.49500
H  -17.21300 36.37000 42.59800
H  -16.30700 35.28100 40.89900
H  -15.09600 36.57800 40.46500
H  -16.61600 36.58700 39.75300
H  -13.68900 33.25200 43.90900
H  -12.16000 33.35300 44.95200
H  -12.29200 32.17700 43.65800
H  -8.24600 33.64900 40.71000
H  -5.25700 36.72500 43.46100
H  -4.57900 35.55700 42.31900
H  -5.14700 34.98200 43.86900
Mg -1.46400 33.78300 26.98000
C  -3.48200 32.65800 29.59100
C  0.03000 35.91700 29.16700
C  -0.02100 35.39000 24.43600
C  -3.50500 32.03700 24.78200
N  -1.64200 34.16800 29.13400
C  -2.59500 33.60900 29.97600
C  -2.31300 33.93900 31.40300
C  -1.24900 35.13800 31.23100
C  -1.01500 35.19600 29.71600
C  -1.60700 36.47800 31.86100
C  -1.76000 32.71800 32.26100
C  -1.19800 33.15300 33.62500
H  -1.73900 32.59800 34.84000
N  -0.01000 35.28500 26.82300
C  0.54100 36.00700 27.83800
C  1.48800 36.89300 27.38500
C  1.47000 36.90600 25.96700
C  0.44600 35.87100 25.65600
C  2.34600 37.75800 28.36400
C  2.29500 37.60400 24.91700
O  2.20400 37.44700 23.75400
C  3.42100 38.48900 25.29700
N  -1.74800 33.70000 24.88400
C  -0.99500 34.45100 24.07300
C  -1.12800 34.05300 22.60100
C  -2.18000 32.89200 22.74200
C  -2.52300 32.85000 24.16100
C  -1.53700 35.20100 21.62300
C  -1.87200 31.51700 21.99700
C  -0.43700 31.08500 21.58900
N  -3.02200 32.52600 27.14800
C  -3.77700 31.92600 26.17500
C  -4.80500 31.07400 26.75200
C  -4.69400 31.36300 28.09400
C  -3.66900 32.26500 28.25900
C  -5.62800 30.05600 26.00000
C  -5.30800 30.93100 29.31600
O  -6.27200 30.18300 29.53500
C  -4.60000 31.85000 30.36200
C  -5.58700 32.69700 31.03900
O  -6.13000 33.70400 30.58900
O  -5.83500 32.20000 32.28800
C  -7.07300 32.68900 32.91000
H  0.48000 36.63900 29.85200
H  0.57600 35.75000 23.59500
H  -4.13900 31.49200 24.08000
H  -3.21500 34.40400 31.80100
H  -0.34000 34.85500 31.76200
H  -2.56100 36.50200 32.38700
H  -1.83200 37.20800 31.08400
H  -0.77500 36.84200 32.46400
H  -0.97100 32.28900 31.64400
H  -2.48200 31.93400 32.49000
H  -1.23000 34.24200 33.60200
H  -0.12200 32.97800 33.60200
H  2.33200 37.22700 29.31600
H  1.86700 38.72600 28.50800
H  3.37200 37.88700 28.02100
H  4.18400 37.89400 25.79900
H  3.01100 39.19600 26.01800
H  3.84400 39.04800 24.46200
H  -0.15200 33.78300 22.19800
H  -3.12000 33.26600 22.33800
H  -0.71100 35.37400 20.93300
H  -1.71300 36.11700 22.18700
H  -2.44100 35.01200 21.04400
H  -2.48300 31.59200 21.09800
H  -2.29800 30.72600 22.61300
H  0.33500 31.78700 21.90300
H  -0.36700 31.13100 20.50200
H  -0.23700 30.06000 21.90200
H  -6.54700 30.32900 25.48100
H  -5.68900 29.25200 26.73400
H  -5.05300 29.68700 25.15100
H  -4.14600 31.14400 31.05600
H  -7.63700 33.46200 32.38800
H  -6.70700 33.16100 33.82200
H  -7.57700 31.78800 33.26200

