158

Mg -2.46500 17.08100 27.19900
C  -2.75400 14.90600 29.92900
C  -2.97000 19.74300 29.25800
C  -2.28100 19.09300 24.41200
C  -2.14200 14.44400 25.11500
N  -2.88100 17.31400 29.37000
C  -2.97400 16.26300 30.30800
C  -3.03600 16.85600 31.72200
C  -3.31400 18.39400 31.38000
C  -3.14900 18.52600 29.86300
C  -4.69400 18.95200 31.97500
C  -1.74800 16.60900 32.55200
C  -1.50200 17.41800 33.87100
H  -1.25800 16.66100 35.26200
N  -2.51800 19.16800 26.85600
C  -2.71900 20.11700 27.89300
C  -2.72600 21.45500 27.30800
C  -2.48500 21.26100 25.86500
C  -2.37700 19.78500 25.64500
C  -3.04200 22.74300 27.97700
C  -2.19600 22.30500 24.78500
O  -2.02500 21.99800 23.60400
C  -2.24900 23.79200 25.12100
N  -2.34200 16.73900 25.09900
C  -2.26000 17.74400 24.18000
C  -2.23300 17.15700 22.70700
C  -1.91800 15.72100 22.97000
C  -2.18400 15.59500 24.47800
C  -3.60000 17.36100 21.96000
C  -0.47200 15.33200 22.65600
C  0.65700 15.92000 23.52500
N  -2.52800 15.12800 27.40700
C  -2.33700 14.14000 26.47200
C  -2.44700 12.82600 27.07300
C  -2.59800 13.07000 28.44700
C  -2.61100 14.51800 28.61000
C  -2.47500 11.45300 26.36500
C  -2.70800 12.43600 29.72100
O  -2.84200 11.28200 30.06900
C  -2.83300 13.58200 30.71800
C  -1.64300 13.36000 31.57400
O  -0.48500 13.58600 31.22100
O  -1.97100 12.87500 32.84900
C  -0.86700 12.58700 33.72300
H  -2.93100 20.61900 29.90900
H  -2.24600 19.63100 23.46300
H  -1.91400 13.58100 24.48600
H  -3.79700 16.23800 32.19900
H  -2.50500 19.04000 31.71900
H  -5.09000 18.08400 32.50200
H  -5.47800 19.34200 31.32600
H  -4.48200 19.70300 32.73600
H  -0.84000 16.48300 31.96200
H  -1.64100 15.60500 32.96500
H  -2.31000 18.14000 33.97900
H  -0.55100 17.94900 33.82900
H  -2.09000 23.25400 27.83200
H  -3.23900 22.67000 29.04600
H  -3.80500 23.28800 27.42200
H  -3.17400 24.23400 25.49300
H  -1.97700 24.28400 24.18800
H  -1.49000 24.05600 25.85800
H  -1.37500 17.53900 22.15500
H  -2.65400 15.07000 22.49700
H  -4.30000 17.99000 22.51100
H  -4.13100 16.42800 21.77200
H  -3.45800 17.77900 20.96400
H  -0.14200 15.59600 21.65200
H  -0.44600 14.24300 22.61600
H  1.07700 16.64500 22.82700
H  1.35500 15.15000 23.85500
H  0.41000 16.49400 24.41800
H  -1.75000 11.50700 25.55300
H  -3.48500 11.33500 25.97400
H  -2.18700 10.67500 27.07200
H  -3.78800 13.41100 31.21400
H  -1.17700 11.74400 34.33900
H  -0.57000 13.44600 34.32500
H  -0.01000 12.24700 33.14100
Mg 53.96100 24.37100 45.18200
C  51.28400 26.50200 44.30500
C  52.08900 21.77200 44.09700
C  56.67600 22.53100 45.46600
C  55.90400 27.22800 45.79400
N  52.01900 24.25900 44.12700
C  51.02900 25.17600 43.93900
C  49.73500 24.51800 43.54300
C  49.95500 23.01900 43.85400
C  51.43000 22.99700 44.11500
C  49.08300 22.38700 45.05900
C  49.41500 24.79700 42.05100
C  47.93500 24.72300 41.56900
H  47.79800 24.76600 40.05000
N  54.24300 22.41700 44.97700
C  53.39500 21.49800 44.50400
C  53.95100 20.13400 44.54200
C  55.29100 20.26300 45.01500
C  55.47900 21.79000 45.14200
C  53.19200 18.86300 44.24200
C  56.34600 19.16700 45.27100
O  56.11000 17.98800 44.99500
C  57.65200 19.47300 45.79400
N  56.03000 24.85600 45.43800
C  56.94600 23.86500 45.70800
C  58.35700 24.37100 45.80800
C  58.08200 25.91800 45.74300
C  56.53000 26.02200 45.71000
C  59.17300 23.94700 47.08100
C  58.85600 26.66500 44.61200
C  58.22600 26.69800 43.24700
N  53.72500 26.41300 45.08900
C  54.54500 27.45000 45.44300
C  53.79600 28.67100 45.34000
C  52.50200 28.29900 45.00200
C  52.55400 26.95200 44.72500
C  54.35800 30.05100 45.68900
C  51.17400 28.89600 44.78500
O  50.70700 30.06000 44.88500
C  50.37000 27.79000 44.16900
C  49.98200 28.20500 42.85500
O  50.77200 28.39400 41.93000
O  48.62800 28.38700 42.83500
C  48.06200 28.66900 41.55000
H  51.48500 20.92300 43.77000
H  57.58100 21.92300 45.53200
H  56.45900 28.16200 45.90600
H  48.97400 24.92100 44.21100
H  49.81100 22.33500 43.01700
H  49.67600 22.15200 45.94300
H  48.68700 21.41000 44.78300
H  48.24000 23.05000 45.25100
H  50.18600 24.17100 41.60200
H  49.75500 25.81700 41.86700
H  47.41200 25.59500 41.96000
H  47.34300 23.87300 41.90800
H  53.74100 17.92700 44.13800
H  52.58800 19.00200 43.34600
H  52.41000 18.78200 44.99800
H  57.99200 18.53100 46.22300
H  57.34100 20.09600 46.63300
H  58.22300 19.96300 45.00600
H  58.78300 24.02400 44.86700
H  58.45200 26.35800 46.66900
H  58.81800 22.96000 47.37700
H  59.06800 24.63200 47.92200
H  60.21800 23.73200 46.86100
H  59.73500 26.05000 44.41800
H  59.26500 27.61000 44.96800
H  58.82500 26.08100 42.57800
H  58.06200 27.69000 42.82500
H  57.21500 26.29900 43.33700
H  54.95000 30.37700 44.83400
H  54.93600 30.01900 46.61300
H  53.49000 30.70100 45.80100
H  49.52500 27.68400 44.85000
H  48.06800 29.71100 41.22900
H  47.00000 28.42600 41.53700
H  48.54800 28.05100 40.79500

