158

Mg 2.11100 -1.37200 46.42900
C  5.34000 -0.17300 45.45900
C  0.83900 1.07800 44.28900
C  -0.87900 -2.78200 46.70600
C  3.71500 -4.31700 47.51100
N  2.97000 0.25900 45.04500
C  4.28300 0.51400 44.88300
C  4.52500 1.64300 43.90800
C  3.03100 2.35200 43.87900
C  2.20500 1.20400 44.49100
C  2.75200 3.74000 44.65800
C  5.11100 1.25800 42.44800
C  6.33100 2.05500 41.97800
H  7.38100 1.31500 41.13800
N  0.21000 -0.82800 45.71500
C  -0.12500 0.11900 44.81500
C  -1.49700 0.18400 44.67300
C  -2.08300 -0.81200 45.46600
C  -0.94500 -1.50200 46.04600
C  -2.17200 1.12800 43.74200
C  -3.57800 -0.94600 45.67900
O  -4.49000 -0.21700 45.29600
C  -4.13200 -2.17900 46.42100
N  1.49400 -3.27100 46.88000
C  0.16900 -3.60100 46.99800
C  0.01600 -4.98700 47.70200
C  1.48900 -5.54300 47.58500
C  2.32500 -4.29200 47.30600
C  -0.34400 -4.91900 49.16500
C  1.72900 -6.47400 46.34800
C  1.46900 -7.96300 46.64000
N  4.15500 -2.02000 46.80600
C  4.65300 -3.25500 47.19100
C  6.01000 -3.24600 47.24100
C  6.34200 -1.98600 46.61400
C  5.18100 -1.38800 46.24100
C  6.78700 -4.43800 47.69800
C  7.41200 -1.13500 46.18800
O  8.65800 -1.23400 46.37600
C  6.79100 0.12400 45.46300
C  7.19800 1.41000 46.14200
O  6.93800 1.70300 47.29400
O  7.74900 2.22400 45.20000
C  8.17000 3.56100 45.73600
H  0.37700 1.92300 43.77400
H  -1.79700 -3.30300 46.98600
H  4.12400 -5.25700 47.88600
H  5.17700 2.38900 44.36200
H  2.75400 2.55800 42.84500
H  3.59900 3.96400 45.30600
H  1.78700 3.71400 45.16300
H  2.95900 4.51800 43.92200
H  4.36400 1.51400 41.69600
H  5.15800 0.16900 42.47600
H  6.79800 2.56400 42.82200
H  6.04300 2.91900 41.37900
H  -3.23000 0.97900 43.52900
H  -1.53500 1.16200 42.85800
H  -2.01100 2.15300 44.07900
H  -3.59100 -2.43900 47.33100
H  -4.12200 -3.04300 45.75600
H  -5.15800 -1.98900 46.73700
H  -0.72000 -5.54900 47.12900
H  1.80900 -5.99500 48.52400
H  -0.54400 -3.86500 49.35400
H  0.35200 -5.40500 49.84900
H  -1.32500 -5.35900 49.34600
H  2.61300 -6.38600 45.71600
H  0.93400 -6.20200 45.65400
H  2.35800 -8.59300 46.63600
H  0.90100 -8.42900 45.83500
H  0.98100 -8.14400 47.59800
H  7.25400 -4.84900 46.80200
H  6.25200 -5.19500 48.27000
H  7.49900 -4.08700 48.44500
H  7.15500 0.10700 44.43600
H  7.27200 4.02700 46.14200
H  8.59500 4.11600 44.89900
H  8.87900 3.39400 46.54600
Mg 10.11600 46.99400 26.31700
C  8.06400 47.26400 29.12700
C  12.50000 48.75300 27.88500
C  11.92000 46.86300 23.44600
C  7.34000 45.72600 24.56200
N  10.26300 47.81400 28.28800
C  9.40800 47.68400 29.36500
C  10.01000 48.34600 30.62100
C  11.25500 49.15000 30.05000
C  11.38000 48.51800 28.65700
C  11.04500 50.67300 29.81900
C  10.36700 47.21900 31.60700
C  10.11800 47.50900 33.07600
H  9.75400 46.28100 34.01200
N  11.96400 47.64000 25.80700
C  12.80400 48.33500 26.59500
C  14.09900 48.49000 25.90500
C  13.90700 47.95500 24.57600
C  12.53000 47.44700 24.55600
C  15.33900 49.01700 26.62500
C  15.00100 47.67400 23.54500
O  14.81000 46.96600 22.52800
C  16.35100 48.35000 23.65100
N  9.66600 46.45500 24.31900
C  10.61200 46.40800 23.39500
C  10.10500 45.76200 22.10700
C  8.66600 45.28700 22.53800
C  8.56600 45.84700 23.91400
C  10.15600 46.55000 20.79600
C  8.52300 43.70700 22.48700
C  9.55900 42.98400 23.41800
N  8.02200 46.57400 26.64300
C  7.02500 46.12100 25.81900
C  5.75200 46.10200 26.66600
C  6.17100 46.42700 27.92800
C  7.53300 46.75000 27.89400
C  4.35100 45.68800 26.24400
C  5.71400 46.56300 29.31100
O  4.61800 46.30900 29.78700
C  6.89300 47.10600 30.05700
C  7.15100 46.05000 31.12200
O  7.77200 45.01300 30.90400
O  6.39800 46.24500 32.26500
C  5.99000 45.13500 33.14900
H  13.24700 49.34300 28.42100
H  12.49000 46.66000 22.53700
H  6.50000 45.33800 23.98200
H  9.28000 48.95600 31.15200
H  12.16700 49.03100 30.63500
H  10.32900 50.72800 28.99900
H  11.94700 51.05800 29.34200
H  10.94300 51.20900 30.76300
H  11.45100 47.11100 31.63300
H  9.96600 46.25600 31.29300
H  9.35000 48.26400 33.24200
H  11.06100 47.82200 33.52500
H  15.00900 49.32200 27.61800
H  15.73200 49.91500 26.14800
H  16.03100 48.17500 26.63000
H  16.91000 48.03800 24.53300
H  16.06400 49.39900 23.57900
H  16.90700 48.20000 22.72500
H  10.76000 44.89900 21.98500
H  7.86900 45.70700 21.92500
H  9.25500 47.13400 20.60400
H  10.19500 45.91600 19.91000
H  10.98400 47.25400 20.71900
H  8.60700 43.42900 21.43600
H  7.56300 43.28500 22.78300
H  10.09100 43.69200 24.05300
H  10.33200 42.56600 22.77300
H  9.23600 42.09600 23.96100
H  3.97700 46.55000 25.69200
H  3.73100 45.59100 27.13500
H  4.33000 44.90300 25.48800
H  6.67300 48.05000 30.55600
H  6.17900 45.59100 34.12000
H  6.69600 44.30800 33.07000
H  4.91800 44.99300 33.01000

