158

Mg -2.20500 17.33600 25.98900
C  -2.61400 15.11200 28.58300
C  -2.77300 19.90900 28.09700
C  -2.02800 19.50100 23.29900
C  -1.84800 14.63600 23.80500
N  -2.64000 17.50900 28.08100
C  -2.77600 16.47900 28.96400
C  -3.27900 16.94100 30.35000
C  -3.21500 18.50700 30.16300
C  -2.89000 18.67300 28.68100
C  -4.46900 19.37900 30.61300
C  -2.47500 16.51900 31.58500
C  -2.60100 17.40700 32.85300
H  -2.70200 16.50800 34.10700
N  -2.34100 19.44900 25.75500
C  -2.64700 20.31000 26.74800
C  -2.55400 21.68900 26.28700
C  -2.09300 21.52800 24.92600
C  -2.18200 20.14600 24.64300
C  -2.87800 22.86500 27.19500
C  -1.67400 22.62300 24.00000
O  -1.32800 22.53000 22.82600
C  -1.58400 24.03600 24.49100
N  -2.16800 17.07300 23.80200
C  -2.00500 18.14600 22.94100
C  -1.86400 17.73400 21.50600
C  -1.59900 16.13300 21.69500
C  -1.83200 15.92600 23.22900
C  -3.05800 18.04200 20.59200
C  -0.20000 15.68700 21.23200
C  0.93400 15.75800 22.24200
N  -2.31200 15.27500 26.08900
C  -2.13200 14.28800 25.14400
C  -2.08600 13.02500 25.74300
C  -2.28800 13.25500 27.10800
C  -2.44300 14.65800 27.27800
C  -1.68900 11.69900 25.06700
C  -2.40500 12.62000 28.47100
O  -2.33300 11.45800 28.81000
C  -2.55200 13.84600 29.45300
C  -1.30600 13.85600 30.21800
O  -0.44300 14.72200 30.04600
O  -1.24400 12.81600 31.10100
C  -0.16700 12.89200 32.10800
H  -2.95100 20.66000 28.86900
H  -1.88100 20.21800 22.48800
H  -1.53800 13.86400 23.09700
H  -4.25500 16.53700 30.61900
H  -2.36300 18.91400 30.70700
H  -5.09600 19.59500 29.74800
H  -4.01300 20.27800 31.02600
H  -5.04800 18.85100 31.37000
H  -1.40800 16.43100 31.38100
H  -2.81200 15.49000 31.71200
H  -3.59600 17.85200 32.88600
H  -1.81700 18.16100 32.77200
H  -3.42000 23.61000 26.61200
H  -1.91500 23.20700 27.57600
H  -3.43900 22.63100 28.09900
H  -2.52100 24.59000 24.55400
H  -1.02300 24.62900 23.76900
H  -1.08800 23.93100 25.45600
H  -0.95000 18.21000 21.15100
H  -2.34500 15.46800 21.25900
H  -3.38600 17.11700 20.11800
H  -2.68300 18.67200 19.78400
H  -3.88400 18.50400 21.13300
H  0.15900 16.44200 20.53300
H  -0.25000 14.73900 20.69600
H  0.65200 16.20800 23.19400
H  1.87800 16.09400 21.81200
H  1.13400 14.72100 22.51300
H  -1.20100 11.80300 24.09800
H  -2.51100 11.04400 24.77800
H  -0.97600 11.27500 25.77500
H  -3.33700 13.79900 30.20900
H  -0.30900 13.71800 32.80500
H  0.74900 13.08800 31.55000
H  0.06800 12.00100 32.69000
Mg 7.01300 53.42800 41.25200
C  6.50400 49.75500 41.11400
C  10.11900 52.81900 40.34700
C  7.01400 56.53500 40.44900
C  3.67100 53.52500 42.40400
N  8.20300 51.35500 40.75700
C  7.82900 50.07000 40.74600
C  9.06600 49.14400 40.59200
C  10.24400 50.18300 40.52100
C  9.53800 51.60600 40.59500
C  11.37900 49.90700 41.57000
C  9.05900 48.08800 39.44500
C  8.78900 48.66600 38.05800
H  7.69700 48.17900 37.11800
N  8.32600 54.50700 40.40000
C  9.59300 54.09400 40.19100
C  10.40800 55.21100 39.85700
C  9.52400 56.30600 39.72600
C  8.22600 55.80700 40.14900
C  11.90800 55.20200 39.71600
C  9.93000 57.73600 39.27100
O  11.09800 57.97000 38.99700
C  8.87000 58.89200 39.18400
N  5.50600 54.82300 41.46400
C  5.78900 56.08000 41.09800
C  4.64200 57.03900 41.58500
C  3.65700 56.13400 42.40700
C  4.27500 54.78100 42.04500
C  5.25900 58.31700 42.28900
C  2.10200 56.18500 42.20300
C  1.36800 57.49000 42.52700
N  5.41400 52.04600 41.67700
C  4.13600 52.24400 42.18400
C  3.44900 50.95500 42.35300
C  4.34100 49.98600 41.93500
C  5.53500 50.71400 41.54700
C  2.14300 50.76100 43.01600
C  4.46500 48.50000 41.79600
O  3.66100 47.58200 42.04600
C  5.88100 48.30600 41.18700
C  5.61900 47.55400 39.95400
O  5.34700 48.08400 38.91000
O  5.52600 46.14600 40.20100
C  4.83200 45.42600 39.13000
H  11.19900 52.66000 40.32900
H  7.06800 57.60000 40.21800
H  2.69100 53.66700 42.86500
H  9.24100 48.58300 41.51000
H  10.72100 50.02100 39.55400
H  12.28200 49.41800 41.20500
H  10.95800 49.27100 42.34800
H  11.55900 50.84200 42.10100
H  8.28800 47.33800 39.62300
H  9.95300 47.46500 39.44400
H  9.76200 48.60600 37.57200
H  8.59500 49.73500 38.14700
H  12.26600 56.22700 39.80800
H  12.08800 54.79600 38.72100
H  12.47900 54.55400 40.38100
H  7.95000 58.56500 38.69800
H  9.07800 59.82400 38.66000
H  8.69200 59.10700 40.23700
H  4.14700 57.33300 40.66000
H  3.78600 56.24300 43.48400
H  5.23500 59.17400 41.61600
H  6.31200 58.20300 42.54700
H  4.63700 58.53900 43.15600
H  1.67100 55.49100 42.92400
H  1.87100 55.86700 41.18600
H  0.89200 57.32900 43.49400
H  0.71800 57.81000 41.71200
H  2.01700 58.33500 42.75900
H  1.39400 50.80400 42.22500
H  1.92900 51.56700 43.71800
H  2.22900 49.80700 43.53500
H  6.56100 47.75000 41.83300
H  4.98000 45.82400 38.12600
H  3.75900 45.39800 39.31900
H  5.32700 44.45900 39.03700

