158

Mg 1.74500 -1.77100 44.51400
C  5.13800 -1.19800 43.69000
C  0.91300 0.61700 42.30800
C  -1.42300 -2.88600 44.75000
C  2.91300 -4.50800 46.35200
N  2.90800 -0.53300 42.94000
C  4.28100 -0.46600 42.88300
C  4.60200 0.65900 41.88300
C  3.28900 1.41200 41.68100
C  2.29500 0.46200 42.29900
C  3.11000 2.82500 42.28500
C  5.38200 0.20700 40.63600
C  6.48300 1.11800 40.16200
H  7.04400 0.90900 38.72000
N  -0.00700 -1.22500 43.62800
C  -0.18600 -0.10300 42.82700
C  -1.59000 0.13200 42.64300
C  -2.24500 -0.90800 43.29600
C  -1.19000 -1.73800 43.91200
C  -2.21100 1.25800 41.88100
C  -3.69200 -0.96300 43.40800
O  -4.43500 -0.13100 42.86800
C  -4.47500 -1.96200 44.24900
N  0.91900 -3.49900 45.29300
C  -0.46800 -3.71300 45.30400
C  -0.77500 -4.83400 46.33400
C  0.61400 -5.49800 46.53200
C  1.58600 -4.42900 46.03000
C  -1.53300 -4.37700 47.63200
C  0.88700 -6.88000 45.84300
C  1.35500 -8.01100 46.71800
N  3.62000 -2.54000 45.16200
C  3.93900 -3.57500 45.96400
C  5.42000 -3.79200 46.06900
C  5.92800 -2.86200 45.24700
C  4.79000 -2.11500 44.64800
C  6.11500 -4.87000 46.72600
C  7.17200 -2.31000 44.67400
O  8.31600 -2.61100 44.89100
C  6.67600 -1.11600 43.73900
C  7.15100 0.16900 44.41000
O  6.61200 0.78500 45.28800
O  8.35100 0.52500 43.85400
C  8.96800 1.78400 44.31900
H  0.58600 1.50500 41.76300
H  -2.45200 -3.17000 44.98400
H  3.12200 -5.39700 46.95100
H  5.20000 1.44500 42.34500
H  3.08500 1.56400 40.62100
H  3.65700 3.68700 41.90500
H  3.35800 2.68100 43.33700
H  2.07700 3.07800 42.04700
H  4.68700 0.25700 39.79800
H  5.77800 -0.80400 40.72700
H  7.28900 1.01400 40.88800
H  6.11100 2.12800 40.33800
H  -2.76600 1.96600 42.49500
H  -2.92600 0.76600 41.22200
H  -1.41900 1.77800 41.34100
H  -5.51300 -1.89800 43.92200
H  -4.37300 -1.96300 45.33400
H  -4.31600 -2.98900 43.92100
H  -1.47800 -5.50500 45.83900
H  0.90900 -5.63300 47.57300
H  -1.09200 -4.72900 48.56500
H  -2.51100 -4.85400 47.57900
H  -1.59400 -3.31900 47.38000
H  1.58400 -6.81100 45.00800
H  -0.03700 -7.24400 45.39600
H  1.30500 -7.84500 47.79400
H  2.42600 -8.01500 46.51900
H  0.84000 -8.93200 46.44300
H  6.21600 -4.71500 47.80000
H  7.09100 -5.03200 46.26800
H  5.56300 -5.77900 46.48500
H  7.17500 -1.12700 42.76900
H  8.34000 2.58500 43.92900
H  9.88400 1.96100 43.75500
H  9.10700 1.98500 45.38200
Mg 26.19200 -0.27600 29.11600
C  27.85800 -0.65100 32.08100
C  23.17700 0.16600 30.83700
C  24.54100 -0.27900 26.14100
C  29.22600 -0.87600 27.34800
N  25.53100 -0.50300 31.18200
C  26.44900 -0.41200 32.21900
C  25.63200 -0.08100 33.57200
C  24.12900 0.19700 33.04500
C  24.27100 -0.08600 31.56700
C  23.04400 -0.72700 33.81700
C  26.15100 1.04500 34.54000
C  26.46800 0.47200 35.94800
H  27.30100 1.39900 36.82600
N  24.16500 -0.03100 28.60100
C  23.06700 0.16300 29.43900
C  21.84800 0.37200 28.63100
C  22.24600 0.27200 27.22200
C  23.70100 -0.00900 27.27500
C  20.48000 0.55300 29.28100
C  21.45600 0.33300 25.92700
O  21.90300 0.24900 24.79800
C  19.98100 0.49900 26.11200
N  26.81500 -0.49100 27.08900
C  25.95000 -0.52300 26.04100
C  26.60500 -0.90100 24.72200
C  28.10800 -0.66600 25.01800
C  28.07900 -0.66900 26.62500
C  26.22300 -2.34900 24.37300
C  28.74500 0.72400 24.61800
C  29.12300 0.86900 23.06500
N  28.08700 -0.70700 29.60700
C  29.21800 -0.92000 28.78500
C  30.31700 -1.22400 29.67300
C  29.89500 -1.06200 30.96500
C  28.51200 -0.83900 30.84600
C  31.71000 -1.52300 29.28900
C  30.24100 -0.97700 32.34000
O  31.33500 -1.00900 32.96700
C  28.95000 -0.70600 33.13300
C  28.72300 -1.93200 34.05700
O  28.43200 -3.08400 33.77000
O  29.10400 -1.55700 35.33500
C  29.14100 -2.70400 36.30700
H  22.36800 0.49800 31.49100
H  24.09400 -0.38700 25.15100
H  30.14300 -1.04400 26.78000
H  25.68200 -1.04500 34.07900
H  23.90400 1.26100 33.11700
H  22.47400 -1.37700 33.15200
H  22.30600 -0.19100 34.41400
H  23.64500 -1.37900 34.45100
H  25.46200 1.88900 34.57200
H  27.14500 1.29800 34.17200
H  26.88900 -0.52600 35.82500
H  25.47500 0.35700 36.38200
H  20.07900 1.54000 29.05400
H  20.65000 0.54900 30.35700
H  19.83000 -0.27800 29.00600
H  19.51000 0.58100 25.13200
H  19.84100 1.40100 26.70800
H  19.57400 -0.42600 26.52000
H  26.22200 -0.36700 23.85200
H  28.73400 -1.49800 24.69400
H  25.28600 -2.62200 24.85800
H  26.98500 -3.04800 24.71800
H  26.00100 -2.53400 23.32200
H  29.69900 0.99000 25.07400
H  27.99400 1.47600 24.86200
H  28.45900 1.55300 22.53700
H  28.92100 -0.08500 22.57900
H  30.13700 1.22300 22.87900
H  31.91200 -1.22100 28.26100
H  31.89300 -2.59700 29.27600
H  32.44300 -1.13700 29.99700
H  29.06900 0.17600 33.76200
H  28.37300 -2.58000 37.07100
H  30.11500 -2.83400 36.78000
H  28.99000 -3.69600 35.88100

