158

Mg 25.82000 -6.70000 47.54500
C  26.85500 -3.53400 46.33700
C  22.75000 -6.08400 46.15100
C  25.09300 -9.75000 48.52000
C  29.24100 -7.43100 48.29000
N  24.95400 -5.04600 46.24300
C  25.50100 -3.84500 45.98800
C  24.53100 -2.91400 45.19100
C  23.13300 -3.66500 45.44200
C  23.62300 -5.05400 45.93700
C  22.31900 -3.07300 46.61300
C  24.89500 -2.76800 43.65100
C  24.83000 -1.31700 43.05400
H  25.93900 -0.92400 42.11300
N  24.13300 -7.79900 47.33500
C  23.00000 -7.34200 46.70700
C  22.07500 -8.47400 46.78100
C  22.69800 -9.52100 47.47400
C  24.02200 -9.11100 47.71700
C  20.75600 -8.45100 46.07700
C  22.06400 -10.94100 47.77800
O  20.91100 -11.10800 47.62800
C  22.77800 -12.13700 48.38400
N  27.00000 -8.35200 48.22100
C  26.40700 -9.39100 48.78800
C  27.36800 -10.20400 49.59000
C  28.75000 -9.78800 49.15500
C  28.34600 -8.45800 48.54500
C  27.05200 -10.25600 51.13100
C  29.47100 -10.80400 48.22200
C  30.95400 -11.22500 48.48800
N  27.72300 -5.74000 47.29600
C  28.96500 -6.17100 47.70600
C  29.90800 -5.13800 47.43300
C  29.16800 -4.01900 46.87300
C  27.83100 -4.46900 46.84300
C  31.36300 -5.15800 47.93900
C  29.15400 -2.69500 46.41800
O  30.06300 -1.89300 46.24100
C  27.66100 -2.38600 45.91800
C  27.32500 -1.11200 46.63200
O  27.23600 -0.99000 47.85800
O  26.95800 -0.09200 45.79100
C  26.61100 1.17000 46.47200
H  21.73500 -5.83300 45.83700
H  24.87900 -10.80700 48.69600
H  30.27000 -7.60800 48.61100
H  24.51800 -1.93000 45.65900
H  22.48800 -3.70900 44.56400
H  22.42200 -3.63500 47.54100
H  21.28800 -3.19000 46.27900
H  22.43600 -2.01100 46.82800
H  24.18300 -3.36500 43.08100
H  25.86200 -3.25700 43.52800
H  24.65300 -0.54400 43.80200
H  23.92400 -1.32600 42.44900
H  20.67100 -7.70100 45.29100
H  20.06600 -8.04800 46.81800
H  20.45500 -9.43300 45.71100
H  23.56600 -12.40500 47.68000
H  22.13900 -13.01300 48.49400
H  23.19700 -11.93200 49.36900
H  27.23100 -11.23300 49.25600
H  29.40400 -9.61100 50.00900
H  26.50200 -9.37800 51.46900
H  27.94500 -10.36200 51.74800
H  26.27600 -11.01700 51.20900
H  29.35700 -10.57500 47.16300
H  28.94900 -11.75100 48.35600
H  30.94800 -12.09400 49.14600
H  31.30800 -10.34200 49.02200
H  31.45700 -11.43800 47.54500
H  32.06100 -4.77400 47.19600
H  31.67300 -6.17800 48.16700
H  31.56900 -4.54500 48.81700
H  27.64700 -2.30400 44.83100
H  25.58300 1.12300 46.83100
H  26.55100 1.93200 45.69400
H  27.31900 1.37400 47.27500
Mg 47.98200 15.91700 27.87500
C  45.97600 15.87200 30.71500
C  50.12200 18.13900 29.58500
C  49.76400 16.48600 24.96600
C  45.51300 14.35800 26.12400
N  47.99500 16.90000 29.89400
C  47.19300 16.57500 30.92500
C  47.58300 17.09900 32.27900
C  48.74400 17.99600 31.82500
C  49.00700 17.67800 30.37300
C  48.49500 19.55100 32.10400
C  48.10500 15.92400 33.26400
C  48.20400 16.30500 34.83100
H  47.44500 17.57800 35.27600
N  49.75300 17.02600 27.42300
C  50.48200 17.82500 28.23700
C  51.68800 18.19300 27.57600
C  51.71100 17.57200 26.24200
C  50.38500 16.95200 26.20500
C  52.79800 19.00500 28.24100
C  52.73200 17.54000 25.18500
O  52.59300 16.82700 24.20400
C  54.00400 18.16700 25.43800
N  47.71000 15.38400 25.88500
C  48.51300 15.88000 24.86400
C  47.91600 15.57100 23.50700
C  46.78300 14.55100 23.85000
C  46.63300 14.76000 25.40100
C  47.38400 16.89000 22.87200
C  47.03300 13.08200 23.59300
C  45.94700 12.37400 22.80600
N  46.13600 15.27500 28.26800
C  45.21600 14.64000 27.44800
C  44.04200 14.38000 28.23300
C  44.29900 14.80700 29.53700
C  45.58100 15.39400 29.46400
C  42.85100 13.76000 27.63600
C  43.78100 14.83200 30.79700
O  42.65700 14.42600 31.10400
C  44.86300 15.55600 31.67200
C  44.19200 16.71800 32.31200
O  44.04900 17.81500 31.82600
O  43.74900 16.33300 33.57400
C  42.93000 17.34100 34.24600
H  50.84900 18.71100 30.16500
H  50.28900 16.60100 24.01600
H  44.73000 13.95500 25.47900
H  46.79500 17.69700 32.73600
H  49.65500 17.76800 32.37800
H  47.58400 19.81500 32.64000
H  48.56200 20.07800 31.15200
H  49.23900 20.10600 32.67500
H  49.12400 15.65700 32.98300
H  47.44900 15.05500 33.22100
H  49.28800 16.25900 34.93300
H  47.73900 15.58900 35.50900
H  53.23100 19.68400 27.50600
H  53.63600 18.40700 28.60000
H  52.48000 19.50600 29.15600
H  54.46500 17.62400 26.26300
H  53.80100 19.23500 25.51200
H  54.62400 18.01600 24.55500
H  48.65500 15.14900 22.82500
H  45.89500 15.01000 23.41500
H  47.12600 16.59700 21.85500
H  48.07600 17.72800 22.94600
H  46.48000 17.16700 23.41600
H  47.24100 12.49700 24.48900
H  47.96300 12.97100 23.03400
H  45.97700 12.81800 21.81100
H  44.99700 12.51700 23.32100
H  46.16200 11.30800 22.73700
H  42.66600 13.96400 26.58200
H  41.95400 14.00500 28.20400
H  42.90500 12.68800 27.82600
H  45.21300 14.96600 32.51900
H  41.89900 17.35800 33.89200
H  43.38500 18.32400 34.12400
H  42.87700 17.18900 35.32500

