158

Mg 35.76300 1.22100 28.79300
C  33.77800 2.25600 31.50400
C  38.46100 1.24900 30.89000
C  37.68200 0.53200 26.16800
C  32.94000 1.55800 26.69000
N  36.01200 1.66600 30.92500
C  35.09500 1.97300 31.82100
C  35.68400 2.07900 33.21700
C  37.23800 1.99700 32.96400
C  37.25300 1.55800 31.49800
C  38.07900 3.28100 33.23400
C  35.04700 1.02800 34.18200
C  34.75500 1.65500 35.53900
H  35.97800 2.27000 36.27800
N  37.82900 0.88400 28.55000
C  38.72700 0.89200 29.53800
C  39.97700 0.57400 29.00400
C  39.79400 0.21900 27.63800
C  38.38800 0.59300 27.38100
C  41.27600 0.43300 29.86700
C  40.71700 -0.38600 26.54900
O  40.34400 -0.75100 25.44900
C  42.12800 -0.75800 26.96900
N  35.32200 0.90400 26.71900
C  36.35400 0.82500 25.79500
C  35.77100 0.77700 24.29200
C  34.26600 0.99600 24.48300
C  34.19000 1.14400 26.05800
C  36.40000 1.87400 23.34900
C  33.27000 0.00600 24.02100
C  33.54300 -0.73700 22.62800
N  33.80000 1.69000 29.01400
C  32.78000 1.83000 28.07600
C  31.58400 2.39300 28.65800
C  31.93700 2.50800 30.00800
C  33.30600 2.10100 30.17100
C  30.30700 2.64700 27.96300
C  31.37800 2.91500 31.32100
O  30.23800 3.25500 31.66900
C  32.54000 2.76300 32.35100
C  32.80900 4.08200 32.89700
O  33.31600 5.09300 32.28200
O  32.45000 4.10600 34.23400
C  32.66500 5.43700 34.88400
H  39.35700 1.16900 31.51000
H  38.27700 0.33500 25.27300
H  32.08900 1.84500 26.06900
H  35.45700 3.02700 33.70500
H  37.66800 1.15500 33.50600
H  38.67500 3.56800 32.36800
H  38.83700 3.09900 33.99600
H  37.56500 4.18700 33.55400
H  35.70000 0.16800 34.32900
H  34.16900 0.52900 33.77200
H  34.24300 0.96800 36.21300
H  34.07600 2.49100 35.36700
H  41.16400 0.74700 30.90500
H  42.09300 1.04300 29.48300
H  41.57000 -0.61600 29.90000
H  42.74900 -1.23100 26.20800
H  41.91700 -1.47000 27.76700
H  42.56800 0.20000 27.24700
H  35.87200 -0.22700 23.88100
H  34.02600 1.99300 24.11300
H  37.10300 1.33700 22.71300
H  36.92000 2.62700 23.94100
H  35.61400 2.25300 22.69500
H  32.29700 0.49800 24.03000
H  33.18400 -0.78600 24.76400
H  33.71800 -1.81200 22.69100
H  34.46400 -0.32300 22.21700
H  32.76800 -0.52500 21.89200
H  29.85600 1.76300 27.51200
H  30.53600 3.41900 27.22900
H  29.61200 3.12100 28.65600
H  32.15700 2.14700 33.16500
H  32.25300 6.18400 34.20500
H  33.72600 5.49500 35.12400
H  32.09700 5.43800 35.81500
Mg 0.30800 43.09200 26.53100
C  2.60700 43.09400 29.06300
C  -2.20400 42.51000 28.65200
C  -1.73400 42.33400 23.94600
C  3.02500 43.31500 24.22100
N  0.30300 42.75100 28.59800
C  1.30000 42.91800 29.53300
C  0.78100 42.89300 30.97100
C  -0.64500 42.36100 30.76600
C  -0.90800 42.47000 29.23300
C  -0.79400 40.89300 31.42700
C  0.75000 44.33100 31.61700
C  1.22100 44.26500 33.03800
H  0.87300 42.97100 33.77400
N  -1.70700 42.59400 26.30500
C  -2.61800 42.59300 27.33600
C  -3.93500 42.51000 26.75900
C  -3.80300 42.44100 25.37100
C  -2.34500 42.40000 25.14500
C  -5.20700 42.34500 27.53500
C  -4.81000 42.44200 24.22200
O  -4.52000 42.39500 23.01900
C  -6.23800 42.57300 24.51000
N  0.64300 42.56600 24.35300
C  -0.41100 42.31800 23.54900
C  0.04800 42.17900 22.13600
C  1.57500 42.65500 22.15500
C  1.77500 42.84400 23.65900
C  -0.07100 40.67200 21.62700
C  1.81800 44.06500 21.46800
C  1.26300 45.31100 22.20000
N  2.37400 43.32900 26.57600
C  3.38300 43.38100 25.57400
C  4.67200 43.54600 26.20900
C  4.39900 43.42900 27.62100
C  3.00600 43.34500 27.74600
C  5.96700 43.69200 25.53000
C  5.02000 43.36300 28.94900
O  6.19300 43.44000 29.26800
C  3.87700 43.26700 29.95300
C  4.10500 42.03300 30.81700
O  4.21700 40.90000 30.45600
O  4.05200 42.40000 32.16200
C  4.38700 41.36000 33.08400
H  -3.05700 42.26900 29.29000
H  -2.37100 41.91100 23.16600
H  3.90100 43.35800 23.57000
H  1.37400 42.14700 31.49900
H  -1.40200 43.03300 31.17100
H  -1.19800 40.19900 30.69000
H  -1.57900 41.05500 32.16500
H  0.10500 40.37100 31.75600
H  -0.27800 44.69000 31.66800
H  1.33500 45.03300 31.02200
H  0.77300 45.06300 33.63000
H  2.31000 44.30000 33.03700
H  -5.65200 41.36700 27.35500
H  -5.96400 43.06700 27.23000
H  -5.01200 42.35000 28.60800
H  -6.58900 42.06500 25.40900
H  -6.93400 42.25400 23.73400
H  -6.49400 43.62100 24.66400
H  -0.49700 42.70400 21.35200
H  2.26400 41.93600 21.71200
H  0.89500 40.24900 21.90300
H  -0.07500 40.83200 20.54900
H  -0.95600 40.17000 22.01800
H  1.32300 44.07100 20.49700
H  2.87200 44.31500 21.34800
H  0.95300 46.14400 21.56800
H  2.05300 45.56900 22.90500
H  0.49700 44.86900 22.83800
H  5.96300 43.55700 24.44800
H  6.69100 43.02600 25.99800
H  6.34300 44.70900 25.64600
H  3.82500 44.10800 30.64400
H  3.84000 40.41700 33.07200
H  4.27800 41.77600 34.08600
H  5.46400 41.30500 32.92400

