158

Mg 10.14600 47.73500 24.53400
C  7.62800 48.40500 26.77900
C  12.42900 48.90400 26.86900
C  12.43900 47.06000 22.27000
C  7.57000 46.97300 22.06500
N  9.99500 48.45600 26.61400
C  8.87600 48.59900 27.35100
C  9.23700 48.84300 28.82400
C  10.68500 49.43400 28.70300
C  11.08800 48.83200 27.31400
C  10.67200 50.92300 28.66600
C  9.26400 47.54700 29.70200
C  8.95200 47.81200 31.18300
H  8.45800 46.67100 32.01400
N  12.13500 47.87200 24.58000
C  12.88800 48.43700 25.56400
C  14.30600 48.33900 25.18100
C  14.37400 47.70600 23.88600
C  12.94800 47.55000 23.51800
C  15.47200 48.78400 26.14000
C  15.58600 47.28900 23.06400
O  15.49500 46.98000 21.93500
C  16.93200 47.36600 23.71200
N  9.98300 47.01800 22.52400
C  11.17100 46.70800 21.79900
C  10.87500 46.05000 20.39300
C  9.33200 46.03200 20.44300
C  8.91100 46.76400 21.72500
C  11.36600 46.92000 19.20100
C  8.70100 44.57300 20.32000
C  8.64000 43.75300 21.67100
N  8.03000 47.60400 24.40500
C  7.09000 47.37800 23.34700
C  5.75700 47.62900 23.83000
C  5.92100 48.06500 25.16800
C  7.29100 48.06700 25.48300
C  4.49700 47.48800 23.03400
C  5.27200 48.56800 26.36000
O  4.07000 48.83800 26.55100
C  6.34600 48.79100 27.42300
C  5.90500 47.95700 28.53400
O  5.96200 46.71600 28.60400
O  5.32000 48.75700 29.54400
C  4.74900 47.95100 30.64300
H  13.07100 49.32000 27.64700
H  13.20200 46.82900 21.52400
H  6.89300 46.80800 21.22400
H  8.45100 49.51200 29.17400
H  11.42200 49.02700 29.39600
H  11.67400 51.22700 28.96800
H  9.90500 51.34000 29.31900
H  10.50100 51.31300 27.66300
H  10.26100 47.11100 29.76800
H  8.63200 46.73200 29.35100
H  8.28300 48.64400 31.40500
H  9.95600 47.91200 31.59300
H  16.15900 47.94800 26.27000
H  15.12900 48.94000 27.16300
H  16.08300 49.59400 25.74200
H  17.32900 48.28000 24.15400
H  17.66000 47.03300 22.97300
H  17.02800 46.52600 24.40100
H  11.20000 45.01900 20.25500
H  8.93600 46.47100 19.52700
H  11.59900 47.93900 19.51000
H  10.63900 47.02900 18.39700
H  12.31500 46.51800 18.84600
H  9.27400 44.07200 19.54000
H  7.72200 44.84900 19.92700
H  9.22700 44.17500 22.48600
H  9.09900 42.80200 21.40200
H  7.62400 43.52800 21.99700
H  4.09000 46.48000 23.12100
H  4.67100 47.65100 21.97000
H  3.71500 48.13800 23.42600
H  6.27900 49.86800 27.57800
H  5.48800 47.46700 31.28200
H  4.05800 47.17000 30.32700
H  4.25000 48.59600 31.36700
Mg 1.11600 43.73300 25.65100
C  3.19700 43.38000 28.45200
C  -1.59300 43.06600 27.72000
C  -0.89800 43.36000 22.98700
C  3.97300 43.39500 23.56100
N  0.90100 43.28800 27.85100
C  1.85100 43.32900 28.83000
C  1.33800 43.11200 30.19300
C  -0.19100 42.74500 29.92500
C  -0.35000 43.01400 28.37700
C  -0.50600 41.31100 30.29600
C  1.49400 44.36300 31.21800
C  1.67300 43.94200 32.72900
H  1.21000 42.49700 33.11900
N  -0.98300 43.61100 25.41700
C  -1.89400 43.39000 26.39500
C  -3.19600 43.50400 25.79900
C  -2.97100 43.50800 24.40600
C  -1.57800 43.48700 24.22700
C  -4.52200 43.53800 26.60100
C  -4.03200 43.42600 23.33000
O  -3.77500 43.52700 22.15500
C  -5.46600 43.24300 23.68000
N  1.56200 43.50800 23.59600
C  0.50500 43.28600 22.74700
C  1.00500 42.88900 21.31100
C  2.48400 43.34500 21.42000
C  2.74200 43.39100 22.96200
C  0.75700 41.40200 20.88000
C  2.82000 44.73500 20.75500
C  4.00700 44.69700 19.75600
N  3.11100 43.46800 25.88900
C  4.13000 43.48100 24.95500
C  5.40800 43.39700 25.62600
C  5.03700 43.40800 26.96100
C  3.66300 43.43700 27.11500
C  6.78900 43.57600 25.11200
C  5.65300 43.48000 28.32600
O  6.80600 43.64600 28.67400
C  4.45300 43.42100 29.30200
C  4.63200 42.22600 30.11500
O  4.48700 41.08100 29.78300
O  5.21900 42.71500 31.29000
C  5.74500 41.68800 32.22200
H  -2.42900 42.97600 28.41600
H  -1.52600 43.36600 22.09400
H  4.74500 43.19800 22.81400
H  1.90500 42.29900 30.64600
H  -0.86900 43.41800 30.44900
H  0.37200 40.86300 30.76300
H  -0.75100 40.84800 29.34100
H  -1.37500 41.27800 30.95400
H  0.56000 44.91500 31.10700
H  2.28800 45.02800 30.88100
H  1.04400 44.50900 33.41600
H  2.66800 44.25300 33.04600
H  -4.78800 44.59200 26.68200
H  -4.20200 43.12800 27.55900
H  -5.36100 42.91900 26.28200
H  -6.00600 43.11800 22.74100
H  -5.77600 44.19700 24.10600
H  -5.62100 42.32200 24.24100
H  0.41000 43.44800 20.58900
H  3.25500 42.61600 21.17100
H  1.62700 40.99900 20.36200
H  -0.04500 41.38400 20.14300
H  0.51400 40.78400 21.74500
H  2.85200 45.46300 21.56600
H  1.90600 45.00100 20.22300
H  4.47500 45.68200 19.76300
H  3.75800 44.71200 18.69500
H  4.81900 44.02300 20.03000
H  7.27700 44.23600 25.83000
H  6.92100 44.12300 24.17800
H  7.39100 42.66700 25.12100
H  4.44300 44.28900 29.96000
H  6.80600 41.74500 32.46400
H  5.62100 40.65100 31.90900
H  5.26700 41.68500 33.20100

