158

Mg -2.15300 16.66000 26.04300
C  -2.70700 14.44300 28.83500
C  -2.98400 19.29000 28.25400
C  -2.13800 18.68500 23.50300
C  -1.90800 13.91000 23.92500
N  -2.90800 16.77700 28.31200
C  -2.91900 15.76100 29.23800
C  -3.44300 16.29200 30.49900
C  -3.62300 17.84600 30.24500
C  -3.08600 17.99300 28.85400
C  -5.07200 18.38200 30.41700
C  -2.63700 16.07800 31.82600
C  -3.50200 15.79500 33.08500
H  -2.87400 14.99800 34.20900
N  -2.38000 18.78400 25.89700
C  -2.65000 19.73500 26.87000
C  -2.60200 21.04000 26.26400
C  -2.40900 20.82500 24.91400
C  -2.35200 19.38100 24.69900
C  -2.72800 22.23400 27.05300
C  -2.38300 21.87300 23.79200
O  -2.31800 21.56700 22.64500
C  -2.15400 23.28600 24.12700
N  -2.13100 16.26000 23.96600
C  -1.95700 17.30200 23.18300
C  -1.78500 16.90900 21.70400
C  -1.41500 15.33200 21.85800
C  -1.81900 15.12700 23.33500
C  -3.06000 17.20600 20.86600
C  0.09500 14.92900 21.55000
C  1.16600 15.71900 22.32200
N  -2.20800 14.57400 26.27900
C  -2.12700 13.57700 25.30200
C  -2.21400 12.29500 25.90700
C  -2.46100 12.61100 27.24500
C  -2.47600 13.97700 27.46800
C  -2.08400 10.96000 25.30400
C  -2.68300 11.97400 28.56500
O  -2.82600 10.80000 28.80400
C  -2.94100 13.03500 29.54200
C  -1.82200 12.78900 30.55100
O  -0.64000 13.03000 30.30700
O  -2.33600 12.33800 31.73900
C  -1.27500 11.71300 32.57600
H  -3.27400 20.15600 28.85200
H  -2.36200 19.36700 22.68100
H  -1.50000 13.03400 23.41600
H  -4.39500 15.79000 30.67200
H  -3.03700 18.40700 30.97300
H  -5.31600 19.14000 29.67200
H  -5.07700 18.84000 31.40600
H  -5.88100 17.65200 30.39500
H  -2.06300 16.94800 32.14400
H  -1.87300 15.33600 31.59000
H  -4.42000 15.31700 32.74400
H  -3.73700 16.77800 33.49200
H  -3.54700 22.81800 26.63400
H  -1.79100 22.77300 26.91900
H  -3.02900 21.97100 28.06700
H  -3.04800 23.77700 24.51100
H  -2.05000 23.74200 23.14200
H  -1.30300 23.40400 24.79700
H  -0.90300 17.35600 21.24500
H  -1.95100 14.72300 21.13000
H  -3.69900 17.93800 21.36000
H  -3.70700 16.39400 20.53300
H  -2.76600 17.84700 20.03500
H  0.32100 14.93500 20.48400
H  0.28200 13.90200 21.86700
H  1.62900 14.92000 22.90100
H  0.67000 16.51300 22.88100
H  1.94500 16.23700 21.76300
H  -2.96300 10.39200 25.00000
H  -1.51400 10.27800 25.93500
H  -1.36100 11.13800 24.50800
H  -3.87300 12.77400 30.04500
H  -0.55200 12.46100 32.90300
H  -0.74700 10.83900 32.19400
H  -1.73100 11.39600 33.51400
Mg 35.74600 1.28300 29.70700
C  33.41500 2.51100 32.03800
C  38.18800 1.44400 32.24200
C  38.07800 0.76600 27.44300
C  33.35000 1.53300 27.25500
N  35.80900 1.84600 31.77900
C  34.70200 2.23700 32.59500
C  35.12100 2.44800 34.07900
C  36.67800 2.26400 34.07000
C  36.91000 1.82900 32.55600
C  37.41000 3.56300 34.35700
C  34.30300 1.46300 35.00400
C  33.75600 1.97700 36.32000
H  34.47100 3.16200 36.99000
N  37.75200 1.04700 29.82400
C  38.58100 1.02400 30.94900
C  39.96600 0.62000 30.59500
C  39.94300 0.42900 29.18200
C  38.54600 0.76800 28.75600
C  41.03700 0.21700 31.58900
C  41.06500 -0.03700 28.28000
O  40.94900 0.07300 27.05300
C  42.43500 -0.46700 28.82200
N  35.73100 1.28200 27.58600
C  36.77300 0.95500 26.88500
C  36.51800 0.84500 25.37400
C  34.94900 0.93700 25.37500
C  34.65900 1.24800 26.80500
C  37.32100 1.99700 24.61900
C  34.27200 -0.35600 24.85200
C  33.34500 -0.20500 23.70300
N  33.81800 1.85400 29.55900
C  32.89100 1.82100 28.55000
C  31.58100 2.27300 29.02200
C  31.73400 2.55400 30.41200
C  33.07400 2.24800 30.68000
C  30.31100 2.37300 28.22300
C  31.07700 3.07200 31.61100
O  29.91000 3.44200 31.83400
C  32.16200 3.04300 32.74200
C  32.15400 4.40500 33.32500
O  32.93500 5.28800 33.07700
O  31.18600 4.41100 34.30700
C  31.33000 5.32200 35.42200
H  38.95200 1.58100 33.01000
H  38.77800 0.64400 26.61300
H  32.62500 1.55900 26.43800
H  34.73500 3.45200 34.25800
H  37.08300 1.55900 34.79600
H  36.66700 4.26800 34.72800
H  37.98800 3.93800 33.51100
H  38.11100 3.26700 35.13800
H  34.88000 0.56900 35.24300
H  33.48400 1.09200 34.38800
H  33.58400 1.22400 37.08900
H  32.77400 2.36800 36.05300
H  41.45400 -0.75900 31.33800
H  40.64700 0.04400 32.59200
H  41.87200 0.90800 31.71000
H  42.77000 0.32900 29.48600
H  43.15900 -0.54500 28.01000
H  42.28900 -1.48400 29.18600
H  36.78800 -0.14700 25.01300
H  34.51900 1.71100 24.73900
H  36.59400 2.77200 24.37600
H  37.96600 1.61700 23.82600
H  37.97600 2.44300 25.36700
H  33.58600 -0.74200 25.60600
H  35.01300 -1.12100 24.62100
H  33.45800 -1.15300 23.17700
H  33.58400 0.59000 22.99700
H  32.30100 -0.31700 23.99600
H  29.71200 3.14400 28.70800
H  29.72300 1.46100 28.32800
H  30.50800 2.66300 27.19100
H  31.91100 2.35500 33.54900
H  30.43100 5.93600 35.37300
H  32.23800 5.90100 35.25400
H  31.43900 4.77200 36.35600

