158

Mg 0.75700 7.96200 27.40500
C  1.44000 10.28300 29.92500
C  0.80100 5.40300 29.67900
C  0.11200 5.69300 24.95600
C  1.08500 10.51300 25.10900
N  1.08500 7.87000 29.52400
C  1.17400 8.92100 30.38200
C  1.15600 8.40700 31.84800
C  1.10600 6.82700 31.70800
C  1.08200 6.66500 30.19400
C  2.35700 6.05700 32.22800
C  -0.03400 9.06300 32.62300
C  -0.14900 8.82300 34.14100
H  0.96400 8.19400 34.96700
N  0.46500 5.92200 27.34000
C  0.61600 4.97000 28.38200
C  0.36000 3.62400 27.89600
C  0.06000 3.70400 26.54100
C  0.16800 5.17000 26.21000
C  0.28100 2.42300 28.83600
C  -0.30800 2.58300 25.50600
O  -0.74500 2.79400 24.40700
C  -0.29600 1.16500 25.86300
N  0.67400 8.12800 25.32900
C  0.31100 7.05600 24.55600
C  0.07300 7.46800 23.08500
C  0.42800 8.99300 23.14000
C  0.75200 9.26700 24.64600
C  0.97600 6.62400 22.08200
C  -0.57600 10.02700 22.50500
C  0.01800 10.98200 21.46900
N  1.35100 9.93600 27.41800
C  1.41100 10.86000 26.40900
C  1.83100 12.16300 26.94100
C  1.92400 11.95000 28.30300
C  1.53900 10.60600 28.58300
C  2.13300 13.41700 26.16000
C  2.34200 12.59900 29.59900
O  2.71800 13.76000 29.77800
C  2.00900 11.44600 30.69100
C  3.23600 11.14700 31.48100
O  4.20800 10.44800 31.12400
O  3.14600 11.70300 32.69200
C  4.21100 11.52400 33.65000
H  0.63400 4.63900 30.44000
H  -0.02800 4.91600 24.20100
H  1.00300 11.35700 24.42000
H  2.14400 8.70800 32.19900
H  0.18900 6.35900 32.06600
H  2.43900 5.07400 31.76600
H  2.22000 5.98700 33.30700
H  3.26400 6.64900 32.10900
H  -0.93500 8.71800 32.11500
H  -0.17000 10.10600 32.33300
H  -1.08100 8.30700 34.37300
H  -0.12300 9.82600 34.56900
H  -0.72500 2.00400 28.83100
H  0.40100 2.72500 29.87700
H  0.92900 1.57200 28.62500
H  0.55400 0.88900 26.48800
H  -0.05900 0.66400 24.92400
H  -1.22200 0.79700 26.30500
H  -0.99800 7.33600 22.93300
H  1.38000 9.06700 22.61500
H  1.18600 7.17100 21.16300
H  0.22800 5.84500 21.93400
H  1.92900 6.24900 22.45600
H  -0.86600 10.60700 23.38200
H  -1.48400 9.62400 22.05700
H  -0.75900 11.29900 20.77300
H  0.94900 10.58900 21.06300
H  0.41200 11.91500 21.87200
H  1.15900 13.71500 25.76900
H  2.83200 13.34300 25.32700
H  2.47700 14.23700 26.79100
H  1.23600 11.73600 31.40400
H  5.00700 10.80600 33.45000
H  3.63300 11.19700 34.51500
H  4.67200 12.48600 33.87200
Mg 48.48300 34.77000 26.53500
C  46.60400 33.58300 29.19400
C  48.96500 37.62900 28.28500
C  50.17200 36.04300 23.84900
C  47.84300 31.88300 24.75500
N  47.92300 35.39700 28.56200
C  47.14100 34.82900 29.48700
C  46.86200 35.72900 30.74500
C  47.47500 37.10200 30.28800
C  48.19300 36.70500 28.98200
C  46.55200 38.30200 30.02800
C  47.35000 35.07900 32.05400
C  47.89300 35.89800 33.25900
H  47.01300 36.37800 34.36600
N  49.51800 36.58400 26.13300
C  49.60500 37.60000 27.03900
C  50.52200 38.59000 26.52200
C  50.98200 38.08100 25.24000
C  50.24100 36.87100 25.05900
C  50.91600 39.81100 27.29300
C  51.93600 38.62000 24.34500
O  52.32000 38.01600 23.33600
C  52.70900 39.97800 24.64600
N  48.78500 34.14700 24.56400
C  49.50200 34.89000 23.62400
C  50.02400 33.99500 22.45800
C  49.36200 32.58800 22.81500
C  48.60600 32.86600 24.12200
C  49.70600 34.58000 21.09800
C  50.41900 31.43800 22.95300
C  50.34500 30.29100 21.90900
N  47.46500 33.04500 26.88000
C  47.22900 31.92600 26.05100
C  46.43300 30.92500 26.87500
C  46.13200 31.60000 28.08200
C  46.78900 32.83200 28.04900
C  46.06200 29.60500 26.35700
C  45.39100 31.47800 29.32900
O  44.69700 30.57300 29.78900
C  45.54900 32.90800 30.04000
C  45.85000 32.46200 31.44800
O  46.78500 31.67000 31.67200
O  44.87900 32.87700 32.33900
C  44.83600 31.95800 33.53300
H  49.00100 38.58800 28.80800
H  50.82300 36.34100 23.02400
H  47.89500 30.91900 24.24500
H  45.78900 35.89900 30.82800
H  48.14400 37.50000 31.05100
H  45.61700 38.29300 30.58800
H  46.31200 38.28800 28.96500
H  47.09600 39.24300 30.11600
H  47.99700 34.21400 31.91000
H  46.49600 34.69500 32.61100
H  48.33500 36.85700 32.99100
H  48.76500 35.37500 33.65200
H  51.99200 39.80200 27.46700
H  50.36000 40.02200 28.20700
H  50.78800 40.72200 26.70900
H  51.90800 40.71400 24.71800
H  53.36100 40.18600 23.79700
H  53.34500 39.87200 25.52500
H  51.08300 33.80500 22.63200
H  48.51400 32.42400 22.15000
H  49.40100 33.71300 20.51200
H  50.49800 35.08600 20.54800
H  48.79500 35.17800 21.07100
H  50.31400 31.19600 24.01100
H  51.44300 31.81200 22.96300
H  51.15400 30.34400 21.18100
H  49.40200 30.30300 21.36300
H  50.40900 29.30800 22.37500
H  45.77800 29.68200 25.30700
H  45.24900 29.08000 26.85700
H  47.00100 29.05300 26.41300
H  44.64700 33.50000 30.19800
H  45.47500 32.41600 34.28900
H  45.10400 30.96300 33.17800
H  43.83200 31.93700 33.95600

