158

Mg 53.63000 25.99300 44.60600
C  50.95000 28.14800 44.41400
C  51.43800 23.41500 43.75600
C  56.27200 23.92000 44.21900
C  55.62500 28.69200 45.10000
N  51.40200 25.82300 44.15400
C  50.53100 26.81500 44.12300
C  49.12800 26.39200 43.55500
C  49.27400 24.84100 43.88000
C  50.81800 24.63300 43.85000
C  48.54300 24.26800 45.08300
C  48.86700 26.69400 42.04600
C  50.08500 26.97200 41.07500
H  50.36900 26.01700 39.92200
N  53.81400 23.89900 44.12800
C  52.82100 22.98800 43.89400
C  53.40200 21.68200 43.55100
C  54.86100 21.81800 43.75400
C  55.01800 23.25900 44.06200
C  52.58700 20.52000 43.21000
C  55.93200 20.62900 43.72800
O  55.57500 19.48100 43.43400
C  57.38800 20.87300 44.12000
N  55.70400 26.32500 44.50300
C  56.58000 25.27100 44.39500
C  58.00300 25.78600 44.34600
C  57.83300 27.28900 44.72000
C  56.28600 27.49500 44.79000
C  59.12400 25.06600 45.24100
C  58.58000 28.52200 43.95700
C  59.26100 29.60500 44.82300
N  53.36600 27.97200 44.91400
C  54.26700 28.95300 45.22200
C  53.61300 30.22900 45.40000
C  52.27200 29.92600 45.15000
C  52.22100 28.55900 44.84700
C  54.27700 31.52100 45.68100
C  50.99700 30.50000 45.04600
O  50.60400 31.61700 45.30500
C  50.04800 29.34600 44.55900
C  49.58500 29.93000 43.24000
O  50.16400 29.96200 42.18800
O  48.16700 30.17400 43.41400
C  47.39200 30.50500 42.13600
H  50.72400 22.61000 43.57400
H  57.24400 23.42700 44.14800
H  56.33300 29.52400 45.09400
H  48.31800 26.80800 44.15300
H  48.91300 24.23100 43.05300
H  48.17800 24.99000 45.81300
H  49.24100 23.62700 45.62100
H  47.78200 23.49700 44.96200
H  48.17000 27.52700 41.94800
H  48.33500 25.92200 41.49100
H  51.00100 27.13900 41.64100
H  49.91300 27.92300 40.57000
H  52.88700 19.65000 43.79500
H  52.61400 20.29000 42.14500
H  51.59700 20.80600 43.56300
H  57.82400 21.47300 43.32100
H  57.89500 19.91100 44.20000
H  57.23600 21.18100 45.15400
H  58.37700 25.66900 43.32900
H  58.20300 27.48300 45.72700
H  58.65600 24.33200 45.89700
H  59.69800 25.77000 45.84200
H  59.89700 24.54000 44.68000
H  57.83300 28.94300 43.28500
H  59.37200 27.96800 43.45400
H  59.54500 29.09600 45.74400
H  58.51000 30.39100 44.90300
H  60.25800 29.91400 44.50900
H  53.92500 32.45800 45.24900
H  55.34300 31.65400 45.49300
H  54.21300 31.59500 46.76600
H  49.17600 29.31500 45.21200
H  46.69200 31.25800 42.50000
H  46.85400 29.60400 41.84000
H  47.99600 30.87600 41.30800
Mg 49.53000 35.18900 27.86500
C  47.14800 34.03000 30.32100
C  49.90700 37.99000 29.74300
C  51.29700 36.31000 25.34300
C  48.70600 32.30900 25.93600
N  48.63000 35.89200 29.94200
C  47.87200 35.20300 30.80400
C  48.00700 35.83700 32.18000
C  48.46900 37.35400 31.87500
C  49.09400 37.04100 30.44600
C  47.41200 38.50100 31.85500
C  49.12400 35.13200 33.07600
C  48.92400 35.17400 34.55400
H  48.10100 36.36500 35.20900
N  50.38700 36.90500 27.56200
C  50.52200 37.92500 28.43800
C  51.39300 38.95200 27.92100
C  51.83900 38.52300 26.64000
C  51.16700 37.21800 26.42200
C  51.47600 40.27400 28.66000
C  52.90900 39.17300 25.75900
O  53.30500 38.77700 24.62800
C  53.65900 40.31600 26.41700
N  49.87000 34.35800 25.83600
C  50.79300 35.05900 25.09900
C  51.29900 34.13800 23.96500
C  50.58700 32.74900 24.20400
C  49.63200 33.12200 25.31800
C  51.18800 34.83300 22.56600
C  51.60000 31.61900 24.65900
C  51.29700 30.27300 24.04700
N  48.22200 33.51400 28.00100
C  48.00600 32.43900 27.16600
C  47.08900 31.47500 27.82600
C  46.70700 32.04300 29.03500
C  47.39900 33.29300 29.09500
C  46.74600 30.09900 27.26100
C  45.82300 31.94200 30.24500
O  45.02200 31.03300 30.53500
C  46.03900 33.18000 31.17200
C  46.40300 32.80400 32.54800
O  47.30100 32.05400 32.84700
O  45.56900 33.42100 33.39200
C  45.61600 33.20400 34.80700
H  50.20500 38.83100 30.37300
H  52.13800 36.57500 24.69900
H  48.54600 31.44300 25.29000
H  47.03700 35.78500 32.67500
H  49.28900 37.73300 32.48500
H  47.30900 38.68300 30.78600
H  47.63900 39.38400 32.45300
H  46.50000 38.07900 32.27700
H  50.02700 35.59800 32.68100
H  49.04100 34.06800 32.85500
H  49.81700 35.19900 35.17800
H  48.52000 34.18300 34.75900
H  51.68300 41.09300 27.97100
H  52.15800 40.27900 29.51000
H  50.56200 40.61100 29.14900
H  53.15000 41.23400 26.12400
H  54.57500 40.33800 25.82700
H  53.79400 40.10700 27.47800
H  52.35800 34.13600 24.21900
H  49.91000 32.38700 23.43000
H  52.18800 34.94400 22.14500
H  50.68900 35.80000 22.62100
H  50.74700 34.22700 21.77500
H  51.74700 31.50800 25.73400
H  52.54600 31.93000 24.21700
H  51.26200 29.56400 24.87400
H  52.11200 30.01000 23.37300
H  50.36800 30.29300 23.47600
H  47.16500 29.87200 26.28100
H  45.66300 29.98300 27.22100
H  47.21900 29.46100 28.00800
H  45.13100 33.78200 31.21200
H  46.62800 33.51700 35.06600
H  45.44900 32.13700 34.95600
H  44.90000 33.80300 35.36900

