158

Mg 2.37700 -1.67600 43.88500
C  5.75800 -1.29000 43.09500
C  1.73200 1.08900 41.89100
C  -0.82100 -2.33100 44.25700
C  3.10000 -4.86100 45.13000
N  3.53200 -0.43500 42.42200
C  4.92500 -0.40400 42.43400
C  5.49800 0.72100 41.65800
C  4.21000 1.64700 41.36700
C  3.09700 0.76400 41.98900
C  4.19200 2.96300 42.17700
C  6.05400 0.23100 40.36200
C  7.18100 1.18100 39.81000
H  6.84500 1.98600 38.57600
N  0.65600 -0.70500 43.27400
C  0.57000 0.37300 42.46600
C  -0.79700 0.75300 42.28100
C  -1.62500 -0.27900 42.85600
C  -0.65000 -1.17800 43.49600
C  -1.27300 1.88800 41.41200
C  -3.17100 -0.38300 42.75700
O  -3.82900 0.48500 42.24800
C  -3.83900 -1.61100 43.13200
N  1.27800 -3.41100 44.51500
C  -0.06500 -3.36500 44.71600
C  -0.57500 -4.72500 45.08400
C  0.73600 -5.50400 45.51400
C  1.76900 -4.51300 45.04100
C  -1.80800 -4.71400 46.12000
C  0.80700 -6.86000 44.75900
C  1.26400 -8.12200 45.53900
N  4.07400 -2.87300 44.19700
C  4.18800 -4.07200 44.83800
C  5.64100 -4.29400 45.11400
C  6.34500 -3.15500 44.47200
C  5.33700 -2.37900 43.85900
C  6.25700 -5.30000 45.94900
C  7.61800 -2.52600 44.27900
O  8.72200 -2.72100 44.68000
C  7.26300 -1.31300 43.33900
C  7.78000 -0.03200 44.00300
O  7.36300 0.33700 45.08600
O  8.70600 0.58900 43.26800
C  9.08600 1.94400 43.72200
H  1.50900 2.02400 41.37300
H  -1.87300 -2.47100 44.51400
H  3.47200 -5.80800 45.52900
H  6.30200 1.20400 42.21300
H  3.95700 1.76600 40.31300
H  3.76300 3.78800 41.60900
H  5.25300 3.18000 42.30300
H  3.83200 2.76800 43.18700
H  5.20700 0.18100 39.67700
H  6.32100 -0.81600 40.50300
H  7.93300 0.46200 39.48600
H  7.52700 1.90500 40.54700
H  -2.03700 1.47800 40.75300
H  -0.47900 2.20300 40.73600
H  -1.82000 2.67700 41.92800
H  -4.87900 -1.76900 42.84800
H  -3.87200 -1.64500 44.22000
H  -3.24400 -2.46800 42.81600
H  -1.02300 -5.17700 44.19800
H  0.78000 -5.58300 46.60100
H  -1.81600 -5.45800 46.91600
H  -2.73000 -4.70000 45.53900
H  -1.95900 -3.76600 46.63500
H  1.53400 -6.76200 43.95300
H  -0.13900 -7.17300 44.31900
H  0.48200 -8.88100 45.55500
H  1.61100 -7.97500 46.56200
H  2.00900 -8.64800 44.94300
H  5.62400 -5.41800 46.82900
H  7.27800 -5.13700 46.29600
H  6.26700 -6.21200 45.35200
H  7.70700 -1.51300 42.36400
H  10.00300 2.32500 43.27300
H  9.41900 1.86600 44.75800
H  8.34000 2.67800 43.42100
Mg -5.26600 24.89900 25.98500
C  -3.72700 26.53600 28.53700
C  -6.33900 22.44100 28.22600
C  -6.86100 23.37600 23.48500
C  -3.64300 27.13700 23.78600
N  -5.21500 24.76700 28.09900
C  -4.62900 25.56800 28.96200
C  -4.88000 25.23700 30.40400
C  -5.52000 23.79700 30.26500
C  -5.69100 23.62200 28.76700
C  -4.72200 22.68200 30.94500
C  -5.78000 26.27000 31.06900
C  -5.50700 26.78400 32.49400
H  -5.00200 25.71400 33.42300
N  -6.49100 23.17700 25.89100
C  -6.65900 22.21200 26.89800
C  -7.30700 21.09800 26.39100
C  -7.54300 21.40100 24.95300
C  -7.03300 22.76700 24.72100
C  -7.65100 19.94300 27.27700
C  -8.11900 20.38500 23.91300
O  -8.24400 20.76400 22.74300
C  -8.53300 19.02700 24.39700
N  -5.27000 25.26300 23.92700
C  -6.06900 24.48500 23.08800
C  -5.97900 24.91300 21.59200
C  -4.87400 26.02900 21.72200
C  -4.62700 26.23900 23.23300
C  -5.68300 23.81200 20.53500
C  -5.20400 27.28400 20.94800
C  -4.05900 27.86000 20.05100
N  -3.71000 26.36400 26.04200
C  -3.15700 27.15900 25.07200
C  -2.21300 28.05200 25.77300
C  -2.36600 27.84000 27.12900
C  -3.36900 26.84400 27.22400
C  -1.34200 29.06700 25.13600
C  -1.99100 28.26800 28.43900
O  -1.15000 29.11400 28.87800
C  -2.84700 27.41400 29.42100
C  -1.85400 26.72700 30.31700
O  -0.91800 26.08700 29.87800
O  -2.06700 27.12100 31.59300
C  -1.03400 26.71700 32.53200
H  -6.67000 21.83800 29.07400
H  -7.29700 22.83800 22.64100
H  -3.25700 27.90400 23.11100
H  -3.91800 25.19000 30.91500
H  -6.49500 23.71600 30.74600
H  -4.26800 23.11900 31.83500
H  -3.96100 22.23100 30.30800
H  -5.36600 21.83900 31.19600
H  -6.72000 25.75000 31.25300
H  -5.97400 27.14100 30.44300
H  -6.25300 27.39500 33.00200
H  -4.61600 27.37700 32.28900
H  -7.10900 19.08500 26.87900
H  -8.71000 19.69500 27.22100
H  -7.52800 19.87300 28.35800
H  -9.14500 18.55200 23.63000
H  -9.28100 19.15000 25.18000
H  -7.82300 18.27400 24.73800
H  -6.93300 25.38700 21.36300
H  -3.94900 25.53100 21.43100
H  -5.39900 22.87400 21.01300
H  -4.86200 24.11500 19.88500
H  -6.58500 23.77700 19.92300
H  -5.81300 28.00500 21.49200
H  -5.83800 26.88900 20.15400
H  -4.47700 28.41600 19.21100
H  -3.39100 27.17100 19.53400
H  -3.31500 28.38300 20.65300
H  -0.31400 28.92900 25.47000
H  -1.61000 30.04600 25.53400
H  -1.48800 29.08100 24.05600
H  -3.30700 28.16000 30.06900
H  -1.42400 27.28600 33.37500
H  -0.01400 27.08000 32.40500
H  -0.99800 25.64400 32.72100

