158

Mg 45.09900 4.77200 46.31400
C  43.11300 7.58800 46.07500
C  42.26700 2.74000 46.13900
C  47.18800 2.09200 45.54300
C  47.91500 6.79200 45.72800
N  42.89600 5.13600 45.96700
C  42.34800 6.38100 45.97000
C  40.84300 6.31300 45.79100
C  40.56400 4.77000 46.13600
C  41.96000 4.11000 46.16100
C  39.83400 4.60500 47.58400
C  40.09100 6.90400 44.58000
C  41.02800 7.38500 43.39300
H  40.38300 7.48800 41.98400
N  44.78400 2.73500 45.78900
C  43.53000 2.12800 45.83800
C  43.78700 0.71600 45.83500
C  45.14400 0.47300 45.54800
C  45.79200 1.80100 45.57600
C  42.69200 -0.24600 46.14800
C  45.81500 -0.82100 45.17000
O  45.06300 -1.76400 45.27100
C  47.22000 -1.11400 44.67500
N  47.30000 4.46900 45.76400
C  47.88200 3.25600 45.61400
C  49.47400 3.44700 45.61000
C  49.58000 4.93500 45.03400
C  48.18200 5.43100 45.50700
C  50.12800 3.12100 46.99300
C  49.77100 5.00100 43.47000
C  51.22500 5.33700 42.91400
N  45.50500 6.76700 46.13800
C  46.72200 7.46400 46.05100
C  46.42800 8.88300 46.14300
C  45.07400 8.97000 46.25700
C  44.52200 7.67900 46.10600
C  47.23200 10.05600 46.00300
C  43.99700 9.89200 46.47900
O  43.92600 11.07900 46.64400
C  42.70800 9.03900 46.49200
C  41.97500 9.14400 47.77500
O  41.78500 8.31400 48.69300
O  41.34300 10.30400 47.76600
C  40.71400 10.71700 49.01500
H  41.37700 2.12300 46.28100
H  47.86400 1.23700 45.61800
H  48.77500 7.46500 45.70500
H  40.52400 6.94800 46.61800
H  39.98000 4.23000 45.39100
H  39.49000 5.50000 48.10300
H  40.58200 4.11400 48.20600
H  38.94200 3.98100 47.65000
H  39.49600 7.69500 45.03600
H  39.51000 6.06200 44.20500
H  41.89900 6.73100 43.34600
H  41.36900 8.35000 43.76800
H  42.68100 -0.84300 45.23600
H  41.69400 0.16600 46.30000
H  42.94400 -0.90200 46.98100
H  47.31100 -2.10900 44.23900
H  47.80300 -1.08700 45.59600
H  47.38800 -0.29600 43.97400
H  49.96300 2.77600 44.90400
H  50.24600 5.44900 45.72600
H  49.19800 2.91700 47.52400
H  50.60500 3.97400 47.47500
H  50.83800 2.31400 46.81000
H  49.06000 5.70600 43.04000
H  49.51000 4.01600 43.08500
H  51.61900 4.49900 42.34000
H  51.96600 5.56800 43.67900
H  51.27700 6.29700 42.40000
H  47.34200 10.11600 44.92000
H  48.24400 10.03100 46.40600
H  46.67100 10.89600 46.41300
H  42.01900 9.45300 45.75500
H  41.40200 11.04200 49.79600
H  40.15200 9.90300 49.47400
H  39.99900 11.52500 48.86200
Mg 54.38500 25.20100 43.21800
C  51.60600 27.32000 42.81100
C  52.47700 22.58800 42.14400
C  57.25700 23.40800 42.84200
C  56.22200 28.07200 44.09700
N  52.28100 25.05500 42.50200
C  51.30900 26.01400 42.48500
C  49.95600 25.34300 42.21600
C  50.21800 23.87100 42.45800
C  51.74200 23.79700 42.36100
C  49.90800 23.26600 43.81900
C  49.33500 25.57900 40.77700
C  50.39700 26.05100 39.65600
H  50.99100 24.96200 38.79500
N  54.80200 23.21200 42.64600
C  53.84800 22.28000 42.25300
C  54.49600 20.99500 42.01900
C  55.93000 21.18400 42.24700
C  56.08600 22.64000 42.55800
C  53.66700 19.80600 41.63900
C  56.95800 20.12400 42.16400
O  56.68900 19.02700 41.82300
C  58.35900 20.33200 42.64600
N  56.43700 25.69900 43.38900
C  57.42900 24.76900 43.29700
C  58.88100 25.39900 43.50800
C  58.47400 26.85800 43.88500
C  56.88700 26.86300 43.86300
C  59.76800 24.63200 44.52100
C  59.12500 27.91800 43.03700
C  60.30600 28.70200 43.56800
N  54.02500 27.29200 43.38000
C  54.84800 28.31900 43.86200
C  54.04700 29.52200 44.06200
C  52.75100 29.16100 43.65200
C  52.82700 27.79300 43.21400
C  54.54600 30.85000 44.66100
C  51.37300 29.60500 43.63600
O  50.97600 30.71900 43.96600
C  50.55600 28.48400 43.03100
C  49.95300 28.99400 41.78000
O  50.47500 29.17200 40.63400
O  48.62200 29.16000 41.96800
C  47.83700 29.49300 40.76800
H  51.89200 21.69500 41.91600
H  58.16700 22.84900 42.61400
H  56.79700 28.93100 44.45000
H  49.20900 25.78100 42.87800
H  49.75700 23.33900 41.62600
H  50.67700 22.69900 44.34300
H  49.10800 22.57400 43.55500
H  49.61900 23.96200 44.60600
H  48.48100 26.25600 40.78000
H  48.80400 24.69400 40.42800
H  51.23800 26.59700 40.08400
H  49.89300 26.64500 38.89300
H  53.37300 19.87700 40.59200
H  52.77100 19.68600 42.24900
H  54.25000 18.88500 41.63200
H  58.79100 19.44300 43.10500
H  58.28000 21.02800 43.48100
H  58.98900 20.73300 41.85100
H  59.41100 25.26700 42.56400
H  58.71900 27.11800 44.91400
H  59.54200 23.57000 44.43100
H  59.39800 24.90800 45.50800
H  60.81100 24.90900 44.36900
H  58.34700 28.61400 42.72000
H  59.52000 27.53900 42.09400
H  60.18500 29.78300 43.49200
H  61.23500 28.44200 43.06100
H  60.48500 28.56100 44.63400
H  55.10100 30.76500 45.59500
H  53.57200 31.28900 44.87700
H  55.09300 31.33300 43.85200
H  49.81600 28.20000 43.78000
H  47.67800 28.62600 40.12600
H  48.34900 30.28100 40.21600
H  46.84600 29.83400 41.06600

