158

Mg 25.63400 0.44900 29.16400
C  27.82500 0.04500 31.82300
C  23.10900 0.78000 31.25900
C  23.74100 0.78100 26.50300
C  28.38900 -0.35100 26.97200
N  25.55000 0.41000 31.33400
C  26.53800 0.42600 32.26400
C  25.96400 0.67000 33.68800
C  24.42200 0.53800 33.45300
C  24.32300 0.54800 31.92500
C  23.74200 -0.69100 34.13500
C  26.46300 2.01900 34.38000
C  27.24400 1.79400 35.75900
H  26.93600 2.83900 36.91800
N  23.72900 0.79700 28.92600
C  22.79200 0.93600 29.91100
C  21.43100 1.19900 29.37800
C  21.67700 1.09500 27.99000
C  23.08600 0.92000 27.75600
C  20.16300 1.48100 30.17500
C  20.64700 1.17000 26.90100
O  20.90400 1.16000 25.71100
C  19.13200 1.06500 27.28400
N  26.01700 0.37900 27.08200
C  25.03900 0.57100 26.20000
C  25.57100 0.65400 24.80800
C  27.10400 0.32600 24.97600
C  27.17600 0.09200 26.44100
C  24.84500 -0.30400 23.80300
C  27.94800 1.49000 24.31700
C  27.99500 2.81300 25.09800
N  27.69000 -0.14800 29.28400
C  28.67800 -0.40000 28.38400
C  29.94200 -0.66900 29.05200
C  29.65400 -0.60500 30.41600
C  28.22800 -0.26200 30.49600
C  31.25800 -1.06100 28.41800
C  30.22600 -0.58200 31.75000
O  31.38900 -0.80900 32.09700
C  29.06600 -0.17700 32.70000
C  28.89200 -1.26200 33.67000
O  28.32800 -2.34100 33.48800
O  29.49400 -0.91600 34.86400
C  29.23400 -1.75600 36.01300
H  22.26400 0.82700 31.95000
H  23.10100 0.82800 25.61900
H  29.17700 -0.50000 26.23100
H  26.31700 -0.13600 34.33200
H  24.06900 1.48700 33.85600
H  24.54800 -1.26300 34.59500
H  23.22700 -1.33400 33.42100
H  22.98600 -0.46100 34.88600
H  25.60300 2.67700 34.50900
H  27.05700 2.54600 33.63400
H  28.32500 1.76400 35.62000
H  26.95100 0.79200 36.07300
H  19.75600 2.47900 30.01300
H  20.27300 1.32700 31.24800
H  19.35900 0.80800 29.87500
H  18.52100 1.21400 26.39300
H  18.92100 1.84900 28.01100
H  18.92000 0.14100 27.82300
H  25.32300 1.66200 24.47400
H  27.56200 -0.57200 24.56100
H  24.09700 -0.88300 24.34500
H  25.54200 -0.94300 23.26000
H  24.29700 0.31300 23.09000
H  27.52300 1.80600 23.36400
H  28.91400 1.03200 24.10300
H  28.97500 2.68600 25.55800
H  27.32800 2.79800 25.96000
H  27.94300 3.78600 24.60900
H  31.37800 -1.05000 27.33500
H  31.50300 -2.07800 28.72300
H  31.92100 -0.35000 28.91000
H  29.24700 0.68500 33.34300
H  28.17800 -2.02400 36.01100
H  29.29600 -1.17500 36.93400
H  29.92000 -2.60300 35.98800
Mg 47.36000 34.86800 28.80000
C  45.70100 32.76000 31.19400
C  47.85600 37.15100 31.43900
C  48.21700 37.06700 26.53800
C  46.34600 32.61100 26.29100
N  46.83200 34.93200 30.98400
C  46.22100 33.95900 31.73200
C  46.31900 34.34600 33.28500
C  46.30800 35.88600 33.15600
C  47.12700 35.99400 31.79500
C  44.85400 36.55000 33.00000
C  47.60800 33.82800 34.01600
C  47.30600 33.15800 35.37600
H  46.39900 33.87900 36.41500
N  48.02300 36.81100 29.00900
C  48.32600 37.59000 30.11700
C  49.07200 38.78200 29.76600
C  49.01300 38.80500 28.37600
C  48.45200 37.51000 27.91400
C  49.63700 39.77700 30.74100
C  49.44400 39.86800 27.33500
O  49.21500 39.75100 26.13100
C  50.17000 41.10700 27.85400
N  47.20100 34.83700 26.70300
C  47.67600 35.85700 26.00600
C  47.67000 35.60100 24.51900
C  47.14100 34.14700 24.40400
C  46.87300 33.82200 25.87900
C  46.79800 36.55100 23.61800
C  48.13300 33.06500 23.78200
C  47.58900 32.06800 22.76600
N  46.29600 33.07500 28.66900
C  46.03800 32.24500 27.61500
C  45.46100 31.01300 28.05800
C  45.22000 31.23500 29.48900
C  45.78400 32.45400 29.81700
C  44.95400 29.93500 27.08900
C  44.69100 30.62300 30.67900
O  44.23000 29.48900 30.70200
C  44.94500 31.58700 31.76800
C  45.62600 30.95500 32.89000
O  46.81900 30.76700 33.04800
O  44.63300 30.60300 33.75100
C  45.01000 30.14500 35.07400
H  48.04700 37.88200 32.22800
H  48.59500 37.66700 25.70800
H  46.17400 31.84500 25.53200
H  45.37100 34.10100 33.76400
H  46.87100 36.32600 33.97900
H  44.78000 37.25300 33.83000
H  43.98700 35.91500 33.18100
H  44.73800 36.90700 31.97700
H  48.30000 34.65300 34.18500
H  48.05200 33.02000 33.43500
H  48.27000 32.86000 35.78800
H  46.82700 32.20600 35.15100
H  49.14400 40.73200 30.55600
H  50.71300 39.88100 30.60700
H  49.48900 39.50800 31.78700
H  49.43500 41.74800 28.34100
H  50.63200 41.48300 26.94100
H  51.00700 40.85500 28.50500
H  48.71600 35.70000 24.22600
H  46.18300 34.10000 23.88600
H  46.27800 37.21600 24.30700
H  46.09800 36.19900 22.86100
H  47.46300 37.26900 23.13800
H  48.40300 32.34500 24.55500
H  48.96300 33.63000 23.35900
H  48.12500 32.17200 21.82200
H  46.53800 32.22600 22.52400
H  47.65500 31.00400 22.99200
H  44.12400 30.35500 26.52100
H  44.54400 29.05900 27.59300
H  45.74500 29.46900 26.50200
H  43.95100 31.92200 32.06600
H  44.36600 29.32600 35.39600
H  44.79600 30.94400 35.78400
H  46.07100 29.95900 35.24100

