158

Mg 7.61200 1.72900 28.60800
C  9.25600 0.28100 31.27200
C  6.09300 4.01200 30.70100
C  6.03700 3.10900 25.97800
C  9.35400 -0.51600 26.35200
N  7.62200 1.98700 30.68400
C  8.42200 1.33300 31.65200
C  8.31200 1.99900 32.99900
C  7.13600 3.06400 32.78200
C  6.93000 3.03900 31.27400
C  5.75200 2.68500 33.48700
C  9.62300 2.66400 33.47600
C  9.47500 3.44900 34.77700
H  10.49400 3.01600 35.80700
N  6.17100 3.27500 28.36300
C  5.66300 4.07700 29.31100
C  4.72700 5.03100 28.73600
C  4.59100 4.67300 27.36400
C  5.61500 3.65300 27.17800
C  4.04400 6.18800 29.51100
C  3.69800 5.17100 26.29000
O  3.88800 4.78000 25.16900
C  2.73200 6.34200 26.58600
N  7.79200 1.34200 26.52100
C  6.90700 2.06900 25.67600
C  7.06000 1.48500 24.21400
C  8.19600 0.37900 24.29600
C  8.48300 0.45300 25.78700
C  5.78100 0.96600 23.53400
C  9.50900 0.53000 23.41300
C  10.01300 -0.78700 22.72400
N  8.99900 0.12700 28.70600
C  9.59600 -0.71500 27.76100
C  10.45300 -1.64200 28.44700
C  10.37700 -1.27700 29.83300
C  9.55000 -0.18000 29.93100
C  11.30000 -2.74000 27.87200
C  10.80200 -1.59100 31.19700
O  11.67000 -2.36000 31.66600
C  10.19900 -0.57300 32.12000
C  9.55600 -1.23600 33.25500
O  8.59700 -1.97700 33.19200
O  10.13000 -0.96900 34.44200
C  9.50400 -1.55700 35.67700
H  5.76600 4.83900 31.33500
H  5.65900 3.44700 25.01100
H  10.09600 -0.97200 25.69500
H  8.02700 1.31000 33.79400
H  7.34700 4.05700 33.17900
H  5.97000 2.50200 34.53900
H  5.40000 1.75700 33.03600
H  4.98000 3.43600 33.31600
H  9.97700 3.42600 32.78100
H  10.33600 1.84100 33.52700
H  8.44300 3.30700 35.09600
H  9.77000 4.48400 34.60000
H  4.46900 7.17400 29.32000
H  4.19600 5.96300 30.56700
H  2.98300 6.30900 29.29400
H  2.13600 6.43600 25.67800
H  3.24200 7.22900 26.96100
H  2.13400 5.94800 27.40700
H  7.53800 2.26500 23.62200
H  7.66700 -0.53300 24.01800
H  5.01300 0.85900 24.30000
H  5.92900 0.11700 22.86700
H  5.27200 1.81000 23.06900
H  10.38600 0.82800 23.98900
H  9.31500 1.34200 22.71300
H  9.31300 -1.60400 22.90000
H  11.04500 -0.96200 23.02900
H  10.12100 -0.73600 21.64000
H  11.34500 -2.57800 26.79500
H  10.87100 -3.69700 28.16900
H  12.30700 -2.60600 28.26900
H  11.05300 -0.01200 32.49900
H  8.55800 -2.09500 35.60700
H  9.31200 -0.70600 36.33100
H  10.31100 -2.21200 36.00200
Mg 9.86100 48.36800 26.12900
C  8.07800 48.17600 29.06600
C  12.35100 50.01200 27.90000
C  11.67600 48.66500 23.33800
C  7.21300 47.46300 24.31000
N  10.30200 48.88100 28.30900
C  9.34300 48.67100 29.31500
C  9.84100 49.19200 30.70800
C  11.08700 50.11000 30.21600
C  11.25700 49.68900 28.70900
C  10.84500 51.67000 30.32600
C  10.24200 48.08000 31.78100
C  9.50000 48.18900 33.16200
H  9.58700 46.96900 34.04800
N  11.78600 49.13300 25.69700
C  12.63700 49.68000 26.58300
C  13.96000 49.85700 25.94200
C  13.78300 49.39300 24.59200
C  12.34500 49.16100 24.44200
C  15.17500 50.39600 26.71700
C  14.80800 49.25700 23.49100
O  14.55800 48.93500 22.35200
C  16.24100 49.48100 23.92900
N  9.48600 48.15700 24.08500
C  10.33700 48.25200 23.11100
C  9.63700 48.08000 21.68600
C  8.47500 47.23500 22.13400
C  8.39500 47.62200 23.57100
C  9.32700 49.55000 21.16800
C  8.63800 45.66500 21.89700
C  8.57000 44.62500 23.00600
N  7.97800 48.01400 26.52600
C  6.94100 47.59600 25.69800
C  5.83800 47.20600 26.50700
C  6.20300 47.44000 27.84100
C  7.54000 47.80400 27.80200
C  4.45500 46.77900 25.96200
C  5.73700 47.39300 29.14500
O  4.60200 47.05000 29.54800
C  6.90000 47.84000 30.04100
C  7.20000 46.67400 30.91100
O  7.86800 45.71600 30.58700
O  6.57900 46.85100 32.12800
C  6.40400 45.67900 32.94800
H  12.93600 50.78100 28.40900
H  12.28300 48.68100 22.43100
H  6.40300 46.96800 23.77100
H  8.99100 49.75800 31.08800
H  12.03100 49.91600 30.72400
H  9.81300 51.94500 30.54100
H  11.02700 52.10300 29.34200
H  11.62400 52.02700 31.00000
H  11.30900 48.26300 31.90500
H  10.09300 47.12600 31.27500
H  8.50100 48.59400 33.00000
H  10.04000 49.04900 33.55700
H  15.88900 49.59100 26.89500
H  14.82300 50.84100 27.64700
H  15.65000 51.15700 26.09800
H  16.54700 50.49600 24.18100
H  16.76300 49.18200 23.02000
H  16.57200 48.74800 24.66400
H  10.31600 47.61500 20.97100
H  7.57100 47.51300 21.59100
H  9.85400 50.37000 21.65600
H  8.26000 49.76600 21.13500
H  9.76500 49.60400 20.17100
H  9.70900 45.75100 21.70900
H  8.18900 45.33100 20.96200
H  8.63500 45.10100 23.98400
H  9.45300 44.02000 22.79900
H  7.67600 44.00600 22.93100
H  3.68700 47.46700 26.31600
H  4.25400 45.89700 26.56900
H  4.40300 46.61500 24.88500
H  6.41500 48.64100 30.60000
H  6.95500 44.80400 32.60300
H  5.35100 45.53600 33.19000
H  6.89700 45.86400 33.90300

