158

Mg 23.87600 -4.72700 45.14200
C  26.02000 -2.50100 43.60500
C  21.51300 -4.10600 42.83000
C  22.15800 -7.51100 46.21200
C  26.41900 -5.68000 47.35300
N  23.69100 -3.38300 43.44000
C  24.68800 -2.44300 43.08300
C  24.21400 -1.48900 41.92700
C  22.65100 -1.90200 41.86500
C  22.57800 -3.19900 42.74100
C  21.76000 -0.85900 42.57700
C  25.00900 -1.75000 40.65000
C  25.63000 -0.57900 39.88800
H  25.53200 -0.66700 38.42000
N  22.01100 -5.60700 44.64500
C  21.20900 -5.21400 43.63400
C  20.04600 -6.10500 43.57600
C  20.19900 -7.10800 44.58300
C  21.51500 -6.81800 45.21200
C  18.98200 -6.02000 42.53000
C  19.27900 -8.26600 44.75700
O  18.26100 -8.31600 44.03300
C  19.32900 -9.35800 45.83700
N  24.26800 -6.43200 46.52500
C  23.37200 -7.41900 46.81100
C  23.86000 -8.40700 47.91000
C  25.27600 -7.79100 48.34900
C  25.31200 -6.56300 47.37600
C  22.92800 -8.87700 49.08400
C  26.46400 -8.74600 48.12900
C  27.49600 -8.90500 49.22900
N  25.83300 -4.31300 45.44100
C  26.75900 -4.70300 46.39000
C  28.06600 -4.06100 46.10500
C  27.77000 -3.18800 45.02100
C  26.42000 -3.37600 44.66800
C  29.27500 -4.24900 46.91200
C  28.37900 -2.20100 44.15800
O  29.51500 -1.75400 44.26900
C  27.25600 -1.67500 43.18200
C  27.17200 -0.26000 43.39600
O  26.42300 0.41100 44.08300
O  28.16200 0.32100 42.64900
C  28.21500 1.82300 42.77400
H  20.80200 -3.90900 42.02400
H  21.52700 -8.30600 46.61500
H  27.23800 -5.98900 48.00500
H  24.25000 -0.43500 42.20400
H  22.21700 -2.08300 40.88200
H  20.84400 -1.33800 42.92200
H  21.32900 -0.10500 41.91700
H  22.18700 -0.33200 43.43000
H  24.33700 -2.08500 39.86000
H  25.81900 -2.47800 40.69000
H  26.70100 -0.53800 40.08800
H  25.13800 0.31800 40.26400
H  17.98200 -6.08700 42.95800
H  19.13800 -6.96600 42.01100
H  19.09500 -5.19100 41.83100
H  19.26000 -8.83300 46.79000
H  20.21400 -9.98700 45.74100
H  18.41400 -9.95100 45.81300
H  24.10600 -9.28500 47.31200
H  25.34000 -7.48000 49.39200
H  21.97100 -8.41200 49.32200
H  23.47800 -8.82700 50.02400
H  22.67500 -9.91700 48.87900
H  26.95700 -8.40600 47.21700
H  26.12800 -9.76000 47.91700
H  27.40600 -9.94300 49.54700
H  27.33500 -8.15400 50.00300
H  28.49000 -8.67900 48.84400
H  29.81900 -5.13400 46.58100
H  29.02200 -4.53500 47.93300
H  29.88200 -3.34500 46.86900
H  27.59500 -1.88400 42.16700
H  27.93400 2.20000 43.75800
H  27.54600 2.25900 42.03300
H  29.23700 2.19200 42.69300
Mg 26.74900 50.43900 26.73000
C  25.07500 51.73700 29.51700
C  29.37800 49.69800 28.97000
C  28.42100 49.26100 24.16200
C  24.25000 51.60000 24.64200
N  27.17000 50.82500 28.94600
C  26.29900 51.26900 29.83700
C  26.79600 50.88500 31.21500
C  28.33300 50.63900 31.04400
C  28.30300 50.42600 29.53100
C  29.10000 51.81600 31.63100
C  25.95900 49.70800 31.81200
C  25.09300 50.03100 33.04200
H  25.88400 50.04700 34.34400
N  28.57500 49.55200 26.54800
C  29.42300 49.23400 27.60900
C  30.54700 48.57300 27.07400
C  30.43900 48.54400 25.64100
C  29.13800 49.12500 25.36500
C  31.69300 48.00400 27.92100
C  31.36900 47.89000 24.59500
O  31.10300 47.85100 23.41100
C  32.62600 47.21800 24.97700
N  26.44900 50.58600 24.60000
C  27.20800 49.77200 23.81200
C  26.60600 49.57700 22.43200
C  25.19300 50.28700 22.62000
C  25.24900 50.79200 24.07100
C  27.48700 50.19200 21.23600
C  23.98900 49.37200 22.40100
C  22.95600 49.78200 21.34300
N  25.14500 51.61600 26.93100
C  24.15600 51.87300 26.04200
C  22.96100 52.51700 26.69000
C  23.30400 52.44800 28.03400
C  24.67100 51.87500 28.15100
C  21.68200 52.97600 26.01000
C  22.76200 52.68600 29.34000
O  21.67000 53.11700 29.71500
C  23.96300 52.23700 30.37400
C  24.45000 53.32800 31.26300
O  25.22800 54.20500 30.92900
O  23.86400 53.24500 32.45500
C  23.94300 54.36100 33.36800
H  30.11300 49.31800 29.68300
H  28.93000 48.75300 23.34000
H  23.35900 51.87400 24.07200
H  26.70100 51.73600 31.88800
H  28.57700 49.74500 31.61700
H  28.63900 51.96800 32.60700
H  28.82800 52.69600 31.04900
H  30.18800 51.76300 31.60200
H  26.56500 48.84900 32.10100
H  25.35000 49.27200 31.01900
H  24.43000 49.20900 33.31000
H  24.41100 50.87800 32.96800
H  32.59900 48.57800 27.72600
H  31.91000 46.95000 27.75100
H  31.47300 47.95700 28.98700
H  33.28800 47.82000 25.59900
H  33.16000 47.01300 24.04900
H  32.35400 46.28000 25.46200
H  26.54000 48.50600 22.24000
H  25.14000 51.17500 21.99000
H  27.18500 51.19000 20.91700
H  27.42700 49.51300 20.38600
H  28.50200 50.38400 21.58500
H  23.42700 49.37600 23.33500
H  24.28000 48.33200 22.25900
H  23.38200 50.61200 20.77800
H  21.94900 50.04800 21.66400
H  22.96100 48.89800 20.70500
H  21.86300 53.92400 25.50300
H  20.82100 53.05600 26.67300
H  21.36400 52.27400 25.23900
H  23.70000 51.36300 30.97000
H  23.98400 53.99200 34.39300
H  23.07300 55.00300 33.22400
H  24.76800 54.99900 33.05100

