158

Mg 26.09300 1.59900 29.63300
C  28.09800 0.85000 32.51700
C  23.44700 1.70200 31.76600
C  24.25600 1.44500 26.98800
C  28.91700 0.78400 27.72400
N  25.83200 1.36900 31.93900
C  26.76800 1.11700 32.87200
C  26.17300 1.31200 34.25800
C  24.60600 1.32400 34.02400
C  24.58700 1.42000 32.46600
C  23.80900 0.07700 34.61600
C  26.76600 2.50100 35.05200
C  27.45000 2.09400 36.36900
H  27.13700 3.07500 37.53700
N  24.12600 1.72100 29.37800
C  23.18200 1.81800 30.34300
C  21.87300 1.90900 29.69700
C  22.07700 1.83700 28.29400
C  23.50500 1.66400 28.17500
C  20.52600 1.95300 30.47500
C  21.04600 1.74200 27.19000
O  21.36500 1.47900 26.03500
C  19.59500 1.89600 27.44300
N  26.60400 1.27300 27.54700
C  25.57600 1.24900 26.65500
C  26.11800 1.05000 25.19300
C  27.68800 0.96900 25.42100
C  27.75200 0.99100 27.01200
C  25.48000 -0.09800 24.40300
C  28.50500 2.15700 24.90800
C  29.86000 1.84900 24.26100
N  28.14300 1.06200 30.01300
C  29.13400 0.71300 29.12100
C  30.34300 0.26800 29.84900
C  29.97800 0.42600 31.18600
C  28.62700 0.78500 31.24300
C  31.67000 -0.22900 29.29800
C  30.43700 0.17000 32.52900
O  31.53200 -0.14500 32.94400
C  29.28900 0.53200 33.49100
C  29.09700 -0.64600 34.38500
O  28.43400 -1.65500 34.11000
O  29.61900 -0.37800 35.61000
C  29.39800 -1.35100 36.65900
H  22.62200 1.89500 32.45500
H  23.62400 1.28000 26.11300
H  29.79400 0.51000 27.13400
H  26.50500 0.44400 34.82700
H  24.19500 2.19500 34.53300
H  23.15100 -0.29300 33.82900
H  23.15400 0.50400 35.37600
H  24.49400 -0.65500 35.04300
H  25.88300 3.08800 35.30900
H  27.55100 2.97900 34.46600
H  28.53400 2.20100 36.32200
H  27.31100 1.08400 36.75400
H  20.71100 2.09500 31.54000
H  19.94900 1.04500 30.30100
H  19.99500 2.83100 30.10600
H  19.35100 2.86100 27.88800
H  19.23600 1.06600 28.05100
H  19.02800 1.82900 26.51500
H  25.93200 1.98900 24.67200
H  28.03400 -0.01800 25.11600
H  25.52500 -1.00000 25.01300
H  25.92900 -0.25900 23.42400
H  24.44200 0.22300 24.31800
H  28.72600 2.93300 25.64100
H  27.96600 2.56500 24.05300
H  30.65100 2.48300 24.66200
H  29.84200 2.09100 23.19800
H  30.12500 0.79500 24.34400
H  31.97800 0.31800 28.40700
H  31.67100 -1.29900 29.08800
H  32.46700 0.01300 30.00100
H  29.59200 1.29000 34.21300
H  30.31700 -1.37900 37.24400
H  29.24400 -2.38200 36.34100
H  28.57300 -1.02400 37.29200
Mg -4.84600 25.67800 26.27600
C  -3.80200 26.88100 29.53500
C  -6.73000 23.43300 27.69100
C  -5.00900 24.45600 23.11900
C  -2.29200 27.99200 24.97400
N  -5.08300 25.13300 28.39600
C  -4.63500 25.77000 29.53500
C  -5.42700 25.07900 30.75000
C  -6.12300 23.83100 30.14200
C  -6.02200 24.16300 28.63500
C  -5.56000 22.43300 30.66500
C  -6.27500 26.09700 31.52800
C  -5.98600 26.13200 33.06600
H  -5.67000 24.79800 33.82800
N  -5.77800 24.21200 25.51300
C  -6.62100 23.49100 26.25100
C  -7.23200 22.63100 25.30900
C  -6.61800 22.72000 23.98300
C  -5.73000 23.87300 24.17900
C  -8.38900 21.71300 25.69200
C  -6.89000 21.88100 22.69300
O  -6.34000 22.08300 21.62800
C  -7.79900 20.64000 22.85500
N  -3.80900 26.27000 24.24100
C  -4.16200 25.51600 23.11700
C  -3.53800 26.06000 21.88900
C  -2.79500 27.37100 22.44800
C  -2.93600 27.24700 23.97000
C  -2.44100 25.06800 21.33800
C  -3.36200 28.67600 21.98100
C  -3.26400 28.84500 20.41000
N  -3.46500 27.21600 27.00300
C  -2.52200 28.04800 26.33900
C  -1.93500 28.94100 27.36500
C  -2.43000 28.58200 28.62400
C  -3.28200 27.44500 28.33800
C  -1.03000 30.08800 27.12800
C  -2.37900 28.88100 30.02100
O  -1.84300 29.76000 30.64100
C  -3.23100 27.71300 30.67100
C  -2.34400 26.84300 31.61000
O  -1.73100 25.77900 31.36500
O  -2.38000 27.31300 32.90300
C  -1.55000 26.67500 33.97300
H  -7.39500 22.62700 28.00600
H  -5.34800 24.04400 22.16600
H  -1.55600 28.72900 24.64600
H  -4.66500 24.70600 31.43400
H  -7.19200 23.79500 30.35100
H  -4.71400 22.49900 31.34900
H  -5.07800 21.87200 29.86500
H  -6.27400 21.81500 31.20800
H  -7.31900 25.90400 31.28200
H  -5.91100 27.03000 31.09700
H  -6.95800 26.49700 33.40000
H  -5.16200 26.83000 33.21100
H  -9.25500 21.86200 25.04700
H  -8.76200 21.78100 26.71400
H  -8.13400 20.65700 25.59700
H  -8.16400 20.46800 21.84300
H  -8.73000 20.88800 23.36400
H  -7.25300 19.90500 23.44700
H  -4.30700 26.11800 21.11900
H  -1.71600 27.50900 22.36800
H  -1.51500 25.53200 21.00000
H  -2.93200 24.62900 20.46900
H  -2.29100 24.30600 22.10300
H  -2.86000 29.47800 22.52300
H  -4.42300 28.74400 22.22200
H  -2.56000 28.08600 20.06900
H  -3.02700 29.89600 20.24600
H  -4.18500 28.60400 19.88000
H  -1.38900 30.59300 26.23100
H  -0.05600 29.64200 26.92800
H  -1.06100 30.82800 27.92800
H  -4.00300 28.24500 31.22600
H  -1.04900 27.53400 34.41900
H  -0.72800 26.08400 33.57100
H  -2.14300 26.19700 34.75400

