158

Mg 30.16100 57.98300 40.62000
C  27.31600 56.17800 39.75500
C  32.05600 55.17600 39.98600
C  33.02400 59.98500 40.73900
C  28.20800 60.83800 40.86000
N  29.77600 55.98300 39.85900
C  28.48700 55.46600 39.73800
C  28.55300 53.97800 39.36200
C  30.00400 53.59800 39.82600
C  30.70100 55.02400 39.90300
C  30.10000 52.72500 41.09500
C  28.17100 53.65000 37.88800
C  28.51300 54.73300 36.79400
H  28.39400 54.46100 35.20900
N  32.33700 57.60500 40.38500
C  32.88500 56.36000 40.07500
C  34.30000 56.52800 39.88400
C  34.59400 57.90800 40.17900
C  33.29200 58.58100 40.46800
C  35.19700 55.37600 39.60100
C  35.94700 58.59900 40.09400
O  36.83700 57.89800 39.62900
C  36.18100 60.08300 40.28700
N  30.60000 60.16600 40.69800
C  31.84400 60.72000 40.91800
C  31.73300 62.16600 41.33500
C  30.19900 62.33200 41.48000
C  29.56300 61.09800 40.90200
C  32.58600 62.72300 42.47900
C  29.54400 63.59500 40.79200
C  28.77500 64.62100 41.62400
N  28.18100 58.52100 40.39600
C  27.46100 59.68200 40.60900
C  26.07000 59.39800 40.39900
C  25.97800 58.03200 40.04400
C  27.25600 57.59400 40.07500
C  24.88500 60.28000 40.52500
C  25.04500 56.94100 39.64300
O  23.82500 57.00300 39.48300
C  25.91000 55.63200 39.46500
C  25.25600 54.61300 40.42500
O  25.09200 54.77500 41.63800
O  24.96500 53.52100 39.76300
C  24.72400 52.35900 40.60600
H  32.54800 54.20300 40.04000
H  33.93900 60.50200 41.03600
H  27.55000 61.68000 41.08700
H  27.82200 53.43100 39.95700
H  30.40600 52.84900 39.14300
H  30.78600 51.89300 40.93700
H  29.12400 52.44300 41.48800
H  30.46600 53.38400 41.88200
H  27.10600 53.46900 37.74700
H  28.64500 52.70100 37.63700
H  29.54300 55.02300 37.00000
H  27.95600 55.64100 37.02200
H  35.78700 55.35400 38.68500
H  34.55600 54.49900 39.50700
H  35.81400 55.09700 40.45500
H  36.07700 60.34700 41.33900
H  35.39200 60.52200 39.67700
H  37.12900 60.44500 39.88800
H  32.01700 62.67700 40.41500
H  29.97700 62.30200 42.54700
H  33.52100 62.17900 42.61900
H  31.98300 62.54300 43.36800
H  32.91900 63.73100 42.23300
H  28.84300 63.25200 40.03100
H  30.28600 64.02700 40.12100
H  27.88500 64.92500 41.07200
H  29.44900 65.44000 41.87600
H  28.45800 64.08000 42.51500
H  25.20600 61.31000 40.36900
H  24.54400 60.20500 41.55800
H  24.09700 59.96900 39.84000
H  25.74800 55.32000 38.43300
H  25.11500 51.47400 40.10400
H  23.64000 52.30600 40.50900
H  25.11600 52.35800 41.62300
Mg 7.40600 53.98900 42.29400
C  6.68200 50.52400 41.97500
C  10.38600 53.40200 40.60100
C  7.53600 57.22400 41.83900
C  4.31400 54.28400 43.94100
N  8.39000 52.23800 41.54600
C  7.90200 50.92600 41.38100
C  8.98300 50.00700 40.71300
C  10.25300 50.88200 40.73900
C  9.68100 52.28400 41.03200
C  11.31800 50.45300 41.78600
C  8.43100 49.54900 39.30300
C  8.39900 50.49800 38.13400
H  7.40500 50.20900 37.01200
N  8.75800 55.18700 41.26200
C  9.93600 54.77500 40.65100
C  10.58400 55.93200 40.11900
C  9.79400 57.08300 40.43900
C  8.63800 56.58000 41.18300
C  11.86500 55.78100 39.24300
C  9.99800 58.55900 39.92800
O  10.93000 58.81100 39.16900
C  8.98700 59.53700 40.21900
N  6.06800 55.56300 42.80300
C  6.42400 56.85500 42.58500
C  5.33400 57.76300 43.09700
C  4.31000 56.85100 43.83300
C  4.94300 55.48100 43.58900
C  5.85100 58.95400 43.97500
C  2.82500 57.00400 43.33200
C  2.34200 56.48700 41.97000
N  5.83400 52.68800 42.94000
C  4.68200 52.95800 43.62600
C  4.03700 51.68600 43.87300
C  4.79400 50.68700 43.36200
C  5.82100 51.38400 42.69300
C  2.78900 51.44700 44.79200
C  5.01100 49.24200 43.26100
O  4.40800 48.31300 43.78100
C  6.18900 49.06100 42.28100
C  5.62700 48.47200 41.04400
O  4.99500 49.04900 40.21100
O  5.98100 47.07900 41.07300
C  5.61600 46.30700 39.80300
H  11.33100 53.11900 40.13200
H  7.52800 58.31000 41.73000
H  3.30900 54.37600 44.35900
H  9.09400 49.11000 41.32300
H  10.72600 50.89500 39.75700
H  12.27500 50.55500 41.27600
H  11.21400 49.39300 42.01900
H  11.29900 50.93800 42.76200
H  7.42800 49.13700 39.41900
H  9.01400 48.71500 38.91200
H  9.40500 50.51000 37.71600
H  8.09300 51.49100 38.46200
H  11.65700 55.89700 38.17900
H  12.35800 54.83100 39.44900
H  12.45500 56.59800 39.65800
H  8.04600 59.18300 39.79600
H  9.23900 60.33300 39.51800
H  8.92300 60.06100 41.17200
H  4.90800 58.23300 42.21100
H  4.30900 57.11300 44.89100
H  6.93200 58.92200 44.11100
H  5.30100 58.98500 44.91500
H  5.64600 59.92700 43.52800
H  2.53300 58.04700 43.45000
H  2.25300 56.49000 44.10500
H  2.04500 57.27500 41.27700
H  1.52600 55.77500 42.08600
H  3.04000 55.95400 41.32400
H  3.06900 51.58600 45.83600
H  2.34400 50.47000 44.60500
H  2.05400 52.24800 44.70200
H  6.90000 48.43600 42.82100
H  5.71700 46.92700 38.91300
H  4.61700 45.87700 39.86400
H  6.36200 45.52600 39.65100

