158

Mg 26.29300 49.78300 26.16400
C  24.19300 51.00500 28.78400
C  28.33900 48.65300 28.58800
C  28.62600 49.35500 23.80300
C  24.28600 51.30800 23.91800
N  26.40300 50.08400 28.47400
C  25.35000 50.39300 29.30100
C  25.65500 49.97400 30.79600
C  27.02000 49.33600 30.66200
C  27.27600 49.30700 29.12700
C  28.13300 50.12300 31.41800
C  24.52300 49.12400 31.42600
C  23.64600 49.79800 32.49800
H  23.66100 49.05300 33.84600
N  28.22900 49.10400 26.22900
C  28.88100 48.60700 27.29800
C  30.14900 48.07900 26.91900
C  30.30900 48.33400 25.53900
C  29.04200 48.97000 25.15500
C  31.22400 47.47300 27.88300
C  31.39500 47.95000 24.58500
O  31.38800 48.07600 23.35600
C  32.61500 47.22400 25.11900
N  26.40000 50.33600 24.13500
C  27.40000 49.88400 23.40200
C  27.07300 50.13800 21.87400
C  25.58400 50.66100 21.94100
C  25.40900 50.84300 23.37300
C  28.12600 51.12300 21.21600
C  24.56000 49.71200 21.38200
C  24.01400 49.94300 19.97600
N  24.56000 50.80000 26.25800
C  23.91000 51.41000 25.28200
C  22.65800 51.93300 25.79200
C  22.73700 51.66800 27.18200
C  23.91000 51.10300 27.44500
C  21.49900 52.66100 25.08600
C  21.96300 51.92500 28.37000
O  20.80900 52.35300 28.52800
C  22.86200 51.45000 29.46800
C  23.08300 52.55100 30.45000
O  24.02100 53.34400 30.48700
O  22.18400 52.56800 31.43200
C  22.27500 53.67000 32.41800
H  28.92600 48.13500 29.34900
H  29.22500 49.03300 22.94800
H  23.55100 51.57100 23.15400
H  25.80300 50.84200 31.43900
H  26.94800 48.29100 30.96200
H  28.90800 50.58000 30.80200
H  28.56500 49.56400 32.24800
H  27.63400 50.96800 31.89300
H  24.96400 48.22000 31.84600
H  23.84900 48.69300 30.68600
H  22.59800 49.98700 32.26700
H  23.98100 50.82500 32.64700
H  30.97100 47.54800 28.94100
H  32.16800 48.01600 27.85300
H  31.43200 46.44000 27.60300
H  33.20400 47.72800 25.88600
H  33.10300 46.97600 24.17700
H  32.13400 46.30500 25.45600
H  27.13400 49.25700 21.23500
H  25.51800 51.64500 21.47700
H  27.60900 51.86300 20.60400
H  28.71500 50.63600 20.43800
H  28.80900 51.74100 21.80000
H  23.65800 49.61700 21.98600
H  25.10400 48.78000 21.22500
H  24.72200 50.32800 19.24200
H  23.11100 50.53800 20.11300
H  23.73300 48.93400 19.67400
H  21.85400 52.93000 24.09100
H  21.24000 53.61500 25.54600
H  20.69300 51.92900 25.04200
H  22.40600 50.63000 30.02400
H  22.52200 54.65000 32.01000
H  23.18200 53.48300 32.99400
H  21.46200 53.78600 33.13500
Mg -3.21500 35.03600 27.22800
C  -4.14000 32.87300 29.85000
C  -1.72300 37.14100 29.65300
C  -2.54800 37.15700 24.86100
C  -4.90200 32.93100 24.97400
N  -3.14400 35.01600 29.54400
C  -3.50600 33.97100 30.30900
C  -3.23200 34.30800 31.72500
C  -2.62700 35.76200 31.68200
C  -2.38100 35.99600 30.19600
C  -3.57800 36.84500 32.29200
C  -2.29600 33.21800 32.39800
C  -2.74700 32.40600 33.66500
H  -1.93100 32.62200 34.94400
N  -2.13300 36.80500 27.24800
C  -1.56500 37.46100 28.34800
C  -1.04000 38.73100 27.78400
C  -1.16900 38.74500 26.39700
C  -2.00300 37.53600 26.10900
C  -0.28100 39.70000 28.75800
C  -0.75000 39.70700 25.30500
O  -0.80200 39.62400 24.07800
C  -0.03700 40.93700 25.89400
N  -3.69600 35.08500 25.16500
C  -3.23100 36.06900 24.39100
C  -3.50900 35.81500 22.92300
C  -4.34700 34.54000 22.96800
C  -4.33000 34.14900 24.45900
C  -4.10000 36.94700 22.06900
C  -3.76900 33.36600 22.10900
C  -2.41500 32.68400 22.52000
N  -4.33300 33.29800 27.36300
C  -4.83600 32.50200 26.35700
C  -5.40700 31.29800 26.92000
C  -5.13100 31.44800 28.24800
C  -4.47000 32.60900 28.50800
C  -6.19500 30.27800 26.16800
C  -5.42300 30.76800 29.46800
O  -6.07800 29.75900 29.75300
C  -4.70500 31.70200 30.63000
C  -5.87300 32.05300 31.51500
O  -6.73200 32.85500 31.18700
O  -5.79500 31.33700 32.71400
C  -6.70200 31.80000 33.71200
H  -1.27500 37.82500 30.37600
H  -2.47600 37.93300 24.09700
H  -5.16900 32.14800 24.26100
H  -4.16100 34.27300 32.29300
H  -1.64400 35.88000 32.13900
H  -3.04300 37.33300 33.10700
H  -4.50700 36.43300 32.68500
H  -3.84400 37.70400 31.67600
H  -1.33800 33.72900 32.49100
H  -2.16200 32.50800 31.58300
H  -2.66600 31.35600 33.38300
H  -3.78000 32.69700 33.86000
H  -0.18800 39.36500 29.79100
H  -0.59800 40.73900 28.66700
H  0.71600 39.65600 28.31900
H  0.86300 40.61000 26.41600
H  -0.73300 41.34500 26.62700
H  0.28300 41.56300 25.06100
H  -2.56000 35.68400 22.40100
H  -5.35500 34.68300 22.58100
H  -5.17300 36.80200 21.94200
H  -3.53200 37.14300 21.15900
H  -4.01800 37.93500 22.52300
H  -3.61100 33.72800 21.09300
H  -4.55000 32.61300 22.00000
H  -2.48400 31.60300 22.39300
H  -2.19300 32.90300 23.56400
H  -1.61000 33.10600 21.91900
H  -5.63600 29.41400 25.81000
H  -6.48800 30.81200 25.26300
H  -7.01700 29.89800 26.77400
H  -3.94200 31.11500 31.14100
H  -6.10200 32.53200 34.25200
H  -7.00000 30.97100 34.35500
H  -7.63300 32.18100 33.29500

