158

Mg 24.39900 -5.01600 45.19600
C  26.71600 -2.57000 43.89900
C  21.96600 -3.50200 43.29800
C  22.38700 -7.78000 45.68700
C  27.00000 -6.66600 46.69000
N  24.40500 -3.31500 43.62300
C  25.39000 -2.44300 43.35200
C  24.96700 -1.53000 42.23000
C  23.42900 -1.60900 42.37600
C  23.22600 -2.84400 43.18000
C  22.94500 -0.31700 43.14100
C  25.42100 -1.94500 40.75500
C  26.39800 -0.94200 40.07700
H  26.28700 -0.95700 38.49300
N  22.40500 -5.52400 44.62100
C  21.57300 -4.68900 43.94200
C  20.30100 -5.24600 43.87300
C  20.37600 -6.55100 44.46800
C  21.78000 -6.65700 44.99300
C  19.11400 -4.62400 43.18200
C  19.32900 -7.65400 44.49300
O  18.23000 -7.37000 44.03100
C  19.58100 -9.07400 44.85300
N  24.66100 -6.97200 46.05500
C  23.64700 -7.89600 46.16900
C  24.06200 -9.17100 46.95700
C  25.50300 -8.76600 47.40600
C  25.73300 -7.35700 46.76500
C  23.11200 -9.41600 48.19700
C  26.62900 -9.77300 47.03200
C  27.60400 -10.14900 48.18300
N  26.41500 -4.67400 45.30100
C  27.33500 -5.47100 45.91200
C  28.66300 -4.93100 45.71100
C  28.48000 -3.74300 44.97600
C  27.08400 -3.64600 44.73500
C  29.88100 -5.39900 46.30100
C  29.10400 -2.62500 44.27400
O  30.26700 -2.24000 44.32100
C  27.99300 -1.90300 43.49900
C  28.04100 -0.38700 43.89200
O  27.80700 0.01900 44.99100
O  28.51000 0.35000 42.86900
C  28.68700 1.78400 43.06500
H  21.13400 -2.96100 42.84200
H  21.75200 -8.62900 45.95200
H  27.90200 -7.06500 47.15900
H  25.34800 -0.53300 42.45300
H  22.85600 -1.64300 41.45000
H  23.75900 0.11000 43.72700
H  22.17400 -0.53200 43.88100
H  22.61800 0.48600 42.48000
H  24.53500 -1.93200 40.11900
H  25.83800 -2.95200 40.77900
H  27.36900 -1.36900 40.32900
H  26.33800 0.06100 40.50200
H  19.20600 -3.53800 43.16400
H  18.16800 -4.87800 43.66200
H  19.06800 -5.10800 42.20700
H  20.43300 -9.53200 44.35000
H  18.70800 -9.68600 44.62700
H  19.73400 -9.25600 45.91700
H  24.06500 -9.98700 46.23400
H  25.57200 -8.60600 48.48200
H  22.15100 -8.94900 47.98000
H  23.60700 -9.01200 49.08000
H  22.94800 -10.45200 48.49400
H  27.28000 -9.29500 46.30000
H  26.17600 -10.70300 46.68800
H  27.51200 -9.60000 49.12000
H  28.66100 -10.19400 47.92100
H  27.34800 -11.16500 48.48300
H  29.91900 -5.27300 47.38300
H  30.77100 -4.84900 45.99700
H  30.10700 -6.44200 46.08000
H  28.07300 -2.01400 42.41700
H  29.76600 1.85400 42.92500
H  28.36100 2.08400 44.06100
H  28.09700 2.38900 42.37600
Mg 27.02200 50.29500 25.93500
C  24.81900 51.13300 28.60100
C  29.04600 48.73200 28.29300
C  29.19000 49.74600 23.47100
C  24.81000 51.71800 23.73200
N  26.92100 49.99800 28.15000
C  25.94500 50.38100 29.02700
C  26.26100 49.97000 30.48300
C  27.71500 49.49900 30.31200
C  27.93700 49.38200 28.79300
C  28.96200 50.20800 31.09600
C  25.15500 49.02100 31.05800
C  24.52100 49.47600 32.39100
H  25.36900 50.06600 33.57900
N  28.86500 49.37500 25.86400
C  29.52000 48.72800 26.93500
C  30.79900 48.17500 26.37900
C  30.86000 48.57300 25.00500
C  29.61700 49.18900 24.71200
C  31.66800 47.29400 27.16000
C  32.02600 48.34800 23.94700
O  32.04600 48.51700 22.73600
C  33.32000 47.81400 24.59600
N  26.98200 50.66000 23.92000
C  28.02000 50.34700 23.11100
C  27.63400 50.63100 21.63100
C  26.22700 51.25100 21.74400
C  25.96400 51.16000 23.20900
C  28.62600 51.43600 20.75000
C  25.15000 50.62000 20.81000
C  24.07600 51.52600 20.22000
N  25.18900 51.29900 26.08600
C  24.43600 51.78100 25.11500
C  23.29000 52.49400 25.63900
C  23.40400 52.25400 27.01700
C  24.61100 51.55600 27.24900
C  22.33900 53.31800 24.81400
C  22.75000 52.52100 28.30700
O  21.79000 53.16500 28.66100
C  23.74000 51.84800 29.41400
C  24.25000 52.93400 30.23700
O  25.29300 53.52800 29.99900
O  23.48700 53.13100 31.33000
C  23.96900 54.06000 32.31400
H  29.79000 48.34900 28.99500
H  29.86400 49.59300 22.62600
H  24.06100 52.08100 23.02500
H  26.17800 50.93000 30.99100
H  27.74100 48.47300 30.67900
H  29.52800 50.83000 30.40200
H  29.57900 49.43300 31.55100
H  28.58300 50.87700 31.86900
H  25.57900 48.02000 31.13100
H  24.36400 48.90400 30.31800
H  24.03600 48.59400 32.81100
H  23.61200 50.07300 32.31700
H  31.76500 46.28500 26.75800
H  31.28500 47.25400 28.18000
H  32.64900 47.76400 27.23100
H  34.11000 48.05300 23.88400
H  33.20800 46.75900 24.84600
H  33.43300 48.51100 25.42600
H  27.62100 49.63000 21.19900
H  26.28700 52.32300 21.55400
H  29.17500 52.07000 21.44600
H  28.04800 52.10800 20.11500
H  29.34800 50.84800 20.18400
H  24.57100 49.86600 21.34200
H  25.42500 50.01000 19.94900
H  23.94000 51.14700 19.20600
H  24.53100 52.50700 20.08700
H  23.22700 51.49000 20.90200
H  22.91200 53.72900 23.98300
H  21.88900 54.02600 25.51100
H  21.61500 52.74900 24.23100
H  23.27000 51.11400 30.06800
H  24.35700 54.95100 31.82100
H  24.81000 53.52400 32.75100
H  23.27400 54.23400 33.13600

