158

Mg -0.17300 7.50900 26.07900
C  0.75300 9.69700 28.82600
C  0.38000 4.92500 28.05100
C  -0.51300 5.69100 23.36400
C  0.14800 10.48000 24.01500
N  0.35200 7.39600 28.27300
C  0.55500 8.33300 29.20200
C  0.56700 7.70300 30.58700
C  0.91600 6.21700 30.16200
C  0.42200 6.13300 28.77600
C  2.36200 5.69500 30.26100
C  -0.75800 8.00000 31.32600
C  -0.70500 8.28400 32.80600
H  0.65800 7.90800 33.50700
N  -0.31900 5.53400 25.75200
C  0.03900 4.63900 26.72100
C  -0.24400 3.37100 26.15300
C  -0.62200 3.51600 24.76300
C  -0.53000 4.94400 24.54400
C  -0.03800 2.07700 26.88400
C  -0.99400 2.49200 23.64500
O  -1.43700 2.76400 22.56300
C  -1.00200 1.03700 24.12500
N  -0.06400 8.06100 23.92100
C  -0.29700 7.02600 23.03100
C  -0.41200 7.58800 21.57200
C  -0.11100 9.12100 21.81100
C  -0.01800 9.27000 23.34200
C  0.57600 6.81900 20.66500
C  -1.20100 10.01900 21.22700
C  -2.54800 9.94600 21.92500
N  0.29300 9.65900 26.28600
C  0.44000 10.69700 25.38300
C  0.75400 11.98200 26.06400
C  0.89900 11.62100 27.42400
C  0.68500 10.16400 27.50200
C  0.74200 13.33400 25.45200
C  1.12600 12.13200 28.76500
O  1.36900 13.29500 29.11600
C  0.96700 10.90800 29.72800
C  2.14300 10.75100 30.55700
O  3.02700 9.88400 30.53600
O  2.09600 11.71300 31.52400
C  3.19300 11.64800 32.53400
H  0.39500 4.05200 28.70700
H  -0.71100 5.15900 22.43100
H  0.32100 11.35800 23.38900
H  1.42800 8.02900 31.17000
H  0.34600 5.75700 30.96900
H  2.62800 5.09900 31.13500
H  3.12400 6.47400 30.25200
H  2.59900 5.05100 29.41500
H  -1.40000 7.12900 31.19800
H  -1.15400 8.88200 30.82100
H  -1.33800 7.62800 33.40400
H  -0.87900 9.34700 32.97100
H  0.35500 2.22900 27.88900
H  0.72500 1.53200 26.32900
H  -1.00200 1.57800 26.99000
H  0.02300 0.87900 24.46000
H  -1.36300 0.42700 23.29700
H  -1.68700 0.87000 24.95600
H  -1.41000 7.51700 21.14000
H  0.86200 9.40700 21.41200
H  -0.01200 6.45900 19.82100
H  1.16300 6.10300 21.24000
H  1.31900 7.40800 20.12800
H  -1.11500 9.79900 20.16300
H  -0.87800 11.05400 21.34000
H  -3.30700 9.47200 21.30300
H  -2.84100 10.98000 22.10700
H  -2.58300 9.47200 22.90600
H  0.51400 14.07500 26.21700
H  -0.01900 13.37500 24.67300
H  1.74200 13.49800 25.05100
H  0.08200 10.93100 30.36300
H  2.89900 12.20100 33.42700
H  4.09600 12.07700 32.10000
H  3.27700 10.58100 32.73800
Mg 25.13600 1.50900 29.94500
C  27.10200 1.04400 32.86600
C  22.36600 1.28000 32.08900
C  23.24700 1.60100 27.29200
C  27.88500 0.59800 28.05000
N  24.85500 1.37700 32.23900
C  25.76800 1.25800 33.20400
C  25.19900 1.31700 34.67800
C  23.76200 1.18800 34.37200
C  23.60200 1.31000 32.79000
C  22.93600 -0.02300 34.92900
C  25.65800 2.57800 35.55600
C  26.18000 2.23600 36.97400
H  25.69300 3.09800 38.16600
N  23.03300 1.60400 29.75400
C  22.10800 1.50300 30.72300
C  20.84200 1.74600 30.00100
C  21.02700 1.74300 28.59000
C  22.47400 1.69900 28.47400
C  19.62900 2.11300 30.66800
C  20.09200 1.81400 27.45100
O  20.44200 1.80800 26.24000
C  18.59100 1.89100 27.75400
N  25.45600 0.73300 27.96600
C  24.57500 1.16800 27.03100
C  25.07600 1.14100 25.57700
C  26.58200 0.74200 25.83200
C  26.66500 0.75300 27.41500
C  24.24700 0.15200 24.71000
C  27.54200 1.69400 25.04200
C  28.04200 2.97900 25.80000
N  27.13500 1.05000 30.29500
C  28.13400 0.75100 29.42100
C  29.33600 0.68700 30.17300
C  28.97300 0.88000 31.52400
C  27.61900 1.06000 31.53600
C  30.63900 0.39200 29.58600
C  29.54300 0.68700 32.80500
O  30.67400 0.39000 33.22300
C  28.29800 0.87500 33.76500
C  28.39500 -0.30000 34.73500
O  27.83500 -1.42700 34.59700
O  29.03400 0.08100 35.81300
C  28.82400 -0.71400 37.06400
H  21.51400 1.21300 32.76900
H  22.81500 1.71400 26.29600
H  28.79400 0.48500 27.45700
H  25.52900 0.44300 35.24000
H  23.21000 2.08900 34.64000
H  22.22200 0.34200 35.66700
H  23.56900 -0.70900 35.49200
H  22.61300 -0.79900 34.23500
H  24.82800 3.28400 35.57900
H  26.54400 3.02300 35.10200
H  27.27000 2.22000 36.99100
H  25.85400 1.25800 37.32900
H  19.64800 2.05500 31.75600
H  18.96500 1.25500 30.56100
H  19.19700 3.04200 30.29600
H  18.05200 1.82700 26.80900
H  18.26300 2.80200 28.25500
H  18.26300 1.08600 28.41200
H  25.03900 2.12000 25.09900
H  26.76800 -0.31600 25.64300
H  23.34500 -0.11800 25.25900
H  24.81600 -0.72200 24.39300
H  23.83200 0.61200 23.81300
H  27.05300 2.03100 24.12800
H  28.47200 1.22900 24.71500
H  27.56500 2.91500 26.77800
H  27.69400 3.82100 25.20200
H  29.13100 2.95600 25.79600
H  31.48900 0.80100 30.13200
H  30.69400 0.79900 28.57600
H  30.66700 -0.68700 29.43400
H  28.32600 1.77400 34.37900
H  28.27200 -1.64600 36.94300
H  28.35200 -0.07400 37.81000
H  29.79100 -0.96900 37.49700

