158

Mg 35.69600 3.40600 30.82400
C  33.02300 4.34000 32.76900
C  37.66600 3.35400 33.59800
C  38.32900 2.47700 28.86800
C  33.66300 3.54800 28.01300
N  35.32300 3.63000 32.92900
C  34.14500 4.00500 33.52200
C  34.24500 3.99700 35.04300
C  35.80400 3.95800 35.27200
C  36.30600 3.63600 33.85100
C  36.41100 5.24800 35.86500
C  33.34400 2.85800 35.61900
C  33.54600 2.20700 36.99700
H  33.97400 3.04700 38.20200
N  37.68600 2.91000 31.26900
C  38.34200 2.99800 32.43000
C  39.75300 2.82800 32.22800
C  39.91500 2.27500 30.92800
C  38.60400 2.52600 30.26000
C  40.74300 2.91500 33.33000
C  41.02200 1.54000 30.32200
O  40.97900 1.16200 29.12900
C  42.11600 1.11900 31.22900
N  35.90300 2.98500 28.77200
C  37.11700 2.71900 28.18900
C  37.04300 2.62700 26.64700
C  35.54000 2.95300 26.36200
C  35.00900 3.21600 27.78000
C  37.87400 3.68600 25.89800
C  34.79200 1.74800 25.76200
C  34.31900 0.55800 26.69400
N  33.74400 3.89200 30.36900
C  33.03200 3.88600 29.20500
C  31.67000 4.22800 29.44600
C  31.59100 4.51500 30.83700
C  32.87400 4.20200 31.38600
C  30.57400 4.21100 28.42000
C  30.78100 4.93000 31.96600
O  29.66100 5.46400 32.01800
C  31.65100 4.80500 33.25900
C  31.75900 6.15500 33.96100
O  32.56900 6.99400 33.59800
O  30.84100 6.30500 34.99200
C  31.05800 7.34500 36.00500
H  38.17600 3.37200 34.56300
H  39.16900 2.40100 28.17400
H  32.94300 3.65300 27.19900
H  33.80600 4.94600 35.35100
H  36.16100 3.13900 35.89600
H  36.94500 5.87700 35.15200
H  37.03300 5.22100 36.76000
H  35.52700 5.82500 36.13600
H  33.51600 2.01200 34.95400
H  32.28300 3.07700 35.49700
H  34.26300 1.40600 36.81800
H  32.56900 1.74600 37.14200
H  41.72200 3.18200 32.93400
H  40.65500 2.00800 33.92900
H  40.65600 3.76300 34.01000
H  42.52000 0.23900 30.72700
H  41.73200 0.76800 32.18700
H  43.01300 1.72800 31.34200
H  37.29500 1.59300 26.41400
H  35.43100 3.88800 25.81200
H  38.74100 3.18500 25.46600
H  38.26000 4.34300 26.67800
H  37.45900 4.25900 25.06900
H  35.45500 1.33200 25.00400
H  33.98000 2.20900 25.19900
H  33.89800 0.85700 27.65400
H  35.05800 -0.23700 26.80500
H  33.54700 0.14500 26.04500
H  30.52000 3.30900 27.81000
H  30.59100 4.99000 27.65800
H  29.62500 4.27900 28.95200
H  31.14000 4.15800 33.97200
H  31.33100 6.79100 36.90200
H  30.15300 7.85500 36.33600
H  31.91800 7.99500 35.84300
Mg 35.64900 48.82800 26.21800
C  35.85600 46.78300 28.89000
C  34.14300 51.18900 28.20800
C  35.31500 50.76800 23.42800
C  37.06200 46.35800 24.11900
N  35.20000 49.06100 28.32700
C  35.39500 48.07100 29.24400
C  35.24900 48.59800 30.70800
C  34.31100 49.75900 30.46300
C  34.53700 50.09500 28.94600
C  32.84000 49.60900 30.88100
C  36.61700 48.87200 31.47500
C  36.49700 48.79900 33.03300
H  35.10900 48.96200 33.67000
N  34.86400 50.72400 25.85200
C  34.36900 51.53700 26.86200
C  34.00200 52.81800 26.21400
C  34.28900 52.66000 24.78400
C  34.84200 51.34600 24.63000
C  33.44900 54.03000 26.95700
C  34.17600 53.70900 23.71400
O  34.51600 53.51000 22.59100
C  33.72000 55.09600 23.99400
N  36.08000 48.56400 24.10400
C  35.79900 49.51100 23.18600
C  35.99100 48.98600 21.77000
C  36.72000 47.60200 21.97900
C  36.60700 47.47500 23.48200
C  34.65300 48.94600 20.88400
C  38.19800 47.51100 21.55400
C  39.24800 48.48000 22.13300
N  36.35400 46.96900 26.45700
C  36.84400 46.02300 25.46600
C  37.21200 44.85200 26.20000
C  36.84400 45.10100 27.53000
C  36.27700 46.35000 27.59600
C  37.77700 43.60200 25.69100
C  36.92300 44.51000 28.83900
O  37.28000 43.39900 29.20300
C  36.26500 45.58200 29.77000
C  35.17600 44.99800 30.56300
O  34.33500 44.19700 30.13900
O  35.33000 45.38100 31.91600
C  34.29000 44.76900 32.72500
H  33.62700 51.89700 28.86100
H  35.32500 51.40700 22.54200
H  37.46900 45.52700 23.53800
H  34.74400 47.78900 31.23500
H  34.77100 50.59200 30.99300
H  32.22700 49.55600 29.98100
H  32.48600 50.42500 31.51100
H  32.78700 48.68200 31.45300
H  37.02200 49.86400 31.27700
H  37.41900 48.22400 31.12000
H  37.12600 49.60200 33.41600
H  36.94200 47.86200 33.36900
H  32.81300 54.61300 26.29100
H  34.19300 54.58100 27.53200
H  32.74400 53.67300 27.70800
H  32.68800 55.21000 24.32500
H  33.73700 55.56000 23.00800
H  34.48100 55.54000 24.63600
H  36.75200 49.60500 21.29500
H  36.19000 46.71800 21.62500
H  33.78100 49.20100 21.48600
H  34.49200 48.06000 20.26800
H  34.68300 49.81900 20.23200
H  38.15500 47.47100 20.46600
H  38.54700 46.49300 21.73200
H  39.49700 49.19700 21.35100
H  40.09000 47.86500 22.45200
H  38.84000 48.88300 23.06000
H  38.21700 43.67000 24.69600
H  37.10800 42.74100 25.67700
H  38.60700 43.46600 26.38500
H  36.97900 45.96900 30.49800
H  34.51600 43.72400 32.93700
H  33.30500 44.78400 32.25900
H  34.14900 45.28100 33.67700

