158

Mg 47.41300 25.22800 28.51400
C  48.21800 27.27400 31.19700
C  46.44300 22.65900 30.73800
C  47.09000 23.08700 25.94300
C  48.69000 27.68000 26.35100
N  47.18300 25.09500 30.53700
C  47.46400 26.11700 31.49900
C  47.26700 25.65300 32.97500
C  46.89600 24.18000 32.76500
C  46.82900 23.94700 31.24700
C  47.75700 23.24800 33.51300
C  46.29100 26.46000 33.79600
C  46.73800 26.73200 35.25100
H  45.89800 27.54800 36.19000
N  46.73000 23.13700 28.37100
C  46.41200 22.28100 29.38500
C  46.13100 20.97300 28.82200
C  46.26800 21.07600 27.44200
C  46.70700 22.46100 27.17400
C  45.85200 19.76700 29.65900
C  45.91600 20.18300 26.33900
O  46.00100 20.43800 25.13400
C  45.43900 18.82300 26.63800
N  47.81000 25.32100 26.44000
C  47.52500 24.34000 25.55000
C  47.71200 24.78300 24.07200
C  48.03900 26.30800 24.25200
C  48.20000 26.48000 25.79200
C  48.76700 23.90100 23.33700
C  47.02800 27.25500 23.60800
C  47.39300 27.72700 22.18500
N  48.29900 27.05600 28.65700
C  48.82800 27.95200 27.72100
C  49.44200 29.04700 28.38300
C  49.23800 28.83200 29.78300
C  48.53700 27.59100 29.86600
C  50.10200 30.17200 27.68100
C  49.38400 29.41900 31.06100
O  50.00000 30.43700 31.41000
C  48.67700 28.44500 32.01000
C  49.61400 28.12800 33.04700
O  50.52300 27.29600 32.94800
O  49.35800 28.96400 34.05900
C  50.15500 28.91500 35.26000
H  46.26600 21.87900 31.48200
H  47.06400 22.55900 24.98700
H  49.12500 28.34200 25.59900
H  48.20200 25.68600 33.53400
H  45.89200 24.09000 33.17800
H  48.27600 23.70300 34.35600
H  48.50700 22.92000 32.79300
H  47.08400 22.46300 33.85900
H  45.32500 25.97000 33.91900
H  45.98500 27.34600 33.23900
H  47.67200 27.29400 35.25000
H  46.94100 25.77800 35.73800
H  46.46000 18.91700 29.35200
H  44.87100 19.43700 29.31600
H  46.13700 19.85500 30.70700
H  44.51700 18.83300 27.21900
H  46.24700 18.39000 27.22800
H  45.22200 18.28200 25.71700
H  46.74600 24.68800 23.57500
H  48.94100 26.63100 23.73300
H  49.35500 23.51700 24.17000
H  49.27900 24.54700 22.62400
H  48.27900 23.10300 22.77800
H  46.82300 28.10400 24.26000
H  46.08900 26.73900 23.40700
H  47.70600 28.77000 22.13700
H  46.54300 27.56600 21.52100
H  48.21000 27.06300 21.90200
H  49.33200 30.89900 27.42100
H  50.67800 29.72200 26.87300
H  50.76800 30.75200 28.32000
H  47.84100 29.05100 32.35800
H  50.21600 29.94800 35.60300
H  51.12600 28.42600 35.18800
H  49.65100 28.32000 36.02200
Mg 29.82100 57.70200 39.40500
C  27.06600 55.56000 38.79100
C  31.93300 55.19800 38.48400
C  32.17900 60.11800 38.92200
C  27.38100 60.41800 39.87600
N  29.47900 55.62500 38.68200
C  28.26300 54.93100 38.47800
C  28.54400 53.54600 37.83200
C  30.05800 53.40200 38.14400
C  30.57500 54.82100 38.57700
C  30.51500 52.38400 39.13500
C  28.18700 53.21600 36.40700
C  28.35200 54.24000 35.37300
H  27.40000 54.27400 34.13800
N  31.90300 57.65500 38.91700
C  32.55500 56.50500 38.61800
C  33.90600 56.90400 38.20300
C  33.95700 58.34300 38.27800
C  32.65100 58.81800 38.78400
C  35.00400 55.84400 37.88100
C  35.13700 59.11300 37.78400
O  36.02000 58.54900 37.15000
C  35.24000 60.58400 38.03800
N  29.78000 59.94400 39.60700
C  30.91500 60.61200 39.22100
C  30.68100 62.15900 39.33700
C  29.13400 62.27400 39.68600
C  28.74300 60.81300 39.79300
C  31.59700 62.82600 40.37100
C  28.29400 63.05900 38.69800
C  27.85100 64.37000 39.19000
N  27.68500 57.98300 39.40000
C  26.87900 59.09200 39.58900
C  25.49900 58.68700 39.52100
C  25.52700 57.32100 39.20500
C  26.86600 56.97900 39.10800
C  24.29900 59.62400 39.89700
C  24.77200 56.16000 38.96200
O  23.57100 55.89300 38.93600
C  25.67100 55.03200 38.51900
C  25.28900 53.84000 39.37300
O  25.10900 53.82800 40.59200
O  25.06300 52.78200 38.51400
C  24.53600 51.49700 39.02200
H  32.52500 54.37400 38.08100
H  32.86000 60.93300 38.66500
H  26.60800 61.18900 39.91700
H  28.04900 52.84700 38.50600
H  30.56500 53.12400 37.22000
H  31.09100 52.73900 39.99000
H  31.00900 51.55600 38.62700
H  29.58300 52.01300 39.56000
H  27.20000 52.76600 36.30200
H  28.72700 52.34700 36.03200
H  29.33500 54.24500 34.90100
H  28.37000 55.22300 35.84500
H  35.43900 55.87300 36.88300
H  34.60600 54.84800 38.07400
H  35.72500 56.09800 38.65800
H  36.17500 61.07700 37.76800
H  34.94900 60.80700 39.06400
H  34.53500 60.96100 37.29700
H  30.89400 62.48400 38.31800
H  29.03800 62.68300 40.69100
H  32.63000 62.94900 40.04400
H  31.58700 62.28000 41.31400
H  31.20900 63.84200 40.44300
H  27.49500 62.49100 38.22100
H  28.83700 63.23500 37.77000
H  28.37900 64.96800 38.44700
H  28.21800 64.66100 40.17400
H  26.78400 64.57400 39.09600
H  24.14200 60.16700 38.96500
H  24.70900 60.32600 40.62300
H  23.43900 59.07200 40.27600
H  25.44900 54.81400 37.47500
H  23.57300 51.39700 38.52200
H  24.47300 51.49000 40.11000
H  25.05600 50.62000 38.63600

