158

Mg 46.91600 16.74900 28.07000
C  44.82400 16.18700 30.91200
C  49.00500 18.47900 30.32700
C  48.82200 17.85500 25.42000
C  44.75300 15.27100 26.00600
N  46.79700 17.36500 30.38000
C  45.88700 17.02500 31.33800
C  46.28400 17.43500 32.79500
C  47.52100 18.34500 32.41600
C  47.83500 18.07200 30.93700
C  47.28300 19.87400 32.78400
C  46.72200 16.21000 33.58900
C  46.54000 16.17200 35.15300
H  45.98400 17.44900 35.90500
N  48.67900 17.91300 27.89800
C  49.39000 18.45100 28.95600
C  50.60900 18.99100 28.46600
C  50.59300 18.95500 27.02600
C  49.33800 18.18000 26.71600
C  51.73200 19.56300 29.28300
C  51.67600 19.49800 26.03400
O  51.46300 19.48000 24.86000
C  52.96200 20.07700 26.48900
N  46.71600 16.76300 25.90900
C  47.65800 17.22500 25.06000
C  47.16900 16.95100 23.59200
C  45.95400 16.03700 23.82500
C  45.81000 15.95300 25.34200
C  46.85700 18.20800 22.73800
C  46.04900 14.60600 23.20100
C  44.83200 14.05200 22.42100
N  45.18400 15.86000 28.30500
C  44.37500 15.27400 27.39300
C  43.17500 14.74200 28.03200
C  43.33700 14.98500 29.44600
C  44.49000 15.79900 29.57400
C  42.00400 14.12300 27.36100
C  42.77400 14.85100 30.73100
O  41.77500 14.33600 31.09900
C  43.71100 15.64400 31.74600
C  42.85300 16.66500 32.37900
O  42.60400 17.80100 31.94600
O  42.40300 16.19200 33.60500
C  41.61600 17.07000 34.39500
H  49.81400 18.97300 30.87000
H  49.46500 18.26100 24.63700
H  44.08200 14.70000 25.36000
H  45.43700 17.96000 33.23500
H  48.37300 18.04600 33.02800
H  46.30200 20.12200 33.19000
H  47.63800 20.53600 31.99400
H  47.90900 20.14600 33.63400
H  47.78400 16.01200 33.44200
H  46.12200 15.36000 33.26400
H  47.48000 15.99900 35.67700
H  45.94400 15.31600 35.46900
H  51.98800 20.57700 28.97600
H  52.72800 19.17900 29.06200
H  51.51100 19.49500 30.34900
H  52.78900 21.03800 26.97300
H  53.47400 20.18800 25.53300
H  53.51500 19.34200 27.07400
H  47.93100 16.31500 23.14000
H  44.98600 16.39200 23.47200
H  47.19400 19.12300 23.22500
H  45.77500 18.19900 22.60700
H  47.31400 18.06700 21.75800
H  46.24800 13.94100 24.04200
H  46.87000 14.60500 22.48400
H  44.88500 12.96600 22.50100
H  45.02200 14.44700 21.42300
H  43.84300 14.42500 22.68700
H  41.93200 13.03800 27.43600
H  41.95100 14.48200 26.33300
H  41.13400 14.57900 27.83400
H  44.02600 14.94800 32.52300
H  42.01700 18.08300 34.42300
H  41.70700 16.72600 35.42600
H  40.58600 17.04800 34.03900
Mg 26.62700 50.60500 26.51500
C  24.70000 52.01700 29.02200
C  29.02000 49.70800 28.91900
C  28.71300 49.53900 24.02900
C  24.47800 52.03000 24.24400
N  26.82800 50.92600 28.69400
C  25.82400 51.37700 29.51300
C  26.23800 51.09100 30.97600
C  27.70000 50.55600 30.94800
C  27.84400 50.29800 29.44000
C  28.75900 51.46500 31.45100
C  25.25800 50.12600 31.73600
C  24.78100 50.50300 33.22800
H  24.94000 49.49400 34.39900
N  28.62500 49.69900 26.50100
C  29.43600 49.49300 27.57200
C  30.71100 48.92400 27.08600
C  30.64600 48.91900 25.57800
C  29.29200 49.38100 25.30500
C  31.85400 48.68700 28.09800
C  31.67700 48.51300 24.47200
O  31.57700 48.68000 23.22900
C  32.98300 47.92400 24.94100
N  26.64600 50.81700 24.46400
C  27.45300 50.12000 23.61400
C  27.01700 50.22300 22.17600
C  25.53300 50.74200 22.31600
C  25.54700 51.25300 23.75800
C  27.87400 51.21900 21.42200
C  24.42500 49.60700 22.21900
C  23.32600 49.96800 21.25300
N  24.89700 51.84200 26.56500
C  24.12300 52.25100 25.56900
C  22.94800 52.86200 26.03800
C  23.02000 52.81700 27.39900
C  24.31400 52.22200 27.70100
C  21.92700 53.53800 25.30500
C  22.47600 53.13800 28.68300
O  21.52700 53.82100 28.87700
C  23.55500 52.61100 29.77000
C  23.99100 53.81300 30.51600
O  24.61500 54.78000 30.10700
O  23.67100 53.66900 31.84300
C  24.19500 54.66700 32.78500
H  29.61700 49.25200 29.71100
H  29.23100 49.09800 23.17500
H  23.80800 52.40200 23.46600
H  26.27400 51.97800 31.60900
H  27.83600 49.57400 31.40200
H  28.56300 51.75100 32.48400
H  28.75400 52.37000 30.84500
H  29.72800 50.99300 31.61800
H  25.62400 49.10000 31.73200
H  24.41900 49.98500 31.05400
H  23.71300 50.71900 33.21200
H  25.40400 51.36600 33.46100
H  31.80800 47.66500 28.47500
H  31.87200 49.38300 28.93600
H  32.79400 48.89300 27.58500
H  32.73100 47.22600 25.73900
H  33.50700 48.76900 25.38900
H  33.60800 47.56800 24.12300
H  26.98200 49.23800 21.71100
H  25.43300 51.56000 21.60400
H  28.77700 51.59600 21.90100
H  27.32900 52.07000 21.01300
H  28.25800 50.77800 20.50200
H  23.95100 49.32500 23.15900
H  24.96500 48.75700 21.80100
H  23.62200 50.75700 20.56000
H  22.51400 50.38800 21.84700
H  23.01700 49.09300 20.68100
H  22.43900 54.18700 24.59400
H  21.31800 54.16600 25.95600
H  21.30900 52.83000 24.75300
H  23.12700 51.90200 30.47900
H  23.55000 54.51600 33.65000
H  23.97900 55.68900 32.47200
H  25.26600 54.46400 32.79000

