158

Mg 51.15200 44.78900 42.27000
C  47.92100 45.17800 40.86100
C  51.01400 41.37800 41.21900
C  54.31800 44.57000 42.80500
C  51.40300 48.35900 42.47500
N  49.57100 43.44500 41.16600
C  48.36300 43.85200 40.67500
C  47.60300 42.68800 40.03400
C  48.61200 41.43900 40.19300
C  49.80600 42.10600 40.94100
C  48.07800 40.08000 40.92600
C  47.29000 42.93000 38.50700
C  45.81400 42.77000 38.10700
H  45.55000 41.92200 36.81200
N  52.53400 43.17700 42.10800
C  52.26400 41.86600 41.63200
C  53.56900 41.18700 41.62300
C  54.57000 42.02500 42.18800
C  53.81800 43.32500 42.45500
C  53.56900 39.80800 41.02900
C  56.02800 41.72700 42.28500
O  56.43200 40.61100 42.01000
C  56.96100 42.71200 42.95500
N  52.59900 46.32400 42.65000
C  53.91000 45.89400 42.75700
C  54.81000 47.14900 43.15000
C  53.88200 48.33900 42.80200
C  52.55000 47.65300 42.65500
C  55.41900 47.21000 44.59400
C  54.34600 49.11500 41.48100
C  54.73400 50.56800 41.53100
N  49.97500 46.41800 41.90700
C  50.17500 47.76800 42.10700
C  48.95700 48.45500 41.69200
C  48.07100 47.47800 41.17300
C  48.71200 46.25000 41.35700
C  48.75800 49.83800 41.64000
C  46.76200 47.30800 40.66300
O  45.91600 48.14800 40.39800
C  46.53500 45.80600 40.40900
C  45.29100 45.29500 41.17000
O  44.58300 44.35200 40.88900
O  45.05300 46.00500 42.27000
C  43.87200 45.64200 43.09600
H  50.81900 40.37800 40.82700
H  55.39500 44.68900 42.94500
H  51.56100 49.43300 42.35500
H  46.68100 42.56900 40.60400
H  49.01300 41.07800 39.24600
H  48.56500 40.05900 41.90100
H  48.29100 39.16700 40.37000
H  47.04400 40.18800 41.25400
H  48.00500 42.46100 37.83100
H  47.46900 43.97000 38.23500
H  45.49000 43.76900 37.81500
H  45.19600 42.32600 38.88800
H  54.51200 39.78500 40.48300
H  52.77100 39.61100 40.31300
H  53.62600 39.03500 41.79500
H  56.52400 42.97900 43.91800
H  57.02600 43.57100 42.28700
H  58.01500 42.43800 42.96700
H  55.66400 47.08200 42.47600
H  53.86800 49.00500 43.66500
H  54.98300 46.45700 45.25000
H  55.27100 48.19400 45.04000
H  56.49500 47.07200 44.48900
H  53.54500 49.11000 40.74200
H  55.20900 48.69400 40.96500
H  54.03500 51.10700 42.17000
H  54.57700 51.07900 40.58100
H  55.74100 50.75500 41.90300
H  49.26300 50.29800 42.49000
H  47.67700 49.97300 41.66300
H  49.17500 50.27800 40.73400
H  46.39000 45.66200 39.33900
H  44.03000 44.77500 43.73800
H  42.94300 45.58500 42.53000
H  43.80600 46.55900 43.68100
Mg 16.94900 51.60300 26.50200
C  18.73400 50.44200 29.27400
C  14.50200 52.78700 28.58900
C  15.48300 52.73800 23.73200
C  19.69600 50.45000 24.45400
N  16.65000 51.53400 28.67100
C  17.50900 51.01200 29.61000
C  17.02300 51.35600 31.01800
C  15.52400 51.74400 30.79800
C  15.46200 51.99800 29.24700
C  14.45700 50.68200 31.37800
C  17.88200 52.48300 31.65000
C  18.16900 52.23900 33.13100
H  17.16400 51.39600 33.99800
N  15.23800 52.59600 26.21600
C  14.39800 53.05800 27.17700
C  13.40900 53.87900 26.42600
C  13.55400 53.64600 25.04700
C  14.81300 52.95700 24.92900
C  12.36000 54.65000 27.13500
C  12.64300 54.12300 23.88400
O  12.94700 53.94300 22.66200
C  11.32900 54.73100 24.01300
N  17.60400 51.72500 24.40600
C  16.77200 52.21400 23.49700
C  17.46600 52.14100 22.05200
C  18.93800 51.70000 22.35300
C  18.68100 51.19600 23.78900
C  16.74900 51.16300 21.06800
C  19.99900 52.88100 22.41000
C  21.23100 52.77700 21.49100
N  18.77700 50.57400 26.72900
C  19.78400 50.22500 25.82000
C  20.85300 49.58200 26.55900
C  20.52300 49.70500 27.88700
C  19.26000 50.25800 27.97000
C  22.19900 48.99500 25.99700
C  20.92200 49.41000 29.21000
O  21.96300 48.88100 29.62000
C  19.80800 49.93700 30.19500
C  19.33400 48.74300 31.00300
O  18.85400 47.70200 30.52500
O  19.60700 48.95700 32.33700
C  19.32300 47.82100 33.12400
H  13.73000 53.24800 29.20900
H  15.09300 52.99200 22.74400
H  20.55800 50.11200 23.87600
H  17.16700 50.48400 31.65600
H  15.25500 52.68600 31.27700
H  14.90700 49.77600 31.78200
H  13.70200 50.37100 30.65600
H  13.86100 51.11200 32.18200
H  17.44100 53.47700 31.56700
H  18.87600 52.55500 31.20900
H  18.27200 53.24200 33.54500
H  19.14900 51.81200 33.33900
H  12.27900 55.62200 26.64800
H  12.50500 54.90900 28.18400
H  11.39100 54.14900 27.13300
H  10.65400 54.11100 23.42300
H  11.35900 55.73900 23.60100
H  10.79800 54.63000 24.95900
H  17.35300 53.12400 21.59300
H  19.20900 50.81300 21.78000
H  15.83500 50.78200 21.52200
H  17.36900 50.31100 20.78900
H  16.41500 51.76100 20.22100
H  20.46800 52.80500 23.39100
H  19.45000 53.82200 22.37500
H  21.39100 53.69700 20.92900
H  21.15200 51.91100 20.83400
H  22.08000 52.69300 22.17000
H  21.90200 47.97400 25.75600
H  22.83200 48.97800 26.88400
H  22.57800 49.66100 25.22200
H  20.26300 50.64600 30.88600
H  19.89400 47.80900 34.05300
H  19.45400 46.84700 32.65400
H  18.30300 47.84500 33.50800

