158

Mg 27.47000 51.23200 25.95900
C  25.31700 52.37200 28.66700
C  29.54600 50.11700 28.31500
C  29.44700 50.52400 23.46500
C  25.24800 52.86100 23.83100
N  27.42500 51.33500 28.23700
C  26.40400 51.62200 29.08600
C  26.83600 51.42600 30.53400
C  28.33500 51.05600 30.42600
C  28.49800 50.84100 28.89400
C  29.29600 52.08900 31.06800
C  25.92300 50.39200 31.19000
C  25.00300 50.90800 32.36000
H  25.22000 50.16800 33.60800
N  29.30500 50.52300 25.96400
C  29.97300 49.95900 26.98900
C  31.23100 49.33500 26.51400
C  31.12600 49.39900 25.09500
C  29.89900 50.21200 24.75900
C  32.25000 48.67600 27.33000
C  32.14100 48.79700 24.12900
O  32.06200 49.08500 22.92500
C  33.22000 47.86900 24.51100
N  27.20100 51.50300 23.96700
C  28.19000 51.14400 23.11800
C  27.93800 51.49400 21.66700
C  26.49300 52.07400 21.73600
C  26.27800 52.18500 23.25800
C  28.92300 52.53000 20.91700
C  25.38100 51.14200 21.19300
C  24.32600 51.87900 20.47600
N  25.66900 52.35100 26.14300
C  24.98900 53.01400 25.15900
C  23.71500 53.63500 25.65900
C  23.88600 53.52000 27.12000
C  25.03100 52.64900 27.28900
C  22.65000 54.37300 24.83300
C  23.29800 53.83000 28.44900
O  22.35000 54.49700 28.80400
C  24.17600 53.06800 29.52300
C  24.70100 54.04300 30.52500
O  25.68900 54.79500 30.36400
O  24.03900 53.95800 31.68100
C  24.59700 54.84000 32.78700
H  30.16500 49.66900 29.09500
H  30.10700 50.22200 22.64800
H  24.52200 53.21000 23.09400
H  26.75400 52.38800 31.04100
H  28.41300 50.08800 30.92200
H  28.83100 52.78300 31.76800
H  29.59300 52.83600 30.33200
H  30.17700 51.60600 31.49000
H  26.53700 49.54900 31.50800
H  25.27700 49.87900 30.47700
H  23.97500 50.85000 32.00400
H  25.30300 51.94200 32.53200
H  32.29700 47.58900 27.27800
H  32.10400 48.95400 28.37400
H  33.24400 49.10800 27.21500
H  34.04100 48.40600 24.98700
H  33.58600 47.54600 23.53600
H  32.88600 46.96500 25.02100
H  27.91300 50.56300 21.10100
H  26.46200 53.09000 21.34100
H  28.42700 53.41400 20.51600
H  29.43800 51.89000 20.20200
H  29.66000 53.00500 21.56500
H  24.81700 50.74600 22.03800
H  25.79700 50.33700 20.58700
H  24.57100 51.82100 19.41500
H  24.25700 52.90300 20.84300
H  23.40700 51.30100 20.58000
H  22.98800 55.23600 24.25900
H  21.79500 54.63900 25.45500
H  22.21000 53.59900 24.20500
H  23.60900 52.28200 30.02100
H  24.18700 54.34400 33.66600
H  24.24800 55.87100 32.73200
H  25.66700 55.04800 32.80400
Mg -12.13600 38.02300 42.30600
C  -9.93100 35.37800 41.40700
C  -10.11500 40.12900 40.59400
C  -14.51400 40.33900 42.76400
C  -14.46000 35.55600 43.33400
N  -10.25100 37.71000 41.03600
C  -9.54800 36.55000 40.80700
C  -8.27100 36.83500 40.00900
C  -8.29200 38.42400 39.90200
C  -9.63000 38.83000 40.47800
C  -7.07700 39.05300 40.60100
C  -8.20400 36.02900 38.64200
C  -6.98600 35.22500 38.18000
H  -6.13500 36.04800 37.10200
N  -12.26100 40.03500 41.95400
C  -11.26800 40.70800 41.23000
C  -11.60900 42.16900 41.27300
C  -12.87200 42.21700 41.87800
C  -13.25900 40.86100 42.32900
C  -10.68100 43.25000 40.72500
C  -13.55400 43.54900 42.18700
O  -13.19500 44.61200 41.61200
C  -14.75000 43.52700 43.15100
N  -14.26100 37.88500 42.68700
C  -15.01600 39.01400 42.90300
C  -16.54700 38.67100 43.00900
C  -16.53100 37.14700 43.28300
C  -15.00300 36.79900 43.07600
C  -17.55600 39.49700 43.85800
C  -17.51300 36.25400 42.43500
C  -18.66400 35.64400 43.23800
N  -12.21500 35.91500 42.43200
C  -13.16000 35.10400 43.09300
C  -12.53100 33.71600 43.18800
C  -11.30500 33.79200 42.52100
C  -11.15400 35.13100 42.04000
C  -13.07700 32.45000 43.86000
C  -10.04000 33.05100 42.15700
O  -9.79100 31.82800 42.33500
C  -9.19000 34.04400 41.24500
C  -7.81900 34.12500 41.75400
O  -6.94700 33.35500 41.46400
O  -7.76300 34.96300 42.83500
C  -6.42100 35.12600 43.38600
H  -9.51800 40.90500 40.11000
H  -15.31300 41.06400 42.93100
H  -14.93500 34.66900 43.75900
H  -7.37200 36.59300 40.57600
H  -8.27100 38.74700 38.86100
H  -6.31100 38.35300 40.93400
H  -7.45200 39.71100 41.38500
H  -6.61000 39.67700 39.83900
H  -8.31700 36.69900 37.78900
H  -8.97700 35.26000 38.65300
H  -7.24900 34.30500 37.65700
H  -6.28000 35.07300 38.99700
H  -10.87600 43.40200 39.66300
H  -9.64900 42.91700 40.83300
H  -10.78500 44.23000 41.19200
H  -14.64400 42.79900 43.95600
H  -15.62600 43.31400 42.53900
H  -14.80300 44.47800 43.67900
H  -16.91700 38.85700 42.00100
H  -16.75100 36.95100 44.33200
H  -18.12700 38.70100 44.33600
H  -18.14400 40.08000 43.14800
H  -16.95300 40.13100 44.50700
H  -16.78700 35.58400 41.97400
H  -17.97100 36.91600 41.70000
H  -18.48900 34.59600 43.48000
H  -19.62500 35.70900 42.72800
H  -18.67000 36.15700 44.19900
H  -14.00600 32.36700 43.29600
H  -13.25300 32.59400 44.92600
H  -12.54200 31.50900 43.73800
H  -9.23600 33.59500 40.25300
H  -6.21500 34.16200 43.85200
H  -6.49700 35.92100 44.12700
H  -5.69700 35.36200 42.60500

