158

Mg 35.84400 49.60500 24.33100
C  36.01800 47.72300 27.23500
C  34.50300 52.21700 26.04500
C  35.04400 51.02800 21.33600
C  36.69300 46.61300 22.51900
N  35.37500 49.92100 26.42300
C  35.57600 49.03300 27.44300
C  35.46600 49.78200 28.76200
C  34.79600 51.08000 28.36100
C  34.81500 51.08700 26.84200
C  33.37000 51.29900 28.97000
C  36.88100 49.96000 29.44100
C  36.87500 49.74900 30.96500
H  35.57000 49.69200 31.71700
N  34.89200 51.39700 23.74400
C  34.56500 52.36800 24.66800
C  34.21900 53.59400 23.91400
C  34.24700 53.27600 22.58500
C  34.79800 51.87900 22.52000
C  33.89500 54.92800 24.56600
C  33.79100 54.06200 21.34300
O  34.10500 53.73300 20.19300
C  33.03900 55.38200 21.51900
N  35.72000 48.91900 22.26000
C  35.46500 49.66000 21.24400
C  35.56700 48.97700 19.95700
C  36.16600 47.58300 20.27700
C  36.26200 47.70400 21.79800
C  34.30900 48.90600 19.16800
C  37.49900 47.18900 19.57800
C  37.43700 46.36100 18.24200
N  36.42700 47.60700 24.71300
C  36.74400 46.50100 23.88300
C  37.11100 45.41600 24.75400
C  36.87400 45.87300 26.04200
C  36.34300 47.13100 25.95600
C  37.63100 44.08000 24.32300
C  36.88600 45.46200 27.42400
O  37.18100 44.36300 27.88900
C  36.36500 46.67600 28.21200
C  35.20800 46.19200 29.13400
O  34.08500 46.01100 28.67800
O  35.65900 45.99100 30.42400
C  34.63600 45.42400 31.32800
H  34.16400 53.12100 26.55600
H  35.02700 51.53900 20.37100
H  37.07700 45.69700 22.06300
H  34.89700 49.09400 29.38600
H  35.39700 51.88900 28.77700
H  33.29500 52.22100 29.54600
H  33.04300 50.43100 29.54400
H  32.64200 51.28900 28.15900
H  37.19100 50.99100 29.26900
H  37.62300 49.29800 28.99600
H  37.44100 50.56500 31.41500
H  37.42500 48.82500 31.14300
H  34.60500 55.03100 25.38700
H  32.84600 55.12500 24.78900
H  34.09900 55.63300 23.76000
H  33.72600 56.20200 21.72600
H  32.35400 55.38700 22.36700
H  32.47800 55.63900 20.62100
H  36.21700 49.53500 19.28300
H  35.42200 46.83100 20.01500
H  34.09400 47.90500 18.79500
H  34.43900 49.63200 18.36500
H  33.48300 49.33800 19.73300
H  38.14200 46.63600 20.26300
H  37.95500 48.15500 19.35600
H  37.83800 45.38000 18.49700
H  38.13600 46.75900 17.50700
H  36.43800 46.30900 17.81100
H  36.95100 43.24600 24.49600
H  38.54800 43.89600 24.88200
H  37.83700 44.04400 23.25400
H  37.22400 46.97700 28.81200
H  33.60400 45.55000 31.00200
H  34.71700 45.71700 32.37500
H  34.87900 44.36100 31.30600
Mg -0.80300 33.68800 27.18500
C  -2.78200 31.91200 29.42600
C  0.49100 35.40900 29.80900
C  0.61200 35.82200 24.88000
C  -2.33700 32.00900 24.53400
N  -1.14600 33.62800 29.34400
C  -1.84700 32.73100 30.06500
C  -1.59400 32.83500 31.55700
C  -0.60000 34.06000 31.68800
C  -0.36400 34.37700 30.21800
C  -1.11800 35.21500 32.57200
C  -1.05000 31.58000 32.21300
C  -1.79800 30.96200 33.40400
H  -1.02800 30.89900 34.74100
N  0.44700 35.29800 27.35000
C  0.85400 35.84200 28.52500
C  1.76600 36.95100 28.18700
C  1.87100 37.08900 26.79300
C  0.98700 36.04500 26.24900
C  2.42600 37.77900 29.24900
C  2.60800 38.06600 25.95000
O  2.81700 37.90800 24.74900
C  3.16400 39.36200 26.55900
N  -0.86700 33.84300 25.04000
C  -0.30900 34.87700 24.31000
C  -0.80100 34.85200 22.81400
C  -1.45300 33.44900 22.74200
C  -1.61100 33.11500 24.22800
C  -1.73400 35.96600 22.50200
C  -0.55600 32.42700 21.95100
C  0.48600 31.44900 22.71600
N  -2.16000 32.19500 26.97500
C  -2.66500 31.50500 25.85200
C  -3.59400 30.50700 26.26600
C  -3.66200 30.67200 27.67700
C  -2.87800 31.71500 28.00800
C  -4.40700 29.59500 25.39000
C  -4.27100 30.23000 28.83800
O  -5.15900 29.40900 28.94900
C  -3.67100 30.95300 30.07400
C  -4.81400 31.65600 30.71700
O  -5.44700 32.59100 30.24600
O  -5.10700 31.06600 31.92400
C  -6.25900 31.47800 32.74500
H  0.90000 36.02200 30.61500
H  1.03900 36.58300 24.22300
H  -2.69300 31.30100 23.78200
H  -2.55500 33.16400 31.95200
H  0.35600 33.72500 32.09100
H  -2.00400 35.06200 33.18800
H  -1.30600 36.01300 31.85400
H  -0.36400 35.34800 33.34800
H  0.00600 31.75600 32.41700
H  -0.98200 30.78400 31.47200
H  -1.89300 29.89100 33.22500
H  -2.79400 31.39700 33.48800
H  3.50500 37.71500 29.10900
H  2.26400 37.38300 30.25100
H  1.99600 38.77900 29.30600
H  2.27700 39.66100 27.11800
H  3.48500 39.98700 25.72600
H  3.92900 39.03900 27.26500
H  0.07000 34.93400 22.16400
H  -2.42200 33.49500 22.24500
H  -1.63200 36.69000 23.31100
H  -2.78100 35.66300 22.48800
H  -1.50700 36.29200 21.48700
H  -0.06200 32.89600 21.10000
H  -1.31300 31.77000 21.52200
H  0.12200 30.42500 22.62700
H  0.47700 31.59900 23.79600
H  1.46800 31.66800 22.29600
H  -5.40500 29.59700 25.83000
H  -3.97600 28.64000 25.08800
H  -4.60900 30.17600 24.49100
H  -3.13500 30.25700 30.71900
H  -6.00100 32.40400 33.25800
H  -6.52000 30.66600 33.42400
H  -7.11100 31.70100 32.10300

