158

Mg 35.14200 2.93800 28.41800
C  33.16200 4.08800 31.12800
C  37.66500 2.40200 30.66400
C  37.28100 2.67500 25.75400
C  32.59900 3.95900 26.19800
N  35.43900 3.35700 30.60400
C  34.44400 3.63900 31.52300
C  34.97600 3.38900 32.93000
C  36.47000 3.25400 32.76500
C  36.54100 2.90600 31.26100
C  37.36400 4.41800 33.25700
C  34.19600 2.30300 33.79200
C  33.55500 2.79300 35.08100
H  34.33200 3.82400 35.88800
N  37.16300 2.37600 28.24300
C  38.01000 2.29400 29.29700
C  39.28100 1.73500 28.78200
C  39.21300 1.79400 27.34600
C  37.86900 2.39400 27.07900
C  40.48500 1.45200 29.58500
C  40.23100 1.37900 26.30800
O  40.08200 1.48700 25.06900
C  41.51000 0.79600 26.73600
N  34.96200 3.10400 26.37300
C  35.95500 2.90700 25.44900
C  35.39800 2.96600 23.97900
C  33.88700 3.18800 24.17200
C  33.74400 3.38800 25.70900
C  36.06700 4.06700 23.16100
C  33.01000 2.07600 23.54400
C  32.32600 1.07900 24.48400
N  33.20800 3.93800 28.54500
C  32.28100 4.21600 27.59300
C  31.02200 4.67100 28.27200
C  31.36000 4.65200 29.64100
C  32.68400 4.23300 29.76100
C  29.64500 4.83800 27.65300
C  30.84800 4.76900 30.96600
O  29.71500 4.92100 31.43600
C  32.03200 4.56700 31.95300
C  32.39200 5.68200 32.83000
O  33.34300 6.42500 32.64600
O  31.47600 5.88000 33.86700
C  31.74300 6.97500 34.83700
H  38.48100 2.17700 31.35400
H  37.97200 2.57700 24.91400
H  31.80000 4.07700 25.46300
H  34.88100 4.33400 33.46300
H  36.79300 2.36500 33.30800
H  38.33000 3.97700 33.50200
H  36.88900 4.95600 34.07700
H  37.41600 5.09300 32.40200
H  34.83000 1.47900 34.12000
H  33.46500 1.82800 33.13700
H  33.43600 1.94700 35.75700
H  32.50300 3.05200 34.95500
H  40.90900 0.50400 29.25600
H  40.30100 1.11200 30.60400
H  41.27400 2.19600 29.46900
H  42.00300 0.68700 25.77000
H  41.50500 -0.22400 27.11800
H  42.12200 1.49300 27.30800
H  35.69800 1.99500 23.58300
H  33.59900 4.10900 23.66500
H  36.86400 3.61500 22.57000
H  36.51700 4.82000 23.80700
H  35.40800 4.65700 22.52500
H  33.76500 1.49100 23.01800
H  32.24500 2.52800 22.91300
H  31.33900 1.39000 24.82800
H  33.03800 0.82900 25.27000
H  32.12000 0.18200 23.90000
H  29.65400 4.49600 26.61800
H  29.26900 5.85400 27.77900
H  29.02100 4.17000 28.24700
H  31.61500 3.79800 32.60300
H  32.21700 7.84900 34.39000
H  32.39800 6.72600 35.67200
H  30.78100 7.24900 35.27100
Mg 42.76600 42.04500 26.74100
C  42.10400 44.45600 29.15900
C  43.57700 39.84200 29.28800
C  44.01800 39.97100 24.34100
C  42.57500 44.63800 24.29500
N  42.89600 42.14600 28.93900
C  42.50700 43.24500 29.72100
C  42.24000 42.83000 31.17000
C  43.03300 41.49500 31.29900
C  43.14100 41.11700 29.78100
C  44.40500 41.62300 31.99600
C  40.76100 42.68600 31.53600
C  40.41400 43.22900 32.92500
H  41.50700 43.21500 34.04800
N  43.75600 40.22200 26.81200
C  43.98300 39.48100 27.95300
C  44.58200 38.22600 27.50000
C  44.41700 38.11700 26.07800
C  44.06800 39.46000 25.66600
C  45.00200 37.24500 28.51500
C  44.65500 36.92300 25.17100
O  44.58500 36.92400 23.94100
C  44.88700 35.57100 25.76300
N  43.34400 42.35700 24.66500
C  43.78900 41.30000 23.89300
C  43.84100 41.66100 22.42900
C  43.23300 43.11200 22.39300
C  42.97100 43.38300 23.92700
C  45.15700 41.56800 21.72700
C  41.96600 43.15600 21.47500
C  40.82900 42.10100 21.97700
N  42.30700 44.11600 26.62600
C  42.24200 45.07600 25.63800
C  41.71000 46.38100 26.17700
C  41.65600 46.15100 27.52700
C  42.11800 44.82700 27.77600
C  41.21600 47.47800 25.27800
C  41.32900 46.75700 28.84700
O  40.80200 47.82600 29.10600
C  41.56100 45.66200 29.92900
C  42.53700 46.20300 30.96300
O  43.71300 46.06100 30.76600
O  41.94100 46.91200 31.96600
C  42.79700 47.09300 33.14400
H  43.69600 39.01700 29.99400
H  43.98600 39.25500 23.51700
H  42.42400 45.45500 23.58700
H  42.75600 43.55200 31.80300
H  42.34500 40.77500 31.74200
H  45.15600 41.09300 31.41000
H  44.23300 41.14600 32.96100
H  44.78200 42.62200 32.21600
H  40.37900 41.66600 31.55600
H  40.14100 43.17000 30.78200
H  39.57900 42.62200 33.27200
H  40.03000 44.21700 32.66800
H  44.21600 36.53900 28.78200
H  45.35500 37.66500 29.45700
H  45.82800 36.59800 28.22000
H  45.84300 35.58900 26.28600
H  44.88900 34.74400 25.05300
H  44.04600 35.27500 26.39100
H  43.27400 40.96100 21.81600
H  43.92700 43.86500 22.01900
H  45.71800 41.20400 22.58700
H  45.50900 42.49500 21.27400
H  45.07500 40.84400 20.91700
H  42.14400 42.87600 20.43600
H  41.68700 44.20600 21.56300
H  40.62200 41.30800 21.25800
H  39.96600 42.61400 22.40200
H  41.07700 41.63100 22.92900
H  40.92600 47.17700 24.27200
H  41.93500 48.27400 25.08400
H  40.37700 47.97000 25.76900
H  40.58800 45.46900 30.37900
H  43.37400 48.01300 33.23900
H  43.43300 46.23000 33.34200
H  42.10700 47.19000 33.98300

