158

Mg 46.56900 24.37400 28.95500
C  47.63000 26.71400 31.29700
C  45.72100 22.32200 31.55800
C  46.10600 21.92700 26.70300
C  47.85500 26.48500 26.41800
N  46.79800 24.44600 31.21200
C  47.03400 25.61200 31.96800
C  46.76100 25.44000 33.47200
C  46.29900 23.95800 33.49700
C  46.18100 23.53600 32.03400
C  47.15600 22.99100 34.35700
C  45.69100 26.39900 33.97500
C  45.52500 26.83400 35.52800
H  46.33900 26.15700 36.70300
N  45.85200 22.45500 29.11100
C  45.52100 21.82000 30.26600
C  45.09100 20.45500 29.90900
C  45.10900 20.27200 28.50600
C  45.73800 21.53800 28.05000
C  44.66500 19.40600 30.89800
C  44.67900 19.13200 27.60200
O  44.71700 19.19100 26.37600
C  44.05600 18.06900 28.25900
N  47.19900 24.14800 26.88000
C  46.70100 23.09900 26.16200
C  46.93400 23.28400 24.64700
C  47.49600 24.71000 24.59100
C  47.47800 25.21900 26.01600
C  47.89500 22.24500 24.03500
C  46.79700 25.66900 23.56700
C  47.79200 26.53700 22.71500
N  47.66500 26.15800 28.86200
C  47.98400 26.94000 27.72600
C  48.67900 28.20100 28.15900
C  48.48300 28.12300 29.55100
C  47.93000 26.87300 29.93600
C  49.46900 29.14500 27.36400
C  48.75400 28.89800 30.77300
O  49.29800 29.99000 30.92200
C  48.13600 27.93000 31.91600
C  49.17900 27.89400 32.99500
O  50.31900 27.33100 32.92200
O  48.70900 28.43400 34.12500
C  49.50500 28.51700 35.37200
H  45.43800 21.68400 32.39800
H  46.07900 21.12800 25.95900
H  48.29600 27.15200 25.67500
H  47.69600 25.57400 34.01500
H  45.25400 23.85000 33.78800
H  47.79700 23.63600 34.95700
H  47.72200 22.37600 33.65700
H  46.51400 22.27600 34.87100
H  44.68500 26.10100 33.68000
H  45.90000 27.32300 33.43600
H  44.46600 26.70100 35.75100
H  45.54300 27.92300 35.57200
H  44.76700 19.67800 31.94800
H  45.32800 18.57200 30.66700
H  43.62800 19.13500 30.70100
H  43.16700 18.38900 28.80300
H  44.86400 17.63900 28.85000
H  43.86000 17.34200 27.47100
H  46.03200 23.14600 24.05000
H  48.53900 24.58500 24.30300
H  48.31100 21.68700 24.87400
H  48.77000 22.64100 23.52000
H  47.46500 21.58300 23.28400
H  46.15200 26.28300 24.19600
H  46.12800 25.14400 22.88600
H  47.43700 27.56700 22.69200
H  47.76700 26.25200 21.66300
H  48.79300 26.64100 23.13500
H  50.31000 29.45800 27.98200
H  48.92200 30.08300 27.27300
H  49.84800 28.64500 26.47300
H  47.36100 28.59000 32.30800
H  49.46900 29.55800 35.69500
H  50.53900 28.17300 35.33800
H  49.00600 27.83200 36.05700
Mg -6.68100 25.56800 26.50100
C  -5.06100 26.94700 29.22800
C  -8.37000 23.33700 28.59800
C  -8.16600 24.12000 23.74600
C  -4.81100 27.64700 24.42600
N  -6.74400 25.27800 28.67100
C  -6.06000 26.03800 29.59300
C  -6.66600 25.76300 31.01300
C  -7.53000 24.48100 30.82600
C  -7.50000 24.23800 29.27000
C  -6.99600 23.17700 31.55600
C  -7.50600 26.98900 31.44200
C  -7.45100 27.35700 32.93300
H  -7.04900 26.24500 33.89000
N  -8.06900 23.98500 26.19900
C  -8.62900 23.20100 27.20000
C  -9.48500 22.16400 26.62700
C  -9.42000 22.37300 25.25500
C  -8.52000 23.51700 24.98800
C  -10.33400 21.16300 27.42600
C  -10.26700 21.70800 24.12100
O  -10.11300 22.07800 22.93100
C  -11.21400 20.61200 24.46900
N  -6.46800 25.81100 24.41900
C  -7.19000 25.09700 23.47400
C  -6.82000 25.53200 22.06000
C  -5.86900 26.75000 22.23100
C  -5.70500 26.78300 23.78600
C  -6.17400 24.29800 21.30000
C  -6.28600 28.11900 21.58500
C  -5.40300 28.51200 20.41500
N  -5.19200 26.98100 26.66000
C  -4.51100 27.72000 25.76400
C  -3.55200 28.53800 26.41200
C  -3.75100 28.21700 27.78400
C  -4.72600 27.22800 27.87900
C  -2.59400 29.52700 25.71500
C  -3.28900 28.54600 29.17500
O  -2.35300 29.30700 29.55000
C  -4.18800 27.72100 30.15000
C  -3.30000 26.97200 31.07400
O  -2.33700 26.31400 30.75000
O  -3.78200 27.15900 32.42000
C  -2.90800 26.52200 33.52400
H  -8.88300 22.71400 29.33400
H  -8.62600 23.68700 22.85500
H  -4.08300 28.18600 23.81600
H  -5.80600 25.55700 31.65000
H  -8.51300 24.73800 31.22100
H  -6.32200 23.49200 32.35300
H  -6.54900 22.44400 30.88500
H  -7.79000 22.62300 32.05700
H  -8.52500 26.86400 31.07500
H  -7.17600 27.91700 30.97500
H  -8.49900 27.63100 33.05200
H  -6.77400 28.20700 33.02000
H  -10.15500 20.14200 27.09100
H  -11.35800 21.42600 27.16000
H  -10.13800 21.17200 28.49800
H  -11.62600 20.16300 23.56600
H  -11.98200 21.04800 25.10800
H  -10.73000 19.82300 25.04500
H  -7.72100 25.82600 21.52300
H  -4.88600 26.44000 21.87900
H  -5.30900 24.68300 20.76000
H  -6.87300 23.83500 20.60500
H  -5.80200 23.59800 22.04800
H  -6.12100 28.88100 22.34700
H  -7.31900 28.10000 21.23800
H  -4.91300 27.66400 19.93800
H  -4.56400 29.04700 20.85900
H  -6.00400 29.14600 19.76200
H  -1.64300 29.02300 25.54700
H  -2.20100 30.20400 26.47300
H  -3.14500 30.04900 24.93300
H  -4.82200 28.43000 30.68100
H  -3.46000 25.97400 34.28700
H  -2.10700 27.16000 33.89800
H  -2.34600 25.68100 33.11900

