158

Mg 34.53400 2.06900 29.29000
C  32.42000 3.02200 31.86100
C  37.12200 1.87600 31.65100
C  36.76400 1.94200 26.77000
C  32.12700 3.06600 26.85600
N  34.72600 2.57000 31.48800
C  33.71400 2.71800 32.36700
C  34.18400 2.67000 33.83300
C  35.69100 2.38400 33.63700
C  35.89100 2.32400 32.12400
C  36.63300 3.31100 34.43900
C  33.38900 1.67500 34.67600
C  32.89100 1.98500 36.13800
H  33.61600 3.10700 36.87400
N  36.62000 1.75000 29.16700
C  37.44200 1.74700 30.23400
C  38.78300 1.53700 29.74700
C  38.81400 1.41100 28.34200
C  37.37300 1.73900 28.01500
C  40.09400 1.30600 30.61700
C  39.95800 1.15500 27.39500
O  39.75800 1.16200 26.18000
C  41.41700 0.99500 27.67400
N  34.38200 2.27600 27.13400
C  35.46600 2.14900 26.31600
C  35.10600 2.41300 24.83900
C  33.60800 2.60900 24.81900
C  33.36300 2.73700 26.35300
C  35.84700 3.57600 24.03600
C  32.78800 1.44700 24.07700
C  32.64700 -0.02500 24.71300
N  32.65400 2.81900 29.29600
C  31.77000 3.08300 28.24500
C  30.56300 3.57900 28.83800
C  30.68500 3.56000 30.25400
C  32.01700 3.11700 30.45900
C  29.30400 3.86100 28.09800
C  30.05200 3.77800 31.49500
O  28.95000 4.14600 31.79300
C  31.17800 3.51600 32.57000
C  31.29800 4.83400 33.27900
O  31.71400 5.88100 32.80500
O  30.83000 4.68500 34.59500
C  30.94100 5.89500 35.46700
H  37.99800 1.76800 32.29500
H  37.50000 2.00000 25.96500
H  31.39400 3.34100 26.09600
H  33.97900 3.56400 34.42200
H  35.89700 1.36000 33.94900
H  36.06600 4.14700 34.85000
H  37.26500 3.87700 33.75500
H  37.22500 2.85000 35.22900
H  34.03200 0.80500 34.81400
H  32.62000 1.26100 34.02300
H  32.86300 1.12000 36.80000
H  31.88200 2.36800 35.98500
H  40.91100 1.79100 30.08300
H  40.20400 0.22200 30.63100
H  40.07700 1.74300 31.61500
H  41.82000 1.98000 27.91300
H  41.89000 0.70300 26.73600
H  41.58600 0.26400 28.46400
H  35.34800 1.49400 24.30500
H  33.29900 3.54100 24.34300
H  35.12100 4.29500 23.65900
H  36.50600 3.13900 23.28500
H  36.52400 4.17100 24.64900
H  33.26300 1.42500 23.09600
H  31.77100 1.73400 23.81100
H  33.64400 -0.38200 24.97200
H  32.35200 -0.78700 23.99200
H  32.00300 0.03100 25.59100
H  29.35900 4.17200 27.05500
H  28.71400 4.70300 28.46200
H  28.71700 2.94500 28.16400
H  30.81100 2.73700 33.23900
H  31.44300 6.74500 35.00500
H  31.43200 5.62300 36.40100
H  29.93200 6.26800 35.64000
Mg -11.97300 16.24000 42.76900
C  -9.03500 14.47500 42.16700
C  -10.45800 18.91400 40.92300
C  -15.01100 17.56900 42.22800
C  -13.34000 13.32500 44.04400
N  -10.02500 16.57900 41.52000
C  -8.95500 15.77200 41.55300
C  -7.77000 16.39500 40.78100
C  -8.19100 17.85200 40.54100
C  -9.58600 17.84600 41.19400
C  -7.16200 18.89300 41.12900
C  -7.53100 15.67300 39.46700
C  -6.09200 15.33100 39.03500
H  -5.52900 16.13000 37.83600
N  -12.57700 18.09100 41.98000
C  -11.84200 18.97300 41.22000
C  -12.73100 20.10600 40.80000
C  -14.07600 19.67900 41.17100
C  -13.93900 18.45300 41.88300
C  -12.32200 21.28100 39.89700
C  -15.32500 20.49000 40.80800
O  -15.25300 21.52000 40.12200
C  -16.68200 20.15200 41.27900
N  -13.94300 15.55200 43.09100
C  -14.99000 16.31200 42.83500
C  -16.24500 15.50500 43.17000
C  -15.62500 14.46700 44.13500
C  -14.21700 14.37300 43.73400
C  -17.42200 16.40600 43.71600
C  -16.41400 13.13600 44.22600
C  -16.37400 12.09700 43.09800
N  -11.32800 14.31600 43.11500
C  -11.99900 13.28900 43.71200
C  -11.13500 12.12500 43.89300
C  -9.93900 12.56000 43.30600
C  -10.07600 13.90200 42.82800
C  -11.37100 10.78200 44.50000
C  -8.62300 12.22900 43.06700
O  -7.99900 11.23900 43.42500
C  -7.95200 13.39900 42.31800
C  -6.82800 13.93900 43.14700
O  -6.95300 14.43900 44.23900
O  -5.64100 13.69700 42.44300
C  -4.35600 14.07200 43.07900
H  -9.99700 19.73900 40.37600
H  -15.97200 17.81500 41.77200
H  -13.58700 12.44700 44.64400
H  -6.86800 16.24800 41.37600
H  -8.38300 17.98000 39.47600
H  -6.62700 18.43600 41.96100
H  -7.49500 19.84200 41.55000
H  -6.40600 19.05400 40.36000
H  -8.04100 16.04300 38.57800
H  -7.93400 14.66900 39.60400
H  -6.00300 14.24700 38.96300
H  -5.48900 15.73400 39.85000
H  -13.08000 21.49100 39.14300
H  -11.38800 21.06400 39.37700
H  -12.23000 22.18700 40.49400
H  -16.74500 19.79500 42.30700
H  -17.10500 19.39000 40.62400
H  -17.29900 21.05000 41.31100
H  -16.64500 14.96500 42.31100
H  -15.67300 14.83000 45.16200
H  -17.38300 17.43500 43.35900
H  -17.55900 16.37200 44.79700
H  -18.39600 16.03000 43.40400
H  -17.44900 13.42000 44.41600
H  -16.16100 12.57600 45.12700
H  -17.27400 11.92700 42.50700
H  -16.05000 11.16500 43.56000
H  -15.54300 12.25800 42.41100
H  -12.02900 10.14700 43.90700
H  -11.76900 10.90200 45.50800
H  -10.45500 10.21000 44.64400
H  -7.42500 13.06600 41.42300
H  -4.49300 15.14900 43.17400
H  -3.53200 13.79000 42.42400
H  -4.20600 13.68300 44.08700

