158

Mg 23.80700 -6.47700 46.62200
C  26.50000 -4.42100 45.68200
C  22.02500 -4.91500 44.18000
C  21.45400 -8.65400 47.35700
C  26.06300 -8.25700 48.57800
N  24.30600 -4.94700 44.99500
C  25.38000 -4.10800 44.94100
C  25.29300 -3.00900 43.78000
C  23.78800 -3.16200 43.34200
C  23.31700 -4.41000 44.21900
C  22.90400 -1.89400 43.48100
C  26.27400 -3.17800 42.59800
C  26.97700 -1.84500 42.23300
H  27.03200 -1.34700 40.73600
N  21.99100 -6.78900 45.80600
C  21.36100 -5.96400 44.88300
C  19.96800 -6.40800 44.76900
C  19.72100 -7.39800 45.71500
C  21.08300 -7.70800 46.36600
C  18.99300 -5.81600 43.75000
C  18.45800 -8.04900 45.96100
O  17.43200 -7.73400 45.32700
C  18.24300 -9.12700 47.01100
N  23.82700 -8.19200 47.73500
C  22.67100 -8.84000 47.93000
C  22.91300 -10.12200 48.81700
C  24.34300 -9.98400 49.29000
C  24.80400 -8.76700 48.47000
C  21.89800 -10.11000 50.00300
C  25.20500 -11.23500 49.04100
C  25.72600 -11.63800 47.69200
N  25.87500 -6.21200 47.25900
C  26.67900 -7.13100 48.00100
C  28.01800 -6.55300 48.15700
C  28.00300 -5.42400 47.34500
C  26.67800 -5.35800 46.73400
C  29.22800 -7.25000 48.85000
C  28.78600 -4.36500 46.74600
O  30.02700 -4.19100 46.81700
C  27.86500 -3.72900 45.65100
C  27.91100 -2.28900 45.80500
O  28.65200 -1.51300 45.26400
O  26.88500 -1.87900 46.55100
C  26.66700 -0.44000 46.69800
H  21.47800 -4.25000 43.50800
H  20.69100 -9.36400 47.68100
H  26.71000 -8.82500 49.25000
H  25.52500 -2.08500 44.30800
H  23.85600 -3.46700 42.29800
H  22.53700 -1.51900 42.52500
H  23.37100 -1.00000 43.89400
H  22.06400 -2.17300 44.11700
H  25.86900 -3.63200 41.69300
H  27.05800 -3.86700 42.90900
H  27.99200 -1.99300 42.60100
H  26.54100 -1.04100 42.82500
H  18.84300 -6.46200 42.88500
H  19.30500 -4.81100 43.46900
H  18.02800 -5.74100 44.25100
H  17.19000 -9.39500 47.09800
H  18.61400 -8.74600 47.96300
H  18.78000 -10.03800 46.74700
H  22.82500 -10.95300 48.11800
H  24.36500 -9.75300 50.35500
H  22.18900 -10.23800 51.04600
H  21.22200 -10.95600 49.87600
H  21.42600 -9.12900 49.95200
H  24.66700 -12.09200 49.44400
H  25.97300 -11.12900 49.80700
H  26.73500 -12.02600 47.83200
H  25.88900 -10.68700 47.18500
H  25.12000 -12.38500 47.17800
H  28.98900 -8.31300 48.80800
H  29.29500 -6.92300 49.88700
H  30.18700 -7.01200 48.38900
H  28.42400 -3.77600 44.71600
H  27.42400 0.08300 47.28200
H  25.78800 -0.20900 47.30000
H  26.53300 0.06400 45.74100
Mg 16.54500 51.56200 26.78200
C  18.71800 50.46100 29.47400
C  14.46300 52.62700 29.01900
C  14.70700 52.59700 24.20700
C  19.08800 50.45200 24.65600
N  16.71300 51.63000 28.95300
C  17.59600 51.17300 29.87900
C  17.21000 51.48800 31.34800
C  15.74600 51.97500 31.08300
C  15.58300 52.08200 29.58700
C  14.66100 51.07400 31.69000
C  18.14100 52.48600 32.10000
C  18.45800 52.13100 33.55600
H  17.33600 51.58000 34.44600
N  14.79500 52.49500 26.69700
C  14.02500 52.88900 27.76100
C  12.86600 53.56700 27.29100
C  13.01400 53.65900 25.91200
C  14.15900 52.79400 25.51000
C  11.90100 54.19300 28.21000
C  12.18200 54.37100 24.84300
O  12.37900 54.41600 23.66100
C  11.03100 55.21400 25.20600
N  16.90600 51.55300 24.76500
C  15.92400 51.96500 23.86600
C  16.43900 51.94100 22.40600
C  17.79600 51.18500 22.55500
C  17.99300 51.07300 24.07100
C  15.39900 51.44000 21.30700
C  18.89000 51.88500 21.71000
C  20.09000 51.02700 21.16300
N  18.49700 50.54600 26.96100
C  19.39200 50.17200 25.98300
C  20.56700 49.53400 26.58100
C  20.28800 49.52600 27.98300
C  19.10300 50.29300 28.13400
C  21.77100 49.10000 25.89300
C  20.75800 49.16800 29.27200
O  21.82600 48.63900 29.61700
C  19.74500 49.74800 30.31400
C  19.26600 48.77700 31.29500
O  18.36400 47.94200 31.08700
O  20.03400 48.77500 32.46600
C  19.52800 47.98500 33.58700
H  13.67600 52.84900 29.74300
H  14.25200 53.00800 23.30400
H  19.85800 50.31700 23.89300
H  17.22900 50.49600 31.80000
H  15.72100 53.00000 31.45100
H  14.12900 51.69000 32.41400
H  15.13100 50.24000 32.21000
H  14.04300 50.63000 30.91000
H  17.81100 53.52400 32.08400
H  19.09400 52.36100 31.58600
H  18.88400 52.96200 34.11900
H  19.25400 51.39800 33.42800
H  12.27400 54.09200 29.23000
H  10.89700 53.77800 28.12700
H  11.91600 55.26700 28.02500
H  11.46900 56.08300 25.69600
H  10.37800 54.67700 25.89400
H  10.50900 55.58000 24.32200
H  16.61500 52.94500 22.01900
H  17.63600 50.18600 22.14900
H  14.90300 52.25300 20.77700
H  14.69400 50.75600 21.78100
H  15.91200 50.88200 20.52400
H  19.19500 52.78100 22.25000
H  18.43200 52.24900 20.79000
H  20.93000 51.67900 21.40200
H  19.97100 50.87200 20.09100
H  20.08100 50.06800 21.68100
H  22.47600 49.04200 26.72300
H  22.10300 49.82600 25.15200
H  21.49300 48.13900 25.45900
H  20.43700 50.42300 30.81700
H  19.85600 46.95000 33.49300
H  18.44600 47.98400 33.44900
H  19.94600 48.39000 34.50800

