158

Mg 24.33200 -4.79200 45.89500
C  26.64700 -2.72500 44.20800
C  22.01200 -4.00900 43.69900
C  22.74200 -7.61800 46.77500
C  27.19300 -6.13000 47.72100
N  24.37200 -3.36400 44.28700
C  25.34100 -2.67600 43.65700
C  24.89300 -2.02800 42.36600
C  23.35400 -2.29700 42.44700
C  23.21500 -3.25100 43.57800
C  22.45900 -1.05600 42.54100
C  25.67800 -2.62400 41.16000
C  26.16300 -1.72300 40.05800
H  25.34300 -1.76900 38.72400
N  22.50300 -5.55400 45.40300
C  21.70100 -5.08100 44.49800
C  20.50200 -5.90400 44.33300
C  20.70800 -7.01300 45.16100
C  22.04700 -6.78700 45.83300
C  19.44100 -5.68500 43.41800
C  19.78900 -8.19200 45.33000
O  18.69700 -8.21000 44.74700
C  19.98500 -9.38700 46.25200
N  24.95200 -6.67200 46.99400
C  24.04700 -7.62100 47.27600
C  24.58500 -8.81700 48.13400
C  25.96500 -8.26200 48.41600
C  26.06400 -6.95700 47.63100
C  23.71300 -9.20500 49.41000
C  27.05800 -9.30700 47.95300
C  28.04100 -9.84300 49.10200
N  26.38300 -4.39500 46.11900
C  27.37300 -4.92400 46.98000
C  28.61400 -4.19000 46.77400
C  28.37800 -3.43800 45.66000
C  27.06400 -3.57800 45.27400
C  29.90100 -4.46100 47.46400
C  29.03900 -2.62700 44.67600
O  30.23800 -2.29700 44.51500
C  27.91200 -2.15900 43.64300
C  27.88900 -0.68800 43.68400
O  27.28700 -0.01100 44.49800
O  28.45600 -0.15000 42.58100
C  28.65600 1.30200 42.65200
H  21.27100 -3.65900 42.97800
H  22.28300 -8.53900 47.14100
H  27.94700 -6.56100 48.38300
H  24.98400 -0.94400 42.42600
H  22.99700 -2.81000 41.55400
H  22.91600 -0.11500 42.23500
H  22.05100 -1.05000 43.55200
H  21.65200 -1.22100 41.82700
H  24.94000 -3.27800 40.69600
H  26.50700 -3.24300 41.50200
H  27.16400 -2.06900 39.80100
H  26.18100 -0.70400 40.44400
H  18.99500 -6.56900 42.96200
H  19.89800 -5.18500 42.56400
H  18.70800 -5.00400 43.85000
H  20.14700 -8.99300 47.25500
H  20.94800 -9.83000 45.99600
H  19.28400 -10.22100 46.22800
H  24.52200 -9.67000 47.45900
H  26.19300 -8.05500 49.46100
H  22.77100 -8.66700 49.30300
H  24.16300 -8.91200 50.35900
H  23.63600 -10.28300 49.55100
H  27.75300 -8.78500 47.29600
H  26.74200 -10.21000 47.43200
H  28.09800 -10.92700 49.01100
H  27.66800 -9.61800 50.10100
H  29.00700 -9.34300 49.02500
H  30.67000 -4.75100 46.74700
H  29.83800 -5.21000 48.25300
H  30.29100 -3.57600 47.96700
H  28.11500 -2.60700 42.67100
H  29.34300 1.60500 43.44200
H  27.64500 1.70900 42.65800
H  29.10600 1.66100 41.72700
Mg 17.27900 -1.21300 27.75300
C  16.40300 0.92000 30.40700
C  19.09400 -3.07700 29.98500
C  18.67200 -2.78900 25.09800
C  15.87400 1.15600 25.50000
N  17.67500 -1.00800 29.98000
C  17.15800 -0.07900 30.86600
C  17.48300 -0.46300 32.27900
C  18.53400 -1.64300 32.08900
C  18.46900 -1.95100 30.58000
C  19.96900 -1.24200 32.55500
C  16.27200 -0.77900 33.13000
C  16.35000 -0.13000 34.54900
H  17.81500 0.07800 35.12200
N  18.57700 -2.72100 27.61200
C  19.14700 -3.40400 28.61200
C  19.70800 -4.56100 28.10000
C  19.59600 -4.46000 26.69700
C  18.93400 -3.30000 26.39800
C  20.26300 -5.64800 28.94600
C  20.07400 -5.55200 25.69600
O  19.95300 -5.42300 24.51500
C  20.92800 -6.70900 26.08900
N  17.09300 -0.90300 25.51900
C  17.94600 -1.60800 24.76600
C  17.88600 -1.07100 23.33900
C  16.67700 -0.07400 23.40300
C  16.64200 0.18900 24.91000
C  19.19500 -0.34000 23.03600
C  15.27000 -0.68700 22.84100
C  14.88700 -0.43400 21.32700
N  16.14400 0.55700 27.89000
C  15.61300 1.36000 26.88900
C  14.84800 2.38500 27.46100
C  15.16300 2.33600 28.87200
C  15.95000 1.20300 29.04900
C  13.89700 3.36400 26.87100
C  14.99300 2.99100 30.17800
O  14.32300 3.95800 30.53300
C  15.77400 2.04000 31.20900
C  16.87500 2.86900 31.87400
O  18.03800 2.96200 31.50900
O  16.30900 3.58000 32.87300
C  17.01500 4.45600 33.71800
H  19.61600 -3.64500 30.75800
H  19.32700 -3.17200 24.31200
H  15.46900 1.94900 24.86800
H  18.01500 0.44900 32.55100
H  18.34500 -2.53000 32.69400
H  19.90800 -0.23600 32.97000
H  20.64800 -1.17000 31.70500
H  20.36700 -1.91100 33.31700
H  15.92000 -1.81100 33.12700
H  15.45000 -0.23200 32.66900
H  15.86700 -0.75700 35.29900
H  15.80800 0.81600 34.54400
H  19.89300 -5.63900 29.97100
H  21.32300 -5.39400 28.94600
H  20.08400 -6.68300 28.65500
H  20.43500 -7.53000 26.60900
H  21.78200 -6.44300 26.71100
H  21.29900 -7.20400 25.19100
H  17.79300 -1.96400 22.72000
H  16.97300 0.80000 22.82300
H  19.20200 0.73000 23.24300
H  19.38400 -0.34300 21.96200
H  20.01600 -0.70800 23.65100
H  14.48100 -0.25000 23.45300
H  15.05900 -1.73500 23.05400
H  15.37600 0.49000 21.01900
H  13.82900 -0.30700 21.09700
H  15.26800 -1.26300 20.73000
H  13.32600 3.91200 27.61900
H  13.24300 2.86100 26.15800
H  14.58400 4.07000 26.40500
H  15.07200 1.69300 31.96700
H  16.63100 5.47500 33.67300
H  18.08600 4.29600 33.59400
H  16.79200 4.24400 34.76300

