158

Mg 47.69300 45.96600 43.59800
C  44.30600 46.06800 42.75700
C  47.95200 43.04500 41.87300
C  51.06700 46.19900 44.00800
C  47.51800 49.46500 44.29100
N  46.26500 44.64300 42.57000
C  44.97200 44.93600 42.31600
C  44.23800 43.85900 41.54700
C  45.40000 42.78400 41.38600
C  46.62200 43.52500 41.90000
C  45.10100 41.43600 42.07300
C  43.71400 44.34000 40.15100
C  42.38100 43.77900 39.69300
H  42.48100 42.82800 38.51100
N  49.27300 44.78800 42.94300
C  49.13900 43.52700 42.38200
C  50.40600 42.85300 42.21500
C  51.35600 43.76700 42.79100
C  50.62000 45.00700 43.25900
C  50.72700 41.57600 41.42400
C  52.87500 43.56300 42.80400
O  53.36300 42.58000 42.26400
C  53.80400 44.46200 43.55700
N  49.08400 47.66000 43.87700
C  50.37100 47.37600 44.25400
C  50.98500 48.56400 45.06400
C  49.99900 49.74200 44.63800
C  48.81800 48.91700 44.24600
C  50.88500 48.22200 46.56800
C  50.51400 50.63600 43.54100
C  49.73400 51.95500 43.37800
N  46.19700 47.49300 43.82100
C  46.27500 48.78700 44.08200
C  44.94200 49.36300 44.02900
C  44.11400 48.36200 43.56500
C  44.94700 47.23500 43.32900
C  44.53100 50.68400 44.53700
C  42.78500 47.96000 43.35200
O  41.70900 48.60200 43.41300
C  42.80800 46.42300 42.80400
C  41.97300 45.55300 43.64900
O  41.05400 44.79700 43.25500
O  42.47200 45.44900 44.91300
C  41.92000 44.35900 45.78800
H  47.98100 42.07300 41.37700
H  52.02400 46.00700 44.49700
H  47.47700 50.53900 44.48800
H  43.46900 43.48700 42.22400
H  45.70400 42.54500 40.36600
H  45.87000 40.87800 41.53900
H  44.15100 40.99100 41.77300
H  45.41700 41.40100 43.11600
H  44.51800 44.09300 39.45800
H  43.59100 45.42300 40.16500
H  41.69400 44.61100 39.54200
H  42.01600 43.19900 40.54100
H  50.73000 41.55200 40.33400
H  49.98600 40.89100 41.83600
H  51.70600 41.20000 41.71900
H  53.62100 44.50800 44.63100
H  53.81600 45.46700 43.13600
H  54.82600 44.10400 43.43700
H  52.00300 48.77000 44.73400
H  49.64400 50.38000 45.44800
H  51.86100 47.93600 46.95900
H  50.35600 47.28000 46.71800
H  50.34800 48.95400 47.17200
H  50.54300 50.22200 42.53300
H  51.49900 50.89500 43.93000
H  50.39800 52.79500 43.58400
H  48.87400 52.08300 44.03700
H  49.25300 51.92500 42.40000
H  44.61100 51.47800 43.79500
H  45.11000 50.85500 45.44500
H  43.46700 50.66000 44.77300
H  42.40000 46.46800 41.79400
H  41.58500 43.50900 45.19400
H  41.18900 44.76300 46.48800
H  42.78700 43.93400 46.29300
Mg -1.60400 35.25300 27.01800
C  -3.42600 33.62600 29.69800
C  -0.48400 37.40500 29.34900
C  -0.05000 36.91000 24.50300
C  -3.06200 33.15700 24.75700
N  -2.14300 35.53600 29.21900
C  -2.78900 34.78000 30.16500
C  -2.50100 35.20800 31.55800
C  -1.64700 36.47100 31.36700
C  -1.36600 36.43500 29.89000
C  -2.44600 37.69400 31.73200
C  -1.64400 33.99300 32.25000
C  -2.25700 33.38300 33.54700
H  -1.48400 33.47400 34.92200
N  -0.53300 37.05400 26.89100
C  -0.11600 37.73700 27.99700
C  0.69200 38.88000 27.48400
C  0.78900 38.80900 26.05300
C  0.07800 37.56600 25.76300
C  1.35900 39.85600 28.36000
C  1.41500 39.79700 25.01900
O  1.30500 39.60300 23.82600
C  2.32900 40.80500 25.49800
N  -1.57500 35.02900 24.95600
C  -0.76600 35.78800 24.07500
C  -0.60200 35.13100 22.73100
C  -1.53900 33.83800 22.83100
C  -2.09000 34.03200 24.26100
C  -0.90300 35.99600 21.51900
C  -0.83600 32.43700 22.70800
C  0.44400 32.11900 23.51000
N  -2.96200 33.70900 27.13100
C  -3.45500 32.94800 26.10600
C  -4.12700 31.79000 26.67200
C  -4.08500 31.96500 28.07400
C  -3.41800 33.14300 28.30600
C  -4.66300 30.59200 25.81900
C  -4.48000 31.42600 29.38200
O  -5.12200 30.40600 29.65000
C  -4.06500 32.49700 30.47200
C  -5.17100 32.94300 31.32800
O  -5.79600 33.99000 31.29400
O  -5.28700 32.03700 32.33200
C  -6.04000 32.39100 33.54900
H  -0.03500 38.12400 30.03700
H  0.66000 37.33100 23.78700
H  -3.38300 32.44700 23.99100
H  -3.37800 35.18500 32.20600
H  -0.70000 36.42900 31.90500
H  -3.46600 37.42800 31.45500
H  -2.07900 38.51400 31.11500
H  -2.34400 37.94300 32.78800
H  -0.71200 34.48100 32.53700
H  -1.45800 33.16100 31.57100
H  -2.31600 32.31000 33.36400
H  -3.27000 33.72700 33.75700
H  2.41300 39.58300 28.40200
H  1.11600 39.72400 29.41400
H  1.07300 40.83500 27.97500
H  3.08500 40.37500 26.15600
H  1.78000 41.56400 26.05400
H  2.82700 41.24100 24.63100
H  0.44000 34.82600 22.63300
H  -2.28000 33.73400 22.03900
H  -1.45900 35.41400 20.78400
H  -0.06000 36.46300 21.00900
H  -1.55800 36.83000 21.76900
H  -0.54900 32.25900 21.67100
H  -1.64400 31.71000 22.79100
H  0.58000 31.11100 23.90300
H  0.63100 32.86500 24.28200
H  1.25900 32.36700 22.83000
H  -3.96400 30.33100 25.02500
H  -5.62400 30.78600 25.34200
H  -4.84500 29.76000 26.49900
H  -3.42500 31.89700 31.11800
H  -5.68000 33.29700 34.03800
H  -5.81200 31.59200 34.25400
H  -7.10000 32.27900 33.32400

