158

Mg 43.98100 3.46100 47.84900
C  41.38300 5.92400 46.85400
C  41.61200 1.14300 47.24100
C  46.34300 1.36100 47.83800
C  46.19000 6.25800 47.54700
N  41.79700 3.60000 47.01700
C  40.96500 4.64100 46.90100
C  39.52900 4.21700 46.62900
C  39.53700 2.70900 47.16300
C  41.04300 2.44000 47.13700
C  38.88500 2.50700 48.55400
C  39.13000 4.32400 45.15500
C  37.64900 4.42300 44.87900
H  37.20800 5.39700 43.80100
N  43.95300 1.52900 47.74000
C  42.90600 0.70500 47.48500
C  43.31500 -0.68800 47.58500
C  44.71600 -0.68400 47.84800
C  45.11300 0.78500 47.83500
C  42.39200 -1.84400 47.30400
C  45.65100 -1.90300 48.03900
O  45.16000 -3.03600 47.84400
C  47.04900 -1.85700 48.52500
N  45.97100 3.80100 47.60500
C  46.74900 2.67400 47.66300
C  48.22200 3.02600 47.90900
C  48.19500 4.59800 47.87900
C  46.76900 4.97200 47.61000
C  48.84900 2.36600 49.14300
C  49.27800 5.26900 46.93100
C  50.06800 6.56000 47.42600
N  43.86700 5.69700 47.44000
C  44.84600 6.64700 47.34500
C  44.28800 8.02100 47.11200
C  42.94500 7.77900 47.03800
C  42.72400 6.34100 47.06500
C  44.87500 9.29700 47.00800
C  41.63000 8.38200 46.82200
O  41.24900 9.57000 46.75500
C  40.58600 7.20200 46.68300
C  39.47600 7.39700 47.62000
O  39.52700 7.36600 48.81700
O  38.31100 7.61900 46.97900
C  37.07100 7.66000 47.79200
H  40.85600 0.39200 47.00000
H  47.13800 0.61400 47.88400
H  46.92600 7.06400 47.58900
H  38.82600 4.83400 47.18900
H  39.16900 1.98200 46.43900
H  38.12200 1.73200 48.49100
H  38.20400 3.26300 48.94500
H  39.69600 2.30700 49.25500
H  39.51100 3.41000 44.70200
H  39.61400 5.16500 44.65900
H  36.98900 4.61800 45.72400
H  37.43200 3.40600 44.55300
H  42.18200 -2.03400 46.25100
H  41.42100 -1.65600 47.76300
H  42.71800 -2.75900 47.79900
H  47.64600 -1.92800 47.61600
H  47.16700 -2.73500 49.15900
H  47.17600 -0.94500 49.10900
H  48.63600 2.71000 46.95100
H  48.45700 4.90500 48.89100
H  49.34800 3.09000 49.78700
H  49.45200 1.52700 48.79700
H  48.06000 1.88800 49.72300
H  48.73100 5.66800 46.07600
H  50.02900 4.52700 46.66200
H  51.12200 6.32100 47.56700
H  49.65200 7.02300 48.32000
H  50.06500 7.35200 46.67700
H  45.83900 9.40700 46.51200
H  45.14000 9.76900 47.95400
H  44.20700 9.98500 46.49100
H  40.24600 7.20000 45.64800
H  37.01100 6.84300 48.51100
H  36.26700 7.38200 47.11100
H  36.92400 8.59300 48.33700
Mg 47.44900 44.40600 42.23300
C  44.09900 43.60900 43.13000
C  48.00500 40.96400 41.96300
C  50.40300 45.08000 40.71200
C  46.42500 47.75600 41.62700
N  46.21400 42.58800 42.63600
C  44.88300 42.45000 42.96700
C  44.36100 40.96500 42.88600
C  45.73900 40.17400 42.77600
C  46.77500 41.32700 42.49500
C  45.97400 39.14200 43.88600
C  43.31000 40.78800 41.76600
C  43.68900 41.28300 40.33200
H  43.25400 40.49400 39.08400
N  48.99100 43.21400 41.47200
C  49.03800 41.84100 41.54200
C  50.38900 41.41400 41.24400
C  51.07800 42.56200 40.80300
C  50.16600 43.72300 40.93800
C  50.96200 40.02700 41.40500
C  52.60900 42.51900 40.41500
O  53.32500 41.55400 40.40400
C  53.24700 43.73900 39.86800
N  48.30600 46.15700 41.22300
C  49.58700 46.20900 40.85000
C  50.10200 47.58300 40.77000
C  48.76800 48.38600 40.67300
C  47.70900 47.40700 41.14800
C  51.02700 47.83300 41.94600
C  48.39600 48.83600 39.28800
C  48.97200 50.24700 38.98500
N  45.75100 45.56100 42.61500
C  45.43800 46.91600 42.25100
C  44.14000 47.20900 42.72500
C  43.52400 45.93200 43.01100
C  44.55700 44.90600 42.88600
C  43.40700 48.49500 42.47100
C  42.27000 45.26300 43.37300
O  41.08100 45.63400 43.49300
C  42.60900 43.79400 43.39800
C  42.07100 43.28000 44.70000
O  42.31100 43.72400 45.80800
O  41.29200 42.13400 44.44700
C  41.03800 41.25700 45.56200
H  48.26100 39.90400 41.90300
H  51.36900 45.52400 40.46200
H  46.14000 48.80600 41.53800
H  43.90100 40.68800 43.83400
H  45.67000 39.68700 41.80300
H  46.17600 38.22600 43.33000
H  45.05900 38.92300 44.43700
H  46.75200 39.48700 44.56800
H  42.38800 41.29300 42.05500
H  43.18500 39.70600 41.77600
H  44.77300 41.17300 40.28000
H  43.51400 42.35300 40.22200
H  50.36800 39.29800 41.95500
H  51.97100 40.01300 41.81800
H  51.20800 39.54200 40.46100
H  52.55900 44.31800 39.25100
H  54.13500 43.52900 39.27100
H  53.51500 44.39300 40.69800
H  50.72600 47.60100 39.87700
H  48.71600 49.21200 41.38100
H  50.62900 47.46100 42.89000
H  51.21400 48.90100 42.06500
H  51.99600 47.47500 41.59700
H  47.31800 48.91700 39.15100
H  48.88100 48.14200 38.60000
H  49.51700 50.14800 38.04600
H  49.51200 50.61600 39.85800
H  48.11400 50.89900 38.81900
H  43.72300 48.96800 41.54100
H  43.67600 49.15900 43.29200
H  42.32600 48.43100 42.59000
H  42.06500 43.30400 42.59100
H  41.87400 41.01600 46.21800
H  40.75500 40.36400 45.00500
H  40.13400 41.59400 46.06800

