158

Mg 6.00400 54.09200 40.75400
C  5.40500 50.77700 40.19200
C  9.25800 53.70400 39.69500
C  6.33800 57.43600 40.77300
C  2.62900 54.45100 41.79800
N  7.12300 52.44900 39.80900
C  6.72600 51.17700 39.81500
C  7.86900 50.28500 39.19400
C  9.12600 51.15000 39.58500
C  8.46300 52.52600 39.68700
C  9.85300 50.78600 40.91300
C  7.65500 50.16100 37.65400
C  7.75500 48.85600 36.94000
H  6.75000 48.62200 35.79300
N  7.55300 55.38200 40.21400
C  8.78100 55.02200 39.81700
C  9.59800 56.21600 39.55700
C  8.77600 57.33700 39.86200
C  7.49400 56.76900 40.26200
C  11.06800 56.13300 39.17200
C  9.20000 58.81600 39.87600
O  10.30000 59.13300 39.42700
C  8.36700 59.96500 40.24000
N  4.63500 55.66400 41.09300
C  5.02800 56.97800 41.07800
C  3.91100 57.93100 41.57800
C  2.75100 56.97700 41.86600
C  3.33000 55.63800 41.52500
C  4.43400 58.91700 42.73900
C  1.29500 57.29200 41.14600
C  0.20200 58.03700 41.98600
N  4.20700 52.91300 40.97500
C  3.02100 53.12900 41.56500
C  2.32000 51.87700 41.62900
C  3.18100 50.98900 41.10000
C  4.36000 51.61300 40.76200
C  0.97800 51.57800 42.36600
C  3.32900 49.55700 40.83200
O  2.53200 48.66600 41.06800
C  4.85700 49.37000 40.35900
C  4.93800 48.50500 39.10900
O  4.11300 48.31400 38.17400
O  5.87700 47.49000 39.46000
C  5.64600 46.14600 39.00800
H  10.31200 53.43300 39.61200
H  6.46500 58.51900 40.82600
H  1.59600 54.55700 42.13600
H  7.73800 49.32100 39.68600
H  9.79500 51.20100 38.72600
H  9.33400 50.00100 41.46300
H  10.05500 51.56600 41.64700
H  10.82400 50.40100 40.60100
H  8.51600 50.63200 37.18100
H  6.74500 50.63700 37.28900
H  7.65300 48.07300 37.69200
H  8.73600 48.73400 36.48100
H  11.69200 55.30700 39.51400
H  11.67900 57.01400 39.36700
H  10.97900 56.15700 38.08600
H  8.95700 60.87700 40.32800
H  8.18400 59.81900 41.30500
H  7.57200 60.00100 39.49600
H  3.67900 58.64900 40.79200
H  2.56900 57.00000 42.94000
H  3.76100 58.75700 43.58200
H  4.28000 59.97700 42.53600
H  5.48200 58.72700 42.96700
H  0.98700 56.27000 40.92200
H  1.52000 57.73600 40.17700
H  0.26100 57.88100 43.06400
H  -0.78900 57.70100 41.68000
H  0.28000 59.12200 41.90800
H  0.90700 50.61000 42.86200
H  0.11400 51.82500 41.75000
H  0.84200 52.17100 43.27100
H  5.25300 48.83900 41.22500
H  4.71200 45.82200 39.46700
H  6.45500 45.53600 39.40900
H  5.48100 46.10000 37.93100
Mg 2.14600 42.15800 25.08900
C  3.14800 42.24200 28.49000
C  -0.66000 40.36500 26.06300
C  1.65100 41.20700 21.98300
C  5.35400 43.37500 24.37000
N  1.32100 41.51000 27.08500
C  1.85700 41.67400 28.32400
C  0.82800 41.38000 29.45100
C  -0.27800 40.59000 28.63300
C  0.08700 40.86600 27.13900
C  -0.39100 39.08600 28.94200
C  0.33700 42.70500 30.11000
C  -0.05900 42.66400 31.63200
H  -0.24000 41.34000 32.36000
N  0.56100 41.14800 24.12600
C  -0.50600 40.44400 24.71100
C  -1.36400 39.91300 23.69600
C  -0.66700 40.13500 22.52200
C  0.57700 40.84900 22.84900
C  -2.79000 39.35700 23.98600
C  -1.11900 39.77300 21.10800
O  -0.53700 40.05600 20.07400
C  -2.43100 39.02200 20.94100
N  3.27700 42.43400 23.37200
C  2.83500 41.93600 22.19900
C  3.86600 42.26000 21.04700
C  4.88400 43.11400 21.85300
C  4.50900 43.03300 23.31000
C  4.44000 41.08800 20.20200
C  4.96500 44.54400 21.24400
C  3.75100 45.43200 21.55500
N  3.85500 42.82800 26.17800
C  5.09700 43.29800 25.72600
C  6.02000 43.56400 26.75500
C  5.27200 43.15000 27.88600
C  4.00300 42.70400 27.51600
C  7.42300 44.08200 26.58600
C  5.38000 42.91500 29.29000
O  6.40500 42.88200 30.01800
C  3.90100 42.43200 29.79100
C  4.08200 41.28000 30.67000
O  4.30400 40.14900 30.36900
O  3.98600 41.69300 31.99800
C  4.10400 40.62100 32.97200
H  -1.56200 39.88100 26.44300
H  1.66100 40.88700 20.93900
H  6.29500 43.78200 23.99400
H  1.37700 40.81700 30.20600
H  -1.28200 40.99900 28.74500
H  -0.02500 38.97200 29.96200
H  0.19900 38.46700 28.26600
H  -1.42700 38.74800 28.90900
H  -0.62100 43.04100 29.71100
H  1.13600 43.43900 30.00300
H  -0.91200 43.30700 31.84700
H  0.72500 43.08000 32.26500
H  -2.96800 38.42600 23.44900
H  -3.52300 40.02800 23.53800
H  -3.14500 39.26900 25.01200
H  -2.38400 38.06200 21.45500
H  -2.59200 38.81700 19.88200
H  -3.18300 39.68000 21.37500
H  3.38800 42.94700 20.34900
H  5.87700 42.69600 21.68700
H  4.12600 40.15200 20.66400
H  5.49900 41.10400 19.94400
H  4.08400 41.06900 19.17200
H  5.03300 44.43400 20.16200
H  5.78900 45.10400 21.68600
H  4.01700 46.16400 22.31800
H  3.05500 44.79300 22.09700
H  3.29100 45.97700 20.73100
H  8.09900 43.23100 26.50000
H  7.67000 44.61800 27.50200
H  7.47700 44.61400 25.63600
H  3.44300 43.21100 30.40000
H  5.14700 40.44800 33.24100
H  3.67600 39.64900 32.72500
H  3.65200 40.83400 33.94000

