158

Mg 2.62700 -0.63700 44.85600
C  5.99800 0.04600 43.88200
C  1.67600 2.27200 43.02000
C  -0.49300 -1.89300 44.63300
C  3.81000 -3.87000 45.96600
N  3.68500 0.93100 43.51300
C  5.08700 1.11700 43.41100
C  5.46100 2.43400 42.75700
C  4.06900 3.19100 42.62300
C  3.04700 2.07500 43.17200
C  3.94200 4.51000 43.47100
C  6.02100 2.11000 41.37200
C  7.20200 3.04900 40.91000
H  6.86600 4.06100 39.70500
N  0.80500 0.17100 44.09400
C  0.65900 1.39400 43.44500
C  -0.75200 1.63000 43.35800
C  -1.41800 0.48800 43.83500
C  -0.35200 -0.53400 44.22100
C  -1.31900 2.83300 42.73100
C  -2.92900 0.29300 43.90400
O  -3.70500 1.22200 43.57000
C  -3.55500 -0.95800 44.59000
N  1.74400 -2.68600 45.06600
C  0.41100 -2.82000 45.11200
C  0.03600 -4.23000 45.56100
C  1.39600 -4.71500 46.18200
C  2.45500 -3.78700 45.66200
C  -1.24700 -4.36600 46.44200
C  1.60500 -6.23700 45.76400
C  1.87500 -7.15600 46.94000
N  4.48700 -1.70500 45.12100
C  4.78000 -2.92200 45.57700
C  6.23900 -3.13200 45.49300
C  6.79500 -1.97800 44.92900
C  5.68600 -1.14300 44.60900
C  6.87100 -4.37600 46.00800
C  7.97400 -1.30600 44.48200
O  9.15800 -1.56600 44.67000
C  7.54600 0.04600 43.81900
C  8.26400 1.16600 44.59100
O  7.98600 1.50800 45.73900
O  9.15300 1.89200 43.88300
C  9.68600 3.13900 44.54500
H  1.48700 3.26700 42.61200
H  -1.51500 -2.27200 44.69500
H  4.22400 -4.77000 46.42500
H  6.17200 3.03700 43.32200
H  3.82000 3.55200 41.62500
H  4.89900 4.60800 43.98300
H  3.14700 4.55000 44.21600
H  3.74300 5.39000 42.85900
H  5.42200 2.10300 40.46100
H  6.35600 1.07300 41.38000
H  8.10200 2.50100 40.63100
H  7.49300 3.66100 41.76500
H  -1.38000 2.77200 41.64400
H  -0.77000 3.65400 43.19100
H  -2.34400 3.10200 42.98500
H  -4.62300 -0.79000 44.72900
H  -3.05400 -1.13500 45.54200
H  -3.34700 -1.82000 43.95700
H  -0.16600 -4.80500 44.65700
H  1.43600 -4.64700 47.26900
H  -1.42600 -3.41800 46.95000
H  -1.05300 -5.06900 47.25200
H  -2.16500 -4.64900 45.92800
H  2.52200 -6.32800 45.18200
H  0.80500 -6.64700 45.14700
H  2.95700 -7.29100 46.95700
H  1.37700 -8.12500 46.91000
H  1.64300 -6.62000 47.86000
H  6.89900 -4.33000 47.09600
H  7.92100 -4.22800 45.75800
H  6.25900 -5.24700 45.77300
H  8.09900 -0.03600 42.88300
H  9.47800 3.89400 43.78700
H  10.76400 3.10100 44.70600
H  9.20500 3.50800 45.45000
Mg 5.96800 53.69900 40.49000
C  5.31600 50.20500 40.18200
C  9.20900 53.14400 39.56300
C  6.13600 56.92000 39.81100
C  2.39300 54.04300 40.81500
N  7.03600 51.91300 39.84200
C  6.61200 50.61800 39.79700
C  7.79100 49.70000 39.25600
C  9.01800 50.65100 39.39000
C  8.36000 52.01000 39.63600
C  9.99100 50.19500 40.42200
C  7.57400 49.03100 37.80700
C  6.77300 49.87600 36.77100
H  6.20000 49.23600 35.60500
N  7.54400 54.87400 39.94200
C  8.86500 54.49800 39.72900
C  9.63300 55.65600 39.82600
C  8.75100 56.78000 40.00600
C  7.37000 56.23800 39.84500
C  11.13700 55.54600 39.71100
C  9.17600 58.21400 40.19200
O  10.32700 58.54600 39.95800
C  8.21100 59.17700 40.77900
N  4.46100 55.23600 40.33800
C  4.82700 56.47300 39.99700
C  3.56500 57.40500 39.74400
C  2.41200 56.51200 40.10800
C  3.11600 55.17800 40.43200
C  3.47400 58.71800 40.54700
C  1.39400 56.33100 38.98600
C  0.48200 57.49400 38.67400
N  4.23700 52.46500 40.72200
C  2.91900 52.73100 40.98500
C  2.13900 51.55900 41.07800
C  3.04300 50.51600 40.78600
C  4.30700 51.16200 40.52800
C  0.64500 51.43900 41.38600
C  3.20800 49.09300 40.72400
O  2.34600 48.24300 40.84400
C  4.67500 48.83000 40.34900
C  4.74800 47.97600 39.12800
O  4.18300 48.24200 38.04500
O  5.25100 46.69900 39.48000
C  4.96200 45.77500 38.37300
H  10.25600 52.87600 39.40200
H  6.34400 57.99100 39.76200
H  1.31100 54.19100 40.84200
H  7.75200 48.85900 39.94800
H  9.58100 50.73600 38.46100
H  10.90600 50.28200 39.83600
H  9.97300 49.14100 40.69800
H  10.08400 50.71700 41.37400
H  7.10500 48.05100 37.89100
H  8.58000 48.96800 37.39100
H  7.54700 50.58100 36.47000
H  5.92200 50.35500 37.25400
H  11.63900 56.50600 39.82900
H  11.44800 55.22100 38.71900
H  11.62600 54.85800 40.40100
H  8.73000 59.99900 41.27300
H  7.59700 58.61400 41.48200
H  7.74100 59.75200 39.98100
H  3.55800 57.74800 38.70900
H  1.82900 56.82300 40.97400
H  4.32500 58.76400 41.22600
H  2.56500 58.93900 41.10600
H  3.63900 59.57800 39.89800
H  0.61400 55.64600 39.31900
H  1.84000 56.07100 38.02600
H  0.79600 58.04100 37.78500
H  0.30900 58.13700 39.53700
H  -0.51900 57.11700 38.46200
H  0.43000 51.13300 42.41000
H  0.26900 50.80400 40.58400
H  0.20200 52.42300 41.22800
H  5.14300 48.37400 41.22200
H  3.90700 45.83300 38.10600
H  5.08800 44.75500 38.73800
H  5.57000 46.06600 37.51700

