158

Mg 30.73300 57.75000 39.38700
C  27.95600 55.70300 38.57100
C  32.77600 55.00200 38.20800
C  33.39100 59.72600 39.53800
C  28.55000 60.36600 39.88300
N  30.35000 55.63700 38.45200
C  29.18100 54.99200 38.46200
C  29.31200 53.50500 38.16900
C  30.87300 53.33900 38.14800
C  31.41900 54.80800 38.25500
C  31.33400 52.49000 39.30700
C  28.62000 52.96000 36.92500
C  29.03500 53.70400 35.61500
H  27.92000 54.42100 34.74400
N  32.81200 57.40500 38.97900
C  33.45300 56.24800 38.54200
C  34.83300 56.52900 38.47500
C  35.05400 57.80700 39.05000
C  33.71200 58.44300 39.24300
C  35.86000 55.69900 37.86500
C  36.48600 58.41400 39.33300
O  37.48600 57.80500 38.94800
C  36.59800 59.68000 40.11000
N  30.92700 59.74700 39.62300
C  32.14400 60.36100 39.56400
C  32.05400 61.88600 39.69500
C  30.52200 62.09800 39.76100
C  29.90900 60.63000 39.78500
C  32.92600 62.58800 40.80100
C  29.95300 63.04800 38.66000
C  28.96600 64.12000 39.12300
N  28.65300 57.99300 39.26400
C  27.90500 59.17000 39.45300
C  26.50400 58.81000 39.22400
C  26.50900 57.46700 38.95400
C  27.82800 57.06800 38.89800
C  25.36700 59.68600 39.47400
C  25.60600 56.34700 38.66000
O  24.39000 56.25000 38.56900
C  26.52800 55.13500 38.35100
C  26.12700 54.04700 39.33800
O  26.65700 53.76000 40.42400
O  25.16300 53.27700 38.69400
C  24.80000 52.08700 39.35600
H  33.32000 54.06700 38.05500
H  34.22600 60.41200 39.69400
H  27.90400 61.21200 40.12600
H  28.77100 53.01000 38.97500
H  31.23500 52.88100 37.22700
H  32.22300 51.93800 39.00400
H  30.61900 51.76100 39.68800
H  31.67000 52.97500 40.22300
H  27.53400 52.92900 37.01100
H  28.98100 51.93300 36.89600
H  29.51200 52.95600 34.98100
H  29.75900 54.49300 35.81700
H  36.63500 55.27800 38.50600
H  36.33100 56.29400 37.08200
H  35.35300 54.93600 37.27500
H  35.79500 59.76000 40.84300
H  36.65600 60.45600 39.34700
H  37.53700 59.70100 40.66300
H  32.50700 62.38800 38.84000
H  30.24200 62.48900 40.73900
H  32.18000 63.18600 41.32300
H  33.73900 63.18800 40.39200
H  33.35400 61.91700 41.54500
H  29.76600 62.39700 37.80600
H  30.81100 63.68300 38.44000
H  29.48400 65.06600 39.27800
H  28.47200 63.78400 40.03500
H  28.26600 64.28600 38.30400
H  25.52500 60.57900 38.87100
H  25.16800 59.84700 40.53400
H  24.48500 59.10700 39.19900
H  26.15200 54.71100 37.42100
H  23.90300 51.61800 38.95100
H  24.73500 52.35600 40.41000
H  25.64500 51.40600 39.25000
Mg 6.53500 53.99400 41.24400
C  5.92100 50.58200 40.83100
C  9.71400 53.40100 39.79100
C  6.87300 57.24700 40.74400
C  3.16000 54.49300 42.12200
N  7.69300 52.21200 40.35300
C  7.30000 50.90900 40.44800
C  8.43200 49.90300 40.14200
C  9.67800 50.83900 40.06700
C  8.97400 52.20500 39.99000
C  10.59800 50.68600 41.32800
C  8.31800 48.91100 38.90900
C  8.01900 49.65300 37.59500
H  7.37200 48.93600 36.44900
N  8.06200 55.14400 40.31500
C  9.26600 54.74900 39.86400
C  10.09500 55.88200 39.58300
C  9.32500 57.02500 39.87800
C  8.03500 56.51500 40.39200
C  11.46200 55.75400 39.01000
C  9.72900 58.49400 39.56600
O  10.83500 58.71900 39.06900
C  8.82800 59.67600 39.84800
N  5.09900 55.59300 41.11500
C  5.57000 56.87500 41.09400
C  4.45100 57.95800 41.28100
C  3.32300 57.04100 41.85200
C  3.86600 55.62300 41.69600
C  4.87700 59.09600 42.20400
C  1.92800 57.20000 41.24200
C  1.32600 58.61100 41.39000
N  4.89200 52.75200 41.55100
C  3.60500 53.11600 41.94700
C  2.76600 51.91500 41.95200
C  3.62400 50.89600 41.53600
C  4.93200 51.45300 41.27900
C  1.33600 51.79300 42.32300
C  3.66400 49.47100 41.21200
O  2.82900 48.59000 41.27800
C  5.19900 49.19200 40.82500
C  5.14300 48.45800 39.57100
O  4.73300 48.84600 38.46600
O  5.45600 47.06200 39.86100
C  5.02200 46.10600 38.85200
H  10.78000 53.18000 39.70300
H  7.08700 58.31100 40.86100
H  2.14100 54.66700 42.47200
H  8.43600 49.20200 40.97600
H  10.21800 50.65400 39.13900
H  11.51100 50.19500 40.99000
H  10.10900 50.07200 42.08300
H  10.86100 51.70400 41.61700
H  7.49900 48.23100 39.14500
H  9.22300 48.30600 38.87600
H  8.93800 50.11500 37.23300
H  7.42800 50.52000 37.88900
H  11.81100 54.76300 38.72000
H  12.15000 56.09200 39.78400
H  11.40700 56.44200 38.16600
H  7.93200 59.38600 39.29800
H  9.27600 60.51200 39.31000
H  8.80200 59.88300 40.91800
H  4.11300 58.35100 40.32200
H  3.11400 57.03300 42.92200
H  5.76600 58.87800 42.79600
H  4.12700 59.29500 42.96900
H  5.08100 59.96100 41.57300
H  1.18000 56.59600 41.75600
H  2.00600 56.87800 40.20400
H  0.44900 58.65100 42.03500
H  1.08800 58.92800 40.37400
H  2.03000 59.35300 41.76700
H  0.96500 52.76400 42.65300
H  1.10900 51.13900 43.16400
H  0.74200 51.59800 41.43000
H  5.60100 48.53700 41.59800
H  5.31300 45.11300 39.19500
H  5.64400 46.37500 37.99900
H  3.96200 46.27200 38.66300

