158

Mg 0.94900 -1.93300 44.32100
C  4.29100 -0.96700 43.91400
C  0.01800 0.89400 42.52400
C  -2.23300 -3.16200 44.15100
C  2.11600 -5.08400 45.42900
N  2.02200 -0.18800 43.31900
C  3.43500 -0.00800 43.37100
C  3.89500 1.25500 42.54500
C  2.45700 1.95600 42.39600
C  1.42000 0.82600 42.66800
C  2.19200 3.25700 43.23300
C  4.66000 0.82300 41.28300
C  6.09700 1.44700 41.02100
H  6.77600 1.45000 39.55500
N  -0.94900 -1.17900 43.52200
C  -1.04800 0.03100 42.92500
C  -2.43100 0.26800 42.72800
C  -3.14900 -0.94400 43.12100
C  -2.11900 -1.87500 43.54600
C  -3.05000 1.51900 42.11700
C  -4.62700 -1.06500 42.97700
O  -5.30100 -0.10900 42.66600
C  -5.30900 -2.31500 43.39400
N  0.19200 -3.92200 44.55700
C  -1.20400 -4.07900 44.61600
C  -1.57000 -5.37100 45.36200
C  -0.21900 -5.92900 45.71600
C  0.74600 -4.91600 45.17600
C  -2.46600 -5.19900 46.58700
C  -0.07800 -7.43100 45.23900
C  -0.88600 -8.59200 45.86400
N  2.83000 -2.85600 44.71700
C  3.12800 -4.12400 45.15100
C  4.52100 -4.31500 45.17000
C  5.08500 -2.99900 44.88000
C  3.97600 -2.21300 44.50400
C  5.17800 -5.61900 45.33000
C  6.28300 -2.28300 44.66100
O  7.46000 -2.52200 44.79300
C  5.81100 -0.86300 44.01700
C  6.17200 0.29200 44.86500
O  5.76000 0.56700 45.95000
O  7.07100 1.06700 44.12300
C  7.31700 2.43900 44.73300
H  -0.24500 1.79900 41.97300
H  -3.23200 -3.57800 44.29600
H  2.41000 -6.11200 45.65000
H  4.47300 1.83200 43.26700
H  2.40900 2.37800 41.39200
H  1.27400 3.03000 43.77600
H  2.14000 4.10500 42.55000
H  3.05900 3.46500 43.86000
H  4.07300 1.29400 40.49500
H  4.73000 -0.25700 41.15300
H  6.71200 0.81400 41.66000
H  6.08900 2.47400 41.38600
H  -3.64900 1.42500 41.21100
H  -2.31400 2.20300 41.69400
H  -3.59800 2.10700 42.85400
H  -5.02400 -3.17100 42.78200
H  -6.39000 -2.17900 43.36900
H  -5.06000 -2.54900 44.42900
H  -1.98500 -6.02000 44.59100
H  -0.13700 -6.00400 46.80000
H  -3.43900 -5.59500 46.29700
H  -2.38300 -4.16100 46.90800
H  -2.22200 -5.87700 47.40500
H  0.95200 -7.78600 45.27300
H  -0.39800 -7.53300 44.20100
H  -0.19500 -9.17900 46.46900
H  -1.36500 -9.26100 45.14900
H  -1.65500 -8.20400 46.53100
H  4.54200 -6.42600 44.96700
H  5.50400 -5.89200 46.33400
H  6.14800 -5.47900 44.85400
H  6.28300 -0.80800 43.03600
H  7.76900 2.48300 45.72400
H  6.38900 3.00700 44.66400
H  7.97900 3.00300 44.07600
Mg 6.08900 53.35300 41.67200
C  5.54500 49.91100 41.38200
C  9.29800 52.78000 40.49800
C  6.54000 56.61500 41.88100
C  2.72100 53.74900 42.60300
N  7.25800 51.51300 40.75100
C  6.81900 50.20800 40.90400
C  7.87100 49.27000 40.21900
C  9.20000 50.16800 40.52700
C  8.60800 51.61300 40.63200
C  10.11200 49.83200 41.67300
C  7.64900 48.80200 38.77900
C  6.72100 49.66200 37.92400
H  7.39600 50.37600 36.76800
N  7.76000 54.57300 41.25700
C  8.98600 54.14400 40.83900
C  9.80700 55.39300 40.72200
C  9.10400 56.43900 41.31500
C  7.72900 55.87500 41.55800
C  11.22800 55.23000 40.19200
C  9.66600 57.85600 41.43900
O  10.83100 58.03000 41.07100
C  8.78200 59.06600 41.83900
N  4.76900 54.94600 42.11700
C  5.19400 56.19900 42.07200
C  4.08600 57.25800 42.36900
C  2.81600 56.33800 42.54300
C  3.40300 54.90200 42.43100
C  4.42500 58.31900 43.47400
C  1.60400 56.53200 41.57300
C  0.27100 56.87400 42.22900
N  4.44000 52.11300 41.97400
C  3.16100 52.41500 42.43100
C  2.42800 51.14600 42.75100
C  3.33700 50.15900 42.28300
C  4.48700 50.78600 41.77700
C  1.11100 50.98300 43.38000
C  3.50400 48.74000 42.10000
O  2.72900 47.81500 42.33400
C  4.89100 48.54600 41.51100
C  4.71800 47.68600 40.20800
O  4.06900 48.20700 39.26400
O  5.28800 46.44900 40.37600
C  5.01400 45.60000 39.14300
H  10.32400 52.55700 40.19800
H  6.69800 57.68300 42.04400
H  1.67200 53.98400 42.79200
H  7.95300 48.40700 40.88000
H  9.76900 49.92000 39.63100
H  10.11200 50.60400 42.44300
H  11.16000 49.83400 41.37200
H  9.87800 48.85300 42.09200
H  7.21000 47.80500 38.83200
H  8.64300 48.73300 38.33700
H  6.15100 50.34200 38.55800
H  6.04500 48.99000 37.39500
H  11.95900 55.39300 40.98400
H  11.39500 55.93300 39.37600
H  11.50200 54.22200 39.88200
H  9.37200 59.97900 41.74900
H  8.58500 58.90900 42.89900
H  7.88600 58.98600 41.22400
H  4.05700 57.71700 41.38100
H  2.56700 56.55000 43.58300
H  4.40300 59.28000 42.96000
H  5.36700 58.15200 43.99800
H  3.72700 58.27900 44.31000
H  1.51500 55.55300 41.10300
H  1.75800 57.22200 40.74300
H  -0.54600 56.31800 41.77100
H  0.00800 57.93100 42.19100
H  0.31400 56.68200 43.30100
H  0.48900 50.22500 42.90500
H  0.55800 51.92200 43.39800
H  1.18900 50.78600 44.45000
H  5.41500 47.89000 42.20500
H  3.94700 45.61900 38.91800
H  5.36900 44.61000 39.43000
H  5.57200 45.94400 38.27300

