158

Mg 24.92400 -5.83500 46.30400
C  26.33800 -2.85700 44.85800
C  22.16700 -5.30000 44.30100
C  24.00600 -8.85300 47.09600
C  27.98800 -6.26700 47.89600
N  24.37500 -4.22500 44.67600
C  25.06300 -3.15300 44.32600
C  24.37700 -2.45000 43.23600
C  22.90600 -3.03500 43.31200
C  23.11700 -4.24400 44.14300
C  21.86500 -2.03800 43.97500
C  25.07700 -2.73900 41.86400
C  25.21000 -1.54600 40.97000
H  24.99000 -1.65100 39.44200
N  23.25600 -6.86700 45.90600
C  22.25000 -6.50200 45.02300
C  21.25400 -7.55200 44.96500
C  21.76300 -8.63800 45.69200
C  23.11400 -8.21400 46.18700
C  19.86100 -7.50500 44.19100
C  21.09100 -9.99500 45.94500
O  19.96200 -10.04300 45.62100
C  21.93500 -11.23400 46.44600
N  25.89000 -7.26800 47.33200
C  25.22200 -8.40600 47.55100
C  26.07500 -9.23500 48.61700
C  27.34800 -8.39100 48.83200
C  27.07900 -7.24800 47.96800
C  25.32700 -9.78900 49.89400
C  28.64900 -9.20700 48.49400
C  29.61200 -9.38200 49.65900
N  26.78800 -4.70400 46.43100
C  27.93400 -5.03800 47.15100
C  28.95500 -4.05400 47.00500
C  28.32900 -3.17100 46.02800
C  27.05700 -3.64300 45.72300
C  30.30600 -3.99800 47.66600
C  28.65400 -1.94700 45.31800
O  29.61300 -1.18300 45.33100
C  27.28900 -1.69100 44.50700
C  26.76000 -0.27600 44.89000
O  25.54700 -0.04700 45.17800
O  27.77500 0.72000 44.85500
C  27.32800 2.07200 45.32700
H  21.29300 -5.24100 43.64900
H  23.67500 -9.81400 47.49500
H  28.87300 -6.28600 48.53500
H  24.38900 -1.37100 43.39500
H  22.66400 -3.32200 42.28900
H  21.61200 -1.30900 43.20500
H  22.34500 -1.49400 44.78800
H  21.05100 -2.69100 44.28700
H  24.54900 -3.57300 41.40100
H  26.07600 -3.13900 42.03400
H  26.29000 -1.40200 40.99600
H  24.63400 -0.67600 41.28500
H  18.98700 -7.80100 44.77100
H  19.92300 -8.19300 43.34700
H  19.67300 -6.58000 43.64500
H  21.36600 -12.10500 46.12000
H  21.94700 -11.21200 47.53500
H  22.86500 -11.28800 45.88000
H  26.29200 -10.07300 47.95500
H  27.50800 -8.09100 49.86800
H  25.53000 -10.79800 50.25300
H  24.25800 -9.67900 49.71300
H  25.43300 -9.14800 50.77000
H  29.12000 -8.77800 47.60900
H  28.45800 -10.22500 48.15400
H  29.96700 -10.41300 49.64900
H  29.19100 -9.20400 50.64900
H  30.43200 -8.68000 49.50900
H  30.27100 -3.28000 48.48500
H  31.07100 -3.51800 47.05600
H  30.58900 -4.99700 48.00000
H  27.48800 -1.58100 43.44100
H  27.23300 2.21600 46.40300
H  26.35900 2.41100 44.96000
H  27.98900 2.81800 44.88400
Mg -1.46700 34.81900 27.29000
C  -3.15500 33.04200 29.82700
C  0.14300 36.62500 29.82800
C  -0.15000 36.74100 25.00000
C  -3.18800 33.03900 24.92900
N  -1.56600 34.91500 29.59700
C  -2.34400 34.05800 30.42700
C  -2.11700 34.42400 31.91500
C  -1.15400 35.69100 31.85900
C  -0.85100 35.83000 30.28400
C  -1.69800 36.93200 32.43800
C  -1.47000 33.10400 32.63900
C  -2.24700 32.47700 33.86100
H  -1.55000 32.54200 35.17500
N  -0.20700 36.54600 27.35000
C  0.40100 37.04200 28.48200
C  1.45000 37.98500 28.11400
C  1.42000 38.02800 26.67300
C  0.33100 37.09300 26.28700
C  2.25500 38.83600 29.05400
C  2.28400 38.80600 25.63500
O  1.98900 38.85600 24.44400
C  3.44900 39.50500 26.19100
N  -1.63400 34.87300 25.27800
C  -1.05700 35.82300 24.48600
C  -1.31400 35.73700 22.94100
C  -2.12800 34.40400 22.98500
C  -2.44900 34.11800 24.44700
C  -2.05300 36.92300 22.33900
C  -1.38800 33.18800 22.32700
C  -0.37800 32.39500 23.19700
N  -2.85000 33.34400 27.29400
C  -3.43100 32.68000 26.26900
C  -4.40600 31.72700 26.70300
C  -4.25500 31.82500 28.13900
C  -3.31200 32.83100 28.41900
C  -5.21800 30.81900 25.94600
C  -4.67300 31.16900 29.41400
O  -5.39300 30.21200 29.59900
C  -4.02400 31.95800 30.49500
C  -5.19100 32.51200 31.31300
O  -5.95300 33.48600 30.95400
O  -5.17600 31.88400 32.53000
C  -6.18100 32.15600 33.53400
H  0.67000 37.05500 30.68200
H  0.26600 37.43500 24.26600
H  -3.53100 32.50700 24.03900
H  -3.15700 34.63600 32.16200
H  -0.27800 35.40300 32.43900
H  -2.17600 36.73300 33.39800
H  -2.34400 37.45600 31.73300
H  -0.83700 37.54900 32.69700
H  -0.41000 33.16800 32.88100
H  -1.50200 32.32900 31.87300
H  -2.30000 31.40400 33.67700
H  -3.18400 33.02200 33.97500
H  3.29000 38.51300 29.16400
H  1.74100 38.72000 30.00800
H  2.21200 39.86400 28.69600
H  4.13100 38.78300 26.64000
H  3.19500 40.27100 26.92400
H  3.95700 40.05300 25.39800
H  -0.39200 35.51200 22.40300
H  -3.06700 34.59100 22.46500
H  -1.71800 37.83300 22.83700
H  -3.11900 36.70300 22.30500
H  -1.64200 36.96800 21.33100
H  -0.85000 33.59900 21.47200
H  -2.06900 32.46700 21.87400
H  -0.38500 32.79400 24.21100
H  0.56700 32.59600 22.69300
H  -0.57800 31.32400 23.25000
H  -5.39700 31.17500 24.93100
H  -6.09400 30.97100 26.57600
H  -4.73300 29.84500 26.00800
H  -3.47500 31.28900 31.15600
H  -7.02200 32.75000 33.17600
H  -5.73200 32.70000 34.36500
H  -6.54200 31.21000 33.93600

