158

Mg 26.78800 49.86600 26.38500
C  24.81600 50.83800 28.93700
C  29.31400 49.08200 28.69300
C  29.00700 49.31600 23.79700
C  24.56100 51.12500 24.07000
N  26.99900 49.80400 28.61700
C  25.98200 50.25900 29.38900
C  26.38300 50.10400 30.90900
C  27.99200 49.83100 30.88400
C  28.10700 49.50000 29.33700
C  28.85400 51.08300 31.16300
C  25.64500 48.85700 31.56000
C  25.10200 49.01600 33.03000
H  26.07000 49.50000 34.12700
N  28.81300 49.15600 26.26100
C  29.64000 48.82500 27.34600
C  30.86000 48.32700 26.86400
C  30.82000 48.44000 25.42500
C  29.51200 49.01000 25.10900
C  31.99700 47.79500 27.71300
C  31.91200 48.16100 24.37400
O  31.82800 48.30000 23.13900
C  33.19600 47.67700 24.89400
N  26.77800 50.21000 24.18000
C  27.78200 49.77400 23.34000
C  27.34900 49.75700 21.85200
C  25.85800 50.27500 21.99700
C  25.65000 50.49800 23.50900
C  28.14500 50.69100 20.89000
C  24.75100 49.28800 21.49300
C  23.63200 49.88300 20.56100
N  25.05300 50.79800 26.46200
C  24.26600 51.38800 25.45200
C  23.08600 52.01600 25.99500
C  23.28400 51.80800 27.40200
C  24.41900 51.05900 27.61100
C  21.91600 52.50400 25.24700
C  22.64400 51.93600 28.62100
O  21.54900 52.41300 28.88600
C  23.66100 51.42300 29.73000
C  24.02100 52.46900 30.72700
O  24.85300 53.37100 30.57500
O  23.30700 52.31900 31.89400
C  23.76000 53.12400 33.10800
H  30.07600 48.83700 29.43600
H  29.59400 49.02700 22.92300
H  23.83100 51.44000 23.32200
H  26.24200 51.04300 31.44400
H  28.27300 49.00400 31.53700
H  28.29300 51.88000 31.65100
H  29.34800 51.50200 30.28700
H  29.58200 50.92700 31.95900
H  26.25500 47.95500 31.60200
H  24.74000 48.64100 30.99200
H  24.71600 48.06400 33.39400
H  24.20100 49.62800 32.98700
H  32.86200 48.45500 27.64600
H  32.28700 46.78000 27.43900
H  31.81200 47.76800 28.78700
H  33.63600 48.50600 25.44900
H  34.01500 47.66200 24.17500
H  33.04700 46.72200 25.39700
H  27.47800 48.75200 21.45000
H  25.70100 51.21300 21.46500
H  29.16900 50.83600 21.23600
H  27.73000 51.68900 21.03200
H  27.99000 50.41900 19.84600
H  24.42400 48.63500 22.30300
H  25.33700 48.64200 20.83900
H  23.80800 50.95700 20.50300
H  22.68900 49.64300 21.05300
H  23.73600 49.39200 19.59400
H  21.94500 52.39400 24.16300
H  21.77500 53.56000 25.47700
H  21.05400 51.94100 25.60400
H  23.16000 50.58400 30.21500
H  24.83100 52.95300 33.21500
H  23.18300 52.74900 33.95300
H  23.59800 54.17500 32.87100
Mg -13.31800 16.41800 41.61700
C  -10.20900 14.84600 40.95600
C  -12.11300 19.22600 40.31200
C  -16.47900 17.64900 41.78500
C  -14.75600 13.22800 42.06600
N  -11.30600 16.96200 40.83900
C  -10.18700 16.22900 40.59800
C  -8.98900 17.07800 40.20500
C  -9.67800 18.54100 40.30500
C  -11.13400 18.22700 40.44000
C  -9.08000 19.41800 41.49600
C  -8.41000 16.62400 38.85100
C  -6.91000 16.37800 38.75200
H  -6.24400 17.31800 37.79300
N  -14.19400 18.18400 41.19100
C  -13.49800 19.21500 40.56100
C  -14.38900 20.35800 40.32200
C  -15.70200 20.00700 40.87600
C  -15.51000 18.54700 41.30200
C  -13.99400 21.62600 39.61600
C  -16.81800 20.94400 40.97100
O  -16.76300 22.12500 40.57400
C  -18.17300 20.54600 41.50900
N  -15.40900 15.47300 41.85100
C  -16.45000 16.27800 42.08600
C  -17.73600 15.43600 42.36500
C  -17.18100 13.98700 42.23200
C  -15.71400 14.21800 42.04400
C  -18.36300 15.79300 43.77500
C  -17.77300 13.22000 41.02800
C  -18.04000 11.71500 41.26400
N  -12.66000 14.38800 41.59300
C  -13.34900 13.22600 41.76000
C  -12.33200 12.14800 41.91000
C  -11.08700 12.75500 41.61400
C  -11.37200 14.12500 41.32200
C  -12.65600 10.66300 42.22500
C  -9.64800 12.55200 41.51900
O  -9.00800 11.49900 41.67400
C  -9.04000 13.88400 40.99000
C  -7.99000 14.33000 41.98300
O  -8.23200 14.55900 43.19200
O  -6.71300 14.28500 41.43300
C  -5.66300 14.78000 42.39200
H  -11.60000 20.11800 39.94600
H  -17.49800 18.03500 41.86200
H  -15.01100 12.19400 42.30700
H  -8.26400 17.00500 41.01500
H  -9.57300 19.14700 39.40600
H  -9.70400 20.27100 41.76400
H  -8.03400 19.71200 41.41300
H  -9.17300 18.72600 42.33200
H  -8.56100 17.47800 38.19100
H  -8.93000 15.78800 38.38300
H  -6.51600 15.38300 38.54400
H  -6.49400 16.66200 39.71900
H  -13.16400 21.56800 38.91300
H  -13.59000 22.26900 40.39800
H  -14.69800 22.17800 38.99400
H  -18.63200 19.78800 40.87300
H  -18.96300 21.29000 41.60200
H  -17.88500 20.07800 42.45000
H  -18.40500 15.65100 41.53200
H  -17.39500 13.37600 43.10900
H  -18.59100 14.82200 44.21500
H  -19.33100 16.25100 43.57200
H  -17.80800 16.45300 44.44100
H  -17.04300 13.34100 40.22800
H  -18.67300 13.73100 40.68500
H  -17.81700 11.50400 42.31000
H  -17.33500 11.15800 40.64800
H  -19.10500 11.55400 41.09200
H  -12.73600 10.14600 41.26900
H  -13.51500 10.59100 42.89200
H  -11.74700 10.27400 42.68200
H  -8.57500 13.64500 40.03400
H  -4.76200 15.20100 41.94400
H  -5.36800 13.95200 43.03700
H  -6.06000 15.58600 43.00900

