158

Mg 24.46000 -7.51100 46.11400
C  26.90200 -5.12700 45.05900
C  22.11400 -5.99100 44.13600
C  22.41400 -10.02300 46.78000
C  27.13300 -9.26100 47.63100
N  24.54200 -5.79400 44.81600
C  25.61100 -4.91800 44.60100
C  25.22900 -3.79000 43.59100
C  23.62900 -3.99600 43.41200
C  23.42800 -5.35500 44.27200
C  22.76100 -2.82600 43.91400
C  25.92800 -3.86300 42.30900
C  26.48100 -2.53000 41.76500
H  25.52000 -1.89500 40.73900
N  22.38000 -7.86300 45.68600
C  21.63500 -7.17000 44.82000
C  20.33900 -7.77500 44.78700
C  20.34200 -8.95300 45.59200
C  21.72600 -8.98700 46.11100
C  19.14800 -7.06300 44.16300
C  19.16600 -9.87900 45.83500
O  18.20000 -9.71200 45.07400
C  19.22300 -10.98900 46.77800
N  24.81100 -9.31600 46.97800
C  23.75400 -10.15700 47.12700
C  24.14100 -11.47100 47.89200
C  25.64200 -11.24700 48.23900
C  25.87700 -9.90000 47.52600
C  23.26000 -11.94000 49.13700
C  26.74000 -12.31000 48.08600
C  27.49300 -12.85700 49.31600
N  26.56500 -7.34000 46.28100
C  27.53700 -8.10900 46.97100
C  28.85400 -7.48900 46.88000
C  28.67600 -6.32800 46.11400
C  27.26900 -6.28900 45.77300
C  30.01500 -7.93000 47.67700
C  29.32000 -5.04900 45.63900
O  30.43100 -4.64300 45.87500
C  28.21900 -4.34100 44.79800
C  28.23100 -2.96600 45.05300
O  28.91500 -2.19800 44.35400
O  27.49000 -2.57500 46.13800
C  27.50700 -1.19300 46.45100
H  21.35700 -5.51400 43.51000
H  21.72100 -10.80100 47.10500
H  28.05000 -9.68300 48.04800
H  25.43600 -2.80200 44.00200
H  23.30800 -4.14000 42.38000
H  23.32100 -2.04600 44.42900
H  21.93300 -3.11800 44.56100
H  22.19800 -2.19600 43.22500
H  25.17300 -4.21100 41.60500
H  26.76900 -4.55700 42.31300
H  27.48000 -2.79100 41.41600
H  26.71100 -1.80500 42.54500
H  19.30600 -6.00500 43.95800
H  18.21900 -7.30100 44.68200
H  19.00600 -7.44800 43.15400
H  19.49500 -10.51900 47.72300
H  20.03000 -11.63100 46.42600
H  18.31200 -11.58100 46.86300
H  23.90200 -12.25100 47.16900
H  25.69100 -11.00200 49.30000
H  22.92300 -12.94800 48.89700
H  22.48100 -11.20700 49.34700
H  23.90900 -11.99100 50.01000
H  27.39500 -11.98500 47.27800
H  26.27600 -13.15500 47.57700
H  27.03900 -13.84800 49.33700
H  27.14000 -12.21700 50.12400
H  28.57100 -12.84200 49.15400
H  29.75400 -8.47200 48.58700
H  30.75200 -7.14800 47.85900
H  30.58300 -8.68300 47.13100
H  28.44500 -4.58500 43.76000
H  27.07000 -1.18700 47.44900
H  27.04900 -0.59400 45.66400
H  28.50400 -0.78800 46.62700
Mg 7.34300 57.67900 41.58600
C  6.44400 54.29200 41.51100
C  10.42900 56.70100 40.20300
C  8.04300 60.86200 41.04200
C  4.18400 58.46800 42.57500
N  8.37600 55.65000 40.86600
C  7.77100 54.42600 41.03500
C  8.69600 53.35900 40.54000
C  10.08000 54.08300 40.42500
C  9.67500 55.55800 40.51300
C  11.10000 53.69500 41.44500
C  8.28700 52.64700 39.19700
C  8.53200 51.14100 39.03800
H  8.74200 50.49600 37.68400
N  8.97900 58.67100 40.70900
C  10.11300 58.08900 40.24400
C  11.00300 59.08700 39.75400
C  10.44300 60.36900 39.92800
C  9.09900 59.97700 40.61200
C  12.38000 58.74500 39.26500
C  11.04000 61.70200 39.49500
O  12.20200 61.85000 39.18500
C  10.10500 62.82500 39.60400
N  6.18500 59.44300 41.71000
C  6.78300 60.63800 41.52300
C  5.82600 61.79800 42.09300
C  4.63700 60.97200 42.66000
C  5.01000 59.53900 42.30900
C  6.46200 62.79400 43.16500
C  3.28200 61.49500 42.17000
C  2.17400 61.84000 43.22900
N  5.59500 56.64900 42.00600
C  4.39900 57.06700 42.44300
C  3.57700 55.91900 42.85000
C  4.33600 54.80900 42.37900
C  5.53900 55.30100 41.99800
C  2.22800 55.93800 43.40800
C  4.32700 53.35300 42.31600
O  3.58800 52.43400 42.61900
C  5.69300 53.01500 41.63400
C  5.22000 52.24500 40.39200
O  4.79500 52.70800 39.35700
O  5.44000 50.89900 40.67200
C  4.97100 49.90300 39.64600
H  11.39000 56.37700 39.79900
H  8.25200 61.93100 40.95600
H  3.18400 58.77700 42.88500
H  8.90300 52.58000 41.27400
H  10.56700 53.96500 39.45700
H  11.12500 52.71000 41.91000
H  11.09500 54.44700 42.23400
H  12.11600 53.77700 41.05900
H  8.84900 53.14100 38.40400
H  7.24400 52.82100 38.93400
H  7.62500 50.67000 39.41600
H  9.36900 50.83000 39.66200
H  12.51200 57.81900 38.70500
H  13.06000 58.90300 40.10200
H  12.77300 59.51500 38.60100
H  9.80400 62.98200 40.64000
H  9.19900 62.43300 39.14200
H  10.48500 63.75700 39.18700
H  5.45000 62.35900 41.23700
H  4.60900 60.94700 43.74900
H  6.33000 63.80600 42.78100
H  7.52600 62.61000 43.31100
H  5.94900 62.85300 44.12500
H  2.74100 60.73300 41.61000
H  3.37900 62.42600 41.61000
H  1.37800 62.39100 42.72700
H  2.42300 62.46300 44.08900
H  1.74800 60.93700 43.66600
H  1.45900 56.43300 42.81500
H  2.25600 56.49000 44.34800
H  1.94400 54.89500 43.55200
H  6.22300 52.30600 42.27000
H  5.83200 49.26800 39.43800
H  4.74300 50.35700 38.68100
H  4.08500 49.41400 40.05000

