158

Mg 25.44900 -7.52700 48.30200
C  27.78100 -5.11800 47.09200
C  23.31500 -6.52100 45.83600
C  23.58500 -10.24200 48.85700
C  27.99600 -8.74400 50.44800
N  25.71700 -6.05600 46.62500
C  26.64100 -5.12000 46.30700
C  26.27100 -4.14500 45.20400
C  24.72100 -4.53200 45.12800
C  24.58600 -5.82400 45.87600
C  23.67000 -3.48400 45.60700
C  27.05000 -4.46000 43.90500
C  27.70100 -3.27900 43.17400
H  27.53800 -3.01600 41.68900
N  23.57100 -8.28100 47.44100
C  22.86500 -7.67500 46.51800
C  21.55600 -8.29800 46.39600
C  21.54600 -9.30000 47.46200
C  22.96600 -9.41500 47.91800
C  20.46300 -7.89200 45.43400
C  20.39500 -10.17400 47.83400
O  19.30000 -10.07500 47.31800
C  20.47500 -11.24900 48.94400
N  25.80300 -9.32900 49.44900
C  24.78500 -10.18500 49.63200
C  25.12000 -11.35600 50.62400
C  26.52200 -10.88100 51.09400
C  26.80700 -9.56600 50.32500
C  24.00900 -11.69900 51.62000
C  27.65200 -11.97400 50.87500
C  28.65000 -12.07000 52.04800
N  27.38700 -7.07800 48.83100
C  28.27300 -7.56900 49.69600
C  29.49500 -6.83200 49.71700
C  29.27500 -5.82900 48.74600
C  28.03100 -6.01700 48.18200
C  30.60700 -7.13200 50.60900
C  29.95100 -4.70100 48.05900
O  31.06100 -4.24200 48.24900
C  28.92300 -4.19900 47.01400
C  28.55600 -2.84000 47.42200
O  28.10700 -2.61200 48.53500
O  28.82700 -1.86500 46.44400
C  28.22100 -0.61800 46.86100
H  22.55500 -6.32100 45.07800
H  22.89400 -11.00400 49.22400
H  28.65900 -9.12400 51.22800
H  26.44800 -3.15800 45.63100
H  24.51000 -4.82500 44.09900
H  24.13600 -2.69900 46.20100
H  22.86300 -3.89700 46.21300
H  23.11700 -3.13300 44.73600
H  26.44000 -5.02100 43.19700
H  27.78400 -5.24500 44.08800
H  28.78300 -3.35100 43.28100
H  27.40900 -2.36100 43.68500
H  19.42900 -7.83200 45.77300
H  20.36400 -8.55900 44.57800
H  20.62400 -6.95400 44.90300
H  21.18900 -11.95600 48.52100
H  19.50900 -11.73400 49.08300
H  20.79500 -10.74300 49.85500
H  25.28300 -12.21700 49.97600
H  26.52400 -10.59000 52.14400
H  23.67000 -12.72800 51.50000
H  23.20600 -10.96700 51.70600
H  24.44700 -11.67400 52.61800
H  28.20000 -11.76800 49.95600
H  27.18700 -12.95300 50.75800
H  28.39800 -12.97000 52.60900
H  28.56100 -11.18600 52.67900
H  29.69400 -12.04900 51.73500
H  30.10900 -6.88400 51.54600
H  31.57900 -6.65600 50.47800
H  30.74800 -8.21200 50.64300
H  29.37600 -4.09900 46.02800
H  29.00500 0.08200 47.15000
H  27.44600 -0.64400 47.62800
H  27.73800 -0.37800 45.91400
Mg -0.41400 43.23400 25.24200
C  1.95900 42.81600 27.93500
C  -2.90200 42.11900 27.31100
C  -2.29900 43.08600 22.59700
C  2.47100 43.78500 23.22500
N  -0.41900 42.69500 27.30700
C  0.60300 42.66300 28.26300
C  0.08800 42.47900 29.72000
C  -1.38200 42.09300 29.46300
C  -1.60900 42.26300 27.89600
C  -1.96800 40.66800 29.93600
C  0.46900 43.68600 30.66600
C  0.59100 43.50600 32.19600
H  0.36800 42.03800 32.77800
N  -2.44900 42.84600 24.99700
C  -3.31600 42.32300 25.94200
C  -4.57900 42.04100 25.36000
C  -4.44000 42.29300 23.92900
C  -3.02700 42.73500 23.76600
C  -5.76100 41.66300 26.17100
C  -5.44200 42.23200 22.82700
O  -5.19600 42.62500 21.67200
C  -6.85000 41.75500 23.00900
N  0.08800 43.53100 23.25000
C  -0.90000 43.31400 22.34600
C  -0.40300 43.77000 20.89600
C  1.07600 44.03900 21.14300
C  1.27100 43.72900 22.60600
C  -0.73900 42.83800 19.75100
C  1.49900 45.41600 20.68200
C  1.04300 46.58600 21.56200
N  1.78800 43.20100 25.45300
C  2.80300 43.52700 24.54700
C  4.12500 43.37000 25.09800
C  3.87100 43.12500 26.44400
C  2.43000 43.07400 26.62000
C  5.46000 43.54600 24.48800
C  4.50200 42.91600 27.74500
O  5.69400 42.85200 28.05800
C  3.24500 42.85600 28.80800
C  3.42600 41.61000 29.62600
O  2.88700 40.49100 29.53300
O  4.34000 41.85300 30.58300
C  4.47100 40.81300 31.60600
H  -3.78100 41.84900 27.90100
H  -2.83400 43.14900 21.64700
H  3.32800 43.97600 22.57600
H  0.65900 41.65900 30.15600
H  -1.96500 42.83700 30.00400
H  -1.23000 40.13000 30.53100
H  -2.24600 40.03600 29.09200
H  -2.75300 40.89600 30.65700
H  -0.16900 44.52600 30.39400
H  1.47200 43.96000 30.33700
H  -0.21800 44.14400 32.55300
H  1.57900 43.68300 32.62100
H  -6.24900 40.78400 25.75000
H  -6.40100 42.50900 26.42400
H  -5.40700 41.19700 27.09100
H  -7.17200 41.50700 21.99800
H  -7.33000 42.63400 23.44100
H  -6.90400 40.89800 23.68000
H  -0.90200 44.71500 20.68300
H  1.69200 43.32200 20.60100
H  -1.64100 43.24800 19.29500
H  -0.89700 41.85900 20.20300
H  0.06000 42.97800 19.02300
H  1.04000 45.44900 19.69400
H  2.58500 45.47800 20.62200
H  0.57500 46.27100 22.49400
H  0.32700 47.24700 21.07300
H  1.91300 47.23100 21.68600
H  5.72700 44.53400 24.11400
H  5.56300 42.94100 23.58700
H  6.20100 43.14900 25.18300
H  3.26900 43.70700 29.48800
H  4.95600 39.95100 31.14800
H  3.45900 40.50200 31.86400
H  4.97900 41.05700 32.53900

