158

Mg -12.02800 37.89400 43.10800
C  -10.10600 35.19700 42.21800
C  -10.09100 39.76800 40.97000
C  -14.30300 40.40500 43.13000
C  -14.19400 35.76900 44.63000
N  -10.28900 37.50800 41.68300
C  -9.65100 36.32900 41.60600
C  -8.36400 36.52500 40.82500
C  -8.42200 37.94400 40.25100
C  -9.67700 38.45900 41.00500
C  -7.12600 38.87400 40.41400
C  -8.11700 35.47200 39.67200
C  -6.64100 35.05200 39.49800
H  -5.83500 35.57500 38.27600
N  -12.12100 39.88700 42.28200
C  -11.15700 40.48000 41.51400
C  -11.49400 41.88700 41.30900
C  -12.67200 42.11800 42.00000
C  -13.13100 40.77500 42.49800
C  -10.68300 42.76600 40.41400
C  -13.33000 43.42500 42.11800
O  -12.73200 44.42000 41.73800
C  -14.69000 43.65000 42.67200
N  -13.90200 38.02900 43.71400
C  -14.63700 39.19100 43.74100
C  -16.07600 38.99700 44.27500
C  -16.07500 37.45400 44.56800
C  -14.59100 37.03800 44.35600
C  -16.35300 40.00500 45.42500
C  -17.15300 36.67600 43.71900
C  -17.77500 35.45500 44.39600
N  -12.12400 35.85900 43.48300
C  -13.06700 35.15300 44.17000
C  -12.60100 33.77000 44.30300
C  -11.35900 33.75200 43.58000
C  -11.25300 35.02900 43.00800
C  -13.27900 32.63400 45.05100
C  -10.21900 32.93300 43.20500
O  -9.92300 31.78300 43.44000
C  -9.42400 33.77600 42.28100
C  -8.06500 33.84300 42.85900
O  -7.14200 33.23400 42.43600
O  -7.99600 34.72500 43.88800
C  -6.57000 34.90400 44.41700
H  -9.51100 40.49200 40.39500
H  -14.95800 41.25600 43.32900
H  -14.94400 35.13900 45.11200
H  -7.51000 36.32700 41.47300
H  -8.61500 38.00600 39.18000
H  -7.34600 39.72300 41.06200
H  -6.80700 39.21900 39.43000
H  -6.24800 38.31100 40.73200
H  -8.40000 35.96100 38.74000
H  -8.88500 34.70500 39.77100
H  -6.60000 33.97900 39.30800
H  -6.13300 35.05200 40.46200
H  -11.37500 43.39800 39.85700
H  -9.97000 42.40700 39.67200
H  -10.03700 43.47900 40.92500
H  -15.33900 43.07100 42.01500
H  -14.96800 44.67300 42.42000
H  -14.74500 43.38700 43.72800
H  -16.76100 39.10100 43.43300
H  -16.41000 37.41100 45.60400
H  -15.44200 40.33000 45.92700
H  -16.98300 39.53200 46.17800
H  -16.90200 40.90500 45.14800
H  -16.52300 36.38300 42.87900
H  -17.92300 37.38000 43.40600
H  -18.82100 35.68100 44.60400
H  -17.23700 35.10900 45.27900
H  -17.77300 34.63400 43.67900
H  -14.35100 32.60700 44.85800
H  -13.05100 32.71400 46.11400
H  -12.76600 31.77900 44.61100
H  -9.46200 33.31500 41.29400
H  -6.39300 35.70800 45.13200
H  -5.84400 35.10800 43.63000
H  -6.24300 33.97400 44.88100
Mg 1.15600 41.02500 26.20900
C  2.32800 41.85800 29.44000
C  -1.60800 39.84900 27.74900
C  0.04200 40.58400 23.10900
C  4.19400 42.47400 24.94300
N  0.37300 41.09300 28.36000
C  0.99500 41.52000 29.46700
C  0.14400 41.36700 30.67400
C  -1.16200 40.58100 30.15000
C  -0.81500 40.43000 28.66000
C  -1.50600 39.30600 30.97600
C  -0.10900 42.74400 31.29500
C  0.58700 42.92300 32.65300
H  -0.38100 43.06100 33.87400
N  -0.40000 40.12000 25.51300
C  -1.48600 39.61800 26.28900
C  -2.33700 38.91200 25.40500
C  -1.96000 39.19800 24.07200
C  -0.72500 39.95300 24.16600
C  -3.62000 38.29700 25.98300
C  -2.71800 38.92500 22.75200
O  -2.29600 39.30400 21.65600
C  -4.07100 38.24900 22.73700
N  2.12500 41.36300 24.31600
C  1.29600 41.17800 23.17800
C  2.09200 41.59900 21.91000
C  3.21300 42.47800 22.60600
C  3.23300 42.09500 24.01000
C  2.68900 40.50600 21.00200
C  2.99300 44.10100 22.38400
C  4.13400 44.94100 21.83100
N  2.96700 41.90700 27.03300
C  4.09300 42.36800 26.38600
C  5.05600 42.70400 27.40400
C  4.38600 42.53900 28.60500
C  3.11400 42.08700 28.32600
C  6.39800 43.16900 27.15900
C  4.58800 42.53700 30.01900
O  5.55600 42.89400 30.71100
C  3.23700 42.08300 30.64600
C  3.51300 40.77100 31.53100
O  3.34300 39.60400 31.18600
O  3.77300 41.20800 32.81900
C  3.40000 40.35700 33.92200
H  -2.56800 39.57200 28.18900
H  -0.36500 40.48400 22.10000
H  5.11900 42.96500 24.63400
H  0.75400 40.73600 31.32000
H  -1.99100 41.28700 30.18200
H  -2.00700 38.53600 30.38800
H  -2.21100 39.55300 31.77000
H  -0.68200 38.75300 31.42700
H  -1.17800 42.91300 31.42300
H  0.23400 43.45900 30.54700
H  1.07800 43.89600 32.61200
H  1.31900 42.15200 32.89400
H  -4.44500 38.96600 25.73900
H  -3.63500 38.26600 27.07200
H  -3.90800 37.27900 25.71900
H  -4.78500 38.99100 23.09200
H  -3.94300 37.42900 23.44400
H  -4.38900 37.95400 21.73700
H  1.47800 42.22900 21.26600
H  4.15500 42.09500 22.21500
H  2.80700 39.56200 21.53400
H  3.68300 40.74100 20.62000
H  2.04200 40.33900 20.14200
H  2.79500 44.44500 23.39900
H  2.13600 44.36200 21.76300
H  4.65200 45.55700 22.56700
H  3.68000 45.51900 21.02600
H  4.88400 44.29200 21.37800
H  7.01700 42.27200 27.15200
H  6.68300 43.92100 27.89500
H  6.46200 43.72500 26.22400
H  3.07400 42.85800 31.39500
H  3.49500 40.95200 34.83000
H  4.24000 39.67800 34.06300
H  2.43300 39.89000 33.73500

