158

Mg 25.30800 1.58000 29.23300
C  27.50100 1.17000 32.07100
C  22.70100 1.91100 31.39300
C  23.51400 1.94800 26.47100
C  28.13200 0.85200 27.25300
N  25.10500 1.42900 31.52500
C  26.09200 1.40200 32.45500
C  25.55700 1.57800 33.87300
C  23.99400 1.76200 33.60100
C  23.90300 1.76100 32.03700
C  23.01500 0.70300 34.26400
C  26.33200 2.61800 34.78700
C  25.42000 3.32400 35.71900
H  25.97400 4.07400 36.95000
N  23.33100 1.92200 28.95200
C  22.36300 1.87500 29.97100
C  21.11100 1.89000 29.27600
C  21.32700 1.97400 27.89300
C  22.76400 1.97700 27.71000
C  19.84800 1.96200 30.00000
C  20.34200 1.95300 26.75800
O  20.61900 2.18100 25.57900
C  18.84200 1.48900 27.03200
N  25.79800 1.45900 27.20500
C  24.87800 1.79300 26.19400
C  25.47400 1.67400 24.77200
C  27.00400 1.39900 25.07600
C  27.01200 1.15900 26.58800
C  24.89800 0.49400 23.84700
C  27.93600 2.66300 24.71700
C  27.75700 3.86500 25.53100
N  27.39900 1.06400 29.53600
C  28.40700 0.74400 28.63100
C  29.56300 0.38800 29.34800
C  29.29700 0.56300 30.65900
C  27.97000 0.97400 30.75100
C  30.86700 0.09900 28.67800
C  29.84100 0.45300 31.94100
O  30.90900 -0.04400 32.27900
C  28.72000 0.99100 32.98700
C  28.48400 -0.02900 34.09800
O  27.60500 -0.89400 34.06100
O  29.29600 0.12600 35.16800
C  29.03000 -0.73500 36.26800
H  21.81100 2.04500 32.01100
H  22.95200 2.08500 25.54500
H  28.95100 0.56500 26.59000
H  25.77400 0.65800 34.41600
H  23.65700 2.71600 34.00800
H  22.45600 0.15200 33.50800
H  22.19800 1.06400 34.88900
H  23.49900 0.00400 34.94500
H  26.87300 3.32500 34.15900
H  27.12000 1.99200 35.20500
H  24.53100 2.75700 35.99800
H  25.03100 4.09600 35.05600
H  19.13400 2.57700 29.45200
H  20.02300 2.48800 30.93800
H  19.47700 0.93700 30.02800
H  18.67500 0.80900 27.86700
H  18.49900 1.15000 26.05400
H  18.20200 2.35800 27.18400
H  25.19400 2.56700 24.21400
H  27.40500 0.47000 24.67000
H  24.24600 -0.09300 24.49400
H  25.71000 -0.07700 23.39600
H  24.40400 1.00900 23.02400
H  27.68300 2.95900 23.69900
H  28.94000 2.23900 24.74500
H  27.24200 3.61400 26.45800
H  27.23200 4.68100 25.03500
H  28.67800 4.32300 25.89200
H  30.82000 -0.91100 28.27100
H  31.65100 0.13400 29.43400
H  31.01000 0.74000 27.80900
H  28.97400 1.96400 33.40800
H  28.01000 -0.57300 36.61700
H  29.72500 -0.43300 37.05200
H  29.23100 -1.77100 35.99600
Mg 53.50800 24.92800 44.37300
C  50.90900 27.23600 43.63700
C  51.56000 22.47900 43.01100
C  56.22400 22.96600 44.56500
C  55.59100 27.73000 44.89100
N  51.46400 24.93600 43.33100
C  50.57400 25.96200 43.18000
C  49.25800 25.35700 42.57200
C  49.38700 23.86100 42.78900
C  50.94700 23.71800 42.98500
C  48.61000 23.24400 43.97500
C  48.75200 25.71100 41.14700
C  49.69300 25.99300 40.02700
H  49.49800 25.26000 38.73700
N  53.77500 22.99300 43.93600
C  52.90500 22.17400 43.28600
C  53.55700 20.89400 43.11200
C  54.82400 20.91600 43.84400
C  54.97000 22.34300 44.20500
C  52.89600 19.64000 42.52400
C  55.73700 19.73900 44.09400
O  55.45900 18.60700 43.62400
C  56.79900 19.75700 45.10600
N  55.73300 25.34600 44.50100
C  56.59200 24.31900 44.67700
C  58.03900 24.82900 44.76100
C  57.78800 26.39300 44.91900
C  56.26000 26.51000 44.71200
C  58.91000 24.07700 45.80700
C  58.66200 27.30800 44.15000
C  59.38300 28.41500 44.93900
N  53.33300 27.00800 44.27700
C  54.23100 27.98400 44.75300
C  53.57700 29.22900 45.04000
C  52.24100 28.95800 44.64200
C  52.20300 27.61600 44.09800
C  54.18700 30.48700 45.55000
C  50.92500 29.60200 44.38000
O  50.46500 30.74600 44.64700
C  50.03800 28.49700 43.70100
C  49.60400 28.94400 42.28300
O  50.46100 29.08200 41.40400
O  48.29200 29.21900 42.20000
C  47.86700 29.65300 40.83000
H  50.95700 21.66800 42.59700
H  57.07800 22.28600 44.59500
H  56.28400 28.48900 45.26200
H  48.44900 25.73800 43.19500
H  49.17100 23.26200 41.90400
H  47.80400 23.87800 44.34500
H  49.32000 22.92000 44.73500
H  48.07900 22.35300 43.63700
H  48.07100 26.53900 41.33900
H  48.09100 24.96400 40.70600
H  50.71100 25.77400 40.34900
H  49.58900 27.04300 39.75500
H  53.58600 19.30500 41.75000
H  51.86100 19.80600 42.22600
H  52.82500 18.80600 43.22200
H  56.76400 18.80700 45.63900
H  56.51800 20.61200 45.72200
H  57.78700 19.98400 44.70500
H  58.56800 24.66400 43.82200
H  57.96200 26.67300 45.95800
H  58.44500 23.21000 46.27700
H  59.11500 24.72600 46.65900
H  59.84300 23.70800 45.38200
H  58.07200 27.84100 43.40500
H  59.38200 26.74500 43.55500
H  59.58100 29.20600 44.21600
H  60.24500 27.95000 45.41800
H  58.67400 28.87400 45.62800
H  55.25600 30.44600 45.75800
H  53.80300 30.74800 46.53600
H  54.00000 31.39300 44.97400
H  49.12800 28.21500 44.23200
H  48.56600 29.37000 40.04300
H  47.60800 30.70200 40.68500
H  47.04300 28.95600 40.68100

