158

Mg 15.97300 -2.04700 27.87500
C  15.10800 0.01600 30.56300
C  17.83600 -4.02000 30.13800
C  17.01400 -3.86600 25.22900
C  14.54700 0.30100 25.62500
N  16.27900 -2.14500 30.13100
C  15.89300 -1.09000 30.98900
C  16.40100 -1.34600 32.36800
C  17.43800 -2.44900 32.18300
C  17.16600 -2.90900 30.72000
C  18.90500 -1.96400 32.37400
C  15.32100 -1.74100 33.41200
C  15.42400 -1.25800 34.88100
H  16.68500 -0.57000 35.34100
N  17.13500 -3.76700 27.71800
C  17.79300 -4.42200 28.77000
C  18.35300 -5.60700 28.19400
C  18.13800 -5.59300 26.81700
C  17.41400 -4.41400 26.54600
C  19.12000 -6.67200 28.95700
C  18.46300 -6.70600 25.74800
O  17.95300 -6.78800 24.60800
C  19.51800 -7.72200 26.11800
N  15.81600 -1.85800 25.78100
C  16.30000 -2.72100 24.85100
C  15.75300 -2.44100 23.47900
C  15.03200 -1.04600 23.54700
C  15.13100 -0.85800 25.10600
C  16.75700 -2.57900 22.24800
C  13.58600 -1.21100 22.87700
C  12.59100 -2.10500 23.53900
N  14.99400 -0.20600 28.01700
C  14.45400 0.57500 27.00600
C  13.79700 1.66900 27.66000
C  14.02000 1.51100 29.02900
C  14.74600 0.33500 29.20200
C  12.93300 2.76800 27.11600
C  13.68400 2.04300 30.34400
O  13.03200 2.97600 30.75800
C  14.45100 1.16300 31.37400
C  15.34400 2.14800 32.16200
O  16.47400 2.42900 31.86700
O  14.61200 2.78800 33.14300
C  15.29700 3.92400 33.78000
H  18.49200 -4.48400 30.87700
H  17.37300 -4.50000 24.41600
H  14.01800 1.00800 24.98100
H  16.77500 -0.36500 32.66200
H  17.18500 -3.29700 32.81900
H  19.40400 -2.49400 33.18500
H  18.96200 -0.90100 32.60900
H  19.57700 -2.14200 31.53400
H  15.23600 -2.82600 33.47800
H  14.31900 -1.60600 33.00400
H  15.31500 -2.14300 35.50700
H  14.50100 -0.69500 35.01800
H  20.18400 -6.48700 28.81400
H  18.85000 -7.67800 28.63400
H  18.90900 -6.54800 30.01900
H  20.03000 -8.12700 25.24500
H  19.08800 -8.50000 26.74800
H  20.31800 -7.21300 26.65600
H  15.05600 -3.27500 23.38400
H  15.57200 -0.28500 22.98400
H  17.76500 -2.76100 22.62100
H  16.68400 -1.73000 21.56800
H  16.54700 -3.44300 21.61800
H  13.61800 -1.43400 21.81000
H  13.16600 -0.20600 22.86500
H  11.64000 -1.60500 23.72100
H  12.89600 -2.51300 24.50300
H  12.34500 -3.01100 22.98500
H  11.91700 2.61300 27.47800
H  12.90800 2.88500 26.03300
H  13.29900 3.71600 27.51100
H  13.69900 0.81000 32.07900
H  16.13900 3.65600 34.42000
H  14.56500 4.48200 34.36400
H  15.74600 4.52100 32.98700
Mg 42.22800 41.23800 26.91900
C  41.45600 43.63100 29.40300
C  43.15600 39.13500 29.27400
C  42.98600 39.05600 24.55800
C  41.50500 43.66500 24.49300
N  42.40700 41.47000 29.21700
C  41.88100 42.44900 30.03100
C  41.93800 42.01900 31.52200
C  42.63700 40.59700 31.45400
C  42.76700 40.39100 29.90700
C  44.05100 40.39800 32.12800
C  40.55700 41.99000 32.16700
C  40.48100 42.80800 33.53200
H  39.83400 42.05600 34.69700
N  43.04800 39.39600 26.97400
C  43.38300 38.69400 28.02000
C  44.02400 37.38000 27.64200
C  43.87300 37.27600 26.27000
C  43.26200 38.59400 25.85900
C  44.57900 36.38300 28.69100
C  44.27500 36.17200 25.35900
O  43.91000 36.15600 24.17500
C  44.94800 34.89200 25.76200
N  42.42000 41.40500 24.81400
C  42.66300 40.31800 24.08300
C  42.74700 40.73900 22.52000
C  42.02200 42.03900 22.55300
C  42.03700 42.39300 24.00800
C  44.18600 40.73900 22.06100
C  40.65700 41.99500 21.79000
C  39.50100 40.91300 22.08300
N  41.66000 43.23900 26.91000
C  41.38500 44.13400 25.84100
C  40.79000 45.32700 26.35800
C  40.82300 45.16000 27.74600
C  41.39900 43.93400 28.06000
C  40.38700 46.48800 25.54500
C  40.53200 45.86000 28.97800
O  40.06100 46.89100 29.28500
C  40.88000 44.83000 30.07400
C  41.73500 45.48800 31.05300
O  42.85800 45.93700 30.76900
O  41.14400 45.64900 32.25400
C  41.82100 46.59400 33.18300
H  43.33100 38.40900 30.07200
H  43.33000 38.45800 23.71100
H  41.26400 44.39100 23.71400
H  42.60300 42.66200 32.09900
H  41.95200 39.82900 31.81300
H  44.85100 40.41300 31.38800
H  44.09800 39.45000 32.66400
H  44.22800 41.17300 32.87500
H  40.17400 40.98300 32.33200
H  39.86500 42.49000 31.48900
H  39.83400 43.67900 33.42200
H  41.42700 43.24800 33.84500
H  44.08200 35.41300 28.66400
H  44.34100 36.69900 29.70700
H  45.62400 36.13900 28.49800
H  45.91600 35.15200 26.19200
H  45.10900 34.21300 24.92500
H  44.30600 34.23300 26.34500
H  42.22200 39.97400 21.94800
H  42.69300 42.81200 22.17700
H  44.83100 41.08900 22.86700
H  44.29900 41.27400 21.11800
H  44.57100 39.80900 21.64100
H  40.85300 41.66000 20.77200
H  40.16500 42.96700 21.82000
H  38.59200 41.32800 22.51800
H  39.94100 40.04000 22.56400
H  39.14500 40.60900 21.09900
H  39.68100 47.05600 26.15100
H  39.75000 46.18200 24.71500
H  41.17200 47.14900 25.17700
H  39.88400 44.72100 30.50300
H  41.67400 47.60900 32.81500
H  42.90600 46.49700 33.21700
H  41.30700 46.37000 34.11800

