158

Mg 17.67000 50.84400 25.94500
C  19.39400 49.50500 28.68400
C  15.14500 51.69400 27.97700
C  15.96700 51.74700 23.24500
C  20.01800 49.25300 23.89100
N  17.28800 50.47900 28.04400
C  18.14000 50.01400 29.00500
C  17.66700 50.35400 30.38900
C  16.19100 50.73800 30.08500
C  16.17300 50.99900 28.58200
C  15.12700 49.62700 30.45900
C  18.48100 51.44400 31.20900
C  18.45600 51.34500 32.73200
H  17.53900 50.53300 33.58300
N  15.84300 51.81400 25.66800
C  14.97300 51.99200 26.62300
C  13.90600 52.87400 26.07700
C  14.18300 52.91600 24.67200
C  15.33400 52.05000 24.45700
C  12.77500 53.40300 26.86400
C  13.53100 53.71600 23.54200
O  14.03700 53.84200 22.39700
C  12.44300 54.66400 23.90700
N  18.00900 50.57300 23.80100
C  17.17700 51.08600 22.92100
C  17.51000 50.66100 21.46800
C  18.95100 49.94400 21.68400
C  18.97000 49.90400 23.19300
C  16.42600 49.79900 20.74900
C  20.23300 50.63900 21.06400
C  21.01600 51.59000 21.94500
N  19.49200 49.79900 26.18600
C  20.29500 49.19500 25.23200
C  21.43800 48.57000 25.90900
C  21.15800 48.69600 27.27000
C  19.90800 49.41200 27.32600
C  22.60700 48.00500 25.26400
C  21.63100 48.35500 28.57200
O  22.72200 47.77300 28.90100
C  20.57800 48.97600 29.53900
C  20.13300 47.89700 30.49000
O  19.45100 46.93100 30.16800
O  20.59900 48.27200 31.74500
C  20.30400 47.29800 32.72900
H  14.37600 52.10900 28.63100
H  15.46400 51.93000 22.29300
H  20.64100 48.59100 23.28800
H  17.67900 49.38700 30.89100
H  15.97300 51.65800 30.62700
H  14.23700 49.93800 31.00500
H  15.76600 48.94800 31.02400
H  14.90800 49.09800 29.53200
H  18.10600 52.42900 30.93000
H  19.53900 51.31700 30.97900
H  18.31500 52.41500 32.88900
H  19.51800 51.16400 32.89800
H  12.85900 54.46700 27.08900
H  12.81300 52.87400 27.81600
H  11.82200 53.12800 26.41100
H  12.14600 55.37000 23.13100
H  12.97900 55.37800 24.53400
H  11.56200 54.18300 24.33000
H  17.63000 51.62000 20.96300
H  18.95400 48.91100 21.33600
H  15.68400 49.48600 21.48400
H  16.66300 48.83400 20.29900
H  15.94400 50.37400 19.95800
H  19.97700 51.16300 20.14300
H  20.91100 49.80800 20.86900
H  20.75600 51.55400 23.00300
H  21.11900 52.61600 21.59300
H  22.05400 51.27900 21.82600
H  23.51400 48.32500 25.77700
H  22.85100 48.43700 24.29300
H  22.64700 46.92000 25.35600
H  21.09300 49.77400 30.07400
H  20.97900 46.45500 32.87200
H  19.30500 46.87000 32.64000
H  20.35800 47.73200 33.72800
Mg -5.94100 24.92000 25.84500
C  -4.67700 26.14700 28.97600
C  -8.15300 22.94300 27.80500
C  -7.04400 23.48500 23.10400
C  -3.36500 26.56600 24.16300
N  -6.20600 24.56000 28.17000
C  -5.66400 25.20300 29.23500
C  -6.31600 24.88500 30.56100
C  -7.37000 23.76300 30.10400
C  -7.23500 23.73500 28.57700
C  -7.32800 22.28800 30.80600
C  -6.99000 26.10700 31.35100
C  -6.57900 26.37600 32.83800
H  -6.01600 25.15500 33.68700
N  -7.33000 23.43900 25.51300
C  -8.18200 22.84700 26.43400
C  -9.11000 21.94300 25.73100
C  -8.66800 21.93300 24.35900
C  -7.67400 23.00700 24.27900
C  -10.09500 21.11200 26.46300
C  -9.22000 20.97900 23.23200
O  -8.76800 21.09500 22.10100
C  -10.24200 19.89300 23.46100
N  -5.24100 25.02900 23.94200
C  -5.94200 24.35400 22.94800
C  -5.29500 24.64300 21.59500
C  -4.09100 25.46200 21.97000
C  -4.17900 25.72500 23.43500
C  -4.88900 23.31700 20.86300
C  -4.01300 26.85300 21.19600
C  -2.64300 27.29900 20.77300
N  -4.43800 26.31900 26.38700
C  -3.42400 26.83000 25.58900
C  -2.60100 27.67800 26.35000
C  -3.06800 27.50500 27.70900
C  -4.15200 26.57500 27.70500
C  -1.45900 28.62900 26.00800
C  -2.82400 27.93600 29.01500
O  -1.98000 28.73900 29.39600
C  -3.82200 26.98800 29.96900
C  -2.84100 26.18100 30.70600
O  -2.35500 25.08100 30.30900
O  -2.60900 26.82000 31.91000
C  -1.45100 26.27700 32.64700
H  -8.91800 22.50000 28.44600
H  -7.40300 22.96300 22.21400
H  -2.51000 26.99100 23.63300
H  -5.50000 24.45500 31.14200
H  -8.36300 24.13400 30.35800
H  -6.38900 22.15400 31.34400
H  -7.20800 21.54400 30.01900
H  -8.18800 22.14800 31.46100
H  -8.07800 26.06000 31.30700
H  -6.66600 27.04600 30.90200
H  -7.51000 26.68500 33.31300
H  -5.86400 27.19600 32.89000
H  -11.07900 21.17700 26.00000
H  -10.30000 21.38700 27.49800
H  -9.74000 20.08300 26.39800
H  -10.18600 19.11700 22.69700
H  -11.27400 20.23100 23.55100
H  -9.98600 19.42100 24.41000
H  -5.93700 25.20200 20.91300
H  -3.16100 24.91000 21.83800
H  -3.84000 23.41700 20.58200
H  -5.49200 23.07600 19.98800
H  -4.94800 22.48000 21.55900
H  -4.50800 27.61500 21.79900
H  -4.71800 26.83500 20.36500
H  -2.50300 28.24700 21.29300
H  -2.54900 27.39700 19.69200
H  -1.92400 26.60900 21.21500
H  -1.84000 29.38700 25.32500
H  -0.59700 28.09000 25.61400
H  -1.10500 29.14300 26.90200
H  -4.39600 27.62900 30.63800
H  -1.15600 26.93100 33.46700
H  -0.59400 26.13600 31.98900
H  -1.65200 25.27600 33.02800

