158

Mg 40.82600 41.38000 26.63900
C  40.27500 43.81200 29.20200
C  41.67000 39.15800 29.05800
C  41.75300 39.34000 24.11500
C  40.76000 44.12500 24.33500
N  40.90000 41.50500 28.94000
C  40.69600 42.56100 29.77300
C  40.88500 42.17600 31.18400
C  41.28300 40.69500 31.06800
C  41.27400 40.41500 29.62100
C  42.60100 40.37000 31.82200
C  39.54400 42.53800 31.98300
C  39.18500 41.74700 33.33400
H  38.59900 42.61400 34.51400
N  41.52200 39.48400 26.57300
C  41.81300 38.74500 27.69000
C  42.29200 37.46000 27.28300
C  42.20700 37.40000 25.89200
C  41.75400 38.71500 25.44500
C  42.75700 36.39700 28.25000
C  42.50900 36.18500 24.88700
O  42.33100 36.31400 23.65100
C  42.97500 34.86500 25.44600
N  41.31700 41.70000 24.50700
C  41.52300 40.64600 23.65300
C  41.25600 41.02600 22.22100
C  41.30400 42.57400 22.33900
C  41.03000 42.81500 23.78700
C  42.23500 40.41900 21.09600
C  40.34600 43.33700 21.42600
C  38.87000 43.61400 21.81500
N  40.34100 43.52500 26.61100
C  40.50600 44.44100 25.60100
C  40.24800 45.73400 26.19100
C  40.02800 45.50500 27.56900
C  40.20600 44.18800 27.79300
C  40.33100 47.00000 25.44700
C  39.74700 46.24100 28.77900
O  39.57600 47.38200 29.04400
C  39.95200 45.14200 29.89000
C  41.20600 45.50900 30.67200
O  42.31900 45.44000 30.20900
O  40.92200 45.94900 31.91200
C  42.04000 46.02000 32.82800
H  41.94600 38.47700 29.86600
H  41.82200 38.49100 23.43200
H  40.88900 44.98800 23.67800
H  41.69800 42.83200 31.49600
H  40.41400 40.18900 31.48900
H  42.76300 41.03500 32.67000
H  43.46400 40.52800 31.17600
H  42.57000 39.39900 32.31700
H  38.62300 42.45100 31.40700
H  39.63900 43.54400 32.39400
H  40.06200 41.19700 33.67400
H  38.31700 41.15600 33.04000
H  42.90800 36.80100 29.25100
H  43.71700 35.97400 27.95400
H  41.96900 35.64500 28.23200
H  43.24700 34.10600 24.71300
H  42.12400 34.54200 26.04500
H  43.81100 35.00300 26.13200
H  40.19300 40.82800 22.08400
H  42.31400 42.96000 22.20000
H  41.75700 39.52600 20.69400
H  43.22900 40.12400 21.43100
H  42.40400 41.19200 20.34600
H  40.40900 42.83600 20.46100
H  40.85100 44.26300 21.14900
H  38.23400 43.40800 20.95400
H  38.72800 44.68900 21.92500
H  38.58000 43.09200 22.72700
H  41.05600 47.07900 24.63700
H  40.69500 47.67900 26.21700
H  39.31100 47.29900 25.20500
H  39.10300 45.11900 30.57400
H  42.27500 47.07700 32.95000
H  42.92300 45.44400 32.54900
H  41.76000 45.51400 33.75200
Mg -1.07100 34.91400 26.99700
C  -2.91000 33.33600 29.59700
C  0.30200 37.03400 29.40700
C  0.55100 36.35800 24.49400
C  -2.69700 32.74600 24.78900
N  -1.28700 35.12500 29.27100
C  -2.00900 34.29400 30.08300
C  -1.71800 34.66600 31.51800
C  -0.88900 36.00000 31.49800
C  -0.60500 36.09100 29.99500
C  -1.57500 37.30900 32.04700
C  -1.11700 33.53000 32.42700
C  -0.92900 33.98000 33.90600
H  -1.49400 33.11500 35.08900
N  0.18000 36.49500 26.93300
C  0.69000 37.19200 28.01500
C  1.64700 38.22400 27.55000
C  1.62300 38.12500 26.17900
C  0.72100 36.95900 25.77100
C  2.35800 39.10900 28.52700
C  2.30100 39.07400 25.16000
O  2.15700 38.98700 23.94800
C  3.16500 40.14700 25.67600
N  -1.27000 34.73500 24.94500
C  -0.30500 35.35500 24.16700
C  -0.41000 34.87700 22.68300
C  -1.52600 33.74800 22.74000
C  -1.87000 33.72500 24.28000
C  -0.62800 35.89000 21.60300
C  -1.05400 32.34900 22.14500
C  -0.56000 31.28800 23.16600
N  -2.53100 33.39000 27.06000
C  -3.02700 32.59200 26.10400
C  -3.96000 31.66900 26.62600
C  -3.91300 31.85100 28.06600
C  -3.06800 32.95900 28.24300
C  -4.71100 30.51500 25.86800
C  -4.47400 31.43200 29.38700
O  -5.22400 30.48000 29.68700
C  -3.81200 32.41100 30.42400
C  -4.92300 33.10700 31.06500
O  -5.45600 34.10900 30.64400
O  -5.26900 32.43700 32.19400
C  -6.31800 33.04900 33.00700
H  0.58000 37.83000 30.10000
H  1.19800 36.57900 23.64200
H  -3.15500 32.01300 24.12200
H  -2.67400 34.74300 32.03500
H  0.04500 35.75500 32.00400
H  -1.85000 37.97100 31.22600
H  -0.76400 37.74100 32.63400
H  -2.51800 37.18800 32.57900
H  -0.11600 33.30700 32.05800
H  -1.77500 32.67000 32.55500
H  -1.26600 35.00900 34.02400
H  0.14300 33.98700 34.09900
H  2.33600 38.67900 29.52800
H  1.91800 40.10200 28.43100
H  3.42000 39.09200 28.28200
H  3.90100 39.55400 26.21900
H  2.69700 40.93200 26.27000
H  3.66100 40.61900 24.82800
H  0.54400 34.37100 22.53400
H  -2.42200 34.07300 22.21200
H  -0.82300 36.84900 22.08300
H  -1.51000 35.74700 20.97800
H  0.31700 35.90800 21.06000
H  -0.27600 32.51400 21.40000
H  -1.95800 32.05400 21.61300
H  -0.11800 31.76400 24.04200
H  0.30600 30.82900 22.69000
H  -1.34700 30.54900 23.31500
H  -4.18300 30.32000 24.93400
H  -5.76000 30.78000 25.73100
H  -4.78000 29.56000 26.38700
H  -3.21200 31.78300 31.08400
H  -6.00500 33.74400 33.78700
H  -6.85300 32.28300 33.56600
H  -7.10200 33.48600 32.38900

