158

Mg 1.86200 -1.21000 44.27200
C  5.23400 -0.19100 43.47900
C  0.83700 1.62100 42.41400
C  -1.22500 -2.49000 44.02800
C  3.15300 -4.22300 45.22300
N  2.95800 0.43500 42.81700
C  4.27800 0.69600 42.92200
C  4.60800 2.08800 42.33300
C  3.19000 2.78200 42.21300
C  2.28200 1.61200 42.52500
C  3.01200 4.01300 43.12700
C  5.41700 2.02900 41.02100
C  6.88600 2.49800 41.07300
H  7.92300 1.60200 40.36800
N  -0.01800 -0.45400 43.45000
C  -0.21400 0.75700 42.80900
C  -1.63000 0.95200 42.62200
C  -2.27900 -0.26200 43.04600
C  -1.15400 -1.16400 43.52300
C  -2.29000 2.20500 42.05600
C  -3.73600 -0.59800 42.96600
O  -4.54100 0.25900 42.67500
C  -4.30700 -1.93100 43.33900
N  1.06500 -3.06300 44.69400
C  -0.24100 -3.38900 44.54700
C  -0.50500 -4.81400 44.93800
C  0.95300 -5.46300 45.10900
C  1.78500 -4.15300 44.99600
C  -1.49200 -5.05900 46.18500
C  1.44400 -6.53700 44.03600
C  1.66000 -7.91300 44.68200
N  3.71300 -2.08200 44.37000
C  4.08200 -3.29800 44.87600
C  5.49100 -3.38800 45.13600
C  5.93900 -2.15500 44.64400
C  4.85500 -1.45000 44.07300
C  6.26600 -4.41000 45.87900
C  7.05700 -1.28000 44.61100
O  8.18100 -1.48300 45.09000
C  6.67300 0.01000 43.73500
C  6.86400 1.12300 44.73400
O  6.09000 1.36300 45.65800
O  8.04800 1.78300 44.47100
C  8.28500 3.18000 45.07500
H  0.43200 2.53500 41.97400
H  -2.17000 -3.03200 44.10100
H  3.47200 -5.15100 45.70200
H  5.18400 2.65800 43.06100
H  3.10200 3.14100 41.18700
H  2.06500 3.90700 43.65500
H  2.92700 4.77500 42.35100
H  3.87200 4.15800 43.78100
H  4.83400 2.66600 40.35600
H  5.48700 1.00900 40.64300
H  7.24700 2.72000 42.07800
H  6.82700 3.49100 40.62700
H  -2.83300 2.07400 41.12100
H  -1.56300 2.96900 41.78100
H  -2.95100 2.65000 42.80000
H  -5.35000 -2.04100 43.04400
H  -4.17100 -2.12800 44.40200
H  -3.86900 -2.62200 42.61700
H  -1.01900 -5.27400 44.09400
H  1.05200 -5.75100 46.15600
H  -2.15200 -5.92400 46.11400
H  -2.12200 -4.19100 46.37700
H  -0.90200 -5.34300 47.05700
H  2.38300 -6.30700 43.53200
H  0.63500 -6.61000 43.30900
H  1.18900 -8.74700 44.16200
H  1.23700 -7.91800 45.68600
H  2.71000 -8.05400 44.93900
H  6.53000 -5.31100 45.32500
H  5.74400 -4.76200 46.76900
H  7.22700 -4.01300 46.20600
H  7.36200 0.17300 42.90700
H  7.59200 3.51800 45.84600
H  8.09600 3.87500 44.25700
H  9.34300 3.14400 45.33500
Mg 17.51600 -1.21300 28.21100
C  16.53700 0.67400 31.02100
C  19.70300 -3.03400 30.24500
C  19.03700 -2.60500 25.54700
C  15.83000 1.00500 26.17300
N  18.17200 -1.01300 30.31900
C  17.45200 -0.34900 31.31400
C  17.96100 -0.64900 32.74800
C  19.10100 -1.70300 32.39600
C  18.92500 -2.00200 30.90800
C  20.55900 -1.30100 32.61000
C  16.90000 -1.18200 33.76000
C  16.68900 -0.19800 34.94200
H  17.86700 0.45300 35.51400
N  18.90100 -2.88500 27.95300
C  19.64500 -3.46700 28.90400
C  20.55900 -4.35800 28.23100
C  20.19500 -4.34000 26.83000
C  19.32200 -3.28000 26.74600
C  21.43700 -5.35400 29.06300
C  20.71100 -5.19500 25.70500
O  20.59600 -4.96600 24.54200
C  21.53900 -6.50400 25.90800
N  17.54700 -0.74200 26.11100
C  18.23700 -1.53700 25.25600
C  18.15500 -1.01400 23.86000
C  17.06400 0.05100 24.04200
C  16.78100 0.16800 25.54600
C  19.56600 -0.67300 23.28600
C  15.82300 -0.26400 23.12100
C  14.64100 -0.86300 23.84200
N  16.36900 0.51500 28.48900
C  15.63100 1.24800 27.59500
C  14.88000 2.28700 28.30200
C  15.22200 2.00700 29.64600
C  16.15000 0.99700 29.75100
C  14.05100 3.33600 27.67400
C  14.89900 2.47100 30.96300
O  14.16200 3.32100 31.40400
C  15.78000 1.63700 31.90000
C  16.68600 2.64000 32.57000
O  17.82800 2.80600 32.17500
O  16.01000 3.17700 33.63000
C  16.82100 4.11700 34.44400
H  20.35300 -3.62200 30.89600
H  19.46300 -2.87400 24.57800
H  15.31500 1.71600 25.52300
H  18.43600 0.27400 33.08000
H  18.85000 -2.63000 32.91300
H  21.02200 -0.92400 31.69800
H  21.19700 -2.04200 33.09300
H  20.61700 -0.48600 33.33100
H  17.09500 -2.18100 34.15200
H  15.94900 -1.37000 33.26100
H  16.17100 -0.72400 35.74300
H  15.99800 0.56100 34.57700
H  22.15300 -4.81000 29.67900
H  22.07100 -5.89800 28.36300
H  20.76100 -6.02600 29.59100
H  21.16100 -7.15700 26.69500
H  22.55400 -6.22200 26.18600
H  21.60000 -7.05300 24.96800
H  17.77700 -1.87100 23.30300
H  17.41800 1.04500 23.76900
H  20.47800 -1.00400 23.78200
H  19.68200 0.41100 23.26600
H  19.68200 -1.09600 22.28800
H  16.04900 -1.03200 22.38100
H  15.47500 0.68000 22.70300
H  14.05500 -0.00800 24.18000
H  15.00500 -1.39000 24.72400
H  14.08000 -1.55400 23.21300
H  14.50000 3.70500 26.75200
H  14.03500 4.13500 28.41500
H  13.03200 3.07500 27.38800
H  15.15600 1.27100 32.71500
H  17.85800 4.36300 34.21600
H  16.76700 3.79900 35.48500
H  16.28600 5.06600 34.49300

