158

Mg 35.79200 2.39500 30.64400
C  33.20400 3.17400 33.00600
C  38.00300 2.50900 33.34700
C  38.30900 2.08800 28.46800
C  33.47100 2.98700 28.07900
N  35.57100 2.82900 32.87200
C  34.39200 3.02200 33.61100
C  34.63200 3.12000 35.13600
C  36.16400 3.10200 35.27100
C  36.67900 2.84900 33.76600
C  36.68000 4.48100 35.81300
C  33.92300 2.01200 36.08900
C  33.47900 2.45500 37.50300
H  34.24700 3.50900 38.28400
N  37.83800 2.20900 30.83700
C  38.51200 2.31800 32.02100
C  39.85000 1.85200 31.72700
C  40.03400 1.73000 30.35400
C  38.72400 2.10600 29.82200
C  40.82600 1.46900 32.74700
C  41.25600 1.37800 29.52000
O  41.25600 1.10100 28.33500
C  42.55900 1.39900 30.19700
N  35.87200 2.62200 28.55500
C  36.99500 2.26000 27.88300
C  36.73700 2.25000 26.46200
C  35.16200 2.38000 26.33400
C  34.77700 2.68500 27.75800
C  37.45700 3.34700 25.62100
C  34.61300 0.98800 25.87200
C  34.90000 0.47800 24.42300
N  33.79200 2.90900 30.47900
C  32.97800 3.10700 29.38800
C  31.66000 3.33400 29.78400
C  31.69100 3.29100 31.16400
C  33.00800 3.14700 31.54800
C  30.43600 3.46400 28.87600
C  30.89100 3.52000 32.38900
O  29.68400 3.83100 32.45800
C  31.81200 3.36500 33.66200
C  31.69100 4.62700 34.53200
O  31.86800 5.75900 34.13900
O  31.06100 4.36100 35.74400
C  30.85500 5.51100 36.70900
H  38.70700 2.42700 34.17700
H  38.96700 1.73200 27.67300
H  32.79600 3.11000 27.22900
H  34.27700 4.13000 35.34200
H  36.54400 2.30800 35.91300
H  36.80500 5.12500 34.94200
H  37.57600 4.26000 36.39300
H  35.98400 4.97200 36.49400
H  34.61400 1.18300 36.24200
H  33.00700 1.67200 35.60600
H  33.39500 1.59000 38.16100
H  32.47900 2.86900 37.37400
H  41.10900 0.41800 32.68900
H  40.43000 1.62100 33.75100
H  41.70100 2.10500 32.61200
H  42.65400 0.57600 30.90500
H  42.54800 2.36500 30.70000
H  43.28600 1.40600 29.38400
H  37.12500 1.33200 26.02100
H  34.68200 3.09400 25.66600
H  38.20100 3.90100 26.19400
H  36.79800 4.08400 25.16200
H  37.98000 2.89300 24.78000
H  33.53200 1.00000 26.01000
H  35.03200 0.28200 26.58900
H  33.96200 0.48100 23.86800
H  35.25400 -0.55100 24.48100
H  35.72600 0.98800 23.92700
H  29.60000 2.96400 29.36400
H  30.54600 3.00000 27.89600
H  30.17600 4.50900 28.71100
H  31.54600 2.46700 34.22000
H  30.35000 6.37400 36.27500
H  31.79500 5.81100 37.17100
H  30.13900 5.15900 37.45200
Mg 47.17000 15.98100 28.32000
C  45.40100 15.69000 31.25200
C  49.44200 18.02900 29.97900
C  48.77800 16.63700 25.35800
C  44.80800 14.21100 26.55500
N  47.23800 16.96100 30.37000
C  46.46900 16.57300 31.37700
C  47.10600 17.03500 32.74300
C  48.27100 18.00300 32.33000
C  48.34200 17.63500 30.78700
C  48.09000 19.54100 32.52300
C  47.61800 15.84700 33.52000
C  48.03100 16.06200 34.99800
H  47.59200 17.31700 35.72100
N  48.90800 17.14900 27.83600
C  49.78100 17.76900 28.70400
C  50.90100 18.28500 27.97800
C  50.81600 17.78700 26.58900
C  49.45800 17.18800 26.51900
C  51.99600 19.06100 28.62300
C  51.70700 18.01100 25.37100
O  51.47300 17.40800 24.34100
C  52.98800 18.86800 25.46600
N  46.70100 15.68400 26.15700
C  47.58400 15.95600 25.18600
C  47.04700 15.46100 23.78300
C  45.80100 14.59900 24.16600
C  45.74800 14.85200 25.66200
C  46.78500 16.65300 22.78500
C  45.74000 13.10600 23.73800
C  44.74300 12.71600 22.63900
N  45.39700 15.22200 28.74800
C  44.58100 14.47900 27.95800
C  43.46300 14.07700 28.76500
C  43.69000 14.48500 30.09000
C  44.93100 15.16200 30.03100
C  42.24600 13.32700 28.22500
C  43.27300 14.43100 31.45000
O  42.30500 13.92300 31.91700
C  44.38000 15.16600 32.27600
C  43.67800 16.12700 33.19400
O  43.56500 17.30800 32.95800
O  43.16800 15.48000 34.29700
C  42.73700 16.43600 35.27600
H  50.26900 18.44100 30.56100
H  49.22200 16.79100 24.37200
H  44.08700 13.56000 26.05700
H  46.36400 17.65600 33.24600
H  49.20300 17.65700 32.77600
H  48.84300 20.08100 33.09700
H  47.18600 19.63200 33.12400
H  47.94800 20.04300 31.56500
H  48.50700 15.52600 32.97700
H  46.93900 14.99600 33.47300
H  49.11400 16.03500 34.87300
H  47.78600 15.20300 35.62200
H  52.04000 20.04100 28.14800
H  52.92200 18.56200 28.33800
H  51.93900 19.15000 29.70800
H  53.26600 19.09000 24.43500
H  53.84700 18.27800 25.78700
H  52.71700 19.78800 25.98300
H  47.85400 14.85900 23.36500
H  44.86900 15.02900 23.79800
H  47.18600 16.47800 21.78600
H  47.27800 17.54500 23.17100
H  45.73400 16.89000 22.62100
H  45.40000 12.42400 24.51800
H  46.75000 12.82100 23.44300
H  45.02000 11.81200 22.09500
H  44.79000 13.47800 21.86100
H  43.70300 12.53800 22.91300
H  42.59300 12.31000 28.04100
H  41.96200 13.81200 27.29100
H  41.36400 13.40400 28.86100
H  44.78700 14.36600 32.89500
H  43.59500 17.09100 35.42400
H  42.55700 15.98600 36.25200
H  41.86600 17.03700 35.01500

