158

Mg 35.00700 48.53200 25.63500
C  35.50100 46.82500 28.76800
C  33.89300 51.15500 27.41500
C  34.09700 49.91000 22.70200
C  35.72200 45.53500 24.07400
N  34.86400 48.93700 27.82400
C  34.99900 48.09500 28.91000
C  34.71000 48.73300 30.27300
C  34.05400 50.10600 29.77700
C  34.24000 50.07800 28.25800
C  32.60900 50.30300 30.26800
C  35.96500 49.03700 31.19600
C  35.90200 48.52200 32.58300
H  35.83800 49.56700 33.69100
N  34.25100 50.36800 25.18100
C  33.92100 51.34500 26.00900
C  33.56900 52.54900 25.24700
C  33.68400 52.23600 23.85600
C  33.99800 50.72500 23.89000
C  33.14400 53.86000 25.94600
C  33.47500 53.07200 22.66000
O  33.82000 52.62700 21.58100
C  32.93500 54.48400 22.84400
N  34.86700 47.82800 23.63600
C  34.50400 48.59000 22.56000
C  34.48100 47.86500 21.24300
C  35.09100 46.52800 21.68900
C  35.24600 46.57100 23.20600
C  33.20700 47.75900 20.39700
C  36.43300 46.16100 21.05200
C  36.38500 45.24400 19.79600
N  35.55600 46.58900 26.26400
C  35.93800 45.54000 25.48000
C  36.45100 44.41300 26.28700
C  36.26700 44.88800 27.61000
C  35.75000 46.17200 27.53800
C  36.99900 43.12000 25.87400
C  36.39000 44.56800 28.98100
O  36.86000 43.55300 29.54700
C  35.82200 45.79400 29.80500
C  34.66900 45.33100 30.64100
O  33.50400 45.10500 30.33700
O  35.06700 45.24400 31.98600
C  34.10300 44.86100 33.05700
H  33.58700 52.04800 27.96500
H  34.01600 50.36400 21.71200
H  36.02200 44.62400 23.55200
H  33.95100 48.16100 30.80700
H  34.67000 50.95700 30.06700
H  32.59600 50.81100 31.23200
H  31.97200 49.41900 30.28100
H  32.02000 50.85800 29.53700
H  36.18500 50.10300 31.25700
H  36.82800 48.55300 30.74000
H  36.86800 48.02400 32.67000
H  35.13700 47.75900 32.72400
H  33.88500 54.61100 25.67400
H  33.12400 53.75400 27.03100
H  32.16400 54.07800 25.52200
H  32.88200 54.96400 21.86700
H  33.75100 55.01000 23.33900
H  32.01100 54.46400 23.42300
H  35.30200 48.29600 20.66900
H  34.37800 45.77800 21.34700
H  32.44400 48.21300 21.02900
H  32.88800 46.74900 20.14000
H  33.29700 48.30200 19.45600
H  37.10200 45.64800 21.74300
H  36.98400 47.08700 20.88800
H  36.69200 45.73300 18.87200
H  35.33600 44.99200 19.64200
H  37.07600 44.44000 20.04900
H  37.77200 43.28400 25.12300
H  36.22500 42.52400 25.39100
H  37.39400 42.55700 26.71900
H  36.59700 46.14300 30.48900
H  33.14100 44.53100 32.66400
H  33.88600 45.67500 33.75000
H  34.55600 44.05300 33.63100
Mg 7.42200 54.57800 41.45700
C  6.69400 51.22700 41.18400
C  10.59900 53.98200 40.35600
C  7.78000 57.99000 41.05600
C  4.04300 55.21800 42.00600
N  8.53800 52.75200 40.97100
C  8.01400 51.46100 40.81500
C  9.06200 50.45900 40.29400
C  10.35100 51.32200 40.38900
C  9.78200 52.76200 40.61600
C  11.45000 50.78100 41.33500
C  8.79200 49.89200 38.88400
C  8.35400 50.87600 37.75200
H  9.04600 50.76400 36.41200
N  8.97000 55.76200 40.69300
C  10.22000 55.31000 40.41900
C  11.07600 56.47300 40.28700
C  10.21200 57.61700 40.36000
C  8.95100 57.16900 40.78200
C  12.54800 56.38800 39.91900
C  10.67900 59.01800 40.12500
O  11.85400 59.21000 39.93100
C  9.71800 60.13300 40.07100
N  6.07100 56.27500 41.31000
C  6.47200 57.57200 41.32800
C  5.38100 58.62200 41.47300
C  4.15500 57.69300 41.70500
C  4.79300 56.30500 41.68500
C  5.74100 59.67800 42.57600
C  2.99600 57.95600 40.66500
C  3.26100 57.62900 39.14400
N  5.75900 53.52900 41.77900
C  4.44400 53.87200 42.05700
C  3.65000 52.71200 42.40000
C  4.56800 51.65800 42.07800
C  5.75200 52.21500 41.62400
C  2.16900 52.46200 42.77300
C  4.66200 50.19700 42.07400
O  3.88600 49.37600 42.53500
C  6.07900 49.88300 41.41200
C  5.84800 49.01600 40.20800
O  5.62200 49.46200 39.11600
O  5.72700 47.66300 40.52400
C  5.17400 46.86400 39.41300
H  11.62800 53.67800 40.15600
H  7.81000 59.07100 41.21000
H  2.97100 55.38100 42.13900
H  9.17400 49.67800 41.04700
H  10.83100 51.36900 39.41100
H  11.24300 49.73200 41.55000
H  11.42500 51.29600 42.29500
H  12.39400 50.95700 40.81900
H  8.00900 49.13500 38.92600
H  9.70700 49.32900 38.69800
H  8.34100 51.89500 38.13800
H  7.32700 50.55900 37.57500
H  12.85500 55.55900 39.28200
H  13.23600 56.43500 40.76300
H  12.86000 57.29100 39.39500
H  10.09000 60.97200 39.48300
H  9.30600 60.41600 41.03900
H  8.79600 59.84100 39.56800
H  5.26200 59.06900 40.48600
H  3.78200 57.78500 42.72500
H  6.68900 59.57200 43.10500
H  4.98200 59.57800 43.35200
H  5.68000 60.63000 42.04900
H  2.74300 59.01500 40.71400
H  2.14600 57.35600 40.99100
H  3.87000 56.79900 38.78800
H  3.27300 58.51600 38.51000
H  2.26400 57.28100 38.87700
H  1.58700 52.40200 41.85300
H  1.69400 53.26700 43.33400
H  1.92500 51.52400 43.27300
H  6.73800 49.43600 42.15500
H  5.63100 47.05600 38.44200
H  4.10800 47.04600 39.27200
H  5.26600 45.78200 39.51300

