158

Mg 34.85500 2.95100 29.35600
C  32.79000 4.14900 31.94900
C  37.26800 2.43600 31.67900
C  36.83500 2.27600 26.72100
C  32.22300 3.52300 27.12600
N  34.97900 3.30400 31.53400
C  34.05800 3.74200 32.39800
C  34.51700 3.59400 33.84300
C  36.03400 3.34000 33.70100
C  36.12300 3.07000 32.18800
C  36.92000 4.46900 34.28400
C  33.77900 2.49300 34.62600
C  33.61300 2.79500 36.16300
H  34.31700 4.08700 36.70600
N  36.83400 2.33500 29.21300
C  37.71500 2.23600 30.26900
C  38.99700 1.83100 29.70500
C  38.88100 1.77000 28.28300
C  37.47700 2.16600 28.00200
C  40.23700 1.56800 30.51500
C  39.87800 1.31400 27.23800
O  39.61100 1.16900 26.10400
C  41.39300 1.06300 27.62300
N  34.64800 2.84300 27.27800
C  35.52700 2.36700 26.42300
C  34.98700 2.29900 24.99600
C  33.49500 2.64000 25.13300
C  33.45100 3.04700 26.62100
C  35.79400 3.11500 23.89200
C  32.40700 1.41400 24.83300
C  31.06700 1.92500 24.31800
N  32.87700 3.74100 29.46100
C  31.96900 3.81000 28.44400
C  30.73500 4.32800 28.99100
C  31.03700 4.54500 30.37000
C  32.31000 4.09400 30.59400
C  29.46600 4.51000 28.22100
C  30.43900 4.78500 31.63700
O  29.24800 4.99900 31.90100
C  31.58600 4.67300 32.78100
C  31.87400 5.96000 33.47800
O  32.51400 6.82200 32.96500
O  31.22400 6.01700 34.70500
C  31.46900 7.14800 35.62900
H  38.15600 2.34600 32.30800
H  37.38500 1.94300 25.83900
H  31.38700 3.63500 26.43300
H  34.41100 4.58100 34.29400
H  36.29500 2.47600 34.31300
H  37.25400 4.10700 35.25600
H  36.41200 5.42000 34.44400
H  37.72900 4.62200 33.57000
H  34.23900 1.50800 34.53500
H  32.81800 2.28900 34.15500
H  33.97200 1.97300 36.78200
H  32.54200 2.88300 36.34400
H  40.78100 0.62400 30.52700
H  40.00100 1.75800 31.56200
H  40.88900 2.40800 30.27600
H  41.76200 1.90200 28.21200
H  41.91800 1.06600 26.66800
H  41.54000 0.07900 28.06700
H  34.89700 1.27700 24.62900
H  33.15300 3.52400 24.59600
H  35.07600 3.73300 23.35400
H  36.42800 2.51500 23.23900
H  36.46700 3.80000 24.40900
H  32.30300 0.88100 25.77800
H  32.76900 0.67200 24.12100
H  30.20000 1.36800 24.67500
H  31.04100 1.93900 23.22800
H  30.93200 2.98800 24.51700
H  29.48300 3.79900 27.39400
H  29.42800 5.50300 27.77300
H  28.66500 4.44000 28.95700
H  31.30600 3.95400 33.55000
H  32.31400 7.77200 35.33800
H  31.57500 6.63100 36.58300
H  30.54300 7.71500 35.72500
Mg -5.89200 24.64500 26.44800
C  -4.35600 25.84500 29.28900
C  -8.01900 22.70600 28.45200
C  -6.70200 22.87700 23.65300
C  -3.48600 26.45400 24.52800
N  -6.03600 24.18700 28.59800
C  -5.34500 24.85800 29.57500
C  -5.86800 24.51700 30.98300
C  -6.90500 23.33400 30.64900
C  -7.12700 23.51900 29.15100
C  -6.14100 21.97200 31.02700
C  -6.59500 25.73700 31.68700
C  -6.29400 26.01100 33.13500
H  -5.85500 24.83300 34.02800
N  -7.22600 23.13100 26.09300
C  -8.06000 22.50200 27.05100
C  -8.98600 21.66800 26.33100
C  -8.63700 21.65600 24.92900
C  -7.47300 22.59900 24.83700
C  -10.15500 20.98800 27.06800
C  -9.21400 20.87800 23.73100
O  -8.76100 20.95800 22.60200
C  -10.44800 20.06200 23.88000
N  -5.09600 24.60900 24.43000
C  -5.65900 23.78100 23.45700
C  -4.83900 23.92000 22.12500
C  -4.25600 25.34000 22.35400
C  -4.25000 25.48000 23.85500
C  -3.89300 22.77500 21.79000
C  -4.88400 26.57700 21.66800
C  -3.85200 27.41400 20.76400
N  -4.31300 26.02500 26.75200
C  -3.44700 26.68500 25.90500
C  -2.44400 27.46900 26.69800
C  -2.86900 27.25400 28.04700
C  -3.92400 26.28200 28.02400
C  -1.50000 28.57900 26.28000
C  -2.59700 27.63600 29.51600
O  -1.88000 28.49000 30.09600
C  -3.55900 26.64400 30.28500
C  -2.81300 25.81300 31.19600
O  -2.07500 24.95700 30.90600
O  -3.09500 26.24400 32.47400
C  -2.14400 25.80600 33.55700
H  -8.71100 22.10300 29.04500
H  -7.07200 22.65600 22.65000
H  -2.77200 26.96200 23.87600
H  -5.01600 24.14500 31.55200
H  -7.87900 23.43300 31.12800
H  -5.92400 21.42500 30.10900
H  -6.90300 21.38500 31.54100
H  -5.31800 22.06700 31.73600
H  -7.66200 25.52500 31.74600
H  -6.52300 26.65700 31.10700
H  -7.07300 26.59900 33.62000
H  -5.49400 26.75100 33.13300
H  -11.07900 21.54400 26.91100
H  -9.99300 20.78100 28.12600
H  -10.40000 19.98600 26.71700
H  -10.74500 19.75300 22.87800
H  -11.18000 20.76900 24.27000
H  -10.47000 19.24200 24.59800
H  -5.51300 23.89200 21.27000
H  -3.19600 25.27400 22.10800
H  -2.96000 23.20300 21.42300
H  -4.29000 21.99900 21.13500
H  -3.61200 22.39100 22.77100
H  -5.17600 27.21700 22.50000
H  -5.69200 26.21900 21.02900
H  -3.78800 28.37700 21.27100
H  -4.20900 27.44200 19.73500
H  -2.84400 27.01700 20.64800
H  -0.54500 28.32800 26.74200
H  -1.77800 29.63000 26.35900
H  -1.38300 28.46400 25.20200
H  -4.23800 27.22300 30.91000
H  -2.34800 24.73900 33.64800
H  -2.37700 26.35800 34.46800
H  -1.13000 25.91000 33.17000

