158

Mg 48.05600 44.60500 43.60800
C  44.61700 43.75000 43.37700
C  48.82200 41.28800 42.49900
C  51.07600 45.54200 42.76200
C  46.96900 48.02100 43.66700
N  46.88200 42.75500 42.99300
C  45.45800 42.70600 42.96600
C  45.02600 41.30300 42.72500
C  46.33800 40.41700 42.60400
C  47.38300 41.54300 42.71200
C  46.46200 39.28200 43.68900
C  43.94100 41.00300 41.64100
C  44.04500 41.86200 40.44300
H  43.70500 41.29000 39.04800
N  49.78900 43.54000 42.98800
C  49.90600 42.25200 42.61000
C  51.26200 41.96600 42.35500
C  52.01500 43.12600 42.35200
C  51.01200 44.14800 42.77200
C  51.74700 40.59400 42.08400
C  53.47500 43.39100 41.93700
O  54.10600 42.38600 41.63800
C  54.17500 44.70200 41.84200
N  48.89300 46.53800 43.39200
C  50.20500 46.61300 42.91200
C  50.65600 48.06700 42.71100
C  49.29800 48.86000 43.00100
C  48.29800 47.74100 43.32200
C  51.90400 48.60400 43.47700
C  48.92700 49.78000 41.77400
C  48.43700 51.11600 42.13800
N  46.22100 45.70000 43.67200
C  45.96000 47.01000 43.85900
C  44.51000 47.21500 44.01800
C  44.00600 45.91700 43.96600
C  45.04700 45.06500 43.67200
C  43.77800 48.53900 44.22600
C  42.73500 45.10200 44.02600
O  41.58300 45.43200 44.32400
C  43.11800 43.68400 43.58500
C  42.64600 42.83300 44.65000
O  41.81700 41.90200 44.49600
O  43.27900 43.12900 45.78500
C  43.03900 42.29400 46.95300
H  49.03200 40.27000 42.16400
H  52.05700 45.92400 42.47000
H  46.67100 49.07100 43.69400
H  44.46800 40.97700 43.60200
H  46.46100 39.95000 41.62700
H  47.10300 39.57000 44.52200
H  46.94500 38.40000 43.26600
H  45.55200 38.93400 44.17600
H  42.90900 41.03600 41.99200
H  44.17900 39.98800 41.32400
H  45.00700 42.37100 40.39500
H  43.35000 42.69500 40.54800
H  52.38600 40.47000 41.20900
H  50.96000 39.84000 42.09800
H  52.41000 40.30900 42.90100
H  53.50700 45.29800 41.21900
H  55.06300 44.46300 41.25800
H  54.35200 45.19900 42.79600
H  50.83500 48.32400 41.66700
H  49.45700 49.52100 43.85300
H  52.32900 47.75800 44.01700
H  51.66300 49.35100 44.23300
H  52.64100 48.98900 42.77300
H  48.04800 49.29700 41.34900
H  49.66700 49.91000 40.98400
H  49.05800 51.88700 41.68200
H  48.60000 51.44900 43.16300
H  47.39900 51.24700 41.83100
H  43.78300 48.89400 45.25700
H  42.75600 48.40200 43.87500
H  44.31800 49.31000 43.67600
H  42.51300 43.56200 42.68600
H  44.02000 42.07400 47.37500
H  42.62200 41.32700 46.67300
H  42.38400 42.80900 47.65500
Mg 0.13200 43.48700 25.21100
C  2.33800 43.14700 27.90800
C  -2.54300 42.55500 27.31900
C  -1.91400 43.56800 22.57900
C  2.91800 44.38900 23.24900
N  -0.02200 42.80900 27.32100
C  0.98800 42.93700 28.26400
C  0.43700 42.82600 29.70200
C  -1.12800 42.52200 29.46600
C  -1.26400 42.65900 27.92000
C  -1.60800 41.17300 30.06200
C  0.73100 44.04900 30.72300
C  1.22300 43.66200 32.11700
H  0.75300 42.33700 32.71400
N  -1.95200 42.96500 24.91100
C  -2.87600 42.68500 25.92500
C  -4.20700 42.71200 25.27900
C  -4.02500 43.20100 23.96800
C  -2.61500 43.24800 23.75900
C  -5.46000 42.26000 26.03400
C  -5.01000 43.46200 22.91000
O  -4.71300 43.99100 21.82200
C  -6.51600 43.30600 23.14300
N  0.48200 43.81700 23.16900
C  -0.56300 43.77900 22.24800
C  0.04100 43.89400 20.83400
C  1.39400 44.60300 21.08200
C  1.71200 44.30000 22.55100
C  0.16200 42.56900 20.10600
C  1.47800 46.19200 20.79000
C  0.55700 47.03200 21.63700
N  2.14700 43.68200 25.47300
C  3.18400 44.11300 24.57300
C  4.47900 43.84900 25.17800
C  4.19200 43.57700 26.47100
C  2.78200 43.45100 26.59900
C  5.81000 43.92500 24.53600
C  4.78100 43.33500 27.77400
O  5.88700 43.34800 28.16000
C  3.57200 43.04000 28.76800
C  3.80100 41.66500 29.24700
O  3.36100 40.61800 28.82300
O  4.64400 41.74800 30.29800
C  4.62400 40.52600 31.14200
H  -3.45900 42.24200 27.82400
H  -2.55200 43.71800 21.70500
H  3.74000 44.62500 22.57100
H  0.75300 41.89300 30.16900
H  -1.74300 43.29900 29.92300
H  -1.95100 41.44700 31.05900
H  -0.83200 40.41600 30.17400
H  -2.37300 40.73800 29.41900
H  -0.16900 44.66400 30.70800
H  1.54100 44.62100 30.27100
H  1.06100 44.48800 32.80900
H  2.31100 43.62700 32.07000
H  -5.73900 43.09800 26.67400
H  -5.15700 41.47400 26.72600
H  -6.24900 41.89000 25.37900
H  -7.02800 43.54900 22.21200
H  -6.94200 44.03700 23.83100
H  -6.72900 42.29500 23.49100
H  -0.59200 44.58800 20.28000
H  2.21500 44.22900 20.47000
H  -0.53300 41.81200 20.46900
H  1.15700 42.17900 20.31600
H  0.11400 42.72200 19.02800
H  1.41700 46.47300 19.73800
H  2.45500 46.53800 21.12700
H  0.99400 47.06900 22.63500
H  -0.44200 46.59500 21.63900
H  0.33800 47.97900 21.14300
H  6.52200 44.11500 25.34000
H  5.99000 44.56500 23.67200
H  5.98100 42.94500 24.08900
H  3.70000 43.69400 29.63000
H  5.59400 40.03100 31.10200
H  3.82700 39.82600 30.89100
H  4.51100 40.82100 32.18500

