158

Mg 42.31200 40.93100 27.63000
C  41.09100 43.06600 30.07500
C  42.71400 38.61400 29.96000
C  43.21300 39.06400 25.13300
C  41.70900 43.52100 25.22700
N  42.03300 40.86200 29.77600
C  41.46900 41.83400 30.59900
C  41.53800 41.50300 32.02500
C  42.34800 40.15500 31.98100
C  42.37400 39.83000 30.52700
C  43.65700 40.10200 32.74500
C  40.13300 41.38100 32.67700
C  39.87700 42.38600 33.89800
H  39.24300 41.83300 35.13500
N  42.93600 39.05600 27.62400
C  43.01500 38.17400 28.67300
C  43.44200 36.88500 28.11000
C  43.78000 37.10200 26.74400
C  43.30700 38.44100 26.42500
C  43.60800 35.70400 28.99000
C  44.40900 36.07400 25.70800
O  44.68400 36.47600 24.56600
C  44.77600 34.65100 26.09600
N  42.61300 41.32000 25.50100
C  42.89300 40.30300 24.67900
C  42.88400 40.63800 23.19900
C  42.10200 42.00300 23.26100
C  42.19400 42.32200 24.74900
C  44.29900 40.61700 22.46300
C  40.67300 41.84300 22.67800
C  39.79600 40.65500 23.20700
N  41.65500 42.86200 27.60600
C  41.49300 43.79000 26.52400
C  41.01600 45.05300 27.09200
C  40.78100 44.79200 28.47300
C  41.24200 43.49900 28.74500
C  40.96800 46.31500 26.36100
C  40.30100 45.33600 29.76100
O  39.74000 46.42400 30.02900
C  40.57300 44.31600 30.83700
C  41.61700 44.97100 31.66500
O  42.71400 45.30900 31.37400
O  41.05300 45.13100 32.91200
C  41.83100 45.75000 34.05600
H  42.75700 37.79300 30.67800
H  43.35400 38.39000 24.28500
H  41.33000 44.31900 24.58500
H  42.19700 42.18200 32.56500
H  41.73200 39.38600 32.44700
H  43.99500 39.06600 32.78100
H  43.55000 40.46800 33.76600
H  44.41600 40.69800 32.23700
H  40.08800 40.37700 33.09800
H  39.36800 41.54400 31.91700
H  39.17700 43.21000 33.76500
H  40.85600 42.76100 34.19300
H  43.76300 36.01800 30.02200
H  44.51800 35.15800 28.74300
H  42.76000 35.01800 28.96300
H  45.76300 34.71500 26.55500
H  45.00800 34.11600 25.17500
H  44.11100 34.09800 26.76000
H  42.39000 39.85100 22.62900
H  42.64100 42.77300 22.70800
H  44.23000 40.27900 21.42900
H  44.95100 40.03800 23.11800
H  44.77800 41.59500 22.51100
H  40.77100 41.72300 21.59900
H  40.07900 42.74200 22.84100
H  40.35900 39.89900 23.75500
H  39.34400 40.10800 22.38000
H  39.03700 41.10300 23.84800
H  41.50300 46.33900 25.41100
H  41.13600 47.06300 27.13500
H  39.94500 46.34000 25.98700
H  39.69500 44.25200 31.48000
H  41.90300 45.02700 34.86900
H  41.19400 46.56600 34.39700
H  42.78300 46.18700 33.75300
Mg 0.13200 43.48700 25.21100
C  2.33800 43.14700 27.90800
C  -2.54300 42.55500 27.31900
C  -1.91400 43.56800 22.57900
C  2.91800 44.38900 23.24900
N  -0.02200 42.80900 27.32100
C  0.98800 42.93700 28.26400
C  0.43700 42.82600 29.70200
C  -1.12800 42.52200 29.46600
C  -1.26400 42.65900 27.92000
C  -1.60800 41.17300 30.06200
C  0.73100 44.04900 30.72300
C  1.22300 43.66200 32.11700
H  0.75300 42.33700 32.71400
N  -1.95200 42.96500 24.91100
C  -2.87600 42.68500 25.92500
C  -4.20700 42.71200 25.27900
C  -4.02500 43.20100 23.96800
C  -2.61500 43.24800 23.75900
C  -5.46000 42.26000 26.03400
C  -5.01000 43.46200 22.91000
O  -4.71300 43.99100 21.82200
C  -6.51600 43.30600 23.14300
N  0.48200 43.81700 23.16900
C  -0.56300 43.77900 22.24800
C  0.04100 43.89400 20.83400
C  1.39400 44.60300 21.08200
C  1.71200 44.30000 22.55100
C  0.16200 42.56900 20.10600
C  1.47800 46.19200 20.79000
C  0.55700 47.03200 21.63700
N  2.14700 43.68200 25.47300
C  3.18400 44.11300 24.57300
C  4.47900 43.84900 25.17800
C  4.19200 43.57700 26.47100
C  2.78200 43.45100 26.59900
C  5.81000 43.92500 24.53600
C  4.78100 43.33500 27.77400
O  5.88700 43.34800 28.16000
C  3.57200 43.04000 28.76800
C  3.80100 41.66500 29.24700
O  3.36100 40.61800 28.82300
O  4.64400 41.74800 30.29800
C  4.62400 40.52600 31.14200
H  -3.45900 42.24200 27.82400
H  -2.55200 43.71800 21.70500
H  3.74000 44.62500 22.57100
H  0.75300 41.89300 30.16900
H  -1.74300 43.29900 29.92300
H  -1.95100 41.44700 31.05900
H  -0.83200 40.41600 30.17400
H  -2.37300 40.73800 29.41900
H  -0.16900 44.66400 30.70800
H  1.54100 44.62100 30.27100
H  1.06100 44.48800 32.80900
H  2.31100 43.62700 32.07000
H  -5.73900 43.09800 26.67400
H  -5.15700 41.47400 26.72600
H  -6.24900 41.89000 25.37900
H  -7.02800 43.54900 22.21200
H  -6.94200 44.03700 23.83100
H  -6.72900 42.29500 23.49100
H  -0.59200 44.58800 20.28000
H  2.21500 44.22900 20.47000
H  -0.53300 41.81200 20.46900
H  1.15700 42.17900 20.31600
H  0.11400 42.72200 19.02800
H  1.41700 46.47300 19.73800
H  2.45500 46.53800 21.12700
H  0.99400 47.06900 22.63500
H  -0.44200 46.59500 21.63900
H  0.33800 47.97900 21.14300
H  6.52200 44.11500 25.34000
H  5.99000 44.56500 23.67200
H  5.98100 42.94500 24.08900
H  3.70000 43.69400 29.63000
H  5.59400 40.03100 31.10200
H  3.82700 39.82600 30.89100
H  4.51100 40.82100 32.18500

