158

Mg 26.60700 50.28500 26.96400
C  24.72900 51.68600 29.64800
C  28.93600 49.40200 29.25600
C  28.45900 49.36200 24.40200
C  24.14000 51.55800 24.87200
N  26.84100 50.70500 29.18400
C  25.86600 51.04800 30.09100
C  26.38300 50.93500 31.55900
C  27.75500 50.19300 31.36800
C  27.87600 50.08300 29.83800
C  29.02600 50.98000 31.94000
C  25.31000 50.12600 32.46600
C  25.82800 49.11000 33.60800
H  25.01900 48.86700 34.83100
N  28.41600 49.43900 26.81100
C  29.18300 48.99600 27.86200
C  30.39400 48.38500 27.29400
C  30.29200 48.44300 25.86200
C  29.02700 49.14500 25.63900
C  31.42300 47.88900 28.18000
C  31.26200 48.01400 24.84300
O  31.12800 48.16600 23.59500
C  32.47900 47.27700 25.28500
N  26.41300 50.72300 24.88300
C  27.27600 50.06300 24.05000
C  26.72900 49.97400 22.57700
C  25.29500 50.60800 22.79800
C  25.24200 50.94000 24.29400
C  27.64300 50.67500 21.46700
C  24.14600 49.59100 22.43000
C  23.20700 50.09700 21.28200
N  24.85600 51.48800 27.14400
C  23.92000 51.82700 26.22600
C  22.82400 52.55000 26.76800
C  23.06300 52.52500 28.17200
C  24.32900 51.85900 28.28800
C  21.82200 53.29000 25.89400
C  22.63300 52.87900 29.51100
O  21.67300 53.56700 29.88100
C  23.67200 52.25900 30.52900
C  24.31000 53.42300 31.27800
O  25.24300 54.06900 30.81600
O  23.78700 53.65500 32.55500
C  24.47900 54.74600 33.30800
H  29.56300 48.98000 30.04400
H  28.89700 48.86400 23.53500
H  23.44000 51.92900 24.12100
H  26.58100 51.97900 31.80300
H  27.74700 49.12900 31.60300
H  29.44700 50.41600 32.77200
H  28.67000 51.95700 32.26800
H  29.80900 50.94400 31.18300
H  24.75400 49.61400 31.68100
H  24.77700 50.91900 32.99000
H  26.87500 49.30300 33.84500
H  25.96200 48.14400 33.12000
H  31.29600 46.83500 28.42700
H  31.38100 48.40100 29.14200
H  32.41700 48.21400 27.87400
H  33.06200 48.09600 25.70600
H  33.06100 46.71300 24.55500
H  32.38800 46.43300 25.96900
H  26.62000 48.89800 22.44000
H  25.21800 51.55100 22.25600
H  28.45500 51.32300 21.79700
H  26.97200 51.33000 20.91100
H  27.96800 49.84300 20.84100
H  23.51800 49.37900 23.29500
H  24.48000 48.60100 22.11900
H  23.69200 50.90500 20.73400
H  22.20700 50.39500 21.59900
H  23.06700 49.28100 20.57200
H  21.11500 53.89200 26.46500
H  21.34600 52.56000 25.23900
H  22.27500 53.97100 25.17400
H  23.22000 51.51400 31.18400
H  24.00400 54.92700 34.27200
H  24.45900 55.74000 32.86200
H  25.53100 54.46600 33.35300
Mg 0.94400 43.71500 26.02100
C  3.01800 43.63100 28.81300
C  -1.59700 42.75900 28.17500
C  -1.26100 43.71800 23.36800
C  3.47300 44.55900 23.97700
N  0.72900 43.35000 28.24400
C  1.68400 43.42000 29.15800
C  1.05100 43.33900 30.61700
C  -0.35600 42.77600 30.33500
C  -0.40800 42.91500 28.80100
C  -0.78400 41.40800 30.90100
C  1.15600 44.66800 31.47800
C  0.79100 44.62000 32.97900
H  0.71800 43.28700 33.60800
N  -0.99400 43.20600 25.77400
C  -1.89600 42.80400 26.78200
C  -3.16400 42.50800 26.22500
C  -3.20600 43.00800 24.86100
C  -1.76000 43.33200 24.62400
C  -4.26900 41.77200 27.00300
C  -4.25700 43.07100 23.80900
O  -4.09400 43.35900 22.62400
C  -5.67900 42.64000 24.14700
N  1.11600 43.84500 23.86000
C  0.08900 43.95600 23.08400
C  0.52400 44.53800 21.69400
C  1.99300 45.00800 21.95800
C  2.19100 44.52000 23.34100
C  0.38000 43.65400 20.45100
C  2.25700 46.47700 21.82900
C  2.20300 47.14100 20.41300
N  2.84800 43.96700 26.26300
C  3.83700 44.27200 25.31600
C  5.13600 44.33700 25.98500
C  4.85300 44.00000 27.30900
C  3.44200 43.96700 27.44700
C  6.45800 44.77900 25.35900
C  5.35600 43.69700 28.64400
O  6.51800 43.67100 29.05300
C  4.19000 43.71100 29.68500
C  4.28500 42.43700 30.50500
O  3.99700 41.31800 30.15600
O  4.63100 42.79900 31.79200
C  4.94000 41.61200 32.63300
H  -2.31500 42.41700 28.92300
H  -1.86100 43.95700 22.48700
H  4.30700 44.94100 23.38600
H  1.63400 42.63500 31.21200
H  -1.13500 43.44900 30.69300
H  -0.04800 40.88900 31.51600
H  -1.14000 40.70800 30.14500
H  -1.66300 41.51000 31.53800
H  0.43200 45.36100 31.05100
H  2.17700 45.02700 31.34800
H  -0.15900 45.10800 33.19800
H  1.47800 45.18500 33.61000
H  -3.95500 41.07200 27.77700
H  -4.90900 41.17300 26.35500
H  -4.72300 42.53600 27.63400
H  -5.85500 43.21000 25.06000
H  -5.77900 41.58000 24.37800
H  -6.39400 42.89800 23.36600
H  -0.15700 45.37000 21.51600
H  2.75500 44.47300 21.39200
H  -0.25400 42.82800 20.77400
H  1.38100 43.29500 20.21400
H  -0.01800 44.23900 19.62100
H  3.20600 46.80400 22.25400
H  1.54100 46.96700 22.48900
H  2.33500 46.34900 19.67700
H  3.00100 47.85000 20.19200
H  1.29400 47.68000 20.14600
H  6.87400 45.49900 26.06400
H  6.26000 45.19600 24.37200
H  7.13700 43.92800 25.31500
H  4.25200 44.58100 30.33900
H  4.15100 40.89700 32.86800
H  5.33600 42.05600 33.54700
H  5.74800 41.00900 32.21900

