158

Mg 2.86400 -0.70600 44.38700
C  6.34900 0.10400 43.91400
C  2.15000 2.13200 42.68200
C  -0.21800 -1.92500 43.93800
C  3.93800 -3.88800 45.54700
N  4.17100 0.96600 43.35300
C  5.50700 1.11500 43.39400
C  5.87500 2.56900 43.10400
C  4.56800 3.27700 42.87300
C  3.56500 2.09300 42.96200
C  4.20900 4.42300 43.87800
C  7.00100 2.89800 42.06100
C  6.70300 2.43600 40.61900
H  6.30900 3.53600 39.61800
N  1.16000 0.05200 43.54000
C  1.04500 1.24300 42.85200
C  -0.31500 1.44700 42.47200
C  -1.03300 0.23400 42.77900
C  -0.02000 -0.61600 43.46800
C  -0.76100 2.70200 41.83000
C  -2.46300 0.05200 42.36600
O  -3.09800 0.84500 41.77700
C  -3.12100 -1.27500 42.52000
N  1.95800 -2.58400 44.90300
C  0.63300 -2.75200 44.64600
C  0.24700 -4.21900 45.04500
C  1.55200 -4.94200 45.42500
C  2.57200 -3.75100 45.37600
C  -0.89600 -4.30200 46.14700
C  1.90600 -6.17100 44.45500
C  2.72900 -7.36300 44.96000
N  4.71700 -1.60200 44.94800
C  4.94400 -2.91700 45.36700
C  6.33300 -3.15400 45.37100
C  6.95600 -2.01000 44.88600
C  5.91000 -1.10100 44.53000
C  7.02600 -4.39500 45.90000
C  8.27100 -1.38800 44.68800
O  9.39500 -1.86500 44.88400
C  7.87600 -0.02300 43.99600
C  8.39200 1.13100 44.81700
O  9.17300 1.97500 44.47500
O  7.83900 0.99300 46.07800
C  8.31600 2.01700 47.03600
H  1.83800 3.14800 42.42900
H  -1.21500 -2.36800 43.89800
H  4.16300 -4.92300 45.81300
H  6.40700 2.98600 43.96000
H  4.40300 3.68500 41.87600
H  5.15200 4.91400 44.12000
H  3.74000 4.18000 44.83100
H  3.63400 5.17600 43.33800
H  7.92700 2.45500 42.42800
H  7.19800 3.97000 42.02100
H  5.97000 1.63500 40.52100
H  7.64200 1.97800 40.30900
H  -0.40600 3.61200 42.31300
H  -1.82000 2.87700 42.02100
H  -0.62600 2.68000 40.74800
H  -3.55800 -1.33100 43.51700
H  -2.47700 -2.12300 42.28500
H  -3.98000 -1.37100 41.85600
H  -0.08900 -4.70600 44.12900
H  1.59400 -5.39800 46.41400
H  -1.68200 -4.95200 45.76500
H  -1.38500 -3.36000 46.39400
H  -0.40500 -4.71500 47.02900
H  2.48000 -5.86800 43.57900
H  0.99000 -6.64400 44.10400
H  2.94700 -7.36900 46.02800
H  3.71500 -7.39700 44.49800
H  2.30700 -8.32300 44.66200
H  6.40900 -4.96800 46.59100
H  7.87000 -4.15000 46.54400
H  7.32500 -5.12100 45.14300
H  8.26300 0.11800 42.98600
H  7.65700 2.88600 47.05200
H  9.29100 2.48700 46.90700
H  8.25000 1.57000 48.02800
Mg 26.21700 52.23900 27.06100
C  23.65900 52.46600 29.40000
C  28.30900 51.10600 29.35800
C  28.59700 51.83200 24.54800
C  23.91000 53.07000 24.51700
N  25.89500 51.68700 29.21900
C  24.89000 51.97800 30.03500
C  25.19400 51.77200 31.52000
C  26.66700 51.23000 31.40500
C  27.02200 51.38400 29.94200
C  27.70200 51.98800 32.24800
C  24.22800 50.79200 32.34600
C  23.73000 51.28100 33.70100
H  24.79700 51.69700 34.73800
N  28.19900 51.61700 27.00500
C  28.90500 51.27600 28.07700
C  30.25800 50.89200 27.65200
C  30.35100 51.02700 26.23200
C  29.03600 51.54100 25.86900
C  31.20800 50.26100 28.56400
C  31.51500 50.73600 25.32100
O  31.43100 51.02700 24.11200
C  32.70900 50.16400 25.88200
N  26.29200 52.67600 24.84600
C  27.31600 52.27200 24.10700
C  27.04300 52.66100 22.57500
C  25.50600 52.88900 22.48300
C  25.20300 52.86300 23.98800
C  28.01500 53.82400 22.08800
C  24.72100 51.79100 21.71700
C  24.64100 51.99600 20.22900
N  24.21600 52.71200 26.96500
C  23.46600 53.05700 25.86200
C  22.16800 53.32500 26.29700
C  22.15000 53.15500 27.71000
C  23.44800 52.65900 28.04100
C  21.02100 53.50300 25.52300
C  21.30700 53.25800 28.91500
O  20.20600 53.68800 29.06500
C  22.32100 53.00600 30.12300
C  22.57100 54.26000 30.79800
O  23.11700 55.22200 30.28900
O  22.03300 54.25100 32.07000
C  22.37800 55.34300 32.93700
H  29.12400 50.91100 30.05800
H  29.26200 51.76700 23.68400
H  23.17600 53.27900 23.73600
H  25.18100 52.70400 32.08600
H  26.90900 50.17400 31.52200
H  28.42100 51.24600 32.59500
H  27.18200 52.45800 33.08300
H  28.25900 52.65200 31.58600
H  24.71900 49.82000 32.37500
H  23.27000 50.63700 31.85000
H  22.98300 50.61000 34.12600
H  23.24700 52.23000 33.47100
H  30.97500 50.14900 29.62300
H  32.11800 50.85800 28.50800
H  31.52000 49.27500 28.22200
H  33.47600 50.12300 25.10900
H  32.54300 49.12500 26.16800
H  33.17300 50.59100 26.77100
H  27.26000 51.73600 22.04000
H  25.32100 53.90000 22.11900
H  28.83100 53.85100 22.80900
H  27.51100 54.77100 21.89500
H  28.36000 53.52300 21.09800
H  23.68800 51.64600 22.03300
H  25.21400 50.83000 21.86400
H  24.83200 51.04100 19.73900
H  25.33900 52.69300 19.76500
H  23.65300 52.31400 19.89700
H  20.93600 52.83200 24.66800
H  20.81900 54.54000 25.25700
H  20.20200 53.24300 26.19300
H  22.01500 52.22700 30.82200
H  22.50800 56.27200 32.38200
H  23.30600 55.04300 33.42400
H  21.56000 55.37800 33.65600

