158

Mg 26.61700 50.49100 26.68000
C  24.94400 52.03000 29.42400
C  29.12300 49.60100 28.98300
C  28.57400 49.20400 24.10100
C  24.57000 52.00700 24.48400
N  26.89400 50.71100 29.00500
C  26.05300 51.27800 29.91500
C  26.50300 51.12900 31.39900
C  27.90900 50.32700 31.19500
C  27.98400 50.17100 29.64600
C  29.02500 50.97900 31.88800
C  25.50400 50.27300 32.30500
C  24.82900 51.16700 33.40300
H  25.73200 51.58900 34.58800
N  28.53700 49.54400 26.48900
C  29.34200 49.22300 27.60200
C  30.59600 48.49800 27.11500
C  30.45000 48.51700 25.65100
C  29.10200 49.06900 25.34600
C  31.67500 48.14300 28.02900
C  31.44700 48.08700 24.57400
O  31.31500 48.24100 23.35200
C  32.65800 47.31500 24.97100
N  26.58100 50.66000 24.58200
C  27.47100 49.98800 23.73200
C  27.03300 50.12100 22.29500
C  25.73800 51.06700 22.33400
C  25.54200 51.18700 23.89600
C  28.29700 50.69500 21.48100
C  24.35500 50.65600 21.62000
C  23.94100 51.60800 20.45100
N  24.99200 51.67400 26.87700
C  24.30800 52.30700 25.84500
C  23.25200 53.10800 26.48800
C  23.47700 53.07000 27.90300
C  24.55700 52.18000 28.04700
C  22.22600 53.88400 25.81300
C  23.06900 53.64000 29.16800
O  22.38200 54.60600 29.40700
C  24.00600 52.94500 30.22400
C  24.67900 54.13700 30.70700
O  25.67400 54.63100 30.21000
O  24.07000 54.59400 31.86000
C  24.62500 55.55200 32.79500
H  29.82400 49.32300 29.77200
H  29.00400 48.72200 23.22000
H  23.88400 52.32400 23.69600
H  26.68600 52.11800 31.81900
H  27.76400 49.33700 31.62800
H  29.23100 50.33000 32.74000
H  28.86800 51.99000 32.26200
H  29.94900 51.05800 31.31600
H  25.99200 49.43900 32.81000
H  24.88500 49.82000 31.53100
H  24.00700 50.54100 33.75100
H  24.38000 52.10300 33.06900
H  31.33000 48.08600 29.06200
H  32.47100 48.87200 27.87800
H  31.95800 47.18600 27.59100
H  33.27600 47.91500 25.63900
H  33.22800 47.10900 24.06500
H  32.39500 46.33500 25.36800
H  26.70300 49.12300 22.00800
H  25.97400 52.04600 21.91700
H  28.84800 49.93000 20.93400
H  28.98900 51.09700 22.22100
H  28.08500 51.50100 20.77900
H  23.53800 50.57000 22.33600
H  24.36300 49.72700 21.05100
H  24.74600 52.30100 20.20700
H  23.16800 52.26800 20.84500
H  23.68900 51.02900 19.56300
H  22.63000 54.53500 25.03800
H  21.71900 54.56000 26.50100
H  21.46300 53.16000 25.52800
H  23.46800 52.47700 31.04900
H  24.92100 56.54600 32.45700
H  25.55900 55.10600 33.13800
H  23.83600 55.54700 33.54700
Mg 6.07200 54.63300 41.02400
C  5.84900 51.05400 40.66800
C  9.17900 54.36700 39.43700
C  5.89300 57.90700 40.54100
C  2.70000 54.55900 41.97900
N  7.29700 52.86800 39.92200
C  7.01000 51.52400 39.95200
C  8.16700 50.70500 39.38400
C  9.35900 51.77500 39.19700
C  8.64900 53.09500 39.59300
C  10.72700 51.41600 39.82600
C  7.89700 49.94100 38.01900
C  7.03600 50.77000 37.05700
H  6.53800 50.00700 35.81000
N  7.37600 56.01400 40.29200
C  8.61100 55.66600 39.73900
C  9.39200 56.90600 39.68700
C  8.45100 57.96900 39.78700
C  7.16500 57.35300 40.22400
C  10.89400 56.98700 39.39600
C  8.74400 59.40800 39.53000
O  9.85600 59.69800 39.13700
C  7.76700 60.47400 39.72600
N  4.51800 56.00300 41.12400
C  4.70800 57.31500 40.93700
C  3.51900 58.17800 41.32700
C  2.44100 57.10500 41.69000
C  3.28300 55.78700 41.60600
C  3.86500 59.07900 42.54000
C  1.17800 56.99400 40.85000
C  0.08200 57.99100 41.37400
N  4.57700 53.19900 41.35200
C  3.27800 53.32500 41.77200
C  2.83300 52.05500 42.19800
C  3.82600 51.16300 41.81900
C  4.82500 51.88800 41.23700
C  1.58500 51.68800 42.95500
C  4.07700 49.75500 41.72300
O  3.55800 48.73400 42.17300
C  5.44700 49.64200 40.98800
C  5.25400 48.64300 39.91300
O  4.66500 48.75800 38.85100
O  5.98000 47.51600 40.30000
C  5.79100 46.37600 39.32700
H  10.14800 54.36800 38.93400
H  5.76100 58.99100 40.53200
H  1.76500 54.62800 42.53800
H  8.41500 49.88100 40.05300
H  9.62000 51.88200 38.14400
H  10.47300 50.62700 40.53500
H  11.18800 52.31600 40.23200
H  11.43700 51.06700 39.07700
H  7.46700 48.95500 38.19600
H  8.80800 49.70800 37.46800
H  7.72700 51.57600 36.80900
H  6.20600 51.23000 37.59300
H  11.25100 57.77300 40.06300
H  11.16200 57.34100 38.40100
H  11.41200 56.08500 39.72100
H  6.91100 60.23000 39.09600
H  8.27500 61.38100 39.39900
H  7.34300 60.58600 40.72300
H  3.33100 58.86200 40.50000
H  2.09800 57.19900 42.72000
H  3.21300 58.97100 43.40700
H  3.68500 60.09500 42.18900
H  4.88400 58.83500 42.84200
H  0.80000 56.01300 41.13600
H  1.31700 57.02200 39.76900
H  -0.80300 57.49200 41.76900
H  -0.17300 58.65500 40.54800
H  0.39500 58.57800 42.23800
H  0.91700 52.54700 42.89800
H  1.69300 51.41000 44.00300
H  1.02900 50.89800 42.45000
H  6.16500 49.20300 41.68000
H  6.06100 46.72400 38.33000
H  4.75900 46.03200 39.39400
H  6.53100 45.62000 39.59000

