158

Mg 7.41700 2.76200 28.21500
C  8.80300 1.47100 31.32600
C  5.47300 4.83400 30.21600
C  5.94200 3.68100 25.48700
C  9.15600 0.22000 26.61900
N  7.13100 3.01600 30.49000
C  7.86800 2.50600 31.48800
C  7.60800 3.20400 32.82700
C  6.38200 4.10000 32.50900
C  6.33400 4.01100 30.95000
C  5.11800 3.83300 33.40900
C  8.84900 4.00400 33.32900
C  8.67600 4.75200 34.69500
H  9.53100 4.18400 35.80300
N  5.88600 4.11900 27.89900
C  5.24800 4.93900 28.83100
C  4.47100 5.87300 28.05900
C  4.56500 5.61300 26.64400
C  5.41500 4.42100 26.63700
C  3.64900 7.05000 28.69500
C  4.03600 6.38200 25.42700
O  4.22100 6.00200 24.25400
C  3.12600 7.56100 25.56700
N  7.57400 2.14700 26.38900
C  6.86400 2.64700 25.35300
C  7.31600 2.12100 24.01100
C  8.49400 1.18100 24.38100
C  8.37800 1.18800 25.92100
C  6.18000 1.40200 23.29500
C  9.86200 1.71400 23.81900
C  10.94800 2.43400 24.69300
N  8.60800 1.08700 28.83000
C  9.24600 0.07900 28.03000
C  9.92000 -0.91000 28.83400
C  9.78500 -0.36200 30.07000
C  8.96600 0.80000 30.08200
C  10.74600 -2.06200 28.33800
C  10.35200 -0.43400 31.36800
O  11.20100 -1.16500 31.81400
C  9.60900 0.61200 32.26700
C  8.68900 -0.16600 33.18900
O  7.64500 -0.76500 32.79500
O  9.08400 -0.07200 34.47100
C  8.46900 -1.00000 35.42800
H  4.89600 5.46600 30.89400
H  5.52900 4.01300 24.53200
H  9.75900 -0.47700 26.03400
H  7.34300 2.45100 33.56900
H  6.78800 5.04100 32.88100
H  4.89300 4.72900 33.98600
H  5.28400 3.00100 34.09300
H  4.29700 3.56200 32.74500
H  9.28900 4.65300 32.57100
H  9.72200 3.36500 33.45800
H  7.62900 4.67300 34.98700
H  8.92800 5.79700 34.51000
H  2.62600 6.68200 28.60800
H  3.59900 8.05600 28.27800
H  3.79300 7.21900 29.76200
H  3.46700 8.42800 25.00100
H  2.76600 7.85400 26.55300
H  2.22100 7.21600 25.06700
H  7.50900 3.00600 23.40500
H  8.36200 0.10900 24.23300
H  5.28000 1.25100 23.89100
H  6.43400 0.42200 22.89100
H  5.92800 1.97400 22.40200
H  9.57200 2.28100 22.93500
H  10.29300 0.78800 23.43700
H  10.56600 2.75400 25.66300
H  11.21900 3.33700 24.14600
H  11.82500 1.80400 24.84300
H  10.70400 -1.95200 27.25500
H  10.24100 -3.00400 28.54900
H  11.73300 -1.99400 28.79600
H  10.31600 1.27700 32.76500
H  9.17200 -1.73600 35.81900
H  7.63700 -1.58400 35.03500
H  7.97700 -0.39200 36.18700
Mg 43.19900 42.12800 26.25400
C  42.45900 44.71900 28.64700
C  44.69100 40.41500 28.85600
C  44.43600 40.16500 23.92800
C  42.05200 44.46100 23.79300
N  43.52500 42.58000 28.53300
C  42.98000 43.57900 29.25400
C  42.98500 43.22400 30.78900
C  43.85600 41.89500 30.81600
C  44.07400 41.61100 29.29500
C  45.05900 41.88100 31.71800
C  41.51900 43.12100 31.30500
C  41.05800 44.12800 32.46400
H  40.39500 43.57100 33.71900
N  44.32000 40.43200 26.36000
C  44.83500 39.88300 27.55600
C  45.47100 38.60100 27.14100
C  45.32600 38.47300 25.74100
C  44.64100 39.71200 25.24900
C  46.13800 37.69000 28.09200
C  45.82300 37.37000 24.80500
O  45.56700 37.38000 23.61100
C  46.74700 36.40700 25.37800
N  43.15500 42.32700 24.12600
C  43.69300 41.21700 23.42300
C  43.52200 41.46900 21.93000
C  42.57900 42.78300 21.81700
C  42.57300 43.19900 23.34000
C  44.92300 41.55900 21.21900
C  41.14500 42.45200 21.34800
C  40.45500 41.12400 21.95000
N  42.36900 44.11700 26.15700
C  41.98500 44.87700 25.08900
C  41.41600 46.12600 25.53600
C  41.52900 46.06200 26.94500
C  42.16100 44.89600 27.28700
C  40.87900 47.32500 24.77300
C  41.21800 46.82800 28.16700
O  40.61800 47.91400 28.34000
C  41.82000 45.87700 29.30100
C  42.84800 46.70600 30.13700
O  43.99100 46.84800 29.88700
O  42.27500 47.09300 31.31200
C  43.12700 47.56900 32.40700
H  44.99500 39.75300 29.67000
H  44.83300 39.53400 23.13000
H  41.61500 45.05900 22.99100
H  43.60100 43.94300 31.32900
H  43.19500 41.10600 31.17300
H  45.02100 42.51900 32.60000
H  45.98100 42.21900 31.24700
H  45.23300 40.87500 32.10100
H  41.40100 42.10100 31.67000
H  40.74200 43.19100 30.54400
H  40.35100 44.87500 32.10400
H  41.92400 44.68900 32.81500
H  45.78400 37.75800 29.12100
H  47.20300 37.90000 28.18400
H  45.93400 36.64400 27.86100
H  46.13900 35.70100 25.94400
H  47.46300 36.91300 26.02600
H  47.26200 35.85900 24.58900
H  42.92300 40.67300 21.48900
H  42.93400 43.49200 21.06900
H  45.61900 41.83500 22.01100
H  44.96900 42.29900 20.42000
H  45.23300 40.60900 20.78300
H  41.06100 42.48200 20.26200
H  40.60300 43.34400 21.66300
H  39.82800 40.63000 21.20800
H  39.62200 41.42200 22.58700
H  41.07400 40.42000 22.50700
H  39.87900 47.58200 25.12000
H  40.99100 47.10200 23.71100
H  41.39500 48.22700 25.10100
H  41.08400 45.32100 29.88200
H  42.78800 48.55900 32.71200
H  44.16200 47.83900 32.19700
H  43.20700 46.90000 33.26400

