158

Mg 27.34200 50.52200 26.86700
C  25.05700 51.64800 29.45500
C  29.52000 49.67100 29.20900
C  29.31300 49.78500 24.34600
C  24.89700 51.75200 24.57800
N  27.24900 50.65200 29.05300
C  26.18500 50.94600 29.90500
C  26.59100 50.64400 31.31500
C  28.07300 50.19100 31.20200
C  28.28900 50.11500 29.74000
C  29.04700 51.25200 31.93300
C  25.74300 49.65300 32.15600
C  25.07500 50.08600 33.48600
H  25.91100 50.23800 34.68700
N  29.21600 49.84600 26.77100
C  29.94000 49.42200 27.84000
C  31.18000 48.78300 27.38600
C  31.20600 48.82900 25.96300
C  29.91300 49.52900 25.64000
C  32.10000 48.17500 28.32500
C  32.10300 48.23600 24.93700
O  31.90900 48.39100 23.75100
C  33.22100 47.42200 25.35000
N  27.19600 50.81300 24.77100
C  28.13200 50.31600 23.94100
C  27.68300 50.57800 22.48600
C  26.20700 50.88000 22.59000
C  26.01800 51.14800 24.09100
C  28.42700 51.67000 21.66400
C  25.18500 49.80400 22.07700
C  25.41200 48.34500 22.36600
N  25.50100 51.62900 26.98500
C  24.62500 52.09100 25.98100
C  23.59700 52.89300 26.55500
C  23.76600 52.70100 27.93300
C  24.87700 51.96100 28.12100
C  22.59100 53.71600 25.82100
C  23.11300 52.94900 29.19900
O  22.17000 53.59700 29.53200
C  24.00500 52.29800 30.24700
C  24.52900 53.40800 31.08500
O  25.58800 54.02400 30.90500
O  23.73700 53.46000 32.23800
C  24.03000 54.40000 33.28600
H  30.19000 49.27300 29.97400
H  29.91900 49.44800 23.50300
H  24.07700 52.04600 23.92000
H  26.50500 51.61200 31.80900
H  28.28000 49.17200 31.52800
H  28.54900 52.15100 32.29700
H  29.84800 51.54800 31.25600
H  29.59900 50.75400 32.72900
H  26.26300 48.70400 32.28400
H  24.95800 49.36700 31.45600
H  24.30700 49.40400 33.85200
H  24.70600 51.09100 33.28300
H  32.13500 47.08900 28.23900
H  31.82200 48.15400 29.37800
H  33.04900 48.70900 28.26300
H  33.61800 47.12100 24.38000
H  32.81800 46.49500 25.76000
H  33.93800 48.03700 25.89400
H  27.90200 49.61300 22.02900
H  25.87300 51.76200 22.04300
H  28.89800 51.22100 20.78900
H  29.26700 52.00900 22.27000
H  27.84600 52.57900 21.51300
H  25.17400 49.90500 20.99200
H  24.16900 50.06100 22.37500
H  25.76800 47.78600 21.50000
H  24.45400 47.91200 22.65500
H  26.08700 48.17300 23.20500
H  22.38800 53.17400 24.89700
H  23.00900 54.69700 25.59400
H  21.68800 53.89600 26.40400
H  23.46500 51.51300 30.77600
H  23.09900 54.91500 33.52500
H  24.76000 55.13800 32.95300
H  24.47600 53.87600 34.13200
Mg -1.40000 34.17900 26.53400
C  -3.13100 32.54600 29.02300
C  -0.05500 36.27800 28.70700
C  0.00100 35.78700 23.94900
C  -3.11500 32.12800 24.14400
N  -1.77100 34.46500 28.61000
C  -2.38200 33.62800 29.46100
C  -2.01000 34.06900 30.91100
C  -1.26400 35.35500 30.69600
C  -0.95700 35.37600 29.23700
C  -2.14100 36.60900 30.92300
C  -1.37500 32.82200 31.72900
C  -2.06400 32.24800 32.94400
H  -1.37300 32.30700 34.25700
N  0.01300 35.65600 26.36000
C  0.44300 36.38100 27.41500
C  1.31500 37.40900 26.95700
C  1.32200 37.36800 25.49200
C  0.40300 36.19200 25.19800
C  2.06100 38.44500 27.85800
C  2.05400 38.21900 24.40000
O  2.06800 37.86400 23.18800
C  2.84000 39.35800 24.85500
N  -1.59100 33.95600 24.28400
C  -0.73500 34.68200 23.52200
C  -0.83100 34.23400 22.07200
C  -1.96400 33.22100 22.01000
C  -2.22000 33.09200 23.58400
C  -0.99400 35.40300 21.00800
C  -1.73900 31.88000 21.23300
C  -0.81000 30.91500 21.95400
N  -2.87000 32.60000 26.51600
C  -3.46400 31.94700 25.50500
C  -4.35800 31.00800 26.06500
C  -4.18600 31.16800 27.43700
C  -3.32000 32.18500 27.68400
C  -5.27200 30.08700 25.26900
C  -4.66700 30.59700 28.72200
O  -5.49200 29.69400 28.88800
C  -3.91200 31.48500 29.78400
C  -5.03700 31.94000 30.60600
O  -5.61800 33.02500 30.50400
O  -5.21800 31.05300 31.60300
C  -6.23200 31.42400 32.61500
H  0.53700 36.86200 29.41500
H  0.29600 36.37300 23.07600
H  -3.73600 31.63900 23.39100
H  -2.99300 34.34100 31.29500
H  -0.39100 35.36200 31.34900
H  -2.01400 36.93700 31.95400
H  -3.21300 36.52200 30.74600
H  -2.00800 37.47900 30.28000
H  -0.36300 33.08100 32.04200
H  -1.24600 32.02300 30.99800
H  -2.04600 31.18300 32.71200
H  -3.07700 32.63200 33.06400
H  3.11900 38.24000 27.69900
H  1.83200 38.45500 28.92400
H  1.71300 39.43700 27.57100
H  2.23800 40.00300 25.49600
H  3.27700 39.92500 24.03300
H  3.63600 39.01000 25.51300
H  0.14400 33.84100 21.78100
H  -2.82300 33.69900 21.53900
H  -1.38700 36.33500 21.41500
H  -1.70400 35.12300 20.23000
H  -0.06100 35.65300 20.50200
H  -1.28900 32.12000 20.27000
H  -2.70000 31.39400 21.06200
H  -1.19200 29.89400 21.94300
H  -0.77800 31.25000 22.99100
H  0.16300 30.82500 21.47100
H  -4.67100 29.18200 25.35600
H  -5.28400 30.34400 24.21000
H  -6.25700 30.09600 25.73500
H  -3.39400 30.81300 30.46800
H  -5.94500 32.25400 33.26200
H  -6.42100 30.52900 33.20700
H  -7.16500 31.63300 32.09300

