158

Mg -2.12400 16.84500 25.87800
C  -2.50300 14.68200 28.61500
C  -2.74500 19.43100 27.96100
C  -2.19900 18.75400 23.18600
C  -1.88400 14.04700 23.82400
N  -2.76800 16.97200 28.04900
C  -2.68800 16.01600 29.00200
C  -2.98600 16.50500 30.43700
C  -3.34100 18.03600 30.11300
C  -3.00400 18.17800 28.67100
C  -4.78200 18.47600 30.48000
C  -1.73500 16.35400 31.37900
C  -2.00000 15.58700 32.71300
H  -2.51000 16.38700 33.94200
N  -2.35000 18.82000 25.61500
C  -2.60800 19.75800 26.59300
C  -2.52600 21.11200 25.97500
C  -2.23800 20.94400 24.59200
C  -2.29400 19.48200 24.38900
C  -2.69900 22.38600 26.81700
C  -1.88700 22.01200 23.59300
O  -1.58400 21.80700 22.42800
C  -1.80600 23.42700 24.05600
N  -2.14800 16.47600 23.84100
C  -2.27900 17.42600 22.89200
C  -2.14000 16.94700 21.46800
C  -1.82700 15.42100 21.68700
C  -1.94100 15.29900 23.23100
C  -3.44900 17.18500 20.65200
C  -0.40100 15.07100 21.18600
C  0.90900 15.51800 22.00200
N  -2.17100 14.76200 26.14800
C  -2.06900 13.70900 25.20500
C  -2.14600 12.45000 25.83200
C  -2.36700 12.79100 27.21300
C  -2.35800 14.20500 27.31600
C  -2.08400 11.17200 24.97700
C  -2.50600 12.27800 28.50400
O  -2.70700 11.11900 28.86000
C  -2.50900 13.40300 29.52800
C  -1.19100 13.21200 30.21400
O  -0.06500 13.48900 29.76200
O  -1.33700 12.63800 31.45500
C  -0.18200 12.17600 32.16900
H  -2.90300 20.25000 28.66600
H  -2.08700 19.38400 22.30100
H  -1.72400 13.17800 23.18200
H  -3.77700 15.82500 30.75400
H  -2.71500 18.78600 30.59800
H  -5.40800 17.63600 30.77800
H  -5.30800 18.97300 29.66500
H  -4.65500 19.14500 31.33100
H  -1.37100 17.28000 31.82400
H  -1.00400 15.82000 30.77100
H  -0.98500 15.26400 32.94600
H  -2.69500 14.76200 32.55600
H  -2.95500 22.25300 27.86800
H  -3.55200 22.81200 26.28800
H  -1.88100 23.09900 26.71100
H  -2.81400 23.63800 24.41300
H  -1.48700 24.07700 23.24200
H  -1.01800 23.39200 24.80900
H  -1.35000 17.45000 20.91000
H  -2.52300 14.70200 21.25700
H  -3.56500 18.14100 20.14000
H  -4.31100 17.11800 21.31500
H  -3.32000 16.40600 19.90000
H  -0.34600 15.39800 20.14800
H  -0.46100 13.98900 21.30300
H  0.55400 16.29200 22.68300
H  1.72100 15.90500 21.38600
H  1.34900 14.73600 22.62100
H  -1.64800 10.47500 25.69300
H  -1.58700 11.23700 24.01000
H  -3.07900 10.83100 24.69000
H  -3.35600 13.22600 30.19100
H  0.66200 11.90000 31.53600
H  -0.37700 11.36900 32.87500
H  0.15100 13.08200 32.67600
Mg 46.94700 25.28200 28.70300
C  47.42800 27.55800 31.37700
C  45.67500 23.00500 31.04800
C  47.00800 22.79400 26.34800
C  48.37800 27.51800 26.41100
N  46.72300 25.26900 30.90800
C  46.81900 26.36000 31.78400
C  46.33300 25.93300 33.15800
C  45.89300 24.43500 33.03700
C  46.10700 24.23300 31.53200
C  46.79200 23.54600 34.01500
C  45.31100 26.92300 33.86200
C  45.73600 27.11600 35.38300
H  44.74400 27.32800 36.49900
N  46.35100 23.23300 28.73200
C  45.83300 22.47600 29.77200
C  45.49300 21.20300 29.32400
C  45.76400 21.09000 27.98400
C  46.39100 22.41500 27.62300
C  44.88100 20.16300 30.21500
C  45.51000 19.89900 27.07500
O  46.02700 19.87100 25.94400
C  44.76500 18.65900 27.68400
N  47.59100 25.18600 26.71700
C  47.55700 24.02000 25.97500
C  48.24600 24.24500 24.60200
C  48.54200 25.77900 24.58000
C  48.17900 26.16500 25.97900
C  49.46400 23.31600 24.28500
C  47.70000 26.59800 23.55400
C  46.25100 27.01200 23.94900
N  47.76800 27.10000 28.79200
C  48.30200 27.95700 27.77900
C  48.73400 29.15800 28.44200
C  48.32800 29.09600 29.76700
C  47.79700 27.78000 30.01900
C  49.38000 30.30500 27.73800
C  48.33200 29.80800 30.97600
O  48.68900 30.93400 31.26000
C  47.79300 28.86500 32.14500
C  48.88600 28.71900 33.15400
O  50.00200 28.29500 32.77400
O  48.61000 29.08100 34.46100
C  49.61200 28.88300 35.54600
H  45.31200 22.39000 31.87400
H  47.13100 22.03000 25.57800
H  48.75800 28.24500 25.68900
H  47.27200 26.11300 33.68000
H  44.88500 24.18900 33.37100
H  47.44200 23.03000 33.30800
H  46.22500 22.77900 34.54100
H  47.42100 24.06200 34.74100
H  44.31200 26.49400 33.77900
H  45.25200 27.91300 33.40900
H  46.22700 28.08200 35.26300
H  46.51100 26.43000 35.72600
H  45.02500 20.55100 31.22400
H  45.47900 19.25200 30.19800
H  43.81100 19.97200 30.13100
H  45.50800 18.18800 28.32800
H  44.44500 17.89800 26.97200
H  43.86600 19.00000 28.19700
H  47.54700 24.00300 23.80200
H  49.57400 25.92500 24.26100
H  49.17900 22.47300 23.65500
H  49.91800 22.86100 25.16600
H  50.23300 23.90400 23.78400
H  47.67400 26.00700 22.63900
H  48.31800 27.48500 23.42000
H  46.16900 26.57600 24.94500
H  45.54000 26.61700 23.22300
H  46.13400 28.08400 24.10500
H  49.72800 30.93800 28.55400
H  48.74000 30.87400 27.06300
H  50.22800 29.96500 27.14400
H  46.99000 29.38400 32.66800
H  49.24700 28.16800 36.28300
H  49.87800 29.81300 36.04900
H  50.54500 28.43300 35.20800

