158

Mg 23.83400 -6.21200 45.49300
C  25.77200 -3.52500 44.02200
C  21.21600 -5.01800 43.44900
C  22.09600 -8.90500 46.12200
C  26.73800 -7.54600 46.76900
N  23.59600 -4.47300 43.88200
C  24.46900 -3.48200 43.60300
C  23.95200 -2.64700 42.42600
C  22.39200 -2.98700 42.43200
C  22.41100 -4.29900 43.25900
C  21.35900 -1.97700 42.99100
C  24.66000 -2.83900 41.08000
C  25.16000 -1.64700 40.20700
H  25.03600 -1.65900 38.73100
N  21.84900 -6.73100 45.15600
C  20.93300 -6.13500 44.29800
C  19.70200 -6.82400 44.28700
C  19.86100 -7.98900 45.06000
C  21.28400 -7.93600 45.51600
C  18.53500 -6.38600 43.39400
C  18.88700 -9.17100 45.22800
O  17.84400 -9.25100 44.58000
C  19.05800 -10.19900 46.38100
N  24.36400 -7.94800 46.46000
C  23.44100 -8.94900 46.51000
C  24.06000 -10.22000 47.03100
C  25.54800 -9.79100 47.37600
C  25.58600 -8.32700 46.93000
C  23.24900 -10.83600 48.21400
C  26.58400 -10.66800 46.60200
C  27.97700 -10.86400 47.34800
N  25.85200 -5.62400 45.56200
C  26.89500 -6.24400 46.21500
C  28.05400 -5.30300 46.17200
C  27.61900 -4.24600 45.33300
C  26.31200 -4.50800 44.90200
C  29.48100 -5.49900 46.68900
C  28.03500 -3.05300 44.63900
O  29.16100 -2.60600 44.58300
C  26.89200 -2.60600 43.65800
C  26.65400 -1.14400 43.81500
O  26.00500 -0.54100 44.69900
O  27.50300 -0.50000 42.89800
C  27.79700 0.88600 43.00300
H  20.39400 -4.63800 42.83900
H  21.56700 -9.85500 46.22100
H  27.66400 -7.92300 47.20800
H  24.10300 -1.62300 42.76500
H  22.09500 -3.25000 41.41600
H  21.70700 -0.94400 43.01800
H  20.85300 -2.21700 43.92600
H  20.54300 -2.03700 42.27100
H  23.97200 -3.39200 40.44100
H  25.50600 -3.48700 41.30900
H  26.20500 -1.49200 40.47400
H  24.65900 -0.77100 40.62000
H  18.69100 -6.49200 42.32100
H  18.31700 -5.36100 43.69600
H  17.67200 -6.99300 43.66800
H  19.66900 -9.79000 47.18700
H  19.39000 -11.13200 45.92700
H  18.10200 -10.29600 46.89600
H  23.96500 -10.96200 46.23800
H  25.72500 -9.88600 48.44700
H  23.80100 -10.94300 49.14800
H  22.85200 -11.80800 47.92200
H  22.39800 -10.21400 48.49100
H  26.77100 -10.20500 45.63300
H  26.12800 -11.62400 46.34600
H  28.76100 -10.60600 46.63600
H  28.13600 -11.83400 47.81900
H  27.87000 -10.15500 48.16900
H  30.12800 -4.79900 46.16100
H  29.73800 -6.55700 46.62600
H  29.58800 -5.22000 47.73800
H  27.15400 -2.74200 42.60900
H  27.31800 1.55200 42.28500
H  28.84700 1.08800 42.78900
H  27.56500 1.34900 43.96200
Mg 30.61100 58.59900 40.22000
C  27.90700 56.70300 38.78600
C  32.80500 56.01500 39.22400
C  33.25700 60.66300 41.00100
C  28.36700 61.32200 40.45300
N  30.25300 56.62900 39.17300
C  29.12700 56.05100 38.69900
C  29.37900 54.63800 38.15500
C  30.77900 54.36900 38.79800
C  31.38200 55.74300 39.08200
C  30.68000 53.52500 40.15800
C  29.38700 54.61500 36.61300
C  28.49700 53.59700 35.89000
H  27.60200 54.10700 34.71600
N  32.70100 58.37400 40.18200
C  33.37500 57.27000 39.65600
C  34.81400 57.49600 39.67900
C  34.97400 58.79500 40.21600
C  33.65100 59.36900 40.48800
C  35.89000 56.49900 39.17600
C  36.31500 59.53000 40.33900
O  37.32000 59.06000 39.79600
C  36.52700 60.76700 41.03700
N  30.78800 60.67100 40.76000
C  31.96700 61.25100 41.12800
C  31.72800 62.80700 41.41700
C  30.18300 62.98400 41.15600
C  29.73600 61.55000 40.71400
C  32.11200 63.26300 42.79700
C  29.78000 64.10800 40.09400
C  28.71400 65.07400 40.55700
N  28.44600 58.88700 39.88700
C  27.72900 60.06800 40.00000
C  26.37200 59.84500 39.55200
C  26.41100 58.52000 39.10900
C  27.69000 57.98300 39.37000
C  25.20800 60.76200 39.50000
C  25.56900 57.41500 38.58000
O  24.39200 57.34400 38.30300
C  26.55500 56.26800 38.39300
C  26.07600 55.04000 39.09700
O  26.42800 54.58200 40.14000
O  25.31500 54.37300 38.23500
C  24.89500 53.00000 38.59500
H  33.43000 55.15700 38.97100
H  33.94800 61.45100 41.31000
H  27.71700 62.17300 40.67000
H  28.63400 53.88200 38.39800
H  31.41400 53.88200 38.05900
H  29.63100 53.43200 40.44100
H  31.38000 53.85700 40.92500
H  30.94900 52.48500 39.97200
H  30.37100 54.53800 36.15000
H  29.15800 55.64200 36.32800
H  27.77200 53.24700 36.62400
H  29.19600 52.78200 35.70500
H  36.69100 57.00400 38.63700
H  35.39000 55.71800 38.60400
H  36.30900 55.93000 40.00600
H  36.03500 61.54700 40.45700
H  37.61000 60.87000 40.97200
H  36.17100 60.73800 42.06700
H  32.37500 63.28100 40.67900
H  29.59300 63.18800 42.05000
H  31.58000 62.58100 43.46100
H  31.75500 64.28700 42.90300
H  33.19000 63.16600 42.92400
H  29.45600 63.55300 39.21400
H  30.67700 64.62600 39.75500
H  28.07800 65.33200 39.71000
H  29.29900 65.89100 40.97700
H  27.96600 64.69500 41.25400
H  25.10000 61.21300 40.48600
H  24.29900 60.19700 39.29900
H  25.32000 61.57900 38.78700
H  26.48700 55.96700 37.34700
H  23.83800 53.08800 38.84500
H  25.28000 52.44800 39.45300
H  24.97500 52.44300 37.66200

