158

Mg 34.99300 0.73000 28.70700
C  33.10400 1.81100 31.32000
C  37.59600 0.29900 30.88200
C  36.92100 -0.20600 25.97400
C  32.43500 1.62700 26.52800
N  35.27200 1.03200 30.89500
C  34.37400 1.54100 31.73200
C  34.97400 1.64100 33.19500
C  36.46400 1.55700 32.93600
C  36.42300 0.83800 31.45600
C  37.38700 2.84500 32.98100
C  34.52800 0.39800 34.09700
C  33.97900 0.76700 35.54000
H  34.56300 1.97300 36.30000
N  36.94500 0.00300 28.50900
C  37.84900 -0.18400 29.52500
C  38.97600 -0.83500 28.99500
C  38.79700 -1.06700 27.56900
C  37.47100 -0.43000 27.27000
C  40.16900 -1.17000 29.89700
C  39.71100 -1.79900 26.59000
O  39.39200 -2.08300 25.43800
C  41.14900 -2.01500 26.94200
N  34.64000 0.44800 26.55700
C  35.60800 0.21900 25.65200
C  35.25100 0.65200 24.25900
C  33.74500 1.06200 24.42500
C  33.52000 1.04400 25.91700
C  36.06000 2.01600 23.72900
C  32.72100 0.09500 23.71100
C  32.10900 -0.97700 24.46500
N  33.16200 1.54600 28.79200
C  32.19400 1.73900 27.87300
C  31.00800 2.07900 28.53600
C  31.30700 2.17000 29.88800
C  32.65800 1.82900 30.00200
C  29.66300 2.30800 27.85200
C  30.74200 2.36900 31.28200
O  29.59300 2.60200 31.57600
C  31.93800 2.23300 32.21000
C  32.07400 3.56200 32.90900
O  32.44800 4.59200 32.47200
O  31.62600 3.38700 34.19800
C  31.72000 4.53300 35.07600
H  38.46700 0.19200 31.53200
H  37.59600 -0.30000 25.12000
H  31.67300 2.19000 25.98600
H  34.75600 2.59700 33.67100
H  36.89800 0.87900 33.67100
H  36.84400 3.79000 33.00000
H  38.00000 2.95500 32.08700
H  37.93600 2.95100 33.91600
H  35.26400 -0.39300 34.24000
H  33.66300 -0.02600 33.58900
H  34.17200 -0.16500 36.07100
H  32.92200 1.00500 35.41800
H  41.03000 -0.58700 29.56900
H  40.37800 -2.23600 29.80100
H  40.00700 -1.05500 30.96900
H  41.78700 -2.43600 26.16500
H  41.12500 -2.59700 27.86300
H  41.55900 -1.05200 27.24900
H  35.26700 -0.25500 23.65600
H  33.64800 2.08700 24.06800
H  36.91100 2.30200 24.34800
H  35.49400 2.94800 23.71200
H  36.40900 1.74000 22.73400
H  33.08200 -0.26800 22.74900
H  31.92300 0.72700 23.32100
H  32.33900 -1.79800 23.78600
H  31.03100 -0.85300 24.57600
H  32.43300 -1.10500 25.49800
H  29.58100 2.18200 26.77300
H  29.13600 3.25300 27.98900
H  29.05500 1.48800 28.23400
H  31.56900 1.44800 32.87000
H  31.11800 5.27800 34.55600
H  32.75300 4.84700 35.22800
H  31.24300 4.35200 36.03900
Mg -2.09700 34.73900 27.40400
C  -3.61400 33.01800 30.18400
C  -0.35600 36.63300 29.44600
C  -1.24500 36.67100 24.75200
C  -3.98600 32.67700 25.23900
N  -2.10400 34.85300 29.60900
C  -2.72000 34.05600 30.58300
C  -2.15700 34.38200 31.94700
C  -1.38600 35.74500 31.63800
C  -1.21700 35.76300 30.12500
C  -1.98600 36.95200 32.29800
C  -1.33800 33.18100 32.48800
C  -1.95100 32.43800 33.64300
H  -1.25000 32.41000 34.96100
N  -0.90400 36.36500 27.10200
C  -0.19500 37.00200 28.12900
C  0.64200 38.07100 27.64100
C  0.32200 38.05500 26.22500
C  -0.59900 36.99700 25.93500
C  1.48400 39.01700 28.56700
C  0.89500 38.92700 25.17600
O  0.47100 38.86200 24.03600
C  1.98300 39.79300 25.49300
N  -2.66200 34.73100 25.37100
C  -2.25500 35.68900 24.52500
C  -2.69200 35.45100 23.00200
C  -3.46900 34.10300 23.17000
C  -3.34500 33.73800 24.63500
C  -3.49200 36.63600 22.30800
C  -2.84700 33.06200 22.19500
C  -1.60300 32.25600 22.70000
N  -3.48500 33.14400 27.64600
C  -4.01900 32.35100 26.66400
C  -4.83100 31.31100 27.30500
C  -4.73100 31.56800 28.69500
C  -3.86200 32.62400 28.83900
C  -5.63300 30.26500 26.65500
C  -5.16500 31.10000 30.01400
O  -5.87500 30.22100 30.41400
C  -4.42300 31.98600 31.02200
C  -5.54400 32.58700 31.84700
O  -6.35800 33.44300 31.43400
O  -5.63200 32.03800 33.09700
C  -6.85000 32.15700 33.84700
H  0.27800 37.17000 30.15400
H  -1.02100 37.22000 23.83500
H  -4.49800 32.05800 24.50000
H  -3.05600 34.59400 32.52700
H  -0.32900 35.70100 31.90000
H  -2.95500 37.13600 31.83600
H  -1.38800 37.82100 32.02000
H  -1.97300 36.87200 33.38500
H  -0.39300 33.65600 32.75300
H  -1.18000 32.52100 31.63500
H  -1.98900 31.43400 33.22000
H  -2.92400 32.90500 33.79900
H  1.23800 38.91100 29.62300
H  1.31100 40.05100 28.26900
H  2.51900 38.74700 28.35300
H  2.15200 40.46000 24.64700
H  2.88300 39.30300 25.86500
H  1.68600 40.53400 26.23600
H  -1.81900 35.30100 22.36600
H  -4.52600 34.30900 22.99700
H  -4.56000 36.45100 22.18900
H  -3.03500 36.87100 21.34700
H  -3.39700 37.44100 23.03700
H  -2.43300 33.43800 21.26000
H  -3.68900 32.39500 22.00500
H  -0.69800 32.37200 22.10200
H  -2.02700 31.25400 22.76700
H  -1.31900 32.53700 23.71400
H  -5.72000 30.43500 25.58200
H  -6.66900 30.36000 26.98000
H  -5.51500 29.19200 26.80900
H  -3.87700 31.27800 31.64700
H  -7.76200 32.34700 33.28100
H  -6.80300 32.89400 34.64800
H  -7.06000 31.15000 34.20900

