158

Mg -2.03000 17.02800 25.82800
C  -2.15000 14.75200 28.47100
C  -2.12700 19.63200 28.13500
C  -2.33200 19.11500 23.32100
C  -2.12200 14.28200 23.64100
N  -2.27700 17.16000 28.00000
C  -2.30300 16.07100 28.88200
C  -2.61300 16.53000 30.29800
C  -2.55300 18.12400 30.15000
C  -2.33500 18.37700 28.69400
C  -3.82400 18.94400 30.65000
C  -1.54200 16.09300 31.29700
C  -1.51100 16.83300 32.65800
H  -1.22400 16.06200 33.97100
N  -2.24800 19.16600 25.74700
C  -2.08800 20.01900 26.77300
C  -2.22900 21.39400 26.25500
C  -2.25600 21.31900 24.84500
C  -2.28000 19.86200 24.55000
C  -2.45200 22.62100 27.07900
C  -2.30900 22.35500 23.79000
O  -2.47000 22.12800 22.62300
C  -2.10100 23.73400 24.17300
N  -2.20500 16.76300 23.83600
C  -2.28000 17.82300 22.92000
C  -2.24700 17.27600 21.49200
C  -2.01300 15.72300 21.64200
C  -2.17000 15.54700 23.12100
C  -3.54700 17.59300 20.73600
C  -0.59300 15.23000 21.09000
C  -0.57700 14.23500 19.92800
N  -2.07100 14.94500 25.97500
C  -2.00900 14.03900 25.00700
C  -1.95800 12.74900 25.56400
C  -2.03300 12.99500 26.91200
C  -2.02300 14.36200 27.15100
C  -1.77100 11.44800 24.86800
C  -1.89600 12.38300 28.16000
O  -1.76600 11.22400 28.44700
C  -1.99100 13.45200 29.26500
C  -0.86000 13.29900 30.24100
O  0.23600 13.82900 30.11000
O  -1.26400 12.51600 31.29400
C  -0.25100 12.21900 32.26500
H  -1.85300 20.43800 28.81900
H  -2.44100 19.75900 22.44500
H  -2.18200 13.43300 22.95600
H  -3.58700 16.23900 30.69200
H  -1.69600 18.57800 30.64800
H  -4.21400 19.46900 29.77900
H  -3.57600 19.66700 31.42800
H  -4.66200 18.28300 30.87200
H  -0.58600 16.24100 30.79500
H  -1.71700 15.07300 31.64200
H  -2.43800 17.39900 32.74700
H  -0.61900 17.44000 32.50800
H  -3.44400 22.97500 26.79500
H  -1.67600 23.38600 27.04100
H  -2.49800 22.33300 28.12900
H  -1.16200 23.91700 24.69400
H  -2.91600 24.06900 24.81600
H  -2.02200 24.40300 23.31700
H  -1.44400 17.74200 20.92100
H  -2.73100 15.10300 21.10500
H  -4.35000 18.21100 21.14000
H  -4.05000 16.64500 20.54600
H  -3.19900 17.97700 19.77700
H  -0.06000 14.86900 21.97000
H  -0.10400 16.18400 20.89800
H  0.17600 13.45600 20.05000
H  -0.35500 14.69700 18.96600
H  -1.52800 13.72500 19.78100
H  -1.36900 10.70600 25.55600
H  -1.09800 11.60900 24.02500
H  -2.79900 11.17100 24.63200
H  -2.94100 13.27400 29.76800
H  -0.65900 12.05100 33.26100
H  0.54900 12.95900 32.29500
H  0.36400 11.35300 32.01900
Mg -10.64600 40.00700 42.45900
C  -10.14100 36.65600 41.30700
C  -7.67500 40.90300 41.09900
C  -11.53400 43.24500 42.79600
C  -14.03700 39.16300 42.94700
N  -9.18800 38.92400 41.21300
C  -9.10300 37.55000 41.02600
C  -7.82500 37.18100 40.28300
C  -6.92700 38.51600 40.42000
C  -7.94300 39.53400 40.89500
C  -5.84500 38.36000 41.46500
C  -8.05300 36.74100 38.81900
C  -7.36600 35.50800 38.31700
H  -6.22400 35.61100 37.32100
N  -9.67500 41.87600 42.12500
C  -8.44800 41.97300 41.49900
C  -8.12500 43.36600 41.41000
C  -9.19400 44.09900 42.07100
C  -10.17000 43.09700 42.40100
C  -6.88200 43.85300 40.69100
C  -9.32800 45.54000 42.27100
O  -8.69400 46.34700 41.61500
C  -10.27000 46.16800 43.23600
N  -12.48100 41.12800 42.63000
C  -12.51300 42.34800 43.00600
C  -13.95000 42.85000 43.22800
C  -14.79200 41.54000 43.13100
C  -13.68500 40.54900 42.84100
C  -14.05800 43.59800 44.55800
C  -15.77500 41.37900 41.95000
C  -17.12400 40.72500 42.31500
N  -11.80100 38.21100 42.47900
C  -13.16600 38.02100 42.73000
C  -13.41400 36.59400 42.58100
C  -12.22100 36.02300 42.10800
C  -11.30600 37.09400 41.91600
C  -14.70000 35.92500 42.95700
C  -11.66900 34.76100 41.76200
O  -11.97300 33.65200 41.84200
C  -10.31000 35.20100 41.11100
C  -9.17400 34.32500 41.59500
O  -8.60500 34.41100 42.66900
O  -8.73400 33.43600 40.65800
C  -7.50600 32.55700 40.94800
H  -6.64300 41.19800 40.89800
H  -11.86100 44.26900 42.98800
H  -15.07200 38.89900 43.17300
H  -7.28500 36.40600 40.82600
H  -6.35400 38.80000 39.53700
H  -4.97000 39.00500 41.38700
H  -5.49200 37.32900 41.48200
H  -6.22600 38.69100 42.43100
H  -7.59200 37.57800 38.29500
H  -9.07500 36.80500 38.44600
H  -8.11200 34.85400 37.86600
H  -6.89400 34.97700 39.14400
H  -7.21100 44.79200 40.24400
H  -6.47200 43.13900 39.97700
H  -6.04700 44.17100 41.31500
H  -11.19300 46.38500 42.69800
H  -9.86400 46.89200 43.94200
H  -10.55300 45.42800 43.98400
H  -14.18300 43.53700 42.41500
H  -15.18900 41.24900 44.10400
H  -13.12100 44.08000 44.83600
H  -14.40100 42.88200 45.30600
H  -14.84800 44.33100 44.39500
H  -15.36700 40.89700 41.06100
H  -16.06400 42.36100 41.57700
H  -17.08000 40.28200 43.31000
H  -17.49600 40.01600 41.57500
H  -17.90700 41.48400 42.31400
H  -14.75800 34.86800 42.70000
H  -15.43200 36.33900 42.26400
H  -14.92500 36.09200 44.01000
H  -10.42700 34.96100 40.05500
H  -7.17000 32.46000 41.98000
H  -6.57700 32.94000 40.52500
H  -7.68500 31.67200 40.33700

