158

Mg 24.39900 -5.01600 45.19600
C  26.71600 -2.57000 43.89900
C  21.96600 -3.50200 43.29800
C  22.38700 -7.78000 45.68700
C  27.00000 -6.66600 46.69000
N  24.40500 -3.31500 43.62300
C  25.39000 -2.44300 43.35200
C  24.96700 -1.53000 42.23000
C  23.42900 -1.60900 42.37600
C  23.22600 -2.84400 43.18000
C  22.94500 -0.31700 43.14100
C  25.42100 -1.94500 40.75500
C  26.39800 -0.94200 40.07700
H  26.28700 -0.95700 38.49300
N  22.40500 -5.52400 44.62100
C  21.57300 -4.68900 43.94200
C  20.30100 -5.24600 43.87300
C  20.37600 -6.55100 44.46800
C  21.78000 -6.65700 44.99300
C  19.11400 -4.62400 43.18200
C  19.32900 -7.65400 44.49300
O  18.23000 -7.37000 44.03100
C  19.58100 -9.07400 44.85300
N  24.66100 -6.97200 46.05500
C  23.64700 -7.89600 46.16900
C  24.06200 -9.17100 46.95700
C  25.50300 -8.76600 47.40600
C  25.73300 -7.35700 46.76500
C  23.11200 -9.41600 48.19700
C  26.62900 -9.77300 47.03200
C  27.60400 -10.14900 48.18300
N  26.41500 -4.67400 45.30100
C  27.33500 -5.47100 45.91200
C  28.66300 -4.93100 45.71100
C  28.48000 -3.74300 44.97600
C  27.08400 -3.64600 44.73500
C  29.88100 -5.39900 46.30100
C  29.10400 -2.62500 44.27400
O  30.26700 -2.24000 44.32100
C  27.99300 -1.90300 43.49900
C  28.04100 -0.38700 43.89200
O  27.80700 0.01900 44.99100
O  28.51000 0.35000 42.86900
C  28.68700 1.78400 43.06500
H  21.13400 -2.96100 42.84200
H  21.75200 -8.62900 45.95200
H  27.90200 -7.06500 47.15900
H  25.34800 -0.53300 42.45300
H  22.85600 -1.64300 41.45000
H  23.75900 0.11000 43.72700
H  22.17400 -0.53200 43.88100
H  22.61800 0.48600 42.48000
H  24.53500 -1.93200 40.11900
H  25.83800 -2.95200 40.77900
H  27.36900 -1.36900 40.32900
H  26.33800 0.06100 40.50200
H  19.20600 -3.53800 43.16400
H  18.16800 -4.87800 43.66200
H  19.06800 -5.10800 42.20700
H  20.43300 -9.53200 44.35000
H  18.70800 -9.68600 44.62700
H  19.73400 -9.25600 45.91700
H  24.06500 -9.98700 46.23400
H  25.57200 -8.60600 48.48200
H  22.15100 -8.94900 47.98000
H  23.60700 -9.01200 49.08000
H  22.94800 -10.45200 48.49400
H  27.28000 -9.29500 46.30000
H  26.17600 -10.70300 46.68800
H  27.51200 -9.60000 49.12000
H  28.66100 -10.19400 47.92100
H  27.34800 -11.16500 48.48300
H  29.91900 -5.27300 47.38300
H  30.77100 -4.84900 45.99700
H  30.10700 -6.44200 46.08000
H  28.07300 -2.01400 42.41700
H  29.76600 1.85400 42.92500
H  28.36100 2.08400 44.06100
H  28.09700 2.38900 42.37600
Mg 17.09600 52.03000 26.26700
C  19.09700 50.40600 28.63400
C  14.65000 52.40300 28.69700
C  15.06700 53.52900 24.03900
C  19.25400 51.05500 23.85100
N  17.03900 51.57600 28.48500
C  17.90600 50.92900 29.25600
C  17.35100 50.76000 30.69400
C  15.84800 51.07500 30.47400
C  15.83900 51.77300 29.13700
C  14.90200 49.79900 30.52500
C  18.04500 51.72200 31.69900
C  18.26800 50.98000 32.99900
H  17.25100 51.32300 34.10400
N  15.13900 52.96200 26.36600
C  14.35300 53.04000 27.45100
C  13.09000 53.70400 27.09600
C  13.30700 54.16400 25.78500
C  14.51700 53.50300 25.28900
C  11.95500 53.96700 28.16900
C  12.42000 54.92700 24.93100
O  12.61000 54.93500 23.69800
C  11.23400 55.60500 25.52100
N  16.98600 52.11200 24.24900
C  16.17100 52.87700 23.54500
C  16.50300 52.87600 22.05200
C  17.79700 52.08200 21.99400
C  18.07700 51.73000 23.47000
C  15.33600 52.36400 21.11100
C  18.95900 52.70000 21.11000
C  19.89100 53.78900 21.75500
N  18.86300 50.88000 26.20700
C  19.66800 50.60200 25.13300
C  20.78200 49.75200 25.58400
C  20.66700 49.71700 26.97200
C  19.46000 50.42000 27.28400
C  21.81000 49.13300 24.68200
C  21.29000 49.32400 28.21600
O  22.34500 48.78100 28.47600
C  20.33000 49.76700 29.27300
C  19.95600 48.75400 30.23900
O  19.03100 47.96400 30.20700
O  20.89300 48.81300 31.23500
C  20.67100 47.93800 32.39200
H  13.91500 52.41000 29.50400
H  14.65400 54.18000 23.26600
H  20.03700 50.73500 23.16000
H  17.36900 49.69300 30.91800
H  15.45300 51.80400 31.18100
H  13.88300 50.17800 30.61300
H  15.10900 49.23900 31.43600
H  15.09200 49.13100 29.68500
H  17.34800 52.51700 31.96200
H  18.99100 52.13200 31.34600
H  19.27600 51.20700 33.34500
H  18.25500 49.91100 32.78600
H  11.98200 55.02500 28.42700
H  12.05300 53.28200 29.01100
H  11.05100 53.66000 27.64300
H  10.84900 56.32900 24.80300
H  11.49400 56.20900 26.39000
H  10.45000 54.90800 25.81900
H  16.73900 53.92500 21.87300
H  17.68200 51.08200 21.57500
H  15.71300 51.70900 20.32600
H  14.80900 53.22600 20.70300
H  14.68600 51.74000 21.72500
H  18.49900 53.19000 20.25200
H  19.67600 51.95500 20.76400
H  20.92100 53.48200 21.93600
H  19.62000 54.23400 22.71300
H  19.98100 54.54100 20.97100
H  21.28700 48.88100 23.75900
H  22.24700 48.24700 25.14100
H  22.65300 49.80600 24.52400
H  20.72600 50.52600 29.94800
H  19.78900 48.14200 33.00000
H  21.58800 48.00800 32.97600
H  20.63700 46.94100 31.95300

