158

Mg 17.49000 -1.40700 28.20900
C  16.22000 0.63500 30.84300
C  19.38300 -3.07200 30.51900
C  19.09900 -2.73100 25.67500
C  15.63400 0.69600 26.06400
N  17.67400 -1.22200 30.45900
C  17.08000 -0.36000 31.31400
C  17.47700 -0.74300 32.78600
C  18.72700 -1.69600 32.59600
C  18.60700 -2.02100 31.09600
C  20.10800 -0.97500 32.92600
C  16.26700 -1.33000 33.53100
C  15.94200 -0.65800 34.95000
H  17.17600 -0.05500 35.63000
N  18.96100 -2.73600 28.08000
C  19.56900 -3.39200 29.14200
C  20.32100 -4.55600 28.69500
C  20.23700 -4.49600 27.24100
C  19.42000 -3.27400 26.91000
C  21.07700 -5.47400 29.59600
C  21.06700 -5.29900 26.18200
O  20.94800 -5.20400 24.94600
C  22.02100 -6.38500 26.65700
N  17.50800 -1.03400 26.17100
C  18.23400 -1.70000 25.31700
C  18.13400 -1.12200 23.96100
C  16.89000 -0.15900 23.98600
C  16.69400 -0.08200 25.55600
C  19.33600 -0.46800 23.33100
C  15.58200 -0.71100 23.29300
C  14.94800 0.21000 22.27700
N  16.16200 0.26400 28.34700
C  15.40100 0.94500 27.39500
C  14.44000 1.87700 28.01300
C  14.69800 1.64300 29.39800
C  15.80300 0.76200 29.52800
C  13.60600 2.91600 27.38500
C  14.30800 2.10000 30.70400
O  13.39300 2.87500 30.95200
C  15.36900 1.51000 31.66600
C  16.15300 2.54100 32.34200
O  17.37400 2.69400 32.29300
O  15.34000 3.15200 33.28800
C  15.98300 3.99100 34.27400
H  19.97600 -3.64200 31.23800
H  19.57800 -3.35900 24.92000
H  15.17900 1.43000 25.39600
H  17.74600 0.18900 33.28500
H  18.54400 -2.55100 33.24700
H  20.66400 -1.59000 33.63400
H  20.08300 0.05500 33.28300
H  20.74100 -0.79700 32.05700
H  16.24400 -2.41900 33.49400
H  15.42700 -1.07500 32.88500
H  15.44200 -1.35800 35.62000
H  15.24800 0.13900 34.68300
H  20.88800 -6.46800 29.19100
H  20.58300 -5.43900 30.56700
H  22.08200 -5.07500 29.72800
H  22.13400 -7.13700 25.87700
H  21.70100 -7.01800 27.48400
H  22.99300 -5.91800 26.81400
H  17.92100 -2.04300 23.41900
H  17.10900 0.80300 23.52100
H  19.44600 0.53100 23.75200
H  19.31600 -0.39100 22.24400
H  20.20000 -1.04500 23.65900
H  14.87800 -1.04800 24.05300
H  15.74800 -1.65500 22.77300
H  14.93300 -0.26100 21.29400
H  15.42500 1.18900 22.30100
H  13.90900 0.38200 22.55800
H  12.57400 2.64200 27.60600
H  13.72300 3.15000 26.32700
H  13.67300 3.87400 27.90000
H  14.75200 1.11100 32.47200
H  16.27900 4.93400 33.81500
H  16.84500 3.52500 34.75200
H  15.20000 4.25100 34.98700
Mg 47.96200 16.41900 29.42100
C  45.48100 15.64400 31.70300
C  49.78000 17.84200 31.75800
C  49.88600 17.26800 26.95100
C  45.66800 15.08200 26.89400
N  47.55700 16.77500 31.45600
C  46.59100 16.20500 32.23000
C  46.82600 16.45300 33.76100
C  48.21700 17.18200 33.75600
C  48.52200 17.29600 32.20800
C  48.17200 18.61000 34.46400
C  46.75200 15.23000 34.73700
C  47.53500 15.31100 36.07000
H  47.45100 16.65200 36.76800
N  49.58500 17.48900 29.30800
C  50.20000 18.00700 30.42400
C  51.48800 18.67000 29.96100
C  51.51000 18.56800 28.55000
C  50.31000 17.73100 28.19900
C  52.47600 19.37900 30.97600
C  52.57800 18.96600 27.63000
O  52.56900 18.55700 26.43600
C  53.70700 19.82600 28.01500
N  47.70600 16.22600 27.20400
C  48.78600 16.59300 26.47600
C  48.62000 16.19700 25.03400
C  47.30700 15.34300 24.99000
C  46.89100 15.42100 26.46900
C  48.62000 17.27600 23.88600
C  47.40600 13.84400 24.47600
C  47.11800 13.71700 22.91200
N  45.91800 15.55900 29.24600
C  45.11300 15.15200 28.22600
C  43.85300 14.59200 28.78200
C  43.90300 14.86800 30.18500
C  45.18000 15.46200 30.31700
C  42.72400 13.96400 27.97800
C  43.20600 14.77100 31.45800
O  42.13000 14.33200 31.81700
C  44.24800 15.25400 32.48300
C  43.68900 16.36400 33.36000
O  43.53300 17.55800 33.07900
O  43.27100 15.73800 34.57000
C  42.57400 16.68500 35.46600
H  50.47500 18.11800 32.55500
H  50.60400 17.38200 26.13600
H  45.02100 14.65000 26.12800
H  46.05800 17.17700 34.03200
H  49.04400 16.59200 34.15200
H  47.21300 18.79700 34.94700
H  48.32000 19.26200 33.60300
H  49.04000 18.76600 35.10400
H  47.20900 14.39700 34.20300
H  45.68500 15.08700 34.91300
H  48.59900 15.12400 35.92400
H  47.10800 14.50800 36.67000
H  53.11600 18.69500 31.53400
H  51.78900 19.73800 31.74200
H  53.03300 20.29200 30.76200
H  53.32600 20.78600 28.36100
H  54.43300 19.85500 27.20200
H  54.20500 19.35300 28.86100
H  49.44800 15.51300 24.84900
H  46.43600 15.72500 24.45900
H  48.52900 18.21300 24.43500
H  47.78600 17.15700 23.19500
H  49.54900 17.16200 23.32700
H  46.70900 13.29500 25.11000
H  48.38000 13.47300 24.79500
H  46.97500 14.66200 22.38800
H  46.23100 13.08700 22.83800
H  47.94800 13.23900 22.39200
H  42.70600 12.87600 28.03200
H  42.93300 14.30600 26.96400
H  41.72400 14.37300 28.12100
H  44.51800 14.32900 32.99200
H  41.69100 17.10600 34.98400
H  43.31400 17.40900 35.80600
H  42.31200 16.15600 36.38300

