158

Mg 25.13600 1.50900 29.94500
C  27.10200 1.04400 32.86600
C  22.36600 1.28000 32.08900
C  23.24700 1.60100 27.29200
C  27.88500 0.59800 28.05000
N  24.85500 1.37700 32.23900
C  25.76800 1.25800 33.20400
C  25.19900 1.31700 34.67800
C  23.76200 1.18800 34.37200
C  23.60200 1.31000 32.79000
C  22.93600 -0.02300 34.92900
C  25.65800 2.57800 35.55600
C  26.18000 2.23600 36.97400
H  25.69300 3.09800 38.16600
N  23.03300 1.60400 29.75400
C  22.10800 1.50300 30.72300
C  20.84200 1.74600 30.00100
C  21.02700 1.74300 28.59000
C  22.47400 1.69900 28.47400
C  19.62900 2.11300 30.66800
C  20.09200 1.81400 27.45100
O  20.44200 1.80800 26.24000
C  18.59100 1.89100 27.75400
N  25.45600 0.73300 27.96600
C  24.57500 1.16800 27.03100
C  25.07600 1.14100 25.57700
C  26.58200 0.74200 25.83200
C  26.66500 0.75300 27.41500
C  24.24700 0.15200 24.71000
C  27.54200 1.69400 25.04200
C  28.04200 2.97900 25.80000
N  27.13500 1.05000 30.29500
C  28.13400 0.75100 29.42100
C  29.33600 0.68700 30.17300
C  28.97300 0.88000 31.52400
C  27.61900 1.06000 31.53600
C  30.63900 0.39200 29.58600
C  29.54300 0.68700 32.80500
O  30.67400 0.39000 33.22300
C  28.29800 0.87500 33.76500
C  28.39500 -0.30000 34.73500
O  27.83500 -1.42700 34.59700
O  29.03400 0.08100 35.81300
C  28.82400 -0.71400 37.06400
H  21.51400 1.21300 32.76900
H  22.81500 1.71400 26.29600
H  28.79400 0.48500 27.45700
H  25.52900 0.44300 35.24000
H  23.21000 2.08900 34.64000
H  22.22200 0.34200 35.66700
H  23.56900 -0.70900 35.49200
H  22.61300 -0.79900 34.23500
H  24.82800 3.28400 35.57900
H  26.54400 3.02300 35.10200
H  27.27000 2.22000 36.99100
H  25.85400 1.25800 37.32900
H  19.64800 2.05500 31.75600
H  18.96500 1.25500 30.56100
H  19.19700 3.04200 30.29600
H  18.05200 1.82700 26.80900
H  18.26300 2.80200 28.25500
H  18.26300 1.08600 28.41200
H  25.03900 2.12000 25.09900
H  26.76800 -0.31600 25.64300
H  23.34500 -0.11800 25.25900
H  24.81600 -0.72200 24.39300
H  23.83200 0.61200 23.81300
H  27.05300 2.03100 24.12800
H  28.47200 1.22900 24.71500
H  27.56500 2.91500 26.77800
H  27.69400 3.82100 25.20200
H  29.13100 2.95600 25.79600
H  31.48900 0.80100 30.13200
H  30.69400 0.79900 28.57600
H  30.66700 -0.68700 29.43400
H  28.32600 1.77400 34.37900
H  28.27200 -1.64600 36.94300
H  28.35200 -0.07400 37.81000
H  29.79100 -0.96900 37.49700
Mg 34.94800 2.72800 30.00100
C  32.77000 3.61800 32.57900
C  37.49700 2.94100 32.13200
C  36.89200 2.57600 27.29800
C  32.17800 3.14900 27.80500
N  35.08000 3.33200 32.10600
C  34.10700 3.43900 33.02500
C  34.69300 3.44500 34.45600
C  36.21500 3.51600 34.25800
C  36.28300 3.18700 32.71600
C  36.91300 4.84800 34.55200
C  34.19400 2.13500 35.16900
C  34.04800 2.24600 36.71200
H  34.86600 3.37200 37.36300
N  37.02100 2.68300 29.80500
C  37.87400 2.70400 30.78100
C  39.20800 2.36700 30.18300
C  39.00000 2.26500 28.78900
C  37.54700 2.47200 28.53300
C  40.42000 2.28900 31.07000
C  40.13600 2.15700 27.65100
O  39.88500 2.31600 26.46200
C  41.60200 1.82000 28.05700
N  34.52100 2.97700 27.88300
C  35.56700 2.80800 26.95300
C  34.98400 2.85600 25.52300
C  33.42500 2.68500 25.70800
C  33.34100 2.93700 27.22700
C  35.35000 4.11300 24.65300
C  32.96900 1.28800 25.35400
C  32.83000 0.10900 26.38700
N  32.88500 3.25000 30.13600
C  31.95200 3.32000 29.15400
C  30.67400 3.63900 29.73000
C  30.86000 3.79900 31.10900
C  32.26100 3.52600 31.27100
C  29.35500 4.00700 29.07600
C  30.32700 4.10200 32.44400
O  29.17000 4.44700 32.69800
C  31.49100 3.81000 33.44000
C  31.66200 4.98600 34.35200
O  32.19300 6.01800 34.00300
O  31.13900 4.83000 35.62100
C  31.29800 5.93800 36.60800
H  38.34700 3.02000 32.81300
H  37.58800 2.42100 26.47200
H  31.30500 3.25000 27.15600
H  34.28700 4.35500 34.90000
H  36.61100 2.66300 34.80800
H  37.62300 4.84700 35.37900
H  36.11400 5.58400 34.63900
H  37.37900 5.25000 33.65200
H  34.85800 1.34100 34.82800
H  33.23300 1.80700 34.77400
H  34.41500 1.34000 37.19500
H  33.01300 2.41000 37.01100
H  40.17400 2.59200 32.08700
H  41.19000 2.96000 30.68900
H  40.69700 1.23600 31.12100
H  41.59500 0.88400 28.61400
H  42.19500 2.62300 28.49500
H  41.98500 1.60300 27.06000
H  35.52100 2.00600 25.10100
H  32.83600 3.47000 25.23200
H  35.92400 3.88100 23.75600
H  36.03500 4.78000 25.17600
H  34.49900 4.66300 24.25100
H  33.67500 0.93700 24.60300
H  31.98500 1.28900 24.88600
H  33.49800 0.28300 27.23100
H  32.99400 -0.84100 25.87800
H  31.80600 0.11000 26.76000
H  28.95200 4.80600 29.69900
H  28.78700 3.09900 28.87600
H  29.46200 4.45200 28.08600
H  31.24000 2.97100 34.08800
H  31.72800 6.88000 36.27000
H  31.97300 5.46400 37.32100
H  30.39300 6.13200 37.18500

