158

Mg -2.36700 17.43500 26.54800
C  -3.18300 15.15400 29.17600
C  -2.45500 19.95700 28.79500
C  -2.20200 19.47800 23.92800
C  -2.92900 14.64100 24.22200
N  -2.77500 17.52700 28.76300
C  -3.03000 16.50500 29.62100
C  -3.00000 17.09200 31.03600
C  -2.82200 18.64800 30.83500
C  -2.75100 18.72100 29.40400
C  -3.98900 19.57300 31.40300
C  -1.96300 16.45400 31.99800
C  -1.57700 17.19100 33.23300
H  -1.11200 16.34100 34.43900
N  -2.23700 19.47400 26.38100
C  -2.28000 20.34300 27.42500
C  -2.06700 21.65500 26.85300
C  -1.99100 21.56700 25.39900
C  -2.17300 20.14000 25.20100
C  -1.97100 22.97200 27.75600
C  -1.77500 22.62200 24.42100
O  -1.71000 22.40800 23.22700
C  -1.72700 24.08200 24.79200
N  -2.73200 17.07100 24.36200
C  -2.48000 18.15700 23.55500
C  -2.53600 17.77300 22.05500
C  -2.67200 16.20800 22.13500
C  -2.76800 15.92400 23.69000
C  -3.70800 18.53200 21.32400
C  -1.50000 15.47500 21.54400
C  -0.16000 15.70000 22.30100
N  -2.97000 15.31900 26.61200
C  -3.04400 14.32000 25.59800
C  -3.33800 13.09400 26.25900
C  -3.41500 13.31500 27.66500
C  -3.20900 14.71300 27.82400
C  -3.46300 11.76700 25.55300
C  -3.56200 12.72800 28.97600
O  -3.78300 11.61300 29.36200
C  -3.54000 13.90700 30.01100
C  -2.34200 13.53400 30.85800
O  -1.17200 13.58100 30.50100
O  -2.72400 12.87400 32.01100
C  -1.70900 12.37800 32.90300
H  -2.35200 20.76000 29.52800
H  -2.00200 20.05600 23.02400
H  -2.98800 13.79900 23.53000
H  -4.00600 17.00900 31.44700
H  -1.96400 19.12000 31.31300
H  -4.51000 19.86000 30.48900
H  -3.55500 20.42300 31.92800
H  -4.69600 19.06900 32.06200
H  -1.00200 16.41600 31.48400
H  -2.35800 15.49200 32.32500
H  -2.33300 17.93500 33.48600
H  -0.71900 17.78900 32.92500
H  -1.04000 23.52900 27.64700
H  -1.93600 22.67100 28.80300
H  -2.80200 23.62800 27.49400
H  -2.60500 24.21700 25.42400
H  -1.79600 24.67300 23.87900
H  -0.80000 24.25500 25.33900
H  -1.55500 18.03300 21.65800
H  -3.53300 15.85900 21.56500
H  -4.51200 17.79600 21.32700
H  -3.51600 18.76000 20.27600
H  -4.03400 19.36400 21.94900
H  -1.36800 15.84000 20.52500
H  -1.75000 14.43400 21.34000
H  -0.06300 16.60900 22.89600
H  0.44800 15.93600 21.42800
H  0.26000 14.90200 22.91300
H  -4.12400 11.87300 24.69300
H  -3.79600 10.99200 26.24400
H  -2.62100 11.26700 25.07400
H  -4.44300 13.94200 30.62100
H  -2.11100 11.90000 33.79600
H  -1.20800 13.29900 33.20200
H  -0.97100 11.70600 32.46500
Mg -11.64800 16.28000 41.60800
C  -8.82600 14.25700 41.13700
C  -9.83800 18.96700 40.40400
C  -14.56100 18.02300 41.22700
C  -13.52900 13.48700 42.53400
N  -9.61700 16.54400 40.68500
C  -8.60200 15.58900 40.67300
C  -7.28900 16.25400 40.15600
C  -7.57800 17.75300 40.35100
C  -9.15400 17.77800 40.33500
C  -7.01700 18.30200 41.69300
C  -7.07800 15.80900 38.70400
C  -5.65000 15.43300 38.20600
H  -5.08300 16.17200 36.98100
N  -12.15700 18.22800 40.94000
C  -11.25300 19.17700 40.60600
C  -11.96600 20.43700 40.49400
C  -13.32600 20.19600 40.67000
C  -13.41200 18.76900 40.97200
C  -11.27100 21.67800 40.03200
C  -14.41200 21.28800 40.81500
O  -14.07800 22.41000 40.65800
C  -15.87000 20.99100 41.19900
N  -13.74900 15.73500 41.74700
C  -14.71200 16.67700 41.54900
C  -16.10200 16.08000 41.74600
C  -15.76800 14.85000 42.56700
C  -14.24000 14.63400 42.27800
C  -17.13400 16.95500 42.50400
C  -16.66400 13.68400 41.97800
C  -17.13900 12.73200 43.07600
N  -11.31800 14.27300 41.82000
C  -12.12700 13.26500 42.38600
C  -11.35500 12.13600 42.61800
C  -10.05800 12.48800 42.21900
C  -10.07200 13.72600 41.65400
C  -11.83200 10.88100 43.20300
C  -8.64400 12.07000 42.15400
O  -8.10700 11.09200 42.64200
C  -7.80300 13.15500 41.46500
C  -6.78400 13.71000 42.37700
O  -7.09400 14.20400 43.45100
O  -5.52500 13.71400 41.74300
C  -4.47100 14.33500 42.49600
H  -9.42000 19.92200 40.08100
H  -15.48800 18.56500 41.02900
H  -13.99800 12.60100 42.96800
H  -6.36500 16.02000 40.68500
H  -7.23600 18.35500 39.50900
H  -6.83400 17.46300 42.36400
H  -7.74800 19.00700 42.08800
H  -6.02600 18.72700 41.53200
H  -7.35500 16.61100 38.02100
H  -7.79800 14.99800 38.60300
H  -5.51600 14.35400 38.13100
H  -4.92500 15.57600 39.00700
H  -10.25700 21.58000 39.64200
H  -11.05800 22.28200 40.91400
H  -11.90100 22.24100 39.34400
H  -16.02500 20.29100 42.02000
H  -16.42400 20.70100 40.30600
H  -16.31400 21.93500 41.51600
H  -16.37500 15.94600 40.69900
H  -15.95200 14.87900 43.64200
H  -17.48100 16.50400 43.43400
H  -17.93500 17.05900 41.77200
H  -16.72700 17.93600 42.75000
H  -15.96500 13.11200 41.36700
H  -17.55300 14.14200 41.54700
H  -16.85900 11.68000 43.01800
H  -18.21200 12.57800 42.96300
H  -17.00600 13.15300 44.07200
H  -12.69400 10.42800 42.71300
H  -11.90800 11.15000 44.25700
H  -11.08200 10.11100 43.02100
H  -7.27700 12.81700 40.57200
H  -4.76400 15.12100 43.19200
H  -3.67900 14.79800 41.90700
H  -4.16500 13.40100 42.96800

