158

Mg 8.73500 48.14300 25.30700
C  6.62100 48.60400 28.06700
C  11.37400 49.15500 27.21000
C  10.62300 47.56000 22.73000
C  5.82900 47.89100 23.19800
N  8.95300 48.75200 27.40800
C  7.95700 48.91100 28.42200
C  8.56700 49.10700 29.78700
C  9.85500 49.86500 29.23600
C  10.11600 49.18600 27.85700
C  9.58100 51.40900 29.15500
C  8.76400 47.88600 30.65000
C  8.31400 48.11000 32.12800
H  8.23000 46.78300 32.99600
N  10.66900 48.32900 24.99700
C  11.62500 48.72400 25.87600
C  12.95000 48.60700 25.32600
C  12.81400 48.04100 24.03000
C  11.32700 47.96800 23.80100
C  14.26800 48.75800 26.15700
C  13.82000 47.65500 22.94500
O  13.53400 47.25000 21.80500
C  15.25900 47.99400 23.11400
N  8.20200 47.90200 23.23300
C  9.26500 47.52500 22.45100
C  8.74700 47.09300 21.04200
C  7.18300 47.00400 21.20200
C  7.02500 47.67800 22.60600
C  9.34900 47.89200 19.83900
C  6.59900 45.52400 21.16600
C  5.43700 45.17900 20.28400
N  6.71800 48.34600 25.54500
C  5.70000 48.19000 24.59200
C  4.44500 48.06800 25.37800
C  4.86200 48.22600 26.72000
C  6.17200 48.45300 26.76000
C  3.07900 47.67700 24.86100
C  4.31900 48.22400 27.98800
O  3.13500 48.07500 28.30800
C  5.43800 48.56300 28.96300
C  5.56000 47.35200 29.86600
O  6.12200 46.27900 29.62900
O  4.94400 47.66700 30.99500
C  4.67400 46.66000 32.05500
H  12.22300 49.35700 27.86700
H  11.23100 47.15600 21.91800
H  4.97900 47.55200 22.60200
H  7.81800 49.74600 30.25500
H  10.70200 49.68100 29.89700
H  9.97200 51.80200 28.21600
H  10.23100 51.79100 29.94200
H  8.55000 51.70000 29.35400
H  9.82700 47.64800 30.70000
H  8.26900 47.05600 30.14600
H  7.33900 48.59300 32.06600
H  8.99400 48.81700 32.60300
H  14.15000 48.49100 27.20800
H  14.62300 49.78800 26.12200
H  15.02300 48.03000 25.86200
H  15.79400 47.26200 23.71900
H  15.23900 48.99500 23.54400
H  15.84400 47.92200 22.19800
H  9.08500 46.06400 20.91900
H  6.72200 47.63600 20.44300
H  10.27500 48.40100 20.10500
H  8.59700 48.61800 19.53100
H  9.55000 47.20800 19.01400
H  6.48900 45.15100 22.18500
H  7.38700 44.95300 20.67500
H  5.65000 44.35200 19.60700
H  5.12200 45.96600 19.59800
H  4.56200 44.93100 20.88400
H  2.88500 47.86200 23.80400
H  2.45400 48.27000 25.52800
H  2.83000 46.68000 25.22600
H  5.34500 49.40900 29.64500
H  4.99700 47.09200 33.00200
H  5.13800 45.69200 31.86700
H  3.58900 46.56800 32.11100
Mg -10.02100 17.06000 40.95000
C  -6.48100 17.05000 41.12000
C  -10.00700 20.45600 40.30700
C  -13.35500 16.93500 40.25400
C  -9.93700 13.54100 40.84000
N  -8.42000 18.60000 40.70100
C  -7.03300 18.39600 40.78000
C  -6.31100 19.71600 40.30700
C  -7.45100 20.81800 40.69500
C  -8.68900 19.93600 40.53300
C  -7.24300 21.51500 42.16600
C  -5.74200 19.71100 38.81100
C  -4.25100 19.17200 38.65300
H  -3.92600 17.86400 37.87700
N  -11.51400 18.50700 40.43800
C  -11.26900 19.83200 40.23800
C  -12.50000 20.50800 40.08400
C  -13.54100 19.50200 39.92000
C  -12.82600 18.25800 40.24000
C  -12.53700 22.02200 39.94400
C  -14.93300 19.74500 39.56600
O  -15.32800 20.83800 39.34100
C  -15.94400 18.71000 39.50400
N  -11.40600 15.50100 40.37400
C  -12.79800 15.66000 40.23700
C  -13.64100 14.34000 40.37100
C  -12.50700 13.31700 40.56400
C  -11.15500 14.09200 40.46200
C  -14.86000 14.37800 41.35700
C  -12.54100 12.00300 39.59700
C  -12.62500 10.63100 40.24100
N  -8.56700 15.58800 41.00100
C  -8.69500 14.21300 41.04700
C  -7.43700 13.62700 41.39200
C  -6.60500 14.71700 41.38800
C  -7.27500 15.84600 41.12900
C  -7.01500 12.20700 41.63100
C  -5.19500 15.05000 41.54200
O  -4.19900 14.34000 41.66300
C  -5.07000 16.58700 41.41300
C  -4.52500 17.11900 42.74900
O  -3.72800 18.00000 42.86500
O  -5.12800 16.43500 43.75900
C  -5.05800 17.08800 45.08200
H  -9.90800 21.54300 40.28200
H  -14.42200 16.71600 40.17700
H  -9.74700 12.46700 40.88600
H  -5.42500 19.94200 40.90000
H  -7.34800 21.65500 40.00400
H  -7.54800 22.56100 42.13000
H  -6.25800 21.32500 42.59200
H  -7.95300 21.05100 42.85000
H  -5.70700 20.69900 38.35300
H  -6.49100 19.17500 38.22800
H  -3.76600 19.15200 39.62900
H  -3.65100 19.93800 38.16200
H  -13.33600 22.28600 39.25100
H  -11.65100 22.44700 39.47200
H  -12.69600 22.39300 40.95700
H  -15.67300 18.10800 38.63700
H  -16.83800 19.22800 39.15800
H  -16.08900 18.12600 40.41400
H  -14.01800 14.11900 39.37300
H  -12.58600 13.10500 41.63000
H  -15.72100 13.93900 40.85300
H  -15.07400 15.35500 41.79000
H  -14.63600 13.66300 42.14800
H  -11.68200 12.25400 38.97500
H  -13.48000 12.05400 39.04500
H  -13.52000 10.06100 39.98900
H  -12.49600 10.79000 41.31200
H  -11.77700 10.11000 39.79700
H  -7.85300 11.52200 41.49800
H  -6.83500 12.06100 42.69600
H  -6.11200 11.93300 41.08600
H  -4.46500 16.88700 40.55800
H  -4.71300 18.12100 45.05600
H  -4.41700 16.37800 45.60500
H  -6.00100 16.84900 45.57300

