158

Mg -2.26900 17.20900 27.49000
C  -2.64300 14.98800 30.32600
C  -2.68000 19.83400 29.66100
C  -1.92500 19.30100 24.88300
C  -2.27100 14.47300 25.49700
N  -2.72100 17.35900 29.73900
C  -2.67000 16.36600 30.67600
C  -2.79000 16.95400 32.08300
C  -2.89100 18.50300 31.82100
C  -2.73300 18.59200 30.30900
C  -4.15400 19.17500 32.44000
C  -1.64300 16.51700 33.03200
C  -1.22700 17.38300 34.24100
H  -0.96000 16.69600 35.59300
N  -2.16900 19.30100 27.32600
C  -2.40700 20.21400 28.28500
C  -2.05100 21.55500 27.78600
C  -1.76600 21.37200 26.43500
C  -1.93400 19.96400 26.17100
C  -2.22200 22.74700 28.64700
C  -1.49300 22.36100 25.33900
O  -1.42500 22.12900 24.11900
C  -1.30100 23.77200 25.75600
N  -2.18000 16.92500 25.51700
C  -2.05900 17.94300 24.61000
C  -1.91100 17.36300 23.13500
C  -1.59000 15.88000 23.41700
C  -2.03600 15.73300 24.87400
C  -3.27700 17.65700 22.28000
C  -0.18200 15.31000 23.05700
C  0.94900 16.10100 23.66500
N  -2.48500 15.16500 27.72100
C  -2.53700 14.14800 26.85600
C  -2.72800 12.90700 27.48600
C  -2.77800 13.14600 28.86200
C  -2.55700 14.54200 28.98300
C  -2.75100 11.66900 26.70700
C  -2.89800 12.52400 30.22400
O  -2.91500 11.40500 30.62800
C  -2.80400 13.76400 31.20400
C  -1.75400 13.49300 32.20200
O  -0.59100 13.53900 32.02300
O  -2.35200 13.12000 33.38600
C  -1.41600 12.59600 34.33600
H  -2.56400 20.57100 30.45800
H  -1.66000 19.75500 23.92600
H  -2.25600 13.63700 24.79400
H  -3.71300 16.52600 32.47400
H  -2.04200 19.03700 32.24900
H  -4.84600 19.38000 31.62300
H  -3.78100 20.08200 32.91500
H  -4.75800 18.54200 33.08900
H  -0.71400 16.37800 32.48000
H  -2.05100 15.63000 33.51800
H  -1.93900 18.20800 34.27300
H  -0.23500 17.80500 34.08400
H  -1.23900 23.19800 28.78300
H  -2.62300 22.50200 29.63000
H  -2.79900 23.53000 28.15500
H  -0.82200 23.69700 26.73200
H  -2.31100 24.14600 25.92500
H  -0.80700 24.30400 24.94300
H  -1.02300 17.82000 22.70000
H  -2.18500 15.13400 22.89100
H  -3.84700 18.44500 22.77100
H  -3.89400 16.76000 22.22000
H  -3.08000 17.91100 21.23800
H  -0.10700 15.59400 22.00800
H  -0.04500 14.23200 23.13800
H  0.66600 16.85500 24.40000
H  1.63600 16.56900 22.96000
H  1.52700 15.42400 24.29500
H  -3.73600 11.53400 26.26200
H  -2.48300 10.81400 27.32800
H  -2.03700 11.81400 25.89600
H  -3.76300 13.96400 31.68100
H  -0.99300 13.47800 34.81700
H  -0.59200 12.05200 33.87400
H  -1.91900 11.94600 35.05200
Mg 16.29800 -1.70700 27.74300
C  15.46500 0.48700 30.40300
C  18.26200 -3.44600 29.97000
C  17.66200 -3.37500 25.15000
C  14.36400 0.40200 25.59600
N  16.83400 -1.44500 29.96100
C  16.30600 -0.52700 30.84400
C  16.69100 -0.89700 32.34300
C  17.82500 -2.06700 32.14900
C  17.62500 -2.38400 30.59000
C  19.30200 -1.67600 32.42300
C  15.40000 -1.32200 33.19100
C  15.25600 -0.77500 34.58900
H  16.45700 -0.31600 35.42300
N  17.63300 -3.31200 27.62500
C  18.29300 -3.89200 28.66500
C  19.06500 -4.96100 28.16300
C  18.87800 -4.97600 26.67300
C  18.05100 -3.83100 26.43600
C  20.04600 -5.60900 28.94400
C  19.51400 -5.93800 25.65200
O  19.23100 -5.83700 24.46500
C  20.38900 -7.06900 26.15800
N  16.26900 -1.37000 25.68800
C  16.79100 -2.33300 24.85000
C  16.46400 -1.99100 23.39800
C  15.39200 -0.87400 23.56700
C  15.25800 -0.58000 25.05400
C  17.77500 -1.54200 22.61600
C  14.05300 -1.13500 22.79100
C  14.06500 -0.43300 21.43300
N  15.09900 -0.05200 27.89100
C  14.35300 0.71100 26.96000
C  13.57400 1.70400 27.59900
C  14.02900 1.66600 28.91700
C  14.94100 0.60900 29.04500
C  12.67700 2.64700 26.84000
C  13.85500 2.36100 30.18300
O  13.17300 3.32000 30.50300
C  14.64100 1.51500 31.28100
C  15.51500 2.46500 32.18800
O  16.67600 2.76800 31.99300
O  14.81100 2.94700 33.17300
C  15.45300 3.97500 34.01500
H  18.78400 -4.01000 30.74600
H  18.17700 -3.70200 24.24400
H  13.84400 1.07000 24.90500
H  17.06300 -0.07900 32.96100
H  17.58400 -2.98700 32.68100
H  19.68800 -2.32400 33.21000
H  19.16000 -0.66300 32.79700
H  19.92800 -1.68300 31.53000
H  15.24400 -2.39800 33.26800
H  14.59900 -0.82000 32.64800
H  14.75600 -1.47200 35.26200
H  14.52600 0.02500 34.46200
H  20.00300 -5.41700 30.01700
H  21.01700 -5.33700 28.53000
H  19.82500 -6.67200 28.85700
H  20.60800 -7.65500 25.26600
H  19.72500 -7.66900 26.77900
H  21.29900 -6.78300 26.68500
H  16.16600 -2.94500 22.96500
H  15.97300 -0.00600 23.25400
H  18.69400 -1.77600 23.15300
H  17.81800 -0.50100 22.29400
H  17.86300 -2.11700 21.69400
H  13.25400 -0.74900 23.42400
H  14.04700 -2.20200 22.56900
H  13.09400 0.04700 21.30300
H  14.06300 -1.19100 20.65000
H  14.86200 0.30700 21.36100
H  12.41800 3.51400 27.44700
H  11.86500 2.14600 26.31300
H  13.15600 3.06700 25.95600
H  13.95100 0.91700 31.87600
H  15.61000 4.88100 33.42900
H  16.36500 3.57400 34.45700
H  14.83400 4.19400 34.88500

