158

Mg 16.87800 52.02800 25.25900
C  18.73900 50.94600 27.99800
C  14.31600 52.91600 27.44600
C  15.33900 53.06500 22.53900
C  19.35000 50.52900 23.09300
N  16.52800 51.83100 27.51600
C  17.50300 51.51200 28.41000
C  17.01900 51.75100 29.78800
C  15.51300 52.30900 29.60600
C  15.41300 52.32400 28.10200
C  14.41200 51.31500 30.29700
C  17.88600 52.81400 30.52900
C  17.48600 53.36900 31.96700
H  16.47000 52.62500 32.86300
N  15.08500 52.89700 25.05600
C  14.17700 53.20600 26.06600
C  13.00000 53.67400 25.36500
C  13.35900 53.78200 23.98000
C  14.68500 53.21900 23.79600
C  11.68700 53.97400 26.07600
C  12.48600 54.27600 22.85300
O  12.85000 54.55300 21.72300
C  11.00300 54.56200 23.03500
N  17.36300 51.97200 23.10800
C  16.53000 52.44500 22.21800
C  17.08800 52.40700 20.78900
C  18.42500 51.75900 21.01700
C  18.43300 51.39100 22.51700
C  16.15200 51.72200 19.84100
C  19.53600 52.78700 20.70600
C  20.85600 52.19800 20.27700
N  18.63600 50.90300 25.44100
C  19.47900 50.31000 24.53800
C  20.58100 49.70800 25.24800
C  20.37600 49.91700 26.54800
C  19.13400 50.59800 26.64500
C  21.82700 49.04600 24.68300
C  20.94300 49.79100 27.90900
O  21.99300 49.33900 28.32000
C  19.91000 50.45900 28.89200
C  19.37700 49.60000 29.96800
O  18.68500 48.69000 29.71600
O  19.98400 49.88900 31.12400
C  19.38600 49.24100 32.34600
H  13.46900 53.35700 27.97500
H  14.80800 53.44400 21.66300
H  20.20400 50.27600 22.46200
H  17.00700 50.83400 30.37600
H  15.37900 53.30200 30.03400
H  13.70400 50.80700 29.64100
H  13.85700 51.91900 31.01400
H  14.85600 50.54000 30.92100
H  18.08000 53.64500 29.85100
H  18.85400 52.33600 30.67900
H  17.01500 54.34400 31.83400
H  18.35100 53.51000 32.61500
H  11.99200 54.36400 27.04700
H  11.10600 53.05600 26.16800
H  11.13800 54.82700 25.67700
H  10.96500 55.36200 23.77400
H  10.43300 53.67900 23.32600
H  10.65700 54.89700 22.05700
H  17.09300 53.45700 20.49900
H  18.56600 50.93400 20.31900
H  15.79600 50.88600 20.44300
H  16.65000 51.47700 18.90300
H  15.18200 52.21700 19.80300
H  19.72000 53.29300 21.65400
H  19.24800 53.50300 19.93600
H  21.21300 52.62400 19.33900
H  20.77200 51.11200 20.32600
H  21.58800 52.52800 21.01400
H  22.04000 49.23900 23.63200
H  21.55100 47.99600 24.59200
H  22.71700 49.12700 25.30800
H  20.26200 51.38100 29.35600
H  18.99900 48.23500 32.18500
H  18.45400 49.76800 32.55100
H  20.15800 49.21400 33.11500
Mg -2.25400 34.51700 27.01300
C  -4.36300 33.14100 29.46100
C  -1.21100 36.75600 29.42500
C  -0.62400 36.09000 24.57900
C  -3.79000 32.41800 24.69000
N  -2.87300 35.03100 29.13000
C  -3.54700 34.15300 29.98600
C  -3.31400 34.43600 31.48500
C  -2.55400 35.81000 31.42600
C  -2.23100 35.92500 29.89300
C  -3.39700 37.02900 31.99300
C  -2.66300 33.27300 32.38300
C  -3.51000 32.69700 33.54300
H  -2.76500 32.31300 34.80900
N  -0.97100 36.04500 26.98900
C  -0.66700 36.89000 28.08300
C  0.24500 37.93300 27.69500
C  0.33000 37.80700 26.28200
C  -0.42400 36.57500 25.88400
C  0.83000 38.96500 28.66700
C  1.04500 38.75100 25.30500
O  1.02300 38.48200 24.11500
C  1.80200 40.02900 25.76900
N  -2.31800 34.37300 24.87300
C  -1.49300 35.14900 24.08900
C  -1.44100 34.50600 22.62900
C  -2.20100 33.15200 22.85000
C  -2.76800 33.33100 24.21300
C  -2.20100 35.40100 21.56800
C  -1.29000 31.87700 22.92300
C  -1.88100 30.52000 22.21700
N  -3.75400 33.08700 26.96700
C  -4.27800 32.28700 26.00700
C  -5.18100 31.28100 26.56000
C  -5.20400 31.60900 27.97200
C  -4.35900 32.76500 28.14600
C  -5.84600 30.18800 25.79200
C  -5.74700 31.16300 29.16500
O  -6.43000 30.20900 29.53100
C  -5.20400 32.14800 30.24600
C  -6.28400 32.90000 30.94000
O  -6.87000 33.85800 30.52800
O  -6.54000 32.27700 32.10600
C  -7.72700 32.70200 32.89800
H  -0.68600 37.42900 30.10700
H  0.06500 36.49400 23.83400
H  -4.14800 31.60400 24.05600
H  -4.30500 34.62900 31.89400
H  -1.66400 35.77700 32.05300
H  -4.44700 36.98500 31.70200
H  -2.93600 37.82200 31.40400
H  -3.34000 37.15100 33.07500
H  -1.64300 33.58100 32.61000
H  -2.52700 32.37700 31.77600
H  -4.02100 31.80500 33.18000
H  -4.30800 33.40600 33.76200
H  0.81000 40.00600 28.34700
H  1.86300 38.61800 28.62200
H  0.52000 39.10400 29.70300
H  1.15200 40.85000 26.07000
H  2.40500 40.20900 24.87900
H  2.55200 39.80700 26.52800
H  -0.40900 34.33900 22.32200
H  -2.97000 32.95500 22.10400
H  -2.42800 36.40700 21.92000
H  -3.14600 34.95700 21.25200
H  -1.60700 35.53700 20.66400
H  -1.03800 31.62900 23.95400
H  -0.36100 32.10800 22.40200
H  -2.80700 30.71900 21.67800
H  -2.23000 29.73300 22.88600
H  -1.05400 30.23400 21.56700
H  -5.53300 29.40600 26.48400
H  -5.54000 30.17100 24.74600
H  -6.91600 30.39700 25.79900
H  -4.60900 31.60500 30.98000
H  -8.14400 31.80100 33.34800
H  -8.55100 33.10500 32.30900
H  -7.58300 33.43300 33.69400

