158

Mg 23.66000 -5.54300 47.26900
C  25.79800 -3.19700 45.69900
C  21.22600 -4.51600 45.09700
C  21.75200 -8.19700 48.46300
C  26.37500 -6.70300 49.00900
N  23.55500 -4.00200 45.53200
C  24.52800 -3.12600 45.13100
C  24.06500 -2.22700 43.95100
C  22.50600 -2.63500 43.94400
C  22.39700 -3.74400 44.91700
C  21.55000 -1.44100 44.28200
C  24.76600 -2.43200 42.51400
C  25.42500 -1.22200 41.73400
H  25.19500 -1.14100 40.19800
N  21.73000 -6.19400 46.90700
C  20.89300 -5.59100 45.98500
C  19.65900 -6.38200 45.82000
C  19.73500 -7.37200 46.87900
C  21.03300 -7.30100 47.50300
C  18.54300 -6.12100 44.78700
C  18.63700 -8.36100 47.12000
O  17.62100 -8.57300 46.39300
C  18.83300 -9.25400 48.26600
N  24.01300 -7.17300 48.54900
C  23.09900 -8.17500 48.89200
C  23.67700 -9.21400 49.92800
C  25.01500 -8.50200 50.31400
C  25.16500 -7.39400 49.21600
C  22.79500 -9.51700 51.14800
C  26.26100 -9.51300 50.34000
C  26.98600 -9.58500 51.62500
N  25.69000 -5.15600 47.26500
C  26.63800 -5.66100 48.05600
C  27.85400 -4.95800 47.87800
C  27.53600 -3.96500 46.92900
C  26.23400 -4.11400 46.61600
C  29.18200 -5.18900 48.46800
C  28.09600 -2.87900 46.17000
O  29.22600 -2.51200 46.14400
C  27.00100 -2.41400 45.26800
C  26.84300 -0.95800 45.31900
O  26.07600 -0.33200 46.04700
O  27.53200 -0.40900 44.25300
C  27.27500 0.98000 43.86500
H  20.49700 -4.17800 44.35700
H  21.20300 -9.03700 48.89500
H  27.14400 -7.02200 49.71600
H  24.18600 -1.17900 44.22700
H  22.20700 -2.97900 42.95400
H  22.04000 -0.65300 44.85300
H  20.68500 -1.75700 44.86400
H  21.10400 -1.00500 43.38800
H  23.95000 -2.89200 41.95700
H  25.55700 -3.16400 42.67400
H  26.49600 -1.14300 41.91800
H  25.00600 -0.33900 42.21800
H  18.53200 -6.95500 44.08500
H  18.54600 -5.09900 44.40600
H  17.65300 -6.23000 45.40600
H  17.86500 -9.73500 48.40900
H  19.08100 -8.69200 49.16600
H  19.57000 -9.95200 47.86900
H  23.85400 -10.15100 49.40100
H  24.85200 -7.97200 51.25200
H  22.10100 -8.69100 51.30500
H  23.41600 -9.90200 51.95600
H  22.14100 -10.32600 50.82000
H  27.00600 -9.10300 49.65800
H  26.03800 -10.55100 50.09100
H  27.72800 -8.78700 51.65400
H  27.56200 -10.51000 51.61400
H  26.25800 -9.62800 52.43600
H  29.67200 -5.80100 47.71100
H  29.04200 -5.79300 49.36500
H  29.79200 -4.29000 48.55000
H  27.40600 -2.62200 44.27800
H  27.96300 1.35800 43.10900
H  27.22200 1.70300 44.67900
H  26.26600 0.93200 43.45500
Mg 1.77000 42.66100 25.89900
C  2.78800 42.50200 29.34100
C  -1.25900 41.19500 26.87800
C  0.97200 42.35000 22.55700
C  4.95400 43.59000 25.07100
N  0.85800 42.01900 27.89200
C  1.41400 42.19000 29.17600
C  0.32500 41.75800 30.26400
C  -0.86100 41.15000 29.40100
C  -0.43100 41.53200 27.95300
C  -1.17800 39.61300 29.63400
C  -0.09200 42.97000 31.14800
C  -0.04700 42.79500 32.71700
H  -0.65600 41.56500 33.44800
N  0.11400 41.90300 24.88900
C  -1.02900 41.40200 25.47700
C  -1.95200 41.05900 24.41800
C  -1.41800 41.46200 23.11800
C  -0.02800 41.95600 23.49600
C  -3.29200 40.48700 24.63900
C  -1.96000 41.38800 21.67900
O  -1.37200 41.91400 20.78000
C  -3.20600 40.62800 21.43000
N  2.91500 42.78400 24.08200
C  2.30900 42.68700 22.82500
C  3.30700 43.20400 21.76100
C  4.40400 43.91400 22.57000
C  4.11500 43.34200 24.00500
C  3.80300 42.18400 20.69300
C  4.26500 45.47900 22.53700
C  2.94900 46.15500 22.75600
N  3.53300 43.06800 26.97800
C  4.79100 43.38300 26.43900
C  5.75900 43.40200 27.56700
C  5.00400 43.08200 28.72400
C  3.66700 42.92500 28.31400
C  7.19600 43.64900 27.43900
C  5.03800 42.93300 30.20400
O  5.96000 43.00400 30.98000
C  3.64100 42.51900 30.66100
C  3.70400 41.12800 31.24900
O  4.33300 40.20000 30.84000
O  3.09800 41.13200 32.50200
C  3.12800 39.82100 33.11900
H  -2.14600 40.59900 27.10200
H  0.69700 42.34400 21.50000
H  5.94900 43.98500 24.85400
H  0.82400 40.98600 30.85000
H  -1.73700 41.75800 29.62800
H  -2.18100 39.42200 30.01600
H  -0.47400 39.24400 30.38000
H  -1.02400 39.10600 28.68100
H  -1.12000 43.25400 30.92200
H  0.52600 43.85800 31.01800
H  -0.47300 43.71400 33.12100
H  0.97500 42.86700 33.08900
H  -3.54900 39.61300 24.04100
H  -4.07200 41.24500 24.56300
H  -3.31400 39.97400 25.60000
H  -3.30300 40.56500 20.34600
H  -4.02400 40.88600 22.10200
H  -2.97400 39.58400 21.64100
H  2.93600 43.97700 21.08800
H  5.44900 43.74000 22.31300
H  3.91500 41.21500 21.17800
H  4.64100 42.58100 20.11900
H  3.02400 41.92900 19.97500
H  4.57200 45.67000 21.50900
H  4.99000 45.81900 23.27700
H  3.00500 46.80500 23.62900
H  2.14900 45.44800 22.97400
H  2.69500 46.74100 21.87300
H  7.34000 44.71700 27.60300
H  7.42300 43.40800 26.40000
H  7.77200 43.13000 28.20500
H  3.28900 43.17900 31.45400
H  3.05400 40.06100 34.18000
H  4.02600 39.22100 32.97200
H  2.30800 39.19400 32.77100

