158

Mg 17.30100 -1.30800 27.51000
C  16.43500 0.55500 30.33200
C  19.02100 -3.49300 29.64300
C  18.34600 -2.94100 24.81400
C  15.75100 1.14600 25.55700
N  17.77500 -1.36500 29.65300
C  17.28400 -0.50700 30.60400
C  17.78400 -0.91100 32.02300
C  18.73600 -2.10300 31.73000
C  18.47100 -2.41100 30.27700
C  20.22700 -1.73800 32.08200
C  16.54600 -1.24100 33.01500
C  16.44200 -0.62700 34.41400
H  17.76200 -0.10500 35.09600
N  18.54800 -3.03900 27.18100
C  19.04400 -3.83300 28.25900
C  19.68000 -4.90900 27.57400
C  19.64700 -4.76400 26.19500
C  18.78400 -3.63400 25.98700
C  20.25900 -6.07700 28.37500
C  20.26100 -5.53800 25.05000
O  20.09400 -5.13400 23.91100
C  21.07500 -6.78800 25.28000
N  17.13500 -0.92700 25.47100
C  17.65300 -1.77100 24.57400
C  17.38100 -1.23300 23.22000
C  16.23200 -0.14200 23.38400
C  16.43200 0.12600 24.90500
C  18.63500 -0.54700 22.54900
C  14.74200 -0.60600 22.99000
C  14.01300 -0.11900 21.66600
N  16.15100 0.43300 27.84700
C  15.53500 1.32700 26.97000
C  14.76600 2.27700 27.75200
C  15.09000 1.99000 29.05400
C  15.92700 0.90400 29.04900
C  13.80600 3.35300 27.18200
C  14.86000 2.40900 30.37300
O  14.07900 3.24500 30.89700
C  15.77000 1.54200 31.22400
C  16.72400 2.39200 31.99200
O  17.82800 2.70000 31.64500
O  15.98200 2.96100 33.06000
C  16.73600 4.03400 33.76700
H  19.61100 -4.17700 30.25600
H  18.76500 -3.39200 23.91200
H  15.11900 1.80100 24.95400
H  18.31800 -0.06300 32.45100
H  18.43100 -3.00100 32.26600
H  20.78800 -2.32100 31.35200
H  20.41600 -2.29300 33.00100
H  20.58800 -0.71100 32.11600
H  16.59600 -2.30500 33.24700
H  15.60700 -1.01900 32.50800
H  16.00500 -1.33500 35.11700
H  15.84700 0.28400 34.34400
H  21.32400 -5.92700 28.19800
H  19.94200 -7.07100 28.06000
H  19.91300 -6.07600 29.40800
H  21.50100 -7.17900 24.35600
H  20.55000 -7.61300 25.76200
H  21.82700 -6.39100 25.96200
H  17.01400 -2.02600 22.56900
H  16.66400 0.64400 22.76500
H  19.42200 -0.67300 23.29300
H  18.57800 0.44000 22.09000
H  18.87800 -1.18400 21.69900
H  14.10900 -0.34000 23.83700
H  14.77200 -1.69200 22.89500
H  13.18500 0.46900 22.06100
H  13.58400 -0.90000 21.03800
H  14.55700 0.64500 21.10900
H  12.89100 2.95000 26.74800
H  14.30800 4.01300 26.47500
H  13.44900 3.98500 27.99500
H  15.07200 1.06500 31.91300
H  16.22400 4.99600 33.74900
H  17.73600 4.28300 33.41300
H  16.90100 3.75900 34.80900
Mg 9.42500 48.45300 24.64000
C  7.33800 48.70100 27.46500
C  11.94600 49.75800 26.66500
C  11.48500 48.30100 22.01500
C  6.69800 47.57400 22.71900
N  9.54500 49.24600 26.74500
C  8.58000 49.26600 27.69900
C  9.06900 49.79300 29.04200
C  10.37900 50.60000 28.57500
C  10.69200 49.86900 27.21400
C  10.29700 52.09000 28.44000
C  9.34600 48.63900 30.00300
C  8.83700 48.77900 31.48100
H  8.93300 47.53600 32.33200
N  11.46400 48.95000 24.36100
C  12.35400 49.37400 25.33200
C  13.70000 49.38800 24.72700
C  13.53800 48.89300 23.41300
C  12.08300 48.74400 23.18400
C  15.02600 49.79200 25.41400
C  14.63100 48.36900 22.46600
O  14.36300 47.66400 21.44900
C  16.07200 48.53500 22.70200
N  9.08200 48.15100 22.58000
C  10.12800 48.04600 21.71900
C  9.72800 47.39700 20.42400
C  8.21400 47.26600 20.57600
C  7.91300 47.73600 22.04800
C  10.02000 48.18600 19.17200
C  7.86500 45.75900 20.48400
C  8.32100 44.80400 21.57900
N  7.42200 48.14900 25.02100
C  6.42200 47.78300 24.11800
C  5.23800 47.62200 24.79000
C  5.59200 47.89900 26.13000
C  6.89200 48.24400 26.24500
C  3.82000 47.35000 24.22000
C  5.00800 47.98900 27.47900
O  3.86000 47.75200 27.80100
C  6.17600 48.37300 28.44400
C  6.40400 47.16900 29.30000
O  7.04800 46.20400 28.97000
O  5.73400 47.27400 30.47100
C  5.50600 46.03200 31.31100
H  12.69300 50.22400 27.31100
H  12.12400 48.05700 21.16300
H  5.86400 47.27200 22.08200
H  8.36200 50.49300 29.48800
H  11.16500 50.40900 29.30600
H  10.54500 52.52400 27.47100
H  11.07500 52.43500 29.12000
H  9.37900 52.61700 28.70300
H  10.42100 48.48200 30.09700
H  8.95700 47.67000 29.68800
H  7.80400 49.12700 31.48900
H  9.56200 49.48600 31.88400
H  14.78800 50.18400 26.40200
H  15.62600 50.54600 24.90400
H  15.53700 48.84200 25.57200
H  16.45400 49.46800 23.11600
H  16.58500 48.24000 21.78600
H  16.33900 47.82900 23.48800
H  10.27800 46.45800 20.49100
H  7.73400 47.85400 19.79400
H  10.34600 49.20600 19.37400
H  9.13100 48.21700 18.54300
H  10.91100 47.83200 18.65200
H  8.27300 45.39200 19.54300
H  6.79100 45.69800 20.30900
H  8.54800 45.32700 22.50800
H  9.18700 44.25700 21.20500
H  7.54900 44.05500 21.75500
H  4.04600 46.68200 23.38800
H  3.35200 48.27600 23.88700
H  3.16900 46.85100 24.93700
H  5.87300 49.25600 29.00500
H  5.95700 46.20200 32.28800
H  5.97800 45.16700 30.84600
H  4.45200 45.75400 31.32800

