158

Mg 35.16500 3.28200 30.41500
C  32.76500 4.17400 32.74100
C  37.52600 3.15400 33.09000
C  37.75200 2.94400 28.34200
C  32.99300 3.72700 27.84800
N  35.16500 3.65500 32.66900
C  34.00600 3.96200 33.34800
C  34.27100 3.83100 34.87600
C  35.83200 3.75000 34.98300
C  36.20200 3.49400 33.49500
C  36.58900 5.05000 35.49100
C  33.53700 2.57500 35.50500
C  32.94300 2.74100 36.87000
H  33.51900 3.74500 37.90600
N  37.21800 2.77100 30.69700
C  38.01800 2.79600 31.81100
C  39.40900 2.44800 31.47300
C  39.49600 2.33000 30.04600
C  38.13300 2.67500 29.65000
C  40.48200 2.33600 32.49500
C  40.68200 1.98100 29.12100
O  40.64200 1.94400 27.87600
C  42.05600 1.76900 29.63200
N  35.35000 3.14500 28.39400
C  36.52200 3.17800 27.72400
C  36.28000 3.24200 26.16800
C  34.65600 3.08500 26.08600
C  34.29000 3.26400 27.53200
C  36.74600 4.56600 25.62200
C  34.16800 1.81100 25.45500
C  32.91800 1.88300 24.63600
N  33.26100 3.81700 30.30300
C  32.46700 3.94700 29.16700
C  31.16000 4.34500 29.57300
C  31.20000 4.38700 31.00800
C  32.52000 4.12800 31.41400
C  30.06900 4.54100 28.60900
C  30.47900 4.70300 32.19800
O  29.33000 5.06800 32.24600
C  31.40100 4.45400 33.40100
C  31.42500 5.71900 34.25400
O  31.93000 6.80200 33.94700
O  30.73900 5.48800 35.43200
C  30.81100 6.63700 36.36200
H  38.33500 3.17400 33.82300
H  38.54600 2.92000 27.59200
H  32.37500 3.74400 26.94800
H  33.83800 4.68100 35.40400
H  36.23900 2.95200 35.60400
H  35.88200 5.75400 35.93000
H  37.03400 5.58500 34.65200
H  37.24300 4.73300 36.30400
H  34.24500 1.74600 35.50400
H  32.67400 2.30600 34.89700
H  33.09900 1.79200 37.38300
H  31.87200 2.92900 36.78600
H  41.21700 1.54600 32.34100
H  40.00100 1.90700 33.37400
H  40.91500 3.31000 32.72400
H  42.24200 2.57500 30.34100
H  42.87600 1.67600 28.91900
H  41.94900 0.84700 30.20300
H  36.86400 2.38000 25.84700
H  34.30600 3.80800 25.34800
H  37.19600 5.24700 26.34500
H  35.92300 5.10600 25.15300
H  37.47500 4.41100 24.82700
H  34.03400 1.03400 26.20800
H  34.89800 1.38400 24.76800
H  32.12200 1.28500 25.08100
H  33.19800 1.64600 23.60900
H  32.49500 2.88800 24.64500
H  29.63100 3.54300 28.59600
H  30.40500 4.84700 27.61800
H  29.35800 5.26400 29.00900
H  31.11100 3.57400 33.97600
H  30.64400 7.55700 35.80200
H  31.83000 6.66400 36.74700
H  30.06600 6.36900 37.11200
Mg 41.06700 9.90300 30.28800
C  42.91300 10.51100 33.15100
C  38.68600 8.25700 32.30600
C  39.51300 8.83800 27.50100
C  43.62800 11.09800 28.29700
N  40.84700 9.45400 32.51800
C  41.76600 9.82500 33.48900
C  41.23700 9.38100 34.87000
C  40.06900 8.38600 34.50700
C  39.84300 8.73700 32.99500
C  40.22900 6.83600 34.76700
C  40.87200 10.65100 35.80500
C  41.43400 10.86400 37.19500
H  40.80300 12.00200 38.08100
N  39.27700 8.76200 29.91300
C  38.40100 8.33100 30.93900
C  37.32900 7.68100 30.28300
C  37.40200 7.94600 28.89300
C  38.80600 8.54700 28.68200
C  36.30400 6.88100 30.98100
C  36.43900 7.61100 27.74800
O  36.61900 7.84100 26.58600
C  35.06300 7.03700 28.12100
N  41.54800 10.00300 28.24400
C  40.74200 9.44800 27.29200
C  41.25400 9.69200 25.88500
C  42.33100 10.74900 26.15700
C  42.51900 10.65000 27.62800
C  41.73400 8.34500 25.30300
C  41.98000 12.13700 25.70200
C  40.70600 12.72100 26.34600
N  42.87800 10.68100 30.64200
C  43.83200 11.11700 29.73500
C  44.93200 11.70300 30.42700
C  44.60900 11.52900 31.76200
C  43.36300 10.83600 31.85000
C  46.12600 12.28500 29.98100
C  45.06300 11.75400 33.18400
O  46.11800 12.32000 33.59300
C  43.97700 11.12400 34.10900
C  44.70900 10.20100 34.96200
O  45.04000 9.08400 34.59700
O  44.88600 10.80500 36.22500
C  45.59200 9.98700 37.20200
H  37.99200 7.67900 32.92000
H  38.90200 8.66500 26.61300
H  44.45300 11.61200 27.79800
H  42.03700 8.82800 35.36300
H  39.24700 8.81600 35.08000
H  40.35100 6.27600 33.84000
H  39.31300 6.51600 35.26400
H  41.01500 6.74300 35.51700
H  39.80800 10.64600 36.04300
H  41.11600 11.48800 35.15200
H  42.45900 11.20600 37.05300
H  41.59200 9.94800 37.76400
H  35.29900 7.29600 30.90600
H  36.49600 6.89300 32.05400
H  36.24100 5.86800 30.58500
H  34.28700 7.18800 27.37000
H  34.80500 7.73000 28.92200
H  35.07200 6.01900 28.51100
H  40.44000 10.15400 25.32600
H  43.25900 10.57500 25.61200
H  41.41200 7.43200 25.80400
H  42.80900 8.26700 25.13900
H  41.30800 8.34100 24.30000
H  41.86600 12.14800 24.61800
H  42.90300 12.69500 25.85500
H  40.92900 13.68700 26.79900
H  40.18900 12.14200 27.11200
H  39.89400 12.76300 25.62100
H  45.96300 13.20500 29.41900
H  46.68100 11.49600 29.47300
H  46.76500 12.56400 30.81900
H  43.60300 11.97600 34.67800
H  45.17400 8.99000 37.06300
H  45.44500 10.34400 38.22100
H  46.67500 9.97300 37.07900

