158

Mg 47.38800 25.43600 28.84600
C  48.68800 27.51200 31.42000
C  46.79000 22.93200 31.19500
C  46.53600 23.38700 26.34500
C  48.70700 27.64400 26.58500
N  47.73100 25.25100 31.05800
C  48.07800 26.32200 31.94200
C  47.91400 25.91900 33.42100
C  47.43400 24.39400 33.33100
C  47.33100 24.13400 31.75700
C  48.55200 23.33200 33.92500
C  46.88600 26.81400 34.09000
C  46.67400 26.28100 35.52400
H  46.53200 27.25500 36.76200
N  46.79100 23.35000 28.75300
C  46.52200 22.53100 29.83300
C  45.98600 21.30000 29.30700
C  45.88800 21.45100 27.89000
C  46.46900 22.76900 27.60300
C  45.68100 20.07000 30.11000
C  45.29500 20.53100 26.92400
O  45.45600 20.69700 25.70500
C  44.57800 19.34100 27.32700
N  47.61600 25.46300 26.73400
C  47.06500 24.56300 25.85900
C  46.99800 25.11000 24.40100
C  47.60700 26.52500 24.57100
C  48.02100 26.52400 26.02600
C  47.55700 24.21100 23.26700
C  46.70800 27.70300 24.11500
C  46.46100 27.78400 22.57600
N  48.45700 27.23600 28.87100
C  49.00300 28.04600 27.89500
C  49.74600 29.20600 28.36700
C  49.60700 28.98600 29.78000
C  48.83100 27.85400 30.00400
C  50.33600 30.27000 27.59300
C  49.96500 29.61900 31.08100
O  50.53700 30.65800 31.37600
C  49.17800 28.71100 32.16800
C  50.12600 28.37200 33.24600
O  51.04900 27.60300 33.23600
O  49.84500 29.19400 34.35400
C  50.81000 29.10600 35.46600
H  46.44300 22.14100 31.86300
H  46.03600 22.92400 25.49100
H  49.18500 28.29900 25.85300
H  48.82600 26.09500 33.99200
H  46.56400 24.33600 33.98400
H  49.47800 23.89000 34.06900
H  48.61300 22.40800 33.35000
H  48.28100 23.03900 34.94000
H  45.92300 26.81800 33.58000
H  47.35600 27.79300 34.18700
H  47.46200 25.59300 35.83000
H  45.73100 25.73600 35.49900
H  44.61000 19.90800 29.99100
H  45.98300 20.10600 31.15700
H  46.28200 19.33200 29.57800
H  43.67000 19.53700 27.89800
H  45.27700 18.68700 27.84800
H  44.28200 18.76100 26.45300
H  45.92300 25.27800 24.32800
H  48.55200 26.52500 24.02800
H  48.32500 23.54200 23.65400
H  47.82400 24.74400 22.35500
H  46.71400 23.56000 23.03800
H  47.17900 28.64300 24.40300
H  45.85900 27.48700 24.76300
H  47.33700 27.40100 22.05100
H  46.33000 28.84000 22.34300
H  45.56500 27.27400 22.22300
H  49.95800 31.22000 27.97100
H  50.09700 30.13300 26.53800
H  51.40300 30.33800 27.80500
H  48.43600 29.37500 32.61200
H  51.77200 29.49200 35.12900
H  50.77900 28.10500 35.89800
H  50.46200 29.79800 36.23300
Mg 49.56800 35.47800 27.44000
C  47.54100 34.15800 29.97400
C  50.26600 38.15200 29.40000
C  51.42900 36.64500 24.79100
C  48.45600 32.83300 25.32100
N  48.97900 36.03600 29.44200
C  48.22000 35.31200 30.31800
C  48.22500 35.96900 31.62700
C  48.61600 37.46000 31.30100
C  49.35800 37.24000 30.00400
C  47.40300 38.36100 31.11700
C  49.15000 35.33300 32.70200
C  48.80000 35.30500 34.24700
H  47.94100 36.47900 34.69100
N  50.78000 37.19200 27.21300
C  50.89800 38.12500 28.14100
C  51.80300 39.13200 27.55600
C  52.24700 38.63900 26.28300
C  51.47600 37.45800 26.01600
C  52.17400 40.35600 28.38200
C  53.27500 39.27500 25.33200
O  53.58700 38.77200 24.24200
C  54.12000 40.47600 25.83800
N  49.72100 34.90800 25.34100
C  50.71600 35.48400 24.52100
C  50.77000 34.75500 23.16500
C  49.88200 33.51000 23.35900
C  49.36600 33.73500 24.78600
C  50.36600 35.63600 21.92800
C  50.68500 32.10200 23.24400
C  50.10100 31.05700 22.24500
N  48.21700 33.84300 27.56300
C  47.95900 32.85700 26.62700
C  47.06600 31.91900 27.18300
C  46.80400 32.39100 28.47800
C  47.65600 33.47300 28.70600
C  46.43100 30.70400 26.51800
C  45.96700 32.19600 29.66600
O  45.07200 31.35300 29.78500
C  46.39200 33.33800 30.63200
C  46.75900 32.66500 31.94000
O  47.84400 32.15800 32.06300
O  45.76800 32.79900 32.85000
C  46.10100 32.21000 34.18100
H  50.50200 38.92800 30.13100
H  51.98700 36.95300 23.90500
H  48.07700 32.12500 24.58200
H  47.19200 35.78400 31.92300
H  49.30300 37.93700 31.99900
H  47.11900 38.25300 30.07000
H  47.64200 39.41500 31.26200
H  46.55100 38.06500 31.72900
H  50.12400 35.81600 32.62300
H  49.18700 34.28300 32.41300
H  49.78200 35.43700 34.70200
H  48.44400 34.32300 34.55800
H  53.22500 40.19800 28.62200
H  51.64500 40.57300 29.31000
H  51.95800 41.27200 27.83300
H  53.56000 41.38700 26.05000
H  54.98300 40.71300 25.21700
H  54.61700 40.16300 26.75600
H  51.84100 34.60000 23.03200
H  49.01700 33.67000 22.71600
H  50.45100 36.72000 21.99900
H  49.34500 35.39300 21.63500
H  51.09900 35.35600 21.17200
H  50.72500 31.59100 24.20600
H  51.70000 32.43900 23.03500
H  49.34500 31.54400 21.62900
H  49.67200 30.18600 22.73800
H  50.93700 30.76400 21.61000
H  46.53900 29.79100 27.10400
H  46.72900 30.45100 25.50100
H  45.38900 30.95800 26.32300
H  45.55400 34.01600 30.79700
H  47.17100 32.11500 34.36900
H  45.74500 31.20000 34.38300
H  45.60900 32.91300 34.85200

