158

Mg 49.16600 45.83900 43.61700
C  45.85100 46.68300 42.57500
C  48.50500 42.65400 42.11600
C  52.41000 45.12300 43.58200
C  49.65700 49.00800 44.62600
N  47.37200 44.83200 42.51900
C  46.13400 45.40500 42.15700
C  45.25600 44.45800 41.29900
C  46.08000 43.11200 41.23900
C  47.38000 43.50800 42.04500
C  45.41200 41.76400 41.57600
C  44.94600 45.05500 39.91300
C  43.68200 44.54200 39.14800
H  43.97700 43.19500 38.29300
N  50.29300 44.03500 43.11200
C  49.84200 42.83500 42.54600
C  50.98000 41.87700 42.46100
C  52.12200 42.57900 42.95200
C  51.63500 43.99700 43.22100
C  50.66900 40.50900 41.94700
C  53.60600 41.93500 42.98400
O  53.81000 40.76300 42.61300
C  54.80300 42.80300 43.38400
N  50.86900 46.94500 43.83900
C  52.14300 46.47300 43.88200
C  53.14800 47.50300 44.40700
C  52.23100 48.76500 44.79000
C  50.82900 48.25500 44.42500
C  54.09700 47.01800 45.49500
C  52.66400 50.09200 44.18900
C  52.29600 51.35700 44.95000
N  47.99400 47.51000 43.72800
C  48.28600 48.72900 44.28700
C  47.07600 49.60000 44.24800
C  46.12200 48.78000 43.67700
C  46.72500 47.57400 43.25200
C  47.00800 51.00100 44.82600
C  44.73700 48.67800 43.35900
O  43.91200 49.55100 43.59300
C  44.43500 47.37400 42.55700
C  43.45400 46.52800 43.33900
O  43.61500 46.05700 44.45200
O  42.42500 46.24600 42.49300
C  41.49600 45.21800 42.95000
H  48.20400 41.69900 41.68100
H  53.46200 44.83100 43.58900
H  49.90400 50.00900 44.98600
H  44.25200 44.22000 41.65100
H  46.49300 43.06500 40.23200
H  45.57100 41.08000 40.74300
H  44.38200 41.91300 41.90000
H  45.93300 41.22100 42.36500
H  45.80300 44.88400 39.26200
H  44.84500 46.13100 40.05500
H  43.29600 45.39200 38.58500
H  42.99200 44.21400 39.92500
H  50.09800 40.47900 41.01900
H  50.34100 39.77700 42.68500
H  51.67000 40.14700 41.71200
H  54.67400 43.30100 44.34600
H  54.88400 43.58600 42.63000
H  55.71500 42.20900 43.33900
H  53.70000 47.74200 43.49800
H  52.27400 48.87700 45.87400
H  53.59700 46.76900 46.43200
H  54.87100 47.74100 45.75100
H  54.69700 46.15300 45.21100
H  52.18900 50.27600 43.22500
H  53.72500 50.07300 43.93800
H  51.58700 51.99600 44.42300
H  53.22100 51.92900 45.01800
H  51.85600 51.17600 45.93000
H  46.35600 51.56000 44.15500
H  48.00800 51.42900 44.75900
H  46.51700 50.97700 45.79900
H  43.94700 47.57300 41.60300
H  41.89400 44.29000 43.36000
H  40.84000 44.93300 42.12800
H  40.90000 45.72800 43.70700
Mg 6.80400 53.92800 39.52200
C  5.95100 50.51900 39.87100
C  9.89800 53.12600 38.69700
C  7.11100 57.07700 38.23700
C  3.37700 54.48700 39.91200
N  7.73200 52.01400 39.03400
C  7.23700 50.76900 39.30600
C  8.31300 49.73400 39.23800
C  9.71000 50.53800 39.13600
C  9.13100 51.98900 39.01500
C  10.60200 50.36800 40.44800
C  8.14600 48.93400 37.89200
C  7.87400 49.70200 36.60000
H  6.45600 49.71500 36.11300
N  8.29800 54.99300 38.68300
C  9.56400 54.48800 38.51100
C  10.46200 55.56800 38.23200
C  9.71200 56.72500 37.87000
C  8.29500 56.27600 38.22100
C  11.87600 55.28600 37.97500
C  10.22200 58.09800 37.34400
O  11.40100 58.39100 37.31200
C  9.33800 59.19500 37.11700
N  5.41200 55.46300 38.95000
C  5.81700 56.75300 38.66700
C  4.72200 57.79300 38.73000
C  3.50800 56.98300 39.23700
C  4.08900 55.53000 39.31800
C  5.11300 59.15000 39.53500
C  2.31200 57.09700 38.25900
C  1.12100 57.91200 38.79600
N  5.01400 52.77400 39.96900
C  3.72900 53.21100 40.22600
C  2.94600 52.16200 40.67500
C  3.82000 51.04200 40.73300
C  5.02200 51.49000 40.14400
C  1.48600 52.36700 41.05000
C  3.88500 49.59600 40.96100
O  3.05800 48.78200 41.40100
C  5.32300 49.21300 40.38100
C  5.00900 48.24900 39.26800
O  4.19700 48.34500 38.34100
O  5.70300 47.12400 39.56600
C  5.38300 45.96000 38.73700
H  10.89500 52.71000 38.53600
H  7.23900 58.12800 37.97100
H  2.33100 54.71900 40.12400
H  8.34500 49.15500 40.16100
H  10.21800 50.24100 38.21800
H  10.43100 49.36500 40.83800
H  10.37700 51.07100 41.24900
H  11.64000 50.54000 40.16400
H  7.46600 48.09000 38.01300
H  9.09200 48.40700 37.76900
H  8.55200 49.22100 35.89400
H  8.20100 50.73900 36.68100
H  12.26500 54.67800 38.79300
H  12.46900 56.19300 38.09300
H  12.11000 54.82400 37.01600
H  8.74600 58.91400 36.24600
H  9.95800 60.07400 36.94200
H  8.68300 59.41200 37.96100
H  4.49400 58.13800 37.72200
H  3.16600 57.20700 40.24700
H  5.23600 59.99900 38.86300
H  5.96600 58.79600 40.11400
H  4.29800 59.41800 40.20800
H  1.79500 56.17600 37.98700
H  2.60700 57.51500 37.29600
H  1.19100 57.98000 39.88200
H  0.15600 57.47700 38.53400
H  1.15900 58.95400 38.47700
H  1.22700 51.58100 41.76000
H  0.83000 52.25600 40.18600
H  1.24700 53.38100 41.36900
H  6.00200 48.71200 41.07100
H  4.31500 45.91300 38.52300
H  5.64500 45.05300 39.28200
H  5.91700 45.95400 37.78700

