158

Mg -2.27400 17.10700 26.17800
C  -2.79700 15.21600 29.07300
C  -3.51700 19.78900 27.98200
C  -2.52500 19.15600 23.36800
C  -1.76800 14.40600 24.39200
N  -3.00400 17.50200 28.34400
C  -3.04600 16.51700 29.32200
C  -3.45200 17.23500 30.63600
C  -4.09500 18.51100 30.14400
C  -3.51700 18.64800 28.72500
C  -5.67000 18.49500 30.20600
C  -2.23100 17.34500 31.69000
C  -2.59500 16.83300 33.06400
H  -1.51000 16.39800 34.03000
N  -2.77500 19.16700 25.77700
C  -3.13100 20.08500 26.71000
C  -3.18500 21.44600 26.12400
C  -2.85300 21.26600 24.72600
C  -2.77700 19.81300 24.57100
C  -3.44400 22.76900 26.84900
C  -2.52900 22.28800 23.66300
O  -2.21500 22.00300 22.47300
C  -2.55600 23.68400 24.04800
N  -2.14800 16.84500 24.11400
C  -2.34600 17.72800 23.09600
C  -2.01700 17.05500 21.76700
C  -1.69100 15.56100 22.18000
C  -1.81400 15.60800 23.67600
C  -2.98500 17.30500 20.63900
C  -0.31900 15.08100 21.60600
C  0.96600 15.52600 22.33500
N  -2.16200 15.19100 26.60200
C  -2.03400 14.16400 25.73700
C  -2.23100 12.95700 26.42200
C  -2.42100 13.35300 27.74900
C  -2.40000 14.74100 27.79900
C  -2.27300 11.56200 25.83100
C  -2.66900 12.80400 29.07300
O  -2.70700 11.66300 29.56500
C  -2.90600 14.01000 30.00400
C  -1.91700 13.88000 31.11700
O  -0.69700 14.03800 31.11200
O  -2.59100 13.48300 32.25000
C  -1.87100 13.02500 33.39900
H  -3.91900 20.60800 28.58300
H  -2.62500 19.73200 22.44600
H  -1.40700 13.52700 23.85400
H  -4.20600 16.56600 31.05100
H  -3.89500 19.28500 30.88400
H  -6.06000 18.83000 31.16700
H  -6.00400 17.48500 29.96900
H  -6.03300 19.14300 29.40700
H  -2.02600 18.41200 31.77400
H  -1.30600 16.85100 31.39500
H  -3.29100 15.99600 33.00300
H  -2.90900 17.76300 33.53800
H  -4.22700 23.23800 26.25300
H  -2.57000 23.41100 26.96000
H  -3.85400 22.61500 27.84700
H  -3.57500 23.90000 24.36800
H  -2.16200 24.25500 23.20700
H  -1.90400 23.88200 24.89900
H  -1.20300 17.54600 21.23400
H  -2.45800 14.82900 21.93000
H  -3.20400 18.37200 20.61000
H  -3.88500 16.69100 20.68200
H  -2.63500 17.02200 19.64700
H  -0.33600 15.43700 20.57600
H  -0.28500 13.99200 21.58200
H  0.83900 16.27000 23.12100
H  1.61100 15.87500 21.52900
H  1.40300 14.65700 22.82700
H  -3.15300 11.02700 26.18700
H  -1.36300 10.98000 25.97800
H  -2.45800 11.75600 24.77500
H  -3.90100 13.84900 30.42000
H  -2.41600 13.38800 34.27100
H  -0.87000 13.42700 33.55100
H  -1.72200 11.94800 33.32500
Mg 9.43600 46.79500 26.76600
C  7.18500 46.81700 29.50700
C  11.95600 47.45900 28.94200
C  11.43500 47.15800 24.06600
C  6.70500 46.44800 24.59300
N  9.49800 47.30800 28.98000
C  8.49600 47.12800 29.92200
C  9.11800 47.35900 31.38500
C  10.57800 47.60600 31.08300
C  10.71400 47.48400 29.58600
C  11.13500 48.90100 31.71500
C  8.83400 46.29300 32.49400
C  9.86400 46.17500 33.64100
H  9.28600 45.87800 35.07300
N  11.37100 47.34900 26.54500
C  12.28400 47.34800 27.56300
C  13.56700 47.55100 27.00600
C  13.51500 47.45400 25.60200
C  12.07700 47.24700 25.34500
C  14.75600 47.58200 27.93000
C  14.64800 47.53700 24.56700
O  14.55600 47.24900 23.38300
C  16.09000 47.73700 24.98600
N  9.09900 46.92300 24.57800
C  10.10400 46.97900 23.69100
C  9.51900 46.89000 22.30100
C  8.04100 46.60000 22.50700
C  7.92400 46.63000 23.97600
C  9.91000 48.05200 21.36100
C  7.48600 45.29400 21.85100
C  6.50100 45.57200 20.63300
N  7.38200 46.59000 26.91500
C  6.39500 46.46000 25.99300
C  5.15800 46.24500 26.61500
C  5.38000 46.46100 27.97900
C  6.80100 46.61900 28.12900
C  3.83300 46.02700 25.89500
C  4.71700 46.54500 29.24300
O  3.55000 46.49700 29.53000
C  5.90700 46.77300 30.32500
C  5.89200 45.56600 31.11700
O  6.40900 44.50600 30.82900
O  5.18300 45.79900 32.28200
C  5.38900 44.74500 33.30700
H  12.84600 47.70900 29.52300
H  12.19400 47.07000 23.28600
H  5.84100 46.21900 23.96500
H  8.67000 48.28200 31.75200
H  11.15000 46.78800 31.52100
H  11.48500 49.56300 30.92300
H  11.82500 48.61800 32.51000
H  10.33500 49.47700 32.18100
H  8.77000 45.30400 32.04000
H  7.87300 46.49900 32.96600
H  10.33600 47.14900 33.77200
H  10.57300 45.39600 33.36000
H  15.46600 46.88100 27.49000
H  14.71100 47.29500 28.98100
H  15.23400 48.55100 27.78800
H  16.61200 48.14100 24.11900
H  16.58000 46.80600 25.26800
H  16.08400 48.57800 25.68000
H  10.00300 46.04000 21.81900
H  7.39800 47.42000 22.18800
H  10.40300 47.76000 20.43400
H  10.64200 48.71500 21.82300
H  9.04900 48.69200 21.16700
H  6.87800 44.68100 22.51800
H  8.25500 44.62600 21.46300
H  6.62500 46.53200 20.13200
H  5.52400 45.43100 21.09300
H  6.66000 44.89200 19.79700
H  3.88400 46.12800 24.81100
H  3.11700 46.72600 26.32900
H  3.53100 44.99100 26.04900
H  5.89800 47.54900 31.09000
H  6.31200 44.16500 33.28900
H  4.52200 44.08400 33.30700
H  5.37700 45.27500 34.25900

