158

Mg 49.22700 35.09700 27.57700
C  47.33200 33.49200 30.16800
C  49.69800 37.69400 29.85500
C  50.87600 36.70100 25.17300
C  48.58100 32.40100 25.53900
N  48.60500 35.50300 29.78200
C  48.00100 34.65500 30.60500
C  48.07500 35.15500 32.03200
C  48.39900 36.73900 31.86200
C  48.91300 36.70700 30.43500
C  47.15200 37.71500 31.88200
C  49.21500 34.48000 32.84700
C  49.03300 34.42800 34.36700
H  47.94500 35.30700 35.03400
N  50.23500 36.93300 27.49700
C  50.34400 37.84000 28.59500
C  50.95300 39.01200 28.01800
C  51.36800 38.67900 26.71900
C  50.90000 37.37300 26.43600
C  51.24400 40.17600 28.95700
C  52.06000 39.58500 25.69800
O  52.21000 39.28100 24.53100
C  52.23500 41.04600 26.06400
N  49.64400 34.63900 25.61800
C  50.46000 35.40400 24.79100
C  50.85100 34.63100 23.45100
C  50.19100 33.25400 23.76400
C  49.48300 33.33600 25.06200
C  50.48000 35.31100 22.12500
C  51.14200 32.02800 23.76300
C  50.74400 30.76100 22.95600
N  48.02100 33.39600 27.71600
C  47.87400 32.41700 26.77500
C  46.90000 31.45000 27.23900
C  46.71000 31.76900 28.57700
C  47.37000 32.98400 28.80900
C  46.54600 30.10100 26.57400
C  46.01200 31.37000 29.76900
O  45.23000 30.47100 29.98400
C  46.35800 32.44600 30.86000
C  46.58400 31.85200 32.21300
O  47.57100 31.21600 32.59200
O  45.50200 32.27500 33.08600
C  45.80700 32.01900 34.49900
H  49.72300 38.55800 30.52200
H  51.40300 37.11600 24.31200
H  48.47300 31.58300 24.82400
H  47.06200 35.04700 32.42000
H  49.21700 37.00600 32.53100
H  47.18300 38.12400 30.87300
H  47.28100 38.57200 32.54400
H  46.22100 37.16300 32.01200
H  50.16200 34.99100 32.67100
H  49.26400 33.47500 32.42900
H  50.02000 34.68400 34.75200
H  48.92300 33.40100 34.71400
H  50.36900 40.43800 29.55300
H  51.48500 41.09700 28.42500
H  52.06500 40.05400 29.66300
H  52.82000 41.53400 25.28500
H  52.75000 41.24600 27.00400
H  51.25500 41.51500 25.98900
H  51.92500 34.52600 23.60300
H  49.36500 33.06900 23.07700
H  49.95800 36.20600 22.46500
H  49.78900 34.74500 21.50000
H  51.41200 35.62900 21.65900
H  51.29500 31.63600 24.76900
H  52.15800 32.29800 23.47900
H  51.18500 29.93800 23.51900
H  51.21100 30.83900 21.97400
H  49.65700 30.73400 22.88200
H  45.48000 30.00900 26.36800
H  46.90800 29.26500 27.17200
H  47.04000 29.91000 25.62100
H  45.45100 33.03200 31.00600
H  45.05200 32.53600 35.09100
H  46.75600 32.44700 34.82300
H  45.66200 30.95200 34.66800
Mg 7.97700 53.72800 40.51300
C  7.08200 50.38800 40.15000
C  11.14400 52.89600 39.27700
C  8.65000 56.97000 40.03900
C  4.55600 54.52900 40.92600
N  8.87200 51.90100 39.69100
C  8.36200 50.65200 39.71300
C  9.34500 49.60800 39.08500
C  10.68400 50.36300 39.31800
C  10.20800 51.85000 39.36300
C  11.44000 50.19700 40.65200
C  9.14300 49.18300 37.62100
C  8.09500 49.87100 36.70900
H  7.52600 48.98700 35.59600
N  9.71100 54.85800 39.85000
C  10.93000 54.27700 39.54600
C  11.93000 55.30600 39.56700
C  11.26600 56.51700 39.65100
C  9.83200 56.19500 39.84600
C  13.44600 55.02200 39.60100
C  11.92100 57.89700 39.67800
O  13.11500 57.99600 39.84300
C  11.10800 59.11400 39.62800
N  6.69300 55.44700 40.47900
C  7.25300 56.70900 40.29800
C  6.22200 57.84300 40.55600
C  4.86800 57.00300 40.85100
C  5.37200 55.57900 40.77800
C  6.63400 58.91100 41.59800
C  3.65100 57.33500 39.88200
C  2.28200 57.22300 40.55400
N  6.19800 52.73000 40.68500
C  4.91300 53.21400 41.02700
C  4.06500 52.09200 41.17300
C  4.91100 51.02000 40.96100
C  6.17300 51.42400 40.63200
C  2.66600 51.95600 41.66000
C  4.93900 49.56200 40.96700
O  4.10700 48.69900 41.21400
C  6.35900 49.03300 40.44700
C  6.21100 48.11200 39.25300
O  5.63300 48.51000 38.19500
O  6.49800 46.79600 39.47000
C  6.31600 45.85500 38.40500
H  12.15700 52.54500 39.07100
H  8.76400 58.04700 39.90000
H  3.49200 54.54700 41.17100
H  9.35400 48.66200 39.62800
H  11.45300 50.27200 38.55000
H  10.98800 49.25900 40.97300
H  11.29700 51.02300 41.35000
H  12.50800 50.05900 40.48600
H  9.00900 48.10400 37.53200
H  10.13200 49.35200 37.19500
H  8.48600 50.72300 36.15300
H  7.21600 50.16300 37.28400
H  13.88300 55.61600 38.79700
H  13.71100 53.98200 39.41300
H  13.92800 55.33600 40.52700
H  11.68100 60.02700 39.79200
H  10.31100 59.01500 40.36400
H  10.57100 59.18100 38.68200
H  6.14400 58.24000 39.54400
H  4.55600 57.11200 41.89000
H  6.46500 59.93500 41.26300
H  7.62600 58.67300 41.98100
H  5.87000 58.95300 42.37500
H  3.67300 56.58000 39.09600
H  3.75700 58.38000 39.59300
H  2.31000 57.34800 41.63600
H  1.86000 56.22000 40.49000
H  1.73600 57.97300 39.98100
H  2.27400 50.94600 41.54500
H  2.14500 52.82100 41.25000
H  2.70900 52.01600 42.74700
H  6.79500 48.46900 41.27200
H  6.70500 46.37100 37.52700
H  5.27200 45.54800 38.46800
H  6.90600 44.96000 38.60600

