158

Mg 28.86900 59.54900 41.40000
C  25.73700 58.26100 40.46100
C  30.39400 56.83900 40.01000
C  31.79200 61.25200 41.56300
C  27.12700 62.61300 42.21100
N  28.16500 57.81500 40.32500
C  26.88200 57.40800 40.14900
C  26.78600 56.22000 39.23000
C  28.17300 55.58200 39.41600
C  28.99400 56.75900 39.91300
C  28.23400 54.36600 40.43000
C  26.40900 56.51000 37.86200
C  25.97600 55.21700 37.11600
H  25.20200 55.57000 35.90600
N  30.85700 59.10800 40.87100
C  31.26600 57.94400 40.36500
C  32.69500 57.96800 40.26200
C  33.14400 59.16100 40.81100
C  31.94100 59.91700 41.05200
C  33.58100 56.83000 39.75400
C  34.57200 59.47700 41.04400
O  35.42900 58.61600 40.86500
C  35.14000 60.81700 41.49800
N  29.32600 61.55100 41.73700
C  30.66500 61.94200 41.85300
C  30.78400 63.42100 42.18900
C  29.35200 63.91100 42.30600
C  28.54000 62.68700 42.03300
C  31.69000 63.88500 43.42200
C  28.84800 65.20300 41.51400
C  27.94100 66.11400 42.26900
N  26.81600 60.28900 41.53100
C  26.32100 61.49000 41.81100
C  24.86800 61.51300 41.63300
C  24.59600 60.23500 41.09900
C  25.80000 59.56000 41.07500
C  23.97700 62.61900 42.01800
C  23.53400 59.36600 40.68000
O  22.34200 59.52300 40.57300
C  24.23900 57.98200 40.26800
C  23.70700 56.97000 41.20500
O  23.49300 57.16400 42.43400
O  23.46600 55.79500 40.61100
C  23.48200 54.65100 41.58800
H  30.93300 55.95500 39.66200
H  32.68500 61.83700 41.79000
H  26.67400 63.59200 42.38500
H  25.94500 55.68700 39.67400
H  28.63100 55.39900 38.44300
H  27.22500 53.95400 40.46300
H  28.80600 54.69800 41.29600
H  28.87200 53.65500 39.90500
H  27.28200 56.94500 37.37500
H  25.65200 57.27500 37.68800
H  25.57600 54.46000 37.78900
H  26.97000 54.79600 36.96600
H  33.91500 56.37900 40.68800
H  34.36600 57.17000 39.07700
H  32.97500 56.20200 39.10100
H  34.61500 61.63500 41.00500
H  36.17400 60.97600 41.19200
H  34.97700 60.87800 42.57400
H  31.21800 63.93400 41.33100
H  29.27700 64.01900 43.38800
H  32.58100 63.26800 43.54400
H  31.10900 64.01600 44.33400
H  32.11700 64.85500 43.16700
H  28.39600 64.89000 40.57400
H  29.76700 65.77600 41.38700
H  27.32600 66.73600 41.61900
H  28.60100 66.77500 42.83000
H  27.30600 65.62500 43.00800
H  23.79400 63.23300 41.13600
H  24.47100 63.21800 42.78300
H  22.97300 62.30400 42.30500
H  24.02200 57.75400 39.22500
H  22.59900 54.80200 42.20900
H  24.42300 54.56400 42.13200
H  23.35900 53.72600 41.02500
Mg 25.37400 50.36500 26.73400
C  23.19800 51.49700 29.23100
C  27.66000 49.65400 29.23400
C  27.61600 49.88900 24.27000
C  23.30400 52.00900 24.44300
N  25.36000 50.47600 28.97300
C  24.33100 50.93200 29.80200
C  24.68100 50.73100 31.28800
C  26.15700 50.43300 31.21900
C  26.47200 50.24000 29.72900
C  27.12700 51.48500 31.89900
C  23.74600 49.64200 31.95200
C  23.06500 50.03200 33.24900
H  23.83800 50.95900 34.18700
N  27.31700 49.87800 26.78900
C  28.07600 49.48300 27.90100
C  29.26600 48.81900 27.44700
C  29.30000 48.87700 26.01700
C  28.04700 49.57000 25.61300
C  30.30200 48.14800 28.29700
C  30.30400 48.31700 25.05100
O  30.11900 48.44400 23.80800
C  31.55900 47.64500 25.56900
N  25.54800 50.99400 24.58400
C  26.56800 50.55500 23.78200
C  26.25800 50.94400 22.33300
C  24.83300 51.56800 22.43500
C  24.50300 51.48300 23.89700
C  27.25400 51.99900 21.68700
C  23.78300 50.96400 21.43900
C  23.26800 49.53400 21.70500
N  23.54600 51.33100 26.73700
C  22.80500 51.89700 25.73000
C  21.53900 52.41500 26.22400
C  21.70200 52.28800 27.60300
C  22.95400 51.64200 27.88700
C  20.44900 53.02400 25.36100
C  21.06800 52.58700 28.87100
O  19.94800 53.00800 29.11600
C  22.06800 52.10800 30.00200
C  22.40800 53.25400 30.84100
O  23.42900 53.94100 30.76500
O  21.35000 53.35700 31.74500
C  21.38000 54.49200 32.62900
H  28.39400 49.42200 30.00800
H  28.31100 49.58300 23.48600
H  22.76000 52.58500 23.69100
H  24.59300 51.70200 31.77500
H  26.26500 49.42800 31.62700
H  27.28200 51.10700 32.90900
H  26.65900 52.46600 31.98700
H  28.04600 51.54400 31.31600
H  24.15400 48.63400 32.01700
H  22.96000 49.52300 31.20600
H  22.79800 49.05000 33.64200
H  22.09000 50.42100 32.95700
H  29.99800 48.25300 29.33900
H  31.22200 48.73000 28.25600
H  30.33600 47.06600 28.16900
H  32.22000 47.27200 24.78700
H  31.25200 46.76200 26.12900
H  32.06300 48.38900 26.18600
H  26.38700 50.02700 21.75700
H  24.81900 52.64600 22.27800
H  26.86200 53.00700 21.82400
H  27.42500 51.73500 20.64300
H  28.23300 51.94900 22.16300
H  24.26400 51.12300 20.47400
H  22.90900 51.61100 21.51900
H  23.26000 48.88300 20.83100
H  22.30700 49.55500 22.21800
H  23.94800 49.07700 22.42500
H  20.68100 52.81800 24.31600
H  20.27000 54.08200 25.54900
H  19.52700 52.47900 25.56300
H  21.61300 51.34900 30.63900
H  21.63200 55.26100 31.89800
H  22.03700 54.34800 33.48700
H  20.39000 54.75100 33.00300

