158

Mg 28.55700 58.42600 42.33400
C  25.85700 56.75100 40.84400
C  30.65000 56.64500 40.19100
C  31.06400 60.72900 42.69800
C  26.34600 60.47200 43.88100
N  28.23700 57.01700 40.62700
C  27.04800 56.38500 40.24800
C  27.27900 55.31800 39.18200
C  28.79700 55.06900 39.29800
C  29.31200 56.35600 40.03000
C  29.29800 53.72700 40.07200
C  26.90000 55.73500 37.74700
C  26.04700 54.72100 37.09000
H  26.43800 54.31100 35.62500
N  30.71700 58.48000 41.87600
C  31.33700 57.63200 40.97900
C  32.74900 57.89300 40.94500
C  32.85900 59.11400 41.67900
C  31.49700 59.51000 42.09100
C  33.76100 57.04200 40.20000
C  34.17900 59.83500 41.90600
O  35.24900 59.48700 41.32600
C  34.19900 60.98700 42.86400
N  28.66400 60.33100 43.18400
C  29.77000 61.07600 43.22100
C  29.52200 62.39000 44.04700
C  28.07600 62.12600 44.68900
C  27.63100 60.96000 43.82200
C  30.64000 62.81400 45.02300
C  27.11900 63.30100 44.50400
C  26.20300 63.64200 45.70500
N  26.44800 58.49200 42.48400
C  25.68500 59.46700 43.06500
C  24.28900 59.17500 42.91500
C  24.29000 57.99000 42.15000
C  25.64800 57.71800 41.83100
C  23.06800 59.89100 43.46900
C  23.48900 56.93300 41.56900
O  22.28000 56.63000 41.67300
C  24.48300 56.14600 40.58700
C  24.44500 54.67100 40.89900
O  24.89400 54.19800 41.97000
O  23.88800 53.99400 39.88100
C  23.74000 52.52600 40.27300
H  31.27200 55.91400 39.67000
H  31.75700 61.57000 42.77800
H  25.64500 61.07700 44.46000
H  26.75400 54.41200 39.48400
H  29.35700 55.14900 38.36600
H  30.04000 53.99500 40.82400
H  29.80400 53.17800 39.27800
H  28.53000 53.14500 40.58100
H  27.75000 55.93200 37.09400
H  26.29700 56.63500 37.87600
H  25.03400 55.12100 37.05700
H  26.07100 53.79400 37.66400
H  34.57200 56.68000 40.83100
H  34.20100 57.62300 39.39000
H  33.26300 56.15400 39.81000
H  33.79300 61.88300 42.39500
H  35.22900 61.12000 43.19600
H  33.57300 60.69200 43.70600
H  29.39500 63.22300 43.35500
H  28.19400 61.98900 45.76400
H  30.18400 62.83000 46.01200
H  30.93800 63.81000 44.69400
H  31.38500 62.02200 44.95200
H  26.46000 63.25100 43.63700
H  27.75300 64.18000 44.38800
H  26.81000 64.28800 46.34000
H  25.79800 62.86000 46.34800
H  25.25000 64.01900 45.33300
H  22.72900 59.38400 44.37200
H  22.31000 59.88300 42.68600
H  23.27400 60.91700 43.77300
H  24.23500 56.16900 39.52600
H  24.66900 51.99700 40.05600
H  23.01800 52.04800 39.61000
H  23.35900 52.42200 41.28900
Mg -12.24200 38.54500 41.94900
C  -10.15100 35.87300 40.74400
C  -10.40600 40.76300 40.18100
C  -14.80400 40.88200 42.40100
C  -14.40900 36.05900 43.33300
N  -10.51500 38.32800 40.42500
C  -9.78200 37.20000 40.28200
C  -8.48500 37.54500 39.51600
C  -8.46200 39.06900 39.47100
C  -9.83400 39.47000 40.12800
C  -7.28100 39.71100 40.17900
C  -8.55200 36.86100 38.12500
C  -7.53400 35.72600 37.82600
H  -6.50100 36.04500 36.69400
N  -12.56900 40.60300 41.46200
C  -11.63400 41.29500 40.76200
C  -12.04100 42.63400 40.58700
C  -13.36000 42.71200 41.16300
C  -13.63300 41.38800 41.74300
C  -11.40000 43.64700 39.62000
C  -14.23500 43.91900 41.17600
O  -13.83600 44.95300 40.61700
C  -15.56600 44.10100 41.88400
N  -14.33000 38.42700 42.56600
C  -15.12700 39.57400 42.73800
C  -16.45800 39.16600 43.30000
C  -16.27100 37.73500 43.79200
C  -14.89400 37.33500 43.17000
C  -17.02300 40.09700 44.44600
C  -17.44600 36.70200 43.48400
C  -17.74200 35.71300 44.62200
N  -12.39400 36.38400 42.01200
C  -13.25600 35.53700 42.72500
C  -12.69100 34.22500 42.81300
C  -11.49800 34.27600 42.05800
C  -11.32900 35.61100 41.58000
C  -13.19400 33.12800 43.63700
C  -10.34700 33.56100 41.55900
O  -10.10100 32.33500 41.68100
C  -9.42600 34.53300 40.73100
C  -8.04500 34.54600 41.33200
O  -7.10100 33.96300 40.84900
O  -8.03500 35.29500 42.44000
C  -6.71600 35.80100 42.87600
H  -9.69200 41.50300 39.81300
H  -15.52000 41.67400 42.63100
H  -15.08400 35.39200 43.87400
H  -7.53900 37.19400 39.92900
H  -8.59900 39.52100 38.48900
H  -7.13400 39.12800 41.08900
H  -7.26800 40.78700 40.34800
H  -6.38600 39.63100 39.56300
H  -8.52500 37.74200 37.48300
H  -9.50100 36.34300 37.98500
H  -7.96900 34.73200 37.71800
H  -6.92800 35.59500 38.72200
H  -12.08900 43.84700 38.79900
H  -10.40000 43.30900 39.34800
H  -11.28300 44.59000 40.15500
H  -15.82800 45.15600 41.80800
H  -15.21700 43.92100 42.90100
H  -16.34900 43.42800 41.53600
H  -17.19500 39.19900 42.49800
H  -15.95200 37.77400 44.83400
H  -17.81400 40.65000 43.94000
H  -16.25700 40.75600 44.85400
H  -17.48900 39.48100 45.21500
H  -17.33700 36.19100 42.52700
H  -18.34400 37.29300 43.30800
H  -17.64400 34.72700 44.16800
H  -18.70800 35.84400 45.11200
H  -17.01500 35.82000 45.42700
H  -12.81800 32.16000 43.30500
H  -14.27400 33.09700 43.48900
H  -13.06800 33.31700 44.70300
H  -9.31900 34.23600 39.68700
H  -6.07100 36.11600 42.05600
H  -6.23700 34.97100 43.39600
H  -6.78400 36.73000 43.44200

