158

Mg 5.97200 54.35100 40.81300
C  5.05100 51.01900 40.36600
C  9.11400 53.63100 39.39200
C  6.63500 57.55500 41.02500
C  2.58200 55.03700 41.85000
N  6.93600 52.56700 40.03800
C  6.38400 51.33600 39.89600
C  7.42000 50.30000 39.40500
C  8.81300 51.06000 39.52300
C  8.25700 52.49900 39.52100
C  9.56700 50.60700 40.81000
C  7.04700 49.99400 37.96300
C  7.67600 48.77800 37.28400
H  6.86300 48.13800 36.11100
N  7.55800 55.43100 40.22500
C  8.78200 54.96400 39.73900
C  9.63800 56.08300 39.53700
C  9.08900 57.23700 40.05800
C  7.69000 56.78600 40.48600
C  10.91900 56.00800 38.78400
C  9.72700 58.53300 40.09700
O  10.85700 58.71600 39.60800
C  9.07400 59.59000 40.79900
N  4.79100 56.06800 41.28200
C  5.33400 57.26300 41.39500
C  4.34600 58.37100 41.85400
C  3.03000 57.59200 41.88400
C  3.45600 56.10500 41.64200
C  4.64600 59.03400 43.27200
C  1.97900 57.96800 40.83200
C  0.93000 59.08200 41.20100
N  4.17200 53.26600 41.08200
C  2.94100 53.64400 41.58500
C  2.17800 52.44800 41.84800
C  3.00400 51.38500 41.34300
C  4.16100 51.91800 40.88800
C  0.85900 52.40000 42.50200
C  3.03300 49.94600 41.25300
O  2.31200 49.03800 41.65400
C  4.42500 49.70800 40.66300
C  4.36100 48.69200 39.56100
O  3.81400 48.75500 38.43900
O  5.09100 47.57800 39.98000
C  4.75200 46.35800 39.18100
H  10.16800 53.40500 39.21700
H  6.69200 58.64100 41.13400
H  1.62200 55.37000 42.25000
H  7.30400 49.39200 39.99600
H  9.36000 50.99200 38.58200
H  9.17900 49.72200 41.31300
H  9.45300 51.43400 41.51100
H  10.63200 50.60000 40.57500
H  7.26500 50.87500 37.35800
H  5.96800 49.90800 37.84000
H  8.00000 48.04400 38.02200
H  8.55000 49.18900 36.77700
H  11.79000 56.13900 39.42600
H  10.93300 56.83800 38.07700
H  11.01000 55.07200 38.23300
H  8.28700 59.97800 40.15200
H  9.72000 60.38200 41.17700
H  8.69200 59.02100 41.64700
H  4.55500 59.14700 41.11800
H  2.56000 57.58500 42.86700
H  3.66300 59.33100 43.63900
H  5.15500 59.94400 42.95300
H  5.35100 58.55800 43.95300
H  1.40600 57.16800 40.36400
H  2.56100 58.36200 39.99900
H  0.94100 59.79600 40.37700
H  1.26800 59.54900 42.12600
H  -0.06800 58.67000 41.35300
H  0.15700 52.32200 41.67200
H  0.66600 53.31900 43.05500
H  0.94300 51.48100 43.08300
H  5.05300 49.27400 41.44100
H  3.70000 46.08200 39.25100
H  5.38900 45.58400 39.61000
H  5.01300 46.51600 38.13400
Mg -0.78000 34.23600 26.77100
C  -2.77900 32.59300 29.30600
C  0.83200 35.97600 29.27300
C  0.29200 36.31600 24.37900
C  -2.63900 32.52000 24.37400
N  -1.08700 34.31500 29.04000
C  -1.87600 33.53000 29.85900
C  -1.59500 33.83300 31.35100
C  -0.52600 35.05900 31.28800
C  -0.19600 35.10700 29.77000
C  -0.98600 36.42500 31.98000
C  -1.16800 32.54300 32.26800
C  -1.80100 32.37300 33.65200
H  -0.82900 32.62600 34.90800
N  0.40400 35.87100 26.84200
C  1.12500 36.38000 27.92600
C  2.10400 37.39200 27.44400
C  1.86300 37.51400 26.07300
C  0.76200 36.59000 25.72500
C  3.02100 38.09900 28.41600
C  2.54600 38.50000 25.11400
O  2.19500 38.65800 23.94000
C  3.71600 39.25800 25.56400
N  -1.04700 34.42400 24.62000
C  -0.56000 35.38000 23.90900
C  -0.87700 35.12200 22.44000
C  -1.64800 33.72700 22.37900
C  -1.77400 33.51700 23.87800
C  -1.61200 36.30800 21.89200
C  -0.94000 32.66700 21.61800
C  0.18200 31.80600 22.20700
N  -2.29100 32.75500 26.75900
C  -2.88300 32.15100 25.74100
C  -3.78900 31.11400 26.23000
C  -3.76700 31.31800 27.59700
C  -2.85800 32.35500 27.88500
C  -4.61700 30.14200 25.47900
C  -4.37100 30.86600 28.80900
O  -5.24300 30.02100 28.97700
C  -3.76700 31.63900 30.01800
C  -4.83700 32.25500 30.78400
O  -5.49500 33.20700 30.41700
O  -4.99300 31.61200 32.01000
C  -6.01100 32.06300 32.93200
H  1.26800 36.60600 30.05000
H  0.77100 36.91700 23.60400
H  -3.13900 31.97100 23.57400
H  -2.51200 34.15100 31.84700
H  0.35900 34.70400 31.81800
H  -0.82300 36.37600 33.05700
H  -2.04800 36.49200 31.74300
H  -0.51500 37.30900 31.55200
H  -0.08800 32.65600 32.36700
H  -1.23300 31.62200 31.68800
H  -2.28600 31.39900 33.71100
H  -2.62100 33.09100 33.66000
H  2.80200 37.71700 29.41300
H  2.94500 39.18000 28.30100
H  4.06900 37.97000 28.14900
H  4.25800 39.79100 24.78400
H  4.37100 38.67800 26.21400
H  3.37500 40.12100 26.13600
H  0.13300 35.19100 22.03500
H  -2.60400 33.92500 21.89600
H  -0.85400 36.94300 21.43400
H  -2.35600 36.79700 22.52100
H  -2.14800 35.84900 21.06000
H  -0.50400 33.25800 20.81300
H  -1.69600 32.03400 21.15200
H  -0.05400 30.77700 22.48000
H  0.78100 32.27000 22.99000
H  0.96700 31.66700 21.46300
H  -4.38100 29.15000 25.86200
H  -4.39400 30.11600 24.41200
H  -5.63100 30.43400 25.75000
H  -3.22000 31.03800 30.74500
H  -5.46500 32.21800 33.86300
H  -6.85300 31.38200 33.05200
H  -6.48300 32.93800 32.48600

