158

Mg 48.13500 45.63800 43.08700
C  44.72700 44.91400 42.42800
C  48.90100 42.37600 42.31900
C  51.40600 46.54300 43.03500
C  47.25500 48.93800 43.60500
N  46.89900 43.86200 42.14400
C  45.53500 43.76300 42.14000
C  45.10500 42.31900 41.74700
C  46.43200 41.50500 41.89400
C  47.50800 42.62900 42.21200
C  46.54600 40.29900 42.88700
C  44.44900 42.30700 40.29700
C  45.27200 42.79000 39.08400
H  45.13500 42.03200 37.67600
N  49.95200 44.61300 42.67400
C  50.04000 43.28500 42.38900
C  51.43200 42.90900 42.26800
C  52.22500 44.09000 42.54900
C  51.19500 45.14600 42.74400
C  51.89800 41.46300 42.21200
C  53.73300 44.21300 42.59800
O  54.46100 43.26800 42.54800
C  54.47800 45.49400 42.90500
N  49.19000 47.54000 43.25400
C  50.51000 47.62100 43.31800
C  50.98700 49.06300 43.50600
C  49.64900 49.84100 43.73700
C  48.63100 48.70300 43.53600
C  52.01800 49.30800 44.58600
C  49.41500 51.11900 42.81900
C  49.29800 52.51200 43.42700
N  46.38000 46.77100 43.15100
C  46.16600 48.08800 43.37100
C  44.75700 48.37400 43.46800
C  44.16800 47.13000 43.05500
C  45.18800 46.18100 42.86400
C  44.11700 49.62100 43.74100
C  42.93200 46.43100 42.75900
O  41.74900 46.76400 42.73300
C  43.21000 44.95500 42.51100
C  42.63000 44.21000 43.68100
O  41.75100 43.38800 43.50300
O  43.29200 44.38700 44.88000
C  42.76600 43.64800 46.02800
H  49.13500 41.31100 42.25900
H  52.41600 46.95500 42.97700
H  46.93000 49.91800 43.96000
H  44.33600 41.93100 42.41600
H  46.64700 41.03300 40.93500
H  46.77400 39.39200 42.32600
H  45.54900 40.29400 43.32900
H  47.36100 40.37800 43.60600
H  43.63100 43.02300 40.22700
H  43.89200 41.39800 40.07500
H  46.33700 42.67500 39.28900
H  45.15100 43.85100 38.86400
H  51.38500 40.90700 41.42800
H  51.69300 40.92100 43.13500
H  52.95700 41.35400 41.97800
H  54.04800 45.94200 43.80100
H  54.37400 46.16600 42.05400
H  55.50400 45.31200 43.22400
H  51.43400 49.31200 42.54300
H  49.50400 50.06200 44.79500
H  52.92000 49.53500 44.01800
H  52.30900 48.40200 45.11900
H  51.66800 49.92200 45.41500
H  48.40600 50.92600 42.45700
H  50.09300 51.07000 41.96700
H  49.70400 53.23300 42.71700
H  49.81000 52.52100 44.38900
H  48.25000 52.77700 43.56900
H  43.10600 49.61000 43.33300
H  44.70000 50.39600 43.24200
H  44.02500 49.74800 44.81900
H  42.78100 44.46500 41.63700
H  41.80100 43.99100 46.40100
H  43.47400 43.65700 46.85700
H  42.82900 42.57900 45.82200
Mg 0.66700 42.98200 25.93300
C  2.63100 43.28500 28.62100
C  -1.89000 41.83900 27.82600
C  -1.15700 42.29400 23.05900
C  3.27200 43.84300 23.84000
N  0.43400 42.71100 28.02600
C  1.33100 43.01500 28.96600
C  0.74400 42.79500 30.44600
C  -0.63600 42.18800 30.10600
C  -0.74600 42.30800 28.58000
C  -0.98000 40.82500 30.69500
C  0.69800 44.17800 31.10400
C  0.62400 44.26300 32.63000
H  0.31900 42.86500 33.31900
N  -1.17600 42.05000 25.48900
C  -2.10000 41.71200 26.41000
C  -3.26100 41.27400 25.84700
C  -3.11900 41.46100 24.43400
C  -1.74800 41.92200 24.22500
C  -4.40400 40.85000 26.66800
C  -4.13000 41.22100 23.37900
O  -3.92300 41.31900 22.19900
C  -5.52200 40.71200 23.77400
N  0.90400 43.20000 23.74800
C  0.03500 42.87600 22.72700
C  0.62700 43.11400 21.29500
C  2.00600 43.81300 21.57700
C  2.09300 43.59100 23.17300
C  0.74200 41.76200 20.48900
C  1.97600 45.35800 21.22200
C  3.28300 45.97000 20.74600
N  2.55700 43.59200 26.05200
C  3.51900 43.79300 25.19500
C  4.77700 44.05700 25.89800
C  4.50600 43.84300 27.21400
C  3.09600 43.53100 27.29800
C  6.11200 44.38900 25.23600
C  5.05800 43.88600 28.55200
O  6.21700 44.11900 28.90900
C  3.90500 43.41600 29.51000
C  4.33100 42.14800 30.11800
O  4.89100 41.22400 29.55400
O  3.97800 42.22000 31.38400
C  4.26600 41.04600 32.19000
H  -2.64200 41.52600 28.55300
H  -1.72200 42.13600 22.13800
H  4.05800 44.15700 23.15000
H  1.44200 42.07300 30.86900
H  -1.39600 42.88300 30.46400
H  -1.82800 40.78100 31.37900
H  -0.20600 40.37500 31.31600
H  -1.21700 40.02800 29.99000
H  -0.15700 44.74900 30.74300
H  1.58600 44.74200 30.81700
H  -0.26300 44.86400 32.83200
H  1.47900 44.79400 33.04900
H  -5.27800 41.50000 26.69000
H  -4.19100 40.61800 27.71100
H  -4.62900 39.85800 26.27700
H  -5.53800 39.85100 24.44300
H  -6.14600 40.45800 22.91700
H  -6.10300 41.53300 24.19500
H  -0.03500 43.76400 20.72200
H  2.88300 43.39800 21.08000
H  1.77400 41.41300 20.52400
H  0.28300 41.87400 19.50600
H  0.24600 40.89700 20.93000
H  1.59200 45.91300 22.07900
H  1.20400 45.57200 20.48300
H  3.62000 46.82300 21.33600
H  3.14700 46.35700 19.73600
H  3.99100 45.17000 20.96300
H  6.16900 45.47600 25.16900
H  6.18400 43.98100 24.22800
H  6.92600 43.93000 25.79700
H  3.79000 44.10600 30.34600
H  5.24300 40.95600 32.66500
H  4.13100 40.08100 31.70100
H  3.51300 41.21300 32.96100

