158

Mg 43.75500 4.00900 47.83200
C  41.52100 6.75800 47.32600
C  40.91300 1.88100 47.48600
C  45.78500 1.37300 47.36900
C  46.46700 6.27500 47.54500
N  41.39100 4.33900 47.53100
C  40.77900 5.48300 47.47800
C  39.28600 5.23400 47.31400
C  39.13000 3.67000 47.67800
C  40.54600 3.20600 47.50200
C  38.59100 3.43200 49.15200
C  38.76500 5.49700 45.88200
C  37.67600 6.57300 45.71700
H  37.17500 6.84700 44.33600
N  43.39700 1.87600 47.51500
C  42.19900 1.25600 47.41700
C  42.38600 -0.15300 47.18100
C  43.80400 -0.28100 47.02000
C  44.44400 1.03100 47.27100
C  41.24700 -1.11900 47.11300
C  44.49400 -1.62200 46.71700
O  43.80100 -2.63100 46.62600
C  46.03100 -1.69300 46.37700
N  45.79000 3.84800 47.38600
C  46.43300 2.62700 47.40800
C  47.96600 2.76200 47.42600
C  48.20900 4.32900 47.40000
C  46.72000 4.89100 47.44200
C  48.66700 2.06700 48.65900
C  49.12400 4.76700 46.22700
C  50.49700 5.37800 46.57100
N  43.98600 6.14800 47.55000
C  45.15600 6.88900 47.45000
C  44.77000 8.30300 47.33200
C  43.40200 8.28400 47.27400
C  42.92700 6.96200 47.43100
C  45.70300 9.48600 47.41300
C  42.18200 9.06500 47.27700
O  42.00000 10.30000 47.24900
C  40.87800 8.09200 47.27000
C  39.88900 8.30700 48.31300
O  39.84800 7.85500 49.42000
O  38.88700 9.17700 47.98100
C  37.70000 9.35300 48.92200
H  40.04600 1.24000 47.31000
H  46.37700 0.45600 47.41000
H  47.28100 6.99900 47.61800
H  38.73200 5.84200 48.03000
H  38.43900 3.12500 47.03500
H  39.35100 2.82600 49.64400
H  37.60100 2.97900 49.21500
H  38.50800 4.40000 49.64700
H  38.21200 4.59500 45.61800
H  39.57200 5.52500 45.15000
H  38.00900 7.43400 46.29600
H  36.81800 6.09400 46.18900
H  41.30700 -1.88500 46.33900
H  40.31000 -0.63100 46.84200
H  41.07600 -1.47500 48.12900
H  46.64000 -1.84800 47.26700
H  46.14200 -0.80400 45.75500
H  46.18100 -2.53100 45.69600
H  48.31600 2.20500 46.55800
H  48.55600 4.75600 48.34100
H  47.93400 1.64900 49.35000
H  49.17200 2.81600 49.26800
H  49.44600 1.37400 48.34100
H  48.65800 5.64800 45.78500
H  49.16600 3.88500 45.58900
H  51.13100 4.49200 46.55400
H  50.52200 5.76000 47.59200
H  50.85800 6.07400 45.81300
H  46.04600 9.73200 48.41800
H  45.17000 10.36200 47.04200
H  46.59900 9.36700 46.80300
H  40.36300 8.20300 46.31600
H  37.03200 10.12300 48.53600
H  37.96600 9.47100 49.97200
H  37.21500 8.37900 48.85300
Mg 30.33100 58.26800 39.56000
C  27.76300 55.86700 38.78100
C  32.48900 55.49800 39.23900
C  32.83500 60.46100 39.43800
C  28.02400 60.70500 39.69100
N  30.09300 55.92000 38.99200
C  29.02500 55.14700 38.87300
C  29.23100 53.66500 38.83300
C  30.81000 53.63200 38.97200
C  31.17200 55.11900 39.12800
C  31.37600 52.80700 40.14200
C  28.77900 53.01400 37.48500
C  29.17900 53.70800 36.15400
H  28.13400 54.17500 35.12400
N  32.41700 58.06900 39.55700
C  33.08400 56.86900 39.31900
C  34.48900 57.15900 39.29400
C  34.68300 58.58100 39.44600
C  33.27300 59.09900 39.54400
C  35.64200 56.11900 39.05900
C  36.00300 59.27300 39.54300
O  37.02700 58.61600 39.50200
C  36.16700 60.72800 39.80200
N  30.46400 60.31200 39.49900
C  31.55600 61.08300 39.45300
C  31.22900 62.58300 39.44300
C  29.75900 62.59900 39.78500
C  29.35300 61.11500 39.64600
C  32.09700 63.41500 40.43100
C  28.89800 63.63600 38.92700
C  28.51800 64.95300 39.58200
N  28.26900 58.39700 39.31500
C  27.43400 59.45700 39.51200
C  26.01900 58.94600 39.48700
C  26.18800 57.58700 39.20900
C  27.54900 57.26500 38.97600
C  24.73800 59.70300 39.71800
C  25.45700 56.37700 38.90400
O  24.23800 56.13900 39.07100
C  26.41600 55.25300 38.59300
C  26.18600 54.19600 39.56600
O  26.68500 54.25200 40.68300
O  25.47600 53.11800 39.09700
C  25.66200 51.82900 39.63000
H  33.21300 54.68100 39.26600
H  33.68600 61.14100 39.36200
H  27.29100 61.48200 39.91800
H  28.78900 53.18000 39.70400
H  31.25100 53.21000 38.06800
H  30.58600 52.25800 40.65400
H  31.80400 53.54500 40.82100
H  32.10400 52.09600 39.75100
H  27.69200 52.96400 37.54600
H  29.18500 52.00300 37.44800
H  29.88800 53.05100 35.65000
H  29.72100 54.56300 36.56000
H  36.45600 56.44900 38.41300
H  35.22900 55.23500 38.57300
H  35.99100 55.78900 40.03700
H  35.50100 61.06600 40.59600
H  35.97900 61.10700 38.79700
H  37.18100 60.93400 40.14500
H  31.40400 62.90900 38.41800
H  29.55300 62.75900 40.84400
H  31.50300 64.04800 41.09000
H  32.64400 64.16800 39.86400
H  32.72100 62.84400 41.11900
H  27.98800 63.15100 38.57400
H  29.33200 63.80700 37.94200
H  27.43100 65.00400 39.64600
H  28.90500 65.70100 38.89000
H  28.91900 65.06900 40.58900
H  23.93100 59.13900 39.25000
H  24.87500 60.69900 39.29600
H  24.53300 59.71000 40.78900
H  26.24100 54.83700 37.60100
H  25.82700 51.04400 38.89300
H  24.80800 51.54400 40.24500
H  26.55700 51.83900 40.25200

