158

Mg 28.71900 60.01600 41.87400
C  25.89000 58.12000 41.02900
C  30.64500 57.74400 40.03200
C  31.50300 62.13700 42.14600
C  26.61000 62.47100 43.03900
N  28.28500 58.30700 40.55500
C  27.08300 57.69300 40.46900
C  27.10600 56.55400 39.49800
C  28.72100 56.28200 39.27900
C  29.24000 57.47400 40.05000
C  29.31300 54.90800 39.63900
C  26.28100 56.90300 38.19200
C  25.45500 55.76400 37.69600
H  25.96500 55.29000 36.38400
N  30.81100 59.91300 41.28300
C  31.34400 58.82800 40.61100
C  32.78500 58.99800 40.57800
C  33.11100 60.22100 41.23400
C  31.79500 60.87100 41.55400
C  33.76200 58.09500 39.92700
C  34.55700 60.83800 41.47600
O  35.58700 60.14200 41.13900
C  34.71100 62.19400 42.05400
N  29.01900 62.00000 42.30000
C  30.24500 62.67500 42.39000
C  30.05500 64.06100 43.02900
C  28.58900 64.05600 43.51400
C  27.97700 62.78600 42.83400
C  30.98300 64.57200 44.24200
C  27.64600 65.33800 43.26900
C  27.39700 66.15200 44.55900
N  26.68400 60.29300 42.16000
C  25.95400 61.28000 42.62800
C  24.55500 60.96000 42.67100
C  24.54100 59.73100 42.10400
C  25.81500 59.36300 41.73100
C  23.43000 61.80100 43.23800
C  23.58100 58.68100 41.78200
O  22.33600 58.57300 42.02700
C  24.46700 57.66100 41.07600
C  24.27700 56.38300 41.81600
O  24.62600 56.25800 42.97600
O  23.56700 55.45900 41.13500
C  23.48400 54.01800 41.64800
H  31.19300 56.95300 39.51600
H  32.31700 62.85000 42.29100
H  25.95100 63.17200 43.55600
H  26.59100 55.71000 39.95800
H  29.06600 56.35800 38.24800
H  29.87000 55.27300 40.50200
H  30.07700 54.44500 39.01500
H  28.52600 54.22200 39.95300
H  27.04300 57.22800 37.48400
H  25.59100 57.73200 38.35100
H  24.39800 55.98800 37.55300
H  25.46900 54.84800 38.28600
H  34.35900 58.70600 39.25000
H  33.40600 57.21200 39.39600
H  34.44900 57.65500 40.65000
H  34.33400 62.89500 41.31000
H  35.78000 62.27900 42.24600
H  34.17700 62.35400 42.99000
H  30.10800 64.78300 42.21500
H  28.55200 63.76400 44.56400
H  31.63300 65.39000 43.93200
H  31.68300 63.74100 44.32200
H  30.52700 64.86700 45.18700
H  26.67900 65.22400 42.78100
H  28.28400 65.97500 42.65600
H  26.33800 66.39700 44.64500
H  27.89700 67.11600 44.46700
H  27.63500 65.57900 45.45500
H  23.20700 62.48900 42.42300
H  23.78400 62.34700 44.11300
H  22.54300 61.19700 43.42800
H  24.01300 57.60100 40.08600
H  24.40400 53.70000 42.13800
H  23.31400 53.25600 40.88800
H  22.73900 53.97300 42.44300
Mg -0.27900 44.05600 24.99200
C  1.74200 43.81000 27.73800
C  -3.03600 43.26400 27.02000
C  -2.30200 43.94900 22.24400
C  2.49100 44.46800 22.94900
N  -0.58300 43.63000 27.14500
C  0.38900 43.60900 28.14700
C  -0.22200 43.34800 29.50500
C  -1.72800 42.96300 29.13800
C  -1.74200 43.33900 27.66500
C  -2.23000 41.48100 29.47200
C  0.05600 44.47200 30.52500
C  0.36500 44.01500 31.98000
H  -0.18400 42.72600 32.46800
N  -2.37900 43.76700 24.69200
C  -3.34500 43.46400 25.64100
C  -4.69100 43.47300 24.98100
C  -4.48800 43.74400 23.57300
C  -2.98400 43.84100 23.43200
C  -5.96100 43.23200 25.80300
C  -5.50500 43.95300 22.54800
O  -5.23900 44.19000 21.37700
C  -7.04200 43.88700 22.92700
N  0.02500 44.35000 22.86200
C  -0.94800 44.06300 21.97800
C  -0.37000 43.94500 20.59300
C  1.12400 44.42600 20.78200
C  1.29100 44.48300 22.29500
C  -0.51900 42.43000 20.17100
C  1.41500 45.75800 20.04400
C  0.95200 46.99500 20.88500
N  1.66800 44.08400 25.21000
C  2.68100 44.27200 24.30500
C  3.97000 44.10200 24.99800
C  3.63200 43.91100 26.32200
C  2.20500 43.98800 26.39800
C  5.31500 44.04200 24.36500
C  4.23100 43.71600 27.59300
O  5.38900 43.54500 28.02400
C  3.01700 43.71600 28.54200
C  3.14900 42.51900 29.37400
O  2.82900 41.36700 29.07000
O  3.57500 42.89300 30.63000
C  3.70200 41.97500 31.74900
H  -3.80700 42.97800 27.73900
H  -2.91500 43.90400 21.34200
H  3.33000 44.55700 22.25600
H  0.31100 42.47500 29.88200
H  -2.46100 43.53300 29.71000
H  -2.73600 41.09800 28.58600
H  -2.82000 41.40300 30.38600
H  -1.40400 40.85300 29.80300
H  -0.82900 45.10800 30.56600
H  0.87900 45.11100 30.20500
H  0.05900 44.88500 32.56100
H  1.45400 44.04200 32.01200
H  -6.36200 42.27600 25.46800
H  -6.60200 44.10000 25.65500
H  -5.77500 43.21300 26.87700
H  -7.27800 44.72300 23.58600
H  -7.35100 42.96600 23.42000
H  -7.67900 44.02800 22.05400
H  -0.86700 44.56400 19.84600
H  1.84000 43.75900 20.30200
H  0.46800 41.97600 20.07800
H  -0.94900 42.23200 19.18900
H  -1.16500 41.83000 20.81100
H  0.87100 45.74700 19.10000
H  2.47700 45.81800 19.80400
H  0.37700 46.72600 21.77100
H  0.30100 47.60000 20.25300
H  1.71100 47.74900 21.09200
H  5.27900 43.51000 23.41500
H  6.01400 43.52600 25.02200
H  5.72900 45.04900 24.31400
H  3.11800 44.61000 29.15700
H  4.72200 41.92900 32.12900
H  3.23600 41.03700 31.44400
H  3.15600 42.38700 32.59800

