158

Mg 9.51500 4.57700 28.17300
C  10.85800 3.20200 31.07800
C  7.54600 6.64400 30.08500
C  8.25800 5.81600 25.40100
C  11.22200 2.05000 26.38600
N  9.25200 4.85400 30.34200
C  9.96100 4.25700 31.33500
C  9.61200 4.85300 32.69000
C  8.44300 5.92300 32.37400
C  8.39500 5.85500 30.85100
C  7.07400 5.58100 33.00400
C  10.91400 5.43500 33.38400
C  11.52700 4.70900 34.60300
H  11.86200 5.59700 35.80900
N  8.03900 6.07100 27.76900
C  7.48200 6.82800 28.68900
C  6.81100 7.97500 27.99900
C  6.94900 7.73400 26.58900
C  7.80100 6.49800 26.53300
C  5.89600 8.96800 28.68200
C  6.35200 8.35300 25.38800
O  6.48100 7.88400 24.25500
C  5.62100 9.63400 25.50100
N  9.72500 4.00300 26.19100
C  9.06000 4.71600 25.24400
C  9.47100 4.21500 23.81800
C  10.27100 2.87700 24.10300
C  10.44100 2.99500 25.63400
C  8.38000 3.97900 22.77600
C  11.58700 2.75400 23.29000
C  11.69100 1.68300 22.24300
N  10.66900 2.92300 28.60300
C  11.29400 1.98100 27.79800
C  12.09100 1.08800 28.61000
C  11.95100 1.51400 29.94000
C  11.07300 2.62300 29.81500
C  12.88300 -0.02700 28.07300
C  12.29500 1.30800 31.25400
O  12.98800 0.40300 31.68900
C  11.52700 2.30700 32.09300
C  10.55800 1.59600 32.98500
O  9.36500 1.38200 32.75500
O  11.18400 1.20000 34.16400
C  10.36900 0.47600 35.12200
H  6.90700 7.25900 30.72100
H  8.06200 6.36100 24.47500
H  11.72000 1.29300 25.77600
H  9.34900 3.99900 33.31300
H  8.80000 6.84900 32.82400
H  6.83800 6.37200 33.71600
H  7.13200 4.64800 33.56400
H  6.34600 5.51200 32.19500
H  10.54700 6.34900 33.85200
H  11.67300 5.69000 32.64400
H  12.42500 4.17200 34.29900
H  10.86400 3.91100 34.93700
H  6.27600 9.98400 28.58200
H  5.83600 8.66400 29.72700
H  4.90700 8.98000 28.22400
H  4.70000 9.33400 26.00200
H  5.46400 10.07300 24.51600
H  6.32900 10.21100 26.09500
H  10.13300 4.96100 23.37900
H  9.60800 2.01500 24.02700
H  7.47500 4.42200 23.19000
H  8.29600 2.91600 22.55100
H  8.64600 4.51000 21.86200
H  12.48200 2.65400 23.90400
H  11.81000 3.71600 22.82800
H  10.67700 1.42100 21.94300
H  12.18900 0.84700 22.73300
H  12.24000 2.16600 21.43500
H  13.39100 0.48300 27.25500
H  12.21100 -0.85300 27.84200
H  13.57100 -0.33800 28.85800
H  12.20900 2.80800 32.78000
H  10.36500 1.03300 36.05900
H  10.81200 -0.43500 35.52600
H  9.36500 0.17600 34.82200
Mg -12.27300 16.34700 41.26400
C  -8.85100 15.34900 40.57900
C  -11.54800 19.36000 39.70400
C  -15.49400 16.88600 41.13500
C  -12.93500 12.90900 42.09000
N  -10.40000 17.18400 40.19200
C  -9.11800 16.64000 40.32000
C  -8.07400 17.72400 39.83500
C  -8.99700 19.06500 39.61800
C  -10.40500 18.54500 39.80700
C  -8.73400 20.25700 40.48500
C  -7.35800 17.33800 38.50100
C  -5.92300 17.75800 38.23400
H  -5.65500 18.66500 37.02000
N  -13.34200 17.91500 40.62800
C  -12.89900 19.07400 39.96900
C  -14.11700 19.94100 39.69400
C  -15.24200 19.19600 40.09400
C  -14.72300 17.94800 40.66900
C  -14.02600 21.19800 38.97900
C  -16.81400 19.69700 39.93700
O  -17.08700 20.72700 39.35600
C  -17.99600 18.90900 40.47100
N  -13.97300 15.03400 41.71900
C  -15.16500 15.65100 41.62300
C  -16.30500 14.61500 42.03800
C  -15.49000 13.37200 42.52500
C  -14.06200 13.72900 42.06000
C  -17.47000 15.07000 42.98900
C  -15.85400 12.01600 41.90200
C  -15.71200 11.78200 40.38000
N  -11.14800 14.51000 41.37100
C  -11.60100 13.25500 41.82200
C  -10.47000 12.38200 41.78200
C  -9.35100 13.20300 41.37400
C  -9.79200 14.45900 41.06300
C  -10.51800 11.02300 42.24000
C  -7.90000 13.14200 41.17400
O  -7.10400 12.26700 41.39200
C  -7.52900 14.62200 40.67900
C  -6.60400 15.32100 41.66200
O  -6.69200 15.21500 42.84200
O  -5.55700 15.94100 40.98700
C  -4.60500 16.60400 41.89100
H  -11.34800 20.35400 39.29900
H  -16.58200 16.95500 41.19900
H  -13.09900 11.85600 42.32900
H  -7.37500 17.81300 40.66600
H  -8.74400 19.42600 38.62100
H  -9.26700 21.15900 40.18500
H  -7.65600 20.36200 40.36300
H  -8.85600 20.10600 41.55700
H  -7.81000 17.73600 37.59300
H  -7.39000 16.25800 38.36000
H  -5.24700 16.91500 38.09100
H  -5.59900 18.28300 39.13200
H  -13.01700 21.55000 38.76500
H  -14.66300 21.97700 39.39800
H  -14.46200 20.88600 38.03000
H  -18.88800 19.44800 40.15400
H  -17.98000 18.90300 41.56100
H  -18.01600 17.88900 40.08800
H  -16.75900 14.33200 41.08900
H  -15.53900 13.30300 43.61100
H  -18.40000 14.84600 42.46700
H  -17.53100 16.11700 43.28800
H  -17.40500 14.39100 43.84000
H  -16.91600 12.12900 42.12000
H  -15.53100 11.06000 42.31500
H  -16.66700 12.07000 39.94000
H  -15.54400 10.72600 40.16800
H  -14.94600 12.39600 39.90600
H  -10.84600 10.35600 41.44300
H  -11.22000 11.08300 43.07200
H  -9.51400 10.67300 42.48000
H  -7.04200 14.40600 39.72800
H  -3.97000 15.90000 42.42800
H  -5.16900 17.31600 42.49300
H  -3.90300 17.23000 41.34100

