158

Mg 2.72500 -2.78700 43.96100
C  5.89000 -0.98200 43.22400
C  1.09900 -0.29600 42.11900
C  0.02300 -4.59100 44.15200
C  4.58700 -5.10300 45.49200
N  3.46600 -0.83100 42.80800
C  4.77200 -0.33200 42.68700
C  4.77800 0.91200 41.80100
C  3.21600 1.25400 41.80600
C  2.50000 -0.02700 42.25900
C  2.69600 2.62100 42.35900
C  5.44000 0.64800 40.45400
C  6.43900 1.67400 39.89800
H  6.16300 2.17100 38.53000
N  0.87200 -2.51000 43.12300
C  0.36100 -1.42500 42.47800
C  -1.02600 -1.69900 42.21500
C  -1.31400 -2.99600 42.68900
C  -0.15300 -3.43400 43.36100
C  -1.93600 -0.73400 41.45000
C  -2.64100 -3.76100 42.54800
O  -3.60400 -3.29400 41.98300
C  -2.79600 -5.26500 42.98700
N  2.34800 -4.85700 44.34800
C  1.07000 -5.20800 44.63800
C  1.01800 -6.46800 45.44600
C  2.49400 -6.66900 45.90800
C  3.15900 -5.44300 45.26200
C  -0.00100 -6.53600 46.68400
C  3.13400 -8.08900 45.72600
C  3.47400 -8.35200 44.25900
N  4.75200 -2.98400 44.47300
C  5.35100 -4.03300 45.10300
C  6.75200 -3.78900 45.31800
C  6.99500 -2.61600 44.61800
C  5.72300 -2.16900 44.08000
C  7.67000 -4.79300 45.96100
C  8.03600 -1.69500 44.13700
O  9.23100 -1.75000 44.25600
C  7.39000 -0.58700 43.28000
C  7.49600 0.74900 43.95800
O  6.84800 1.07800 44.95600
O  8.48400 1.53000 43.39000
C  8.87300 2.63300 44.27800
H  0.64900 0.49000 41.50900
H  -0.91300 -5.08800 44.41400
H  5.22800 -5.79900 46.03600
H  5.22200 1.73400 42.36200
H  2.95800 1.36500 40.75300
H  2.35100 3.22800 41.52300
H  3.46300 3.20700 42.86500
H  1.88400 2.43900 43.06300
H  4.68600 0.43300 39.69700
H  5.98900 -0.28600 40.56900
H  7.40800 1.17700 39.91800
H  6.33700 2.56100 40.52400
H  -2.51700 -0.07000 42.09000
H  -2.51600 -1.28000 40.70600
H  -1.32100 -0.06200 40.85000
H  -1.92100 -5.73600 42.53900
H  -3.68900 -5.65300 42.49600
H  -2.99800 -5.38800 44.05100
H  0.72400 -7.19200 44.68600
H  2.60600 -6.46200 46.97200
H  -0.78200 -7.27700 46.51700
H  -0.43600 -5.55500 46.87600
H  0.46200 -6.82500 47.62800
H  2.37300 -8.81000 46.02500
H  4.05200 -8.21100 46.30100
H  4.52000 -8.10700 44.07700
H  2.85600 -7.79000 43.55900
H  3.30300 -9.39600 43.99600
H  7.39400 -5.79600 45.63700
H  7.58300 -4.62800 47.03500
H  8.71900 -4.56300 45.77400
H  7.73400 -0.52500 42.24800
H  9.11300 2.17300 45.23700
H  8.17200 3.46700 44.26300
H  9.82800 3.00600 43.90800
Mg 47.56200 25.18600 28.37700
C  48.49700 27.53000 30.79200
C  46.68800 23.05500 31.01200
C  46.96400 22.86600 26.16300
C  48.68800 27.26400 25.87300
N  47.56500 25.36300 30.57700
C  47.96300 26.38900 31.34000
C  47.67400 26.22200 32.83500
C  47.10300 24.72800 32.85600
C  47.10800 24.36600 31.35200
C  47.87700 23.78000 33.70800
C  46.78500 27.29400 33.45900
C  46.02000 26.83200 34.68200
H  45.88100 27.80500 35.88000
N  46.88600 23.29700 28.53800
C  46.55700 22.61900 29.64800
C  45.98300 21.32600 29.29100
C  46.15900 21.16200 27.88100
C  46.66800 22.48100 27.47400
C  45.38100 20.35400 30.33300
C  45.85800 19.91800 27.06600
O  46.14700 19.84400 25.86100
C  45.30200 18.70900 27.62800
N  47.76900 25.12100 26.25700
C  47.38400 24.04900 25.56900
C  47.80900 24.24300 24.07500
C  48.02100 25.80200 23.93200
C  48.10500 26.13400 25.44800
C  49.07900 23.36200 23.87000
C  46.97400 26.54800 23.07800
C  47.10300 26.63400 21.51200
N  48.36500 27.04300 28.33900
C  48.84700 27.70600 27.23100
C  49.48300 28.84100 27.73600
C  49.39400 28.86500 29.13000
C  48.65600 27.74600 29.40800
C  50.21800 29.83800 26.87600
C  49.67100 29.56800 30.35900
O  50.23400 30.67500 30.53700
C  49.09800 28.68100 31.51600
C  50.35300 28.21200 32.23300
O  51.12100 27.34400 31.86600
O  50.49700 28.86600 33.41100
C  51.58800 28.50800 34.30400
H  46.35700 22.54000 31.91600
H  46.88600 22.07400 25.41500
H  48.90800 27.96500 25.06600
H  48.68100 26.33900 33.23500
H  46.05300 24.70100 33.14700
H  48.25800 22.94100 33.12500
H  47.25500 23.40400 34.52000
H  48.70900 24.27600 34.20700
H  46.04600 27.64900 32.74100
H  47.39000 28.15300 33.74900
H  46.45500 25.93600 35.12400
H  44.97100 26.67900 34.43000
H  45.91300 19.40300 30.31600
H  44.32300 20.22400 30.10500
H  45.44300 20.77900 31.33500
H  45.75000 18.26000 28.51400
H  45.35300 17.95500 26.84200
H  44.29200 19.09800 27.75400
H  47.05400 23.91300 23.36200
H  48.99900 26.09200 23.54900
H  49.99400 23.94000 23.74000
H  48.82400 22.76300 22.99600
H  49.37400 22.69400 24.67900
H  47.02200 27.55100 23.50100
H  46.00400 26.19100 23.42500
H  47.79500 25.89800 21.10300
H  47.41200 27.66800 21.35800
H  46.17000 26.29000 21.06500
H  49.60400 30.73600 26.80400
H  50.45700 29.53800 25.85600
H  51.17400 30.05600 27.35200
H  48.28300 29.17500 32.04500
H  51.24200 27.60700 34.81000
H  51.64100 29.32400 35.02500
H  52.56300 28.32200 33.85300

