158

Mg 25.95400 0.95000 29.10600
C  27.99900 0.25000 31.96200
C  23.21400 0.81300 31.31500
C  23.94000 0.95100 26.44800
C  28.71400 0.13200 27.09200
N  25.72300 0.55600 31.40200
C  26.68900 0.50700 32.37500
C  26.04900 0.51200 33.76400
C  24.51500 0.43700 33.49600
C  24.45400 0.62000 31.97000
C  23.82700 -0.83500 34.02500
C  26.57700 1.75200 34.56200
C  27.27700 1.47800 35.89300
H  27.29800 2.56700 36.97500
N  23.87900 0.97400 28.85700
C  22.91400 0.79300 29.89700
C  21.63000 0.86800 29.28000
C  21.74100 1.02700 27.87400
C  23.20300 1.02900 27.64400
C  20.30600 0.75300 30.04000
C  20.72300 0.97400 26.81200
O  20.95900 0.98400 25.57200
C  19.31800 0.83400 27.11800
N  26.20700 0.34400 27.11000
C  25.24800 0.62200 26.15500
C  25.82400 0.61200 24.69400
C  27.36800 0.49900 25.02800
C  27.41500 0.23700 26.50200
C  25.28900 -0.58900 23.91400
C  28.34700 1.55200 24.39100
C  29.29600 0.98800 23.34600
N  28.01100 0.42600 29.41600
C  28.97700 0.16400 28.51000
C  30.21300 -0.20400 29.21000
C  29.92200 -0.10000 30.56100
C  28.55000 0.14400 30.64400
C  31.46900 -0.70900 28.65200
C  30.49100 -0.28000 31.93000
O  31.55700 -0.58500 32.34900
C  29.27000 0.10200 32.84700
C  29.16300 -1.08600 33.80900
O  28.57100 -2.14200 33.53000
O  29.60000 -0.77900 35.06300
C  28.95500 -1.65800 36.04800
H  22.37500 0.95700 31.99900
H  23.46500 1.02800 25.46800
H  29.63400 0.02100 26.51600
H  26.36700 -0.41400 34.24200
H  24.02600 1.31600 33.91500
H  22.75100 -0.75800 34.17600
H  24.36800 -1.17500 34.90900
H  23.93500 -1.60000 33.25600
H  25.78400 2.45900 34.80900
H  27.18800 2.36300 33.89800
H  28.30400 1.36800 35.54400
H  26.93300 0.56000 36.36900
H  19.87700 -0.24400 29.94300
H  19.59100 1.50600 29.70700
H  20.47200 0.85400 31.11300
H  19.27300 -0.15400 27.57600
H  18.71400 0.81100 26.21200
H  18.91800 1.61200 27.76900
H  25.42100 1.49700 24.20100
H  27.80400 -0.42500 24.64500
H  24.86800 -0.26300 22.96300
H  24.55300 -1.16000 24.48000
H  26.05700 -1.28500 23.57800
H  28.90200 2.01900 25.20400
H  27.74900 2.32000 23.89900
H  28.72300 0.57100 22.51800
H  29.94200 0.16500 23.65200
H  30.01700 1.71400 22.96900
H  31.65100 -0.47700 27.60300
H  31.37700 -1.79400 28.71300
H  32.22400 -0.31200 29.33000
H  29.48200 1.00200 33.42400
H  29.15500 -1.27400 37.04800
H  29.34300 -2.66900 35.92100
H  27.87100 -1.67800 35.93700
Mg 35.95400 48.67100 26.09900
C  36.36100 46.75800 29.06900
C  34.74800 51.29500 27.93900
C  35.31900 50.13600 23.33600
C  36.45300 45.45600 24.39500
N  35.64100 48.95300 28.28200
C  35.99400 48.06100 29.28000
C  35.59400 48.70800 30.64600
C  34.68600 49.92400 30.25600
C  34.99800 50.12500 28.75600
C  33.20100 49.73300 30.55000
C  36.89700 49.04200 31.37300
C  37.12600 48.49800 32.77700
H  36.90600 49.49600 33.93500
N  35.32300 50.60000 25.69700
C  34.94100 51.54400 26.60400
C  34.63400 52.74900 25.86000
C  34.89200 52.43200 24.50400
C  35.11600 51.00900 24.46600
C  34.24600 54.05200 26.48700
C  35.01100 53.34700 23.29200
O  35.28600 52.96800 22.16000
C  34.86400 54.88800 23.41600
N  36.09900 47.92300 24.13100
C  35.68800 48.79100 23.17400
C  35.74100 48.12500 21.81600
C  36.11700 46.63100 22.11000
C  36.28600 46.65600 23.63300
C  34.46600 48.14000 20.96800
C  37.53500 46.25300 21.49700
C  37.75000 46.53900 19.99100
N  36.41500 46.53700 26.53600
C  36.61300 45.45500 25.76200
C  36.77500 44.23800 26.62200
C  36.78100 44.73700 27.88800
C  36.49000 46.09800 27.85200
C  36.76400 42.75800 26.16300
C  36.98400 44.32400 29.31200
O  37.31900 43.29100 29.89400
C  36.65300 45.62300 30.05100
C  35.47300 45.14900 30.88900
O  34.30700 45.10500 30.51000
O  35.89200 44.96100 32.20900
C  34.79800 44.85500 33.20000
H  34.22100 52.01400 28.56900
H  35.06500 50.64400 22.40300
H  36.60900 44.46900 23.95600
H  35.04000 47.95600 31.20800
H  35.21900 50.70700 30.79600
H  32.57000 50.31200 29.87600
H  33.02900 50.02000 31.58800
H  33.05600 48.65700 30.45100
H  37.06000 50.11900 31.41700
H  37.74400 48.67700 30.79300
H  38.16300 48.17300 32.86200
H  36.51800 47.59800 32.87000
H  34.34100 53.93300 27.56600
H  33.23400 54.29600 26.16400
H  34.93900 54.80300 26.10600
H  35.66300 55.29600 24.03500
H  33.83800 55.13400 23.69100
H  34.91900 55.19700 22.37200
H  36.51500 48.65000 21.25700
H  35.32400 45.94900 21.80300
H  34.83100 48.33000 19.95800
H  33.73300 48.88100 21.28600
H  33.97000 47.18800 20.77800
H  37.82200 45.24200 21.78600
H  38.19800 47.00800 21.92000
H  36.81300 46.70800 19.46200
H  38.20800 45.63600 19.58700
H  38.48900 47.32100 19.81300
H  37.82200 42.54800 26.00700
H  36.23200 42.78300 25.21200
H  36.18400 42.08400 26.79400
H  37.53000 45.78300 30.67900
H  35.27900 44.83200 34.17700
H  34.16300 43.99600 32.98000
H  34.16000 45.71100 32.97900

