158

Mg 17.17400 51.48500 26.40600
C  19.04900 50.33500 29.16100
C  14.63900 52.31600 28.51800
C  15.45500 52.39100 23.71200
C  19.79700 50.27600 24.23600
N  16.83000 51.30400 28.55700
C  17.80200 50.95800 29.55400
C  17.29500 51.14200 30.96700
C  15.81100 51.64400 30.67400
C  15.74300 51.79500 29.14900
C  14.66200 50.79200 31.24800
C  17.97900 52.16200 31.82300
C  17.97500 51.90100 33.38400
H  17.48400 53.06800 34.31400
N  15.27800 52.22800 26.14000
C  14.39100 52.50600 27.13300
C  13.20800 52.95800 26.49600
C  13.32200 52.89800 25.09500
C  14.75300 52.51400 24.95400
C  11.96600 53.30500 27.34600
C  12.31400 53.22300 24.09300
O  12.58400 53.09100 22.90400
C  10.97200 53.90100 24.43400
N  17.55300 51.28400 24.24500
C  16.72600 51.90200 23.40000
C  17.30400 51.89000 21.97000
C  18.81600 51.46400 22.22100
C  18.72900 50.94300 23.62700
C  16.65100 50.95800 20.93100
C  19.98400 52.38500 22.02600
C  20.80000 51.97900 20.78400
N  18.97000 50.41700 26.58500
C  19.91200 50.03600 25.62800
C  21.04300 49.38900 26.30000
C  20.70700 49.43800 27.69600
C  19.47400 50.05100 27.81300
C  22.25900 48.86900 25.61000
C  21.08100 49.11100 29.05900
O  22.08000 48.53300 29.41400
C  20.09500 49.69600 30.09400
C  19.69100 48.69900 31.06800
O  19.16400 47.60400 30.84600
O  20.11800 49.14300 32.31100
C  19.80600 48.45800 33.57300
H  13.85300 52.50600 29.25100
H  14.93800 52.89600 22.89300
H  20.65500 50.02400 23.61000
H  17.32600 50.17700 31.47200
H  15.61500 52.64700 31.05300
H  15.06000 50.03400 31.92400
H  14.25300 50.14600 30.47200
H  13.87300 51.30800 31.79600
H  17.58000 53.17300 31.73900
H  19.00100 52.23800 31.45100
H  18.95900 51.51500 33.65100
H  17.20000 51.14400 33.51000
H  12.03300 54.26400 27.86000
H  11.84300 52.58000 28.15100
H  10.96900 53.33700 26.90600
H  11.14400 54.76700 25.07400
H  10.28700 53.19300 24.90000
H  10.45900 54.19600 23.51800
H  17.28000 52.89000 21.53700
H  19.02100 50.65200 21.52300
H  15.86800 51.33300 20.27100
H  16.22600 50.07400 21.40800
H  17.42300 50.63500 20.23200
H  20.57400 52.37400 22.94300
H  19.63500 53.40800 21.88200
H  20.40400 51.14800 20.20000
H  21.81800 51.83200 21.14500
H  20.83900 52.83400 20.10900
H  22.66700 49.54700 24.86000
H  21.85300 47.93200 25.22800
H  23.06900 48.72100 26.32400
H  20.59200 50.51000 30.62300
H  18.90900 48.93600 33.96600
H  20.61300 48.52500 34.30300
H  19.63500 47.39200 33.42600
Mg 1.15300 42.19800 24.89000
C  3.18800 42.28300 27.68300
C  -1.40100 40.95300 26.65000
C  -0.47500 41.64200 21.85900
C  4.11000 42.99000 22.91200
N  0.97700 41.86600 27.01600
C  1.87100 42.01900 27.99100
C  1.26300 41.84400 29.34200
C  -0.24200 41.29500 29.03500
C  -0.19300 41.26100 27.46700
C  -0.73300 39.95500 29.71500
C  1.31400 43.12500 30.18100
C  0.99400 43.10100 31.68800
H  0.64200 41.81200 32.42700
N  -0.68100 41.50100 24.34900
C  -1.63700 41.01300 25.23200
C  -2.83400 40.65600 24.52900
C  -2.67500 41.00000 23.12400
C  -1.23600 41.44400 23.04700
C  -4.03300 39.96800 25.20900
C  -3.61400 40.94600 21.88300
O  -3.26700 41.31300 20.76600
C  -5.00400 40.38100 21.97500
N  1.85300 42.06500 22.65100
C  0.88200 41.97700 21.68400
C  1.49100 42.29000 20.26600
C  2.83800 42.97900 20.65800
C  2.96200 42.63600 22.15700
C  1.61500 41.06400 19.34600
C  2.91400 44.44900 20.30000
C  2.15000 45.45700 21.16000
N  3.08800 42.59700 25.19000
C  4.18500 42.85400 24.29900
C  5.41400 42.97200 25.10700
C  5.00600 42.78500 26.37800
C  3.61300 42.56300 26.40800
C  6.85900 43.18300 24.69100
C  5.53400 42.61400 27.66500
O  6.72400 42.64200 27.99500
C  4.38600 42.44500 28.62700
C  4.72400 41.37500 29.64600
O  5.13100 40.25600 29.35000
O  4.47300 41.83100 30.93100
C  4.70800 40.92400 32.03600
H  -2.19600 40.49600 27.24400
H  -1.04500 41.63400 20.92800
H  4.99300 43.25300 22.32600
H  1.78400 41.07700 29.91600
H  -0.98500 42.04600 29.30700
H  -1.13100 39.24500 28.99000
H  -1.57600 40.22800 30.34900
H  -0.00900 39.44600 30.35200
H  0.76700 43.84500 29.57100
H  2.35800 43.43800 30.19800
H  0.19100 43.82200 31.84300
H  1.77900 43.50200 32.32900
H  -5.00400 40.45000 25.09500
H  -3.80900 39.64700 26.22700
H  -4.31300 39.06700 24.66300
H  -4.94000 39.32800 22.25200
H  -5.59900 40.77900 21.15300
H  -5.48100 40.90400 22.80400
H  0.86600 43.07100 19.83200
H  3.71100 42.60100 20.12500
H  2.67100 41.03500 19.07900
H  1.03200 41.20600 18.43600
H  1.25100 40.20300 19.90700
H  2.78200 44.66400 19.23900
H  3.98300 44.59200 20.45900
H  2.88500 45.92100 21.81900
H  1.36700 44.90000 21.67400
H  1.77300 46.25900 20.52500
H  7.50700 42.39300 25.07000
H  7.30300 44.13400 24.98400
H  7.00300 43.02400 23.62200
H  4.53700 43.41400 29.10300
H  5.76100 40.92000 32.31900
H  4.40400 39.94700 31.66200
H  4.07800 41.10800 32.90700

