158

Mg 1.29900 8.31200 25.52700
C  2.18200 10.17300 28.28100
C  1.04800 5.45700 27.59600
C  0.53700 6.39500 22.85200
C  1.71000 11.09000 23.58500
N  1.74300 7.88400 27.68200
C  1.84600 8.89500 28.67600
C  1.75700 8.25000 30.07500
C  1.78800 6.71100 29.76500
C  1.46900 6.64000 28.25400
C  3.15900 6.05500 30.22200
C  0.49400 8.71300 30.72100
C  0.46900 8.65800 32.28900
H  1.53500 7.97400 33.04900
N  0.76800 6.22400 25.26800
C  0.73500 5.22800 26.28200
C  0.19200 4.00300 25.71300
C  0.05000 4.23200 24.30000
C  0.40800 5.68400 24.07600
C  0.12200 2.71900 26.63100
C  -0.25800 3.22100 23.16900
O  -0.35500 3.53800 21.98900
C  -0.67200 1.86900 23.54000
N  1.14900 8.65100 23.57600
C  0.83200 7.73500 22.65600
C  0.69400 8.32500 21.27800
C  0.70800 9.86000 21.55600
C  1.18400 9.90700 23.00100
C  1.79200 7.81900 20.20800
C  -0.65700 10.66800 21.48900
C  -0.64700 11.94300 20.62000
N  1.81000 10.30100 25.77100
C  2.00600 11.33300 24.89200
C  2.52800 12.49500 25.50200
C  2.47200 12.19200 26.90300
C  2.17800 10.75300 26.91900
C  2.94500 13.79000 24.90600
C  2.82300 12.62200 28.24400
O  3.24600 13.64500 28.70000
C  2.47500 11.40200 29.17800
C  3.61400 11.26000 30.13100
O  4.74100 10.82200 29.89100
O  3.26900 11.90100 31.35600
C  4.30700 11.93200 32.43500
H  0.89500 4.64400 28.30800
H  0.19500 5.97700 21.90300
H  1.70100 11.99900 22.98100
H  2.62500 8.66500 30.58700
H  1.02200 6.18800 30.33700
H  3.65200 6.56000 31.05300
H  3.77400 5.99200 29.32400
H  2.91200 5.06600 30.60600
H  -0.31400 8.11600 30.29900
H  0.23300 9.72200 30.40100
H  -0.42100 8.08400 32.54900
H  0.26300 9.70000 32.53700
H  0.99100 2.52700 27.26000
H  -0.05300 1.85400 25.99100
H  -0.74300 2.91700 27.26400
H  -0.93400 1.37200 22.60600
H  -1.54700 1.94200 24.18600
H  0.18300 1.40800 24.03500
H  -0.25300 8.01300 20.83900
H  1.43100 10.28100 20.85800
H  2.18500 6.81500 20.36600
H  2.63500 8.48600 20.02700
H  1.33000 7.69300 19.22900
H  -1.00100 11.00200 22.46800
H  -1.36000 9.88200 21.21500
H  -1.62200 12.05600 20.14500
H  0.18400 12.08300 19.92800
H  -0.67700 12.72400 21.37900
H  3.72700 14.23600 25.52000
H  2.18500 14.56800 24.83100
H  3.25300 13.55800 23.88700
H  1.60000 11.65600 29.77500
H  3.90100 11.45600 33.32800
H  4.49400 12.96000 32.74500
H  5.31400 11.53600 32.30400
Mg 47.48700 15.78000 28.91200
C  45.73900 15.23300 31.81600
C  50.02500 17.16900 30.58400
C  48.82300 16.78800 25.83000
C  44.88600 14.20300 27.06400
N  47.72400 16.34000 30.97600
C  46.89000 16.02400 31.99100
C  47.47400 16.47800 33.36800
C  48.92800 16.92900 32.94000
C  48.90400 16.82700 31.40000
C  49.32000 18.34700 33.42800
C  47.23300 15.58800 34.63500
C  48.29500 15.53400 35.73700
H  48.15000 16.66800 36.74900
N  49.24300 16.77000 28.27900
C  50.14200 17.24100 29.16500
C  51.30200 17.58500 28.40600
C  51.00600 17.49100 27.04100
C  49.64800 17.00800 26.94300
C  52.63800 17.99200 29.12600
C  51.82200 17.78900 25.85300
O  51.31400 17.65400 24.73100
C  53.29000 18.02800 26.05800
N  46.96800 15.53600 26.78300
C  47.63300 16.11200 25.73800
C  46.97200 15.79100 24.36700
C  45.90900 14.74000 24.71000
C  45.90200 14.77500 26.26700
C  46.61900 17.07400 23.57700
C  46.16700 13.28400 24.08900
C  46.61300 12.10300 25.08600
N  45.82500 14.71600 29.24400
C  44.80800 14.17900 28.43800
C  43.71600 13.69100 29.28400
C  44.09100 14.01100 30.58600
C  45.37700 14.60600 30.54600
C  42.37600 13.14100 28.78600
C  43.57500 13.93400 31.96500
O  42.56400 13.39300 32.44200
C  44.68700 14.71600 32.78300
C  44.08300 15.78600 33.57000
O  43.97700 16.96200 33.26100
O  43.74700 15.29100 34.79900
C  42.91800 16.22800 35.60400
H  50.95400 17.56300 31.00100
H  49.07900 17.23800 24.86900
H  44.11000 13.65000 26.53100
H  46.97300 17.41700 33.60500
H  49.76400 16.25600 33.13100
H  49.37500 19.01100 32.56500
H  50.25800 18.23200 33.97100
H  48.56200 18.78600 34.07600
H  47.08700 14.55000 34.33500
H  46.36000 15.97100 35.16500
H  49.27300 15.70500 35.28700
H  48.22400 14.61000 36.31200
H  53.53000 17.64000 28.60900
H  52.76900 17.46100 30.06900
H  52.66800 19.07000 29.28100
H  53.70800 18.33200 25.09900
H  53.70800 17.09300 26.43000
H  53.33200 18.88100 26.73600
H  47.63800 15.29000 23.66400
H  44.98700 15.14400 24.29200
H  47.09200 17.92100 24.07200
H  45.57000 17.35500 23.67300
H  46.78400 16.98300 22.50300
H  46.99700 13.34700 23.38500
H  45.30200 12.99800 23.49200
H  46.91400 12.50700 26.05300
H  47.49800 11.66800 24.62100
H  45.79900 11.39100 25.22000
H  41.55100 13.59600 29.33500
H  42.35600 12.05200 28.78200
H  42.20800 13.44200 27.75200
H  45.17000 13.98800 33.43300
H  43.18300 17.26800 35.41400
H  43.30400 16.03900 36.60600
H  41.84200 16.05600 35.58200

