158

Mg 47.67400 24.97600 28.66900
C  48.35900 27.47100 31.04100
C  47.16900 22.79500 31.25800
C  46.79500 22.72000 26.39900
C  48.53800 27.21000 26.08800
N  47.90500 25.13700 30.85000
C  48.03800 26.29000 31.65000
C  47.82900 26.02700 33.20700
C  47.63800 24.46300 33.23500
C  47.61100 24.08000 31.70000
C  48.63300 23.79400 34.18100
C  46.70600 26.92900 33.84500
C  45.84800 26.42100 35.11700
H  45.85500 27.24900 36.44800
N  47.05600 23.02500 28.77700
C  46.92400 22.32100 29.97300
C  46.46900 20.94400 29.59500
C  46.26900 20.89400 28.16800
C  46.73800 22.23700 27.72200
C  46.27000 19.97100 30.65400
C  45.90900 19.76500 27.23800
O  45.89900 19.80500 25.99700
C  45.62500 18.51900 27.92500
N  47.95200 24.84900 26.42500
C  47.24500 23.95100 25.76700
C  47.08500 24.22800 24.30600
C  47.54800 25.68000 24.26900
C  48.10300 25.92000 25.71300
C  47.93000 23.30100 23.39100
C  46.58900 26.74800 23.78700
C  47.15200 27.99800 23.26000
N  48.23000 26.91300 28.53900
C  48.54600 27.70500 27.42400
C  49.00800 28.97300 27.83500
C  48.83900 29.01600 29.24400
C  48.40400 27.67200 29.64200
C  49.52300 29.92500 26.82200
C  48.94800 29.82800 30.41800
O  49.38600 30.97300 30.54900
C  48.65200 28.89500 31.60700
C  49.67700 28.89600 32.64300
O  50.81500 28.49100 32.42000
O  49.21900 29.32000 33.87300
C  50.32600 29.44700 34.92700
H  46.89300 22.09000 32.04400
H  46.35300 22.03200 25.67500
H  48.82800 27.98100 25.37100
H  48.78100 26.28900 33.66800
H  46.66600 24.17100 33.63300
H  48.13100 23.70500 35.14400
H  49.60100 24.27700 34.31000
H  48.95500 22.84200 33.75800
H  46.04800 27.35100 33.08600
H  47.19400 27.82400 34.23200
H  46.10400 25.38100 35.31900
H  44.78400 26.43300 34.88000
H  45.33500 19.47000 30.40400
H  46.20700 20.27800 31.69800
H  47.04900 19.21000 30.62900
H  44.56400 18.62300 28.15500
H  46.24600 18.38600 28.81100
H  45.82600 17.70100 27.23400
H  46.00700 24.21200 24.14400
H  48.43300 25.64100 23.63400
H  47.69600 23.50900 22.34700
H  47.70200 22.30400 23.76800
H  48.95500 23.58500 23.63000
H  45.93000 27.04800 24.60200
H  45.93300 26.27800 23.05400
H  48.23600 27.97800 23.15100
H  46.79600 28.82500 23.87500
H  46.70700 28.31900 22.31800
H  48.63800 30.38300 26.38100
H  50.20800 29.38900 26.16600
H  50.02900 30.72200 27.36600
H  47.85800 29.26700 32.25400
H  51.35100 29.32900 34.57700
H  50.06700 28.76700 35.74000
H  50.08800 30.39600 35.40700
Mg 48.30100 45.79900 42.68400
C  45.19200 46.76500 41.56300
C  48.02900 42.86600 40.95000
C  51.74000 45.21100 43.20400
C  48.77900 48.98500 44.01900
N  46.94600 45.06200 41.08100
C  45.62200 45.53800 40.96200
C  44.78700 44.72200 39.97600
C  45.55500 43.34500 40.14200
C  46.95300 43.76100 40.74400
C  44.82700 42.25400 41.05300
C  44.93100 45.22200 38.51800
C  43.83200 44.79200 37.49800
H  44.20200 43.72000 36.53700
N  49.71500 44.25700 42.20800
C  49.30700 43.11300 41.53400
C  50.48600 42.20600 41.52400
C  51.62400 42.87500 42.21600
C  51.03500 44.16200 42.62300
C  50.44400 40.77100 40.90500
C  52.97300 42.21800 42.47700
O  53.36400 41.23000 41.91300
C  53.97100 42.82100 43.40000
N  50.08700 47.00300 43.31900
C  51.35700 46.51100 43.48400
C  52.29800 47.66200 43.99500
C  51.28400 48.71100 44.51500
C  49.97400 48.28200 43.89900
C  53.52000 47.34000 44.93700
C  51.75200 50.16500 44.23200
C  51.56900 51.10100 45.45900
N  47.20800 47.44000 42.84900
C  47.48900 48.63400 43.49200
C  46.27400 49.48300 43.39500
C  45.29800 48.65300 42.86000
C  45.97800 47.51900 42.42300
C  46.07900 50.83600 43.94400
C  43.88600 48.59900 42.45800
O  42.89000 49.32700 42.65600
C  43.81400 47.47100 41.42100
C  42.71100 46.61900 41.94000
O  41.57300 46.64300 41.41400
O  43.06000 45.85400 43.00300
C  42.21900 44.68800 43.30500
H  47.91900 41.83100 40.62100
H  52.74900 45.00900 43.57000
H  48.88100 49.99100 44.42900
H  43.74500 44.72100 40.29600
H  45.68500 42.82600 39.19300
H  43.84500 42.70800 41.18800
H  45.29900 42.14200 42.02900
H  44.73700 41.26500 40.60500
H  45.88000 44.83700 38.14400
H  45.01700 46.30700 38.57900
H  43.49100 45.65500 36.92500
H  42.92400 44.48900 38.02000
H  50.69500 40.88200 39.85000
H  49.46600 40.29200 40.95400
H  51.16900 40.10900 41.38000
H  53.52000 43.07900 44.35800
H  54.24700 43.78400 42.97100
H  54.84500 42.17700 43.49400
H  52.70400 48.04600 43.06000
H  51.18600 48.45000 45.56900
H  53.43500 47.79200 45.92500
H  54.36300 47.81100 44.43300
H  53.72700 46.27900 45.07700
H  51.18700 50.59700 43.40600
H  52.80800 50.17200 43.96000
H  51.06600 50.63700 46.30700
H  50.92500 51.95600 45.25300
H  52.57700 51.41000 45.73600
H  45.63000 51.39100 43.12000
H  46.96500 51.36300 44.29700
H  45.31600 50.79600 44.72100
H  43.60400 47.74700 40.38800
H  42.76000 43.76800 43.52700
H  41.52500 44.50000 42.48500
H  41.44300 44.96100 44.02000

