158

Mg 8.99600 3.26200 27.07800
C  10.13100 1.76900 30.00800
C  7.13000 5.47700 29.01500
C  7.34400 4.22000 24.27400
C  10.46700 0.69300 25.21200
N  8.52500 3.46800 29.25300
C  9.22500 2.76500 30.25400
C  8.95500 3.39000 31.62600
C  7.87600 4.38000 31.35700
C  7.81400 4.50300 29.78000
C  6.42500 4.14100 31.90100
C  10.22100 4.09500 32.18400
C  10.76100 3.58000 33.50300
H  10.94900 4.46500 34.71600
N  7.49300 4.64500 26.68400
C  6.93000 5.53800 27.59700
C  6.13300 6.54500 26.91000
C  6.34900 6.30600 25.54800
C  7.06000 5.00100 25.43900
C  5.16000 7.51500 27.53900
C  5.95700 7.19600 24.27200
O  6.20600 6.89200 23.11800
C  5.32400 8.55500 24.48000
N  8.80500 2.47200 25.01200
C  8.12600 3.10600 24.06400
C  8.29000 2.46900 22.70800
C  9.46900 1.50000 23.01000
C  9.58700 1.55000 24.46600
C  6.97200 1.66000 22.32000
C  10.78700 1.77500 22.24300
C  11.25600 0.55700 21.36600
N  10.14000 1.63100 27.47700
C  10.73100 0.72700 26.61700
C  11.48500 -0.24100 27.40600
C  11.33200 0.18700 28.76400
C  10.41300 1.27500 28.65200
C  12.39700 -1.39800 26.93700
C  11.75300 -0.04000 30.11800
O  12.70100 -0.74800 30.53900
C  10.93400 1.02800 31.00800
C  10.18100 0.30300 32.04200
O  9.06500 -0.13200 31.96700
O  10.98500 0.22200 33.15800
C  10.36600 -0.57500 34.24200
H  6.54500 6.17000 29.62300
H  6.82800 4.62600 23.40200
H  11.02400 -0.07300 24.66800
H  8.70600 2.51400 32.22500
H  8.05000 5.39500 31.71300
H  6.48000 3.14500 32.33900
H  5.68400 4.12400 31.10200
H  6.26900 4.97600 32.58400
H  10.07100 5.15000 32.41500
H  11.00200 3.93000 31.44200
H  11.79100 3.37900 33.20600
H  10.31200 2.71000 33.98100
H  4.21100 6.97900 27.53600
H  5.09600 8.47800 27.03300
H  5.42300 7.77900 28.56400
H  5.19000 9.13600 23.56700
H  5.96700 9.18600 25.09400
H  4.37000 8.45300 24.99700
H  8.61700 3.26200 22.03500
H  9.03900 0.50800 22.87300
H  6.71000 2.05900 21.34100
H  6.07200 1.84500 22.90700
H  7.11700 0.58000 22.32400
H  11.53500 1.85500 23.03200
H  10.55900 2.69000 21.69600
H  10.45400 -0.13800 21.11500
H  11.95500 0.01000 22.00000
H  11.72200 0.91800 20.44900
H  13.44000 -1.08100 26.89800
H  12.11300 -1.74900 25.94500
H  12.33600 -2.30500 27.53800
H  11.58600 1.73800 31.51600
H  9.66900 0.09700 34.74300
H  11.16200 -0.69000 34.97700
H  9.89700 -1.54500 34.07500
Mg 16.98900 51.39500 26.20800
C  19.06400 50.42900 28.92400
C  14.71600 52.68000 28.41400
C  15.15800 52.26500 23.62600
C  19.51000 50.10900 24.15100
N  16.98900 51.71000 28.40600
C  17.89800 51.14700 29.37600
C  17.44700 51.47300 30.81700
C  16.00300 52.01000 30.54800
C  15.87100 52.11200 29.02900
C  14.89700 51.24000 31.31000
C  18.33100 52.58400 31.40100
C  18.09200 52.97800 32.88300
H  17.26500 52.19700 33.93100
N  15.15000 52.53700 26.07800
C  14.37200 52.97500 27.08600
C  13.33300 53.68500 26.51900
C  13.39700 53.60800 25.12800
C  14.57100 52.70100 24.89100
C  12.30500 54.41100 27.34000
C  12.48500 54.13500 24.03600
O  12.76000 54.01800 22.85900
C  11.21600 54.87600 24.40400
N  17.26900 51.21800 24.22100
C  16.35800 51.60600 23.28000
C  16.84100 51.42400 21.84400
C  18.28700 50.93300 22.03400
C  18.34500 50.67700 23.58000
C  15.89500 50.50300 21.04500
C  19.37700 51.93400 21.49400
C  20.02500 53.01900 22.47200
N  18.90700 50.40500 26.41500
C  19.85000 49.97700 25.49500
C  20.99100 49.49200 26.16900
C  20.72600 49.64600 27.57100
C  19.42500 50.16500 27.64500
C  22.41900 49.00900 25.53400
C  21.18800 49.50800 28.85000
O  22.26800 49.11600 29.22800
C  20.09600 49.93400 29.80700
C  19.62800 48.80300 30.70200
O  18.80000 47.93800 30.47100
O  20.24600 49.06200 31.86700
C  19.73800 48.23100 32.97400
H  14.01100 52.90800 29.21600
H  14.69500 52.63000 22.70700
H  20.22100 49.77300 23.39300
H  17.57100 50.53300 31.35600
H  15.98500 53.01300 30.97400
H  15.22000 50.54800 32.08800
H  14.31300 50.62200 30.62800
H  14.22900 51.95600 31.79000
H  18.28300 53.51600 30.83900
H  19.37800 52.28900 31.32600
H  17.64300 53.97100 32.89500
H  19.06400 53.07000 33.36800
H  11.31100 54.11100 27.00900
H  12.51800 55.47900 27.38100
H  12.46600 54.08700 28.36800
H  11.41200 55.68800 25.10300
H  10.39800 54.27900 24.80800
H  10.94200 55.44300 23.51500
H  16.90300 52.41300 21.39000
H  18.42800 49.99500 21.49600
H  14.90600 50.47800 21.50300
H  16.22800 49.46600 21.01000
H  15.87800 50.97100 20.06100
H  18.86300 52.58000 20.78200
H  20.14900 51.32100 21.02900
H  19.61600 53.06400 23.48200
H  19.76300 54.01700 22.12300
H  21.11100 52.92700 22.48700
H  22.43700 49.47400 24.54900
H  22.29700 47.93900 25.36500
H  23.35000 49.30100 26.01900
H  20.51900 50.76300 30.37500
H  18.78900 48.65600 33.29900
H  20.46800 48.24800 33.78300
H  19.60400 47.19300 32.67100

