158

Mg 6.75900 54.72900 41.03800
C  5.57400 51.33500 40.57600
C  9.52800 53.75800 39.29600
C  7.70300 58.00800 41.07900
C  3.68100 55.54500 42.32200
N  7.30100 52.78700 39.76900
C  6.78300 51.56600 39.89700
C  7.61600 50.53900 39.12800
C  9.02300 51.24400 39.20700
C  8.61400 52.68100 39.49000
C  9.95400 50.76700 40.31700
C  6.98000 50.46400 37.66400
C  7.17200 49.17000 36.91200
H  6.48400 49.05700 35.53900
N  8.42800 55.70300 40.38200
C  9.50400 55.10900 39.68100
C  10.42200 56.14700 39.34500
C  10.00100 57.29800 39.93700
C  8.66900 57.04500 40.53200
C  11.73300 55.79800 38.52900
C  10.78500 58.62900 39.81700
O  11.65600 58.75800 38.94200
C  10.37700 59.85000 40.64600
N  5.86800 56.48100 41.66000
C  6.44900 57.66100 41.59700
C  5.48200 58.74700 42.17800
C  4.19500 57.96900 42.73400
C  4.55400 56.59900 42.09600
C  5.97100 59.83600 43.16300
C  2.85900 58.52000 42.26500
C  1.76500 58.69600 43.34200
N  4.98000 53.73300 41.37100
C  3.81500 54.22100 41.87900
C  2.95400 53.15000 42.19300
C  3.57600 51.99200 41.70700
C  4.82200 52.39700 41.17100
C  1.63500 53.23800 42.83900
C  3.39700 50.54100 41.44800
O  2.48800 49.80800 41.70400
C  4.74100 50.07400 40.89900
C  4.51800 49.06900 39.85600
O  3.67100 49.16700 38.91300
O  5.38300 47.98900 39.97500
C  4.96800 46.75800 39.23200
H  10.46000 53.38100 38.87000
H  7.82700 59.08500 40.94900
H  2.65800 55.66000 42.68600
H  7.58400 49.59600 39.67300
H  9.45900 51.17600 38.21100
H  9.35800 50.26200 41.07600
H  10.44500 51.66900 40.68200
H  10.74700 50.09800 39.98300
H  7.47400 51.25900 37.10600
H  5.90900 50.66400 37.62500
H  6.79400 48.33200 37.49700
H  8.24700 49.12000 36.74000
H  11.97300 54.75200 38.34000
H  12.59700 56.12900 39.10400
H  11.86600 56.18500 37.51900
H  11.19600 60.56600 40.58000
H  10.17400 59.62900 41.69400
H  9.59200 60.41000 40.13800
H  5.11500 59.28900 41.30700
H  4.22600 57.89900 43.82200
H  5.76600 60.81700 42.73200
H  7.05400 59.86300 43.28400
H  5.57300 59.74000 44.17300
H  2.43100 57.88500 41.48900
H  3.04600 59.50100 41.82900
H  1.62000 59.72900 43.65500
H  2.03400 58.13000 44.23400
H  0.74900 58.39300 43.08800
H  1.74200 53.41600 43.90900
H  1.10900 52.28900 42.73900
H  1.07500 54.10000 42.47500
H  5.20200 49.47200 41.68400
H  3.88800 46.66200 39.34100
H  5.47100 45.96800 39.79000
H  5.24800 46.76800 38.17900
Mg -10.83300 38.07700 41.51200
C  -8.40000 35.55600 41.24100
C  -8.88200 40.08800 39.60300
C  -13.18100 40.34200 41.65300
C  -12.92900 35.61400 42.82200
N  -8.86500 37.78500 40.44700
C  -8.06600 36.70300 40.53100
C  -6.81300 36.94900 39.67800
C  -6.97700 38.39300 39.13900
C  -8.23600 38.83600 39.80800
C  -5.71700 39.30200 39.19400
C  -6.61000 35.73200 38.69400
C  -5.23800 35.01300 38.69100
H  -4.14300 35.48400 37.71900
N  -10.96600 39.98300 40.76800
C  -10.07700 40.62700 39.93900
C  -10.53700 41.97900 39.71800
C  -11.76400 42.13500 40.36500
C  -12.03000 40.80000 40.99400
C  -9.86000 42.99200 38.79700
C  -12.65800 43.40400 40.40000
O  -12.42100 44.46900 39.77900
C  -13.94800 43.49500 41.28400
N  -12.91500 37.86100 41.90100
C  -13.61800 39.02600 42.08500
C  -14.96400 38.74100 42.74400
C  -15.00800 37.17900 42.91600
C  -13.50300 36.82600 42.55800
C  -15.21400 39.57200 44.05200
C  -15.99600 36.32100 42.10700
C  -16.89400 35.42100 42.87400
N  -10.72300 35.96700 41.95900
C  -11.64100 35.16300 42.58300
C  -11.09200 33.76900 42.80600
C  -9.76400 33.94900 42.31200
C  -9.61600 35.22800 41.84900
C  -11.74400 32.54200 43.38000
C  -8.49500 33.30400 42.22400
O  -8.23200 32.14900 42.55400
C  -7.49100 34.32300 41.53000
C  -6.19200 34.52800 42.27500
O  -5.28200 33.76000 42.27100
O  -6.10000 35.76400 42.87600
C  -4.80000 36.18600 43.46700
H  -8.17400 40.68000 39.01900
H  -13.92400 41.08400 41.95200
H  -13.61500 34.96600 43.37100
H  -5.85900 36.90200 40.20300
H  -7.26700 38.23700 38.10000
H  -5.57300 39.56700 38.14700
H  -4.79800 38.87000 39.59200
H  -5.92500 40.17000 39.82000
H  -6.70200 36.24000 37.73300
H  -7.37100 34.95400 38.63000
H  -5.44200 33.95600 38.51800
H  -4.87000 35.08100 39.71400
H  -9.08300 43.56800 39.30000
H  -10.61300 43.72600 38.50700
H  -9.45900 42.45700 37.93700
H  -13.71000 43.19300 42.30400
H  -14.77300 42.97100 40.80100
H  -14.17000 44.54900 41.44700
H  -15.69500 38.99200 41.97500
H  -15.08500 36.85400 43.95400
H  -16.05900 39.26500 44.66800
H  -15.46100 40.55500 43.64900
H  -14.32600 39.63900 44.68000
H  -15.34100 35.87600 41.35800
H  -16.67700 36.94700 41.53000
H  -16.28300 34.65400 43.35000
H  -17.63700 34.99000 42.20300
H  -17.43800 36.09900 43.53100
H  -11.87800 31.68700 42.71800
H  -12.72600 32.84100 43.74600
H  -11.22900 32.30700 44.31100
H  -7.20900 33.99600 40.52900
H  -4.47600 36.98900 42.80500
H  -4.06600 35.39400 43.61700
H  -5.03100 36.79200 44.34400

