158

Mg -1.20200 17.73100 27.47500
C  -1.93600 15.68200 30.18600
C  -2.11800 20.43300 29.46700
C  -1.03800 19.65000 24.79200
C  -1.00400 14.83000 25.39200
N  -1.86900 18.00200 29.52000
C  -2.02000 17.00000 30.44700
C  -2.26900 17.56400 31.93300
C  -2.55200 19.09700 31.53600
C  -2.20100 19.19400 30.07900
C  -3.86400 19.76100 32.14400
C  -1.11200 17.40700 33.02100
C  -1.54600 16.90800 34.34800
H  -0.50500 16.95500 35.46200
N  -1.45200 19.75600 27.23100
C  -1.76700 20.74100 28.16400
C  -1.71300 22.06300 27.56900
C  -1.30800 21.84500 26.23000
C  -1.30200 20.39500 26.01000
C  -2.17200 23.31600 28.20300
C  -1.06900 22.84200 25.11800
O  -0.72700 22.57300 23.95100
C  -1.11600 24.29700 25.42400
N  -0.80600 17.29000 25.46100
C  -0.90100 18.29100 24.53900
C  -0.51200 17.81600 23.16000
C  -0.32900 16.25700 23.39500
C  -0.70100 16.07400 24.81400
C  -1.56700 18.03600 22.04800
C  1.15000 15.85500 23.01500
C  2.17900 15.77000 24.16200
N  -1.48600 15.70000 27.67900
C  -1.39400 14.69000 26.75200
C  -1.62400 13.46500 27.50900
C  -1.87700 13.83400 28.82100
C  -1.77500 15.17800 28.90400
C  -1.69100 12.18500 26.84100
C  -2.21800 13.24700 30.12000
O  -2.31500 12.07200 30.49300
C  -2.19700 14.48700 31.08500
C  -1.13600 14.21800 32.07800
O  0.04800 14.51400 31.98800
O  -1.69500 13.54100 33.14400
C  -0.85900 13.21200 34.31700
H  -2.31100 21.28500 30.12300
H  -0.75700 20.15600 23.86600
H  -0.79800 13.93600 24.80000
H  -3.15300 17.03100 32.28100
H  -1.85100 19.77800 32.02100
H  -4.33200 19.16500 32.92700
H  -4.59400 19.93900 31.35400
H  -3.62800 20.66500 32.70600
H  -0.66000 18.32500 33.39500
H  -0.28900 16.77700 32.68300
H  -2.02600 15.93400 34.25700
H  -2.25800 17.66800 34.67100
H  -2.97000 23.78000 27.62300
H  -1.36100 24.04200 28.13800
H  -2.57600 23.15700 29.20200
H  -0.36400 24.56400 26.16700
H  -2.12200 24.58900 25.72600
H  -0.96500 24.86500 24.50600
H  0.45000 18.24400 22.88000
H  -0.98900 15.68200 22.74400
H  -1.04100 17.89300 21.10400
H  -2.09600 18.98600 21.96800
H  -2.27400 17.20800 22.09200
H  1.54900 16.57100 22.29600
H  1.01800 14.88000 22.54700
H  3.02500 16.35100 23.79400
H  2.44500 14.71300 24.18500
H  1.93600 16.30800 25.07800
H  -1.97100 11.47400 27.61800
H  -0.71400 11.91700 26.44200
H  -2.39600 12.18400 26.01000
H  -3.21900 14.31200 31.42000
H  0.15800 13.59600 34.24500
H  -0.82200 12.12900 34.43500
H  -1.26400 13.64300 35.23300
Mg 48.51900 34.62500 26.32500
C  46.47200 33.55800 28.95400
C  49.07800 37.49500 28.13000
C  50.04500 35.99900 23.67600
C  47.42400 32.06600 24.30800
N  47.77300 35.46300 28.34800
C  47.10000 34.76800 29.35200
C  47.42400 35.44500 30.73700
C  47.83700 36.86900 30.24600
C  48.36500 36.53700 28.81500
C  46.69900 37.99500 30.13500
C  48.53500 34.64700 31.52400
C  48.38800 34.42200 33.07200
H  47.42300 35.50200 33.71100
N  49.49300 36.42800 26.00000
C  49.67500 37.43500 26.89000
C  50.46600 38.53300 26.30200
C  50.73800 38.11300 24.99600
C  50.00500 36.84000 24.85400
C  50.77900 39.80400 27.09500
C  51.52000 38.81900 23.95900
O  51.39900 38.64300 22.77200
C  52.30800 40.00800 24.36900
N  48.85700 34.00400 24.35600
C  49.46200 34.70000 23.42100
C  49.44100 34.05200 22.06300
C  48.82200 32.62300 22.37600
C  48.40100 32.90600 23.77300
C  48.75500 34.92400 21.01100
C  49.76800 31.36700 22.20900
C  49.39200 30.33300 21.15700
N  47.24000 33.09100 26.54900
C  46.91000 32.08100 25.65600
C  45.96800 31.21600 26.32600
C  45.80900 31.74300 27.59600
C  46.50100 32.95000 27.68100
C  45.41800 29.89700 25.68600
C  45.10500 31.49200 28.86700
O  44.32900 30.58400 29.22300
C  45.58700 32.58600 29.85500
C  46.35000 31.87500 30.87100
O  47.44900 31.42100 30.69300
O  45.63500 31.81200 32.02600
C  46.32700 30.98700 33.01300
H  49.33900 38.38200 28.71200
H  50.46800 36.46800 22.78600
H  47.15000 31.16200 23.76000
H  46.47900 35.50400 31.27600
H  48.59500 37.33300 30.87600
H  46.27200 38.10400 29.13800
H  47.12600 38.95600 30.42300
H  46.02000 37.68800 30.93100
H  49.50300 35.05400 31.23200
H  48.52600 33.63500 31.11900
H  49.35700 34.57200 33.55000
H  48.01300 33.43100 33.32800
H  51.76700 39.71800 27.54600
H  50.07900 40.02300 27.90200
H  50.63200 40.66600 26.44500
H  51.66800 40.88500 24.46600
H  53.10300 40.13300 23.63400
H  52.69500 39.76200 25.35900
H  50.48800 33.92100 21.78900
H  47.92500 32.49500 21.77100
H  48.02100 34.36100 20.43500
H  49.30000 35.55800 20.31200
H  48.21500 35.67700 21.58500
H  49.78200 30.89200 23.19000
H  50.78000 31.71300 21.99600
H  50.22300 30.47700 20.46700
H  48.44700 30.51100 20.64300
H  49.46800 29.32700 21.56900
H  44.86200 29.43200 26.50000
H  46.30100 29.27700 25.53400
H  44.80300 30.01300 24.79300
H  44.79900 33.09500 30.41000
H  45.81200 31.05600 33.97100
H  47.34700 31.29300 33.24400
H  46.29100 29.94000 32.71200

