158

Mg 7.51000 54.51600 41.15200
C  6.72100 51.05200 41.39500
C  10.39900 53.63400 39.57900
C  7.94700 57.69700 40.33300
C  4.04100 55.19200 41.90100
N  8.35900 52.53400 40.43800
C  7.87500 51.24200 40.62600
C  8.75300 50.19400 39.96100
C  10.09500 51.04600 39.81500
C  9.66000 52.46500 40.05200
C  11.34400 50.64500 40.74500
C  8.19700 49.67600 38.58400
C  7.42700 50.64300 37.62500
H  7.94400 50.94400 36.20000
N  9.05600 55.56200 40.20700
C  10.20500 55.03400 39.69700
C  11.06800 56.10700 39.19700
C  10.45600 57.37600 39.43700
C  9.09000 56.92100 39.94900
C  12.34300 55.86100 38.57500
C  10.97900 58.72800 39.07000
O  12.12200 58.75100 38.67700
C  10.18600 59.99600 39.21800
N  6.09800 56.16400 40.91300
C  6.60500 57.38800 40.69700
C  5.54200 58.42300 41.03900
C  4.25800 57.55600 41.25200
C  4.80300 56.15200 41.33100
C  5.93900 59.33100 42.31400
C  3.04200 57.66900 40.15700
C  2.95100 56.57700 39.12800
N  5.80200 53.46900 41.82200
C  4.48300 53.87500 42.07200
C  3.74600 52.69100 42.49700
C  4.59300 51.55800 42.35200
C  5.82300 52.08400 41.87100
C  2.35500 52.72700 43.01500
C  4.71000 50.18900 42.56100
O  3.91400 49.40800 43.06300
C  6.04400 49.81800 41.91600
C  5.72900 48.95900 40.76600
O  4.69000 49.01400 40.07800
O  6.57900 47.90800 40.76100
C  6.24600 46.78900 39.93200
H  11.14900 53.15000 38.95000
H  7.99200 58.78400 40.24400
H  3.02600 55.46600 42.19900
H  8.90300 49.37100 40.66000
H  10.49400 50.96800 38.80300
H  12.35300 50.53300 40.34800
H  11.06700 49.77700 41.34300
H  11.35600 51.39000 41.54100
H  7.61700 48.76900 38.75000
H  9.04300 49.33500 37.98600
H  7.30000 51.66300 37.98900
H  6.47900 50.14200 37.43100
H  12.39700 56.38500 37.62100
H  12.43100 54.81500 38.28200
H  13.16200 56.24000 39.18700
H  9.13800 59.89100 38.93400
H  10.54100 60.77500 38.54200
H  10.30900 60.32100 40.25100
H  5.19400 58.98200 40.17000
H  3.93800 57.74000 42.27700
H  6.84300 59.00000 42.82700
H  5.16200 59.43000 43.07200
H  6.01100 60.38700 42.05700
H  2.99600 58.59900 39.59000
H  2.11400 57.66800 40.73000
H  2.09400 55.92200 39.28700
H  3.89400 56.04700 38.99800
H  2.78200 57.07400 38.17300
H  2.05200 51.72700 43.32500
H  1.73300 52.96700 42.15200
H  2.16300 53.51900 43.73800
H  6.55100 49.22200 42.67500
H  5.87900 47.16800 38.97800
H  5.59500 46.08500 40.45100
H  7.16900 46.20900 39.92200
Mg -1.07100 34.91400 26.99700
C  -2.91000 33.33600 29.59700
C  0.30200 37.03400 29.40700
C  0.55100 36.35800 24.49400
C  -2.69700 32.74600 24.78900
N  -1.28700 35.12500 29.27100
C  -2.00900 34.29400 30.08300
C  -1.71800 34.66600 31.51800
C  -0.88900 36.00000 31.49800
C  -0.60500 36.09100 29.99500
C  -1.57500 37.30900 32.04700
C  -1.11700 33.53000 32.42700
C  -0.92900 33.98000 33.90600
H  -1.49400 33.11500 35.08900
N  0.18000 36.49500 26.93300
C  0.69000 37.19200 28.01500
C  1.64700 38.22400 27.55000
C  1.62300 38.12500 26.17900
C  0.72100 36.95900 25.77100
C  2.35800 39.10900 28.52700
C  2.30100 39.07400 25.16000
O  2.15700 38.98700 23.94800
C  3.16500 40.14700 25.67600
N  -1.27000 34.73500 24.94500
C  -0.30500 35.35500 24.16700
C  -0.41000 34.87700 22.68300
C  -1.52600 33.74800 22.74000
C  -1.87000 33.72500 24.28000
C  -0.62800 35.89000 21.60300
C  -1.05400 32.34900 22.14500
C  -0.56000 31.28800 23.16600
N  -2.53100 33.39000 27.06000
C  -3.02700 32.59200 26.10400
C  -3.96000 31.66900 26.62600
C  -3.91300 31.85100 28.06600
C  -3.06800 32.95900 28.24300
C  -4.71100 30.51500 25.86800
C  -4.47400 31.43200 29.38700
O  -5.22400 30.48000 29.68700
C  -3.81200 32.41100 30.42400
C  -4.92300 33.10700 31.06500
O  -5.45600 34.10900 30.64400
O  -5.26900 32.43700 32.19400
C  -6.31800 33.04900 33.00700
H  0.58000 37.83000 30.10000
H  1.19800 36.57900 23.64200
H  -3.15500 32.01300 24.12200
H  -2.67400 34.74300 32.03500
H  0.04500 35.75500 32.00400
H  -1.85000 37.97100 31.22600
H  -0.76400 37.74100 32.63400
H  -2.51800 37.18800 32.57900
H  -0.11600 33.30700 32.05800
H  -1.77500 32.67000 32.55500
H  -1.26600 35.00900 34.02400
H  0.14300 33.98700 34.09900
H  2.33600 38.67900 29.52800
H  1.91800 40.10200 28.43100
H  3.42000 39.09200 28.28200
H  3.90100 39.55400 26.21900
H  2.69700 40.93200 26.27000
H  3.66100 40.61900 24.82800
H  0.54400 34.37100 22.53400
H  -2.42200 34.07300 22.21200
H  -0.82300 36.84900 22.08300
H  -1.51000 35.74700 20.97800
H  0.31700 35.90800 21.06000
H  -0.27600 32.51400 21.40000
H  -1.95800 32.05400 21.61300
H  -0.11800 31.76400 24.04200
H  0.30600 30.82900 22.69000
H  -1.34700 30.54900 23.31500
H  -4.18300 30.32000 24.93400
H  -5.76000 30.78000 25.73100
H  -4.78000 29.56000 26.38700
H  -3.21200 31.78300 31.08400
H  -6.00500 33.74400 33.78700
H  -6.85300 32.28300 33.56600
H  -7.10200 33.48600 32.38900

