158

Mg 0.72800 42.97100 26.44400
C  3.13000 42.45600 28.85600
C  -1.58000 41.78600 28.59000
C  -1.37800 42.71500 23.84700
C  3.38900 43.20200 23.97800
N  0.74800 42.51000 28.55300
C  1.83200 42.37900 29.39400
C  1.40900 42.20000 30.91100
C  -0.16100 41.81200 30.77600
C  -0.34100 41.97600 29.21500
C  -0.48500 40.29600 31.23700
C  1.66200 43.52600 31.64600
C  1.86700 43.52000 33.20200
H  1.45000 42.33000 34.07300
N  -1.32600 42.61900 26.32500
C  -2.09900 42.05900 27.29800
C  -3.42100 41.84900 26.75900
C  -3.40400 42.17700 25.38000
C  -1.97700 42.55500 25.12500
C  -4.58900 41.37300 27.56600
C  -4.50900 42.24500 24.33800
O  -4.31400 42.59700 23.17000
C  -5.90700 41.84200 24.72700
N  0.97800 42.80200 24.16900
C  -0.09600 42.90800 23.39300
C  0.28400 43.07700 21.87900
C  1.78300 43.52700 22.04200
C  2.06500 43.13500 23.50400
C  0.03000 41.85000 21.04100
C  2.16500 45.04200 21.68500
C  2.47400 46.01800 22.77600
N  2.78600 42.93700 26.35800
C  3.74000 43.06200 25.35700
C  5.04300 43.16100 25.89400
C  4.87200 42.85900 27.26700
C  3.48000 42.81600 27.49700
C  6.31000 43.45500 25.13500
C  5.55600 42.65700 28.52600
O  6.75900 42.68300 28.76600
C  4.39600 42.56300 29.62200
C  4.73200 41.41400 30.54700
O  4.78800 40.22500 30.31400
O  5.02300 42.00900 31.79000
C  5.19600 41.09300 32.94200
H  -2.43300 41.41700 29.16400
H  -2.06200 42.80800 23.00000
H  4.25300 43.33900 23.32400
H  2.04000 41.49200 31.44800
H  -0.85300 42.46700 31.30500
H  0.34900 39.83900 31.76900
H  -0.81100 39.74700 30.35300
H  -1.30400 40.50400 31.92600
H  0.79200 44.15800 31.46700
H  2.44600 44.07300 31.12300
H  1.45400 44.42400 33.64900
H  2.94900 43.54600 33.32700
H  -5.27400 42.20300 27.73400
H  -4.28200 41.03500 28.55600
H  -5.13000 40.56700 27.06900
H  -5.98600 40.78600 24.98700
H  -6.46900 42.09400 23.82800
H  -6.19800 42.50600 25.54100
H  -0.39100 43.85000 21.51100
H  2.40200 42.88900 21.41200
H  0.36000 41.09700 21.75600
H  0.65400 41.87400 20.14800
H  -0.99800 41.55600 20.83400
H  1.38100 45.53300 21.10800
H  3.01900 44.98900 21.01000
H  3.46100 46.47000 22.69100
H  2.47800 45.67300 23.81000
H  1.72500 46.80500 22.69300
H  6.58700 44.50900 25.09700
H  6.07500 43.10900 24.12800
H  7.13400 42.90300 25.58700
H  4.32400 43.54200 30.09700
H  6.24500 40.93700 33.19600
H  4.69900 40.13200 32.80300
H  4.86600 41.55900 33.87000
Mg -5.63200 25.43600 26.31000
C  -4.19600 26.65700 29.18500
C  -7.54900 23.40800 28.04800
C  -6.49000 24.05500 23.36600
C  -3.35900 27.54100 24.41300
N  -5.75000 25.07200 28.38600
C  -5.17800 25.69200 29.43700
C  -5.78300 25.27300 30.79000
C  -6.62600 24.01700 30.36200
C  -6.64700 24.15000 28.88100
C  -6.05100 22.67100 30.85600
C  -6.57700 26.45300 31.38700
C  -6.41200 26.73400 32.86600
H  -5.91400 25.50000 33.73600
N  -6.83700 23.92400 25.78300
C  -7.64700 23.23100 26.65700
C  -8.62100 22.37000 25.91800
C  -8.23000 22.49100 24.55300
C  -7.14500 23.52900 24.49700
C  -9.86800 21.77500 26.61200
C  -8.83400 21.76800 23.31900
O  -8.41100 21.99900 22.17200
C  -9.99700 20.73700 23.48800
N  -4.74800 25.54800 24.19700
C  -5.47700 24.98000 23.17600
C  -5.00700 25.46600 21.80500
C  -4.22300 26.74900 22.16400
C  -4.09100 26.61300 23.64900
C  -4.10000 24.43200 20.99400
C  -5.06100 28.08200 21.79800
C  -4.10400 29.18600 21.30800
N  -4.15600 26.86600 26.65800
C  -3.31200 27.59200 25.85600
C  -2.50300 28.48900 26.61600
C  -2.74700 28.12700 27.95300
C  -3.78500 27.13700 27.85600
C  -1.44100 29.50000 26.00800
C  -2.40600 28.28100 29.34500
O  -1.59900 29.01600 29.90800
C  -3.38900 27.37800 30.15000
C  -2.53900 26.50100 31.03800
O  -1.98200 25.46000 30.67700
O  -2.51600 27.03200 32.30900
C  -1.83000 26.11500 33.29900
H  -8.27000 22.88800 28.68300
H  -7.04200 23.71900 22.48500
H  -2.73200 28.19700 23.80700
H  -4.91700 25.10300 31.42800
H  -7.61700 24.11800 30.80300
H  -5.71100 22.78800 31.88500
H  -5.37200 22.25500 30.11100
H  -6.75100 21.83600 30.88100
H  -7.64100 26.41200 31.15600
H  -6.15600 27.31500 30.87100
H  -7.43200 26.95500 33.18100
H  -5.77100 27.58000 33.11200
H  -9.44200 20.94400 27.17400
H  -10.69300 21.48600 25.96100
H  -10.34500 22.51500 27.25400
H  -9.89600 20.01000 24.29400
H  -10.13000 20.23400 22.53000
H  -10.91200 21.32400 23.55900
H  -5.94600 25.53000 21.25500
H  -3.20300 26.75700 21.78000
H  -4.67000 24.11800 20.12000
H  -3.90300 23.64800 21.72500
H  -3.13100 24.82900 20.69100
H  -5.58500 28.51500 22.65000
H  -5.83400 27.95000 21.04100
H  -4.46400 29.53700 20.34100
H  -3.08200 28.84500 21.14100
H  -4.03400 30.00200 22.02700
H  -1.68900 30.49800 26.36700
H  -1.34200 29.44500 24.92400
H  -0.50600 29.28800 26.52700
H  -4.02000 27.93200 30.84500
H  -0.79700 25.93400 33.00300
H  -2.29800 25.13100 33.25900
H  -1.96700 26.57800 34.27700

