158

Mg 17.17300 -0.56500 27.54200
C  16.06800 1.55900 30.06700
C  19.24200 -2.22700 29.60000
C  18.66400 -1.76600 24.77400
C  15.27100 1.68600 25.35800
N  17.66800 -0.27600 29.61600
C  17.09400 0.58600 30.45800
C  17.61900 0.34000 31.86700
C  18.68300 -0.88000 31.74700
C  18.56800 -1.15900 30.23400
C  20.15800 -0.62000 32.35800
C  16.55900 0.08800 32.91700
C  16.71700 0.68300 34.28400
H  18.03600 1.03800 34.85100
N  18.59000 -2.01900 27.24200
C  19.37400 -2.60800 28.23100
C  20.24200 -3.51700 27.63700
C  20.04000 -3.41100 26.21800
C  19.06000 -2.37100 25.98400
C  21.02100 -4.41700 28.53200
C  20.73100 -4.23200 25.07700
O  20.47100 -4.11700 23.86300
C  21.71900 -5.33300 25.43700
N  16.95600 -0.13800 25.39300
C  17.65600 -0.82900 24.50600
C  17.41400 -0.35100 23.11100
C  16.23200 0.61300 23.21700
C  16.20000 0.81600 24.74700
C  18.66600 0.16400 22.40600
C  14.88400 0.08100 22.61100
C  13.75700 -0.27900 23.56200
N  15.85800 1.17600 27.68300
C  15.10400 1.97600 26.69400
C  14.30100 3.01800 27.34700
C  14.72300 2.88100 28.68300
C  15.61400 1.80200 28.79200
C  13.39900 4.08900 26.86100
C  14.55400 3.51200 29.98000
O  13.93400 4.57900 30.27400
C  15.39500 2.63400 30.92000
C  16.35400 3.47200 31.67000
O  17.50800 3.62300 31.33100
O  15.75500 4.01400 32.74500
C  16.45500 5.06200 33.45800
H  19.84900 -2.85000 30.26000
H  19.16500 -2.08500 23.85800
H  14.56700 2.30000 24.79200
H  18.25800 1.20600 32.03500
H  18.36200 -1.81000 32.21500
H  20.12800 0.26900 32.98900
H  20.97500 -0.42000 31.66400
H  20.45700 -1.49000 32.94300
H  16.38900 -0.98800 32.93600
H  15.63700 0.52300 32.52900
H  16.42400 -0.08900 34.99500
H  16.11600 1.59200 34.33000
H  21.09500 -5.44100 28.16700
H  20.66000 -4.62400 29.53900
H  21.99600 -3.97300 28.73100
H  21.22400 -6.27000 25.69300
H  22.43700 -5.11500 26.22700
H  22.42000 -5.64500 24.66200
H  17.09100 -1.22200 22.54100
H  16.42000 1.56600 22.72100
H  19.41700 0.70600 22.98000
H  18.38200 0.77400 21.54800
H  19.24300 -0.73800 22.20400
H  15.07800 -0.52500 21.72600
H  14.34400 0.87400 22.09300
H  13.35400 0.60100 24.06500
H  14.09200 -0.95600 24.34700
H  12.94600 -0.73200 22.99000
H  12.63100 4.19600 27.62700
H  13.05500 3.99500 25.83200
H  13.95400 5.02700 26.88500
H  14.71200 2.26100 31.68300
H  17.34300 4.64400 33.93300
H  15.87300 5.50800 34.26500
H  16.69100 5.79400 32.68500
Mg -5.45400 25.77900 26.42600
C  -4.11600 27.44200 29.12100
C  -7.14600 23.61200 28.59400
C  -6.56900 23.97900 23.76400
C  -3.55600 27.85300 24.19100
N  -5.55100 25.56400 28.61900
C  -5.00600 26.38700 29.51200
C  -5.46000 26.00100 30.97100
C  -6.17400 24.57400 30.68700
C  -6.38700 24.65700 29.17500
C  -5.20900 23.39000 31.07200
C  -6.40700 27.10500 31.52700
C  -6.45000 27.29800 33.04300
H  -5.88800 26.16600 33.92900
N  -6.73000 24.00300 26.17700
C  -7.31300 23.29900 27.17900
C  -8.16600 22.28200 26.63200
C  -8.08900 22.41500 25.22000
C  -7.06100 23.46600 24.97200
C  -9.07300 21.40400 27.48900
C  -8.85200 21.79400 24.16500
O  -8.62600 22.10900 23.03800
C  -9.91300 20.71100 24.49500
N  -4.82900 25.72800 24.31200
C  -5.55500 24.93200 23.41000
C  -5.13800 25.27500 21.91100
C  -4.19100 26.54700 22.04900
C  -4.16900 26.75000 23.59300
C  -4.57900 24.14000 21.01800
C  -4.71100 27.83100 21.19600
C  -5.48100 27.56800 19.91700
N  -4.14000 27.34700 26.58100
C  -3.50800 28.14500 25.54600
C  -2.77400 29.21400 26.19900
C  -2.96300 28.94700 27.62700
C  -3.75300 27.78800 27.77200
C  -1.94300 30.27700 25.65700
C  -2.64100 29.43900 28.94700
O  -1.95200 30.42600 29.32800
C  -3.44100 28.54300 29.97500
C  -2.51300 28.01200 30.97900
O  -1.73500 27.13800 30.72800
O  -2.78200 28.52000 32.23600
C  -2.05500 28.03400 33.38100
H  -7.67900 22.97200 29.30100
H  -6.88900 23.50600 22.83300
H  -3.06800 28.42700 23.40000
H  -4.60700 25.91700 31.64500
H  -7.08800 24.47900 31.27400
H  -5.18100 22.79200 30.16100
H  -5.62500 22.75700 31.85600
H  -4.20400 23.74500 31.29800
H  -7.41300 27.08100 31.10900
H  -6.14100 28.04500 31.04400
H  -7.52800 27.24700 33.19100
H  -6.17700 28.30600 33.35400
H  -8.97500 21.65100 28.54600
H  -9.02400 20.35400 27.20100
H  -10.09900 21.64800 27.21200
H  -9.40700 19.96800 25.11000
H  -10.17100 20.17300 23.58200
H  -10.77900 21.24600 24.88600
H  -6.10600 25.47900 21.45300
H  -3.20100 26.27400 21.68600
H  -3.55600 24.34800 20.70400
H  -5.33100 23.88300 20.27200
H  -4.43600 23.20100 21.55200
H  -3.80200 28.38100 20.95200
H  -5.23800 28.55800 21.81300
H  -6.49900 27.88500 20.14300
H  -5.48700 26.58100 19.45500
H  -5.00700 28.29000 19.25100
H  -1.22000 29.86100 24.95500
H  -1.25200 30.82800 26.29400
H  -2.55200 30.89200 24.99400
H  -4.29700 29.07500 30.38900
H  -2.55200 27.21700 33.90300
H  -1.96200 28.89700 34.03900
H  -1.01800 27.73100 33.23600

