158

Mg 44.57400 5.23000 48.46600
C  42.86900 8.14500 47.44100
C  41.69600 3.48800 47.79500
C  46.34300 2.35400 48.75000
C  47.47100 7.10300 48.91100
N  42.55500 5.74700 47.74600
C  42.10800 6.98600 47.37500
C  40.66200 6.98400 46.94300
C  40.23100 5.50100 47.22100
C  41.51600 4.85800 47.64100
C  39.04100 5.37200 48.22700
C  40.48900 7.34600 45.40000
C  39.34300 8.29700 45.18700
H  38.26200 7.99900 44.03800
N  44.11600 3.14700 48.25500
C  42.83900 2.67600 48.05800
C  42.91300 1.27800 48.04800
C  44.24000 0.84600 48.18700
C  44.98000 2.12500 48.34000
C  41.76700 0.43500 47.80800
C  44.70600 -0.57300 48.26400
O  43.91800 -1.48500 48.19200
C  46.10100 -0.82500 48.34900
N  46.62400 4.78200 48.71700
C  47.12500 3.52200 48.90700
C  48.70900 3.44400 49.12200
C  49.02200 4.97500 49.04300
C  47.59400 5.70300 48.93100
C  49.08300 2.80500 50.49400
C  50.05200 5.38200 47.88800
C  51.37500 6.04300 48.26000
N  45.10300 7.24700 48.33900
C  46.28500 7.87500 48.52400
C  46.13500 9.28200 48.34700
C  44.81600 9.36100 47.96800
C  44.21200 8.16000 47.93300
C  47.26100 10.25500 48.55500
C  43.81000 10.25500 47.40500
O  43.97200 11.43400 47.17400
C  42.52100 9.55800 47.09200
C  41.46700 10.15600 47.94700
O  41.16700 9.66900 49.05400
O  40.75900 11.11800 47.23300
C  39.43300 11.42700 47.79900
H  40.77900 3.00300 47.45600
H  47.08100 1.54900 48.78100
H  48.34600 7.75700 48.90200
H  40.02500 7.63500 47.54000
H  39.93200 4.99800 46.30100
H  39.35000 4.82500 49.11800
H  38.36800 4.79600 47.59200
H  38.64100 6.33200 48.55300
H  40.40200 6.41000 44.84800
H  41.40100 7.86400 45.10200
H  39.77400 9.29100 45.06400
H  38.80100 8.19800 46.12800
H  42.15400 -0.42000 47.25300
H  40.95100 0.92100 47.27300
H  41.40900 0.14700 48.79600
H  46.27100 -1.88700 48.52400
H  46.47400 -0.32100 49.24100
H  46.47200 -0.41300 47.41100
H  49.08400 2.87400 48.27200
H  49.52500 5.23900 49.97300
H  49.23600 1.74000 50.32100
H  48.33300 3.00800 51.25900
H  49.99600 3.22600 50.91600
H  49.57000 6.10600 47.23000
H  50.14700 4.43800 47.35200
H  52.23100 5.48600 47.88100
H  51.43600 6.14400 49.34400
H  51.38300 7.02200 47.78100
H  47.85300 9.93200 49.41100
H  46.83200 11.23900 48.74000
H  47.91500 10.27000 47.68300
H  42.34200 9.72700 46.03000
H  38.89400 10.48500 47.89300
H  38.79200 11.97000 47.10500
H  39.53300 11.93400 48.75900
Mg -11.86000 15.64300 41.25100
C  -8.74700 13.99200 40.86900
C  -10.27400 18.33700 39.77200
C  -14.77200 17.04900 40.98200
C  -13.21600 12.57100 42.07500
N  -9.69800 16.10000 40.65600
C  -8.59600 15.27900 40.46400
C  -7.40800 15.95300 39.86400
C  -7.87900 17.44500 39.89300
C  -9.40300 17.34300 40.13900
C  -7.11100 18.23100 41.07900
C  -7.11900 15.44100 38.42100
C  -5.64700 15.28900 38.04100
H  -5.23500 15.89500 36.68100
N  -12.42900 17.53900 40.64100
C  -11.64500 18.43900 40.00300
C  -12.46800 19.57800 39.70000
C  -13.80400 19.28100 40.10700
C  -13.72300 17.92100 40.68100
C  -11.89100 20.84600 39.02100
C  -15.00100 20.17800 39.91600
O  -15.00000 21.25200 39.37500
C  -16.36000 19.71400 40.39200
N  -13.71400 14.93200 41.39100
C  -14.77300 15.70500 41.31100
C  -16.11400 14.87400 41.37900
C  -15.58700 13.43200 41.79200
C  -14.07000 13.64000 41.73600
C  -17.24000 15.38700 42.27600
C  -16.03600 12.31300 40.88400
C  -17.06200 11.33200 41.39300
N  -11.11200 13.68600 41.67900
C  -11.78900 12.50800 41.95100
C  -10.87400 11.40200 42.08700
C  -9.69200 11.98700 41.63500
C  -9.89900 13.35200 41.36000
C  -11.23600 10.02300 42.52500
C  -8.25200 11.72200 41.38300
O  -7.62100 10.69200 41.47100
C  -7.62000 12.97300 40.85700
C  -6.54500 13.37700 41.85500
O  -6.67700 13.81900 42.94800
O  -5.32700 12.99300 41.35600
C  -4.18900 13.23900 42.25600
H  -9.79800 19.23300 39.36800
H  -15.78500 17.45800 40.97600
H  -13.79900 11.73000 42.45700
H  -6.55100 15.92800 40.53700
H  -7.60700 17.99700 38.99400
H  -6.51500 17.51700 41.64800
H  -7.80600 18.67900 41.78900
H  -6.51400 19.08400 40.75800
H  -7.60900 16.19000 37.79900
H  -7.66400 14.52000 38.21200
H  -5.43900 14.22200 38.11900
H  -5.02100 15.79900 38.77300
H  -12.58600 21.33100 38.33500
H  -11.05200 20.49500 38.42000
H  -11.56600 21.56000 39.77700
H  -16.79300 18.99300 39.70000
H  -16.95400 20.62800 40.39700
H  -16.20300 19.31800 41.39500
H  -16.47200 14.87000 40.34900
H  -15.87000 13.21900 42.82300
H  -16.94600 16.29300 42.80600
H  -17.51900 14.55300 42.92000
H  -18.05400 15.65800 41.60300
H  -15.21300 11.83700 40.35100
H  -16.58600 12.68900 40.02100
H  -17.52400 11.79400 42.26600
H  -16.56300 10.39600 41.64500
H  -17.82000 11.00600 40.68200
H  -10.34100 9.43200 42.71800
H  -11.87900 9.60600 41.75000
H  -11.80600 10.18900 43.44000
H  -7.20900 12.71000 39.88200
H  -4.30100 12.72100 43.20900
H  -4.26700 14.30900 42.44900
H  -3.24200 12.92300 41.82000

