158

Mg 45.06700 5.35500 48.19900
C  43.06000 8.39000 47.32400
C  42.42100 3.63900 47.58600
C  47.25500 2.85400 47.90700
C  47.81200 7.58400 48.35500
N  43.03200 5.98800 47.22300
C  42.37900 7.21500 47.12100
C  40.96300 7.07100 46.60500
C  40.73000 5.53000 46.95900
C  42.09000 5.04700 47.32900
C  39.61300 5.28000 48.04500
C  40.89200 7.36000 45.06400
C  39.64400 8.18600 44.59100
H  38.97600 7.62000 43.34300
N  44.86100 3.52800 47.87100
C  43.62600 2.99800 47.73000
C  43.81100 1.59700 47.60100
C  45.18900 1.30400 47.63000
C  45.87400 2.59100 47.83800
C  42.67300 0.58600 47.18500
C  45.82100 -0.06600 47.52400
O  45.08200 -1.00600 47.16500
C  47.26000 -0.48100 47.79100
N  47.20600 5.23900 48.29200
C  47.86300 4.08500 48.11300
C  49.34100 4.27800 48.11100
C  49.52700 5.74800 48.17800
C  48.08800 6.23900 48.24500
C  50.14100 3.39900 49.17100
C  50.30400 6.44400 46.93400
C  51.76100 6.13000 46.73900
N  45.37700 7.56200 48.00600
C  46.59200 8.27600 48.18000
C  46.34900 9.69000 48.01200
C  44.97900 9.75100 47.76900
C  44.42700 8.46500 47.71700
C  47.39400 10.75400 48.20800
C  43.83900 10.69600 47.60000
O  43.85200 11.94200 47.58300
C  42.56500 9.81400 47.29800
C  41.54100 10.08000 48.33900
O  41.30900 9.39800 49.31700
O  40.83100 11.17400 47.95200
C  39.71900 11.65800 48.79800
H  41.49600 3.06100 47.55000
H  47.92100 2.00500 47.73900
H  48.72400 8.14700 48.56500
H  40.26100 7.71500 47.13300
H  40.40000 5.04600 46.04000
H  39.06700 6.16500 48.37100
H  40.10100 4.91700 48.95000
H  38.85200 4.54500 47.78600
H  40.98600 6.36900 44.62000
H  41.82300 7.83800 44.75900
H  39.97200 9.19400 44.33800
H  38.85900 8.28500 45.34200
H  42.88800 0.12800 46.21900
H  41.63600 0.91900 47.13300
H  42.63800 -0.20400 47.93500
H  47.23400 -1.54400 48.02900
H  47.75800 0.11000 48.56000
H  47.80700 -0.37700 46.85400
H  49.77800 3.89600 47.18800
H  50.03300 6.10600 49.07500
H  49.52900 2.60600 49.60000
H  50.69400 3.93100 49.94500
H  50.80800 2.83200 48.52300
H  50.21300 7.52600 47.03300
H  49.78900 6.14100 46.02300
H  51.71200 5.50500 45.84700
H  52.13200 5.52000 47.56300
H  52.36600 7.03600 46.73700
H  46.81900 11.67900 48.25300
H  48.10800 10.87700 47.39400
H  47.95700 10.56500 49.12100
H  42.11900 9.94600 46.31200
H  39.61100 11.08800 49.72000
H  38.83700 11.63100 48.15700
H  39.90100 12.68600 49.11300
Mg 40.60900 9.78600 29.85000
C  42.75400 11.09800 32.60900
C  38.26000 9.02400 32.17800
C  39.07600 8.06000 27.51000
C  43.49400 10.06700 27.92700
N  40.56700 9.98100 32.16400
C  41.44100 10.68500 33.02200
C  40.86000 10.73200 34.43500
C  39.45800 10.00300 34.30500
C  39.36200 9.69500 32.80100
C  39.25500 8.74300 35.22700
C  40.75200 12.20500 35.04200
C  39.80000 12.20600 36.31400
H  40.22300 13.12900 37.45400
N  38.85000 8.76200 29.84500
C  38.05300 8.51500 30.88900
C  36.98000 7.64900 30.43600
C  37.18800 7.45500 29.06400
C  38.39300 8.11100 28.73900
C  35.93000 7.17600 31.41200
C  36.30000 6.76200 28.13100
O  36.46900 6.71500 26.92100
C  35.09700 6.03400 28.72600
N  41.16600 9.24000 27.93400
C  40.27000 8.60700 27.09100
C  40.83700 8.48100 25.64900
C  42.14000 9.40800 25.79300
C  42.33800 9.60300 27.31700
C  40.98100 6.98800 25.17000
C  42.23000 10.80300 25.12800
C  40.92900 11.70800 25.23500
N  42.68500 10.43200 30.12200
C  43.68600 10.51700 29.24400
C  44.87200 11.12800 29.78100
C  44.54500 11.37100 31.08800
C  43.18200 10.99400 31.24000
C  46.15100 11.36500 29.09800
C  45.03200 11.97500 32.27800
O  46.06900 12.54300 32.40800
C  43.84100 11.82000 33.33000
C  44.31400 11.09200 34.50400
O  44.78000 9.94100 34.53200
O  44.13100 11.92300 35.58900
C  44.25400 11.40300 36.92700
H  37.50200 8.68600 32.88800
H  38.70400 7.46300 26.67500
H  44.37800 10.28500 27.32300
H  41.50800 10.07400 35.01500
H  38.70000 10.75200 34.53500
H  38.98200 7.87300 34.63000
H  38.43300 8.96900 35.90600
H  40.19500 8.52400 35.73300
H  40.33700 12.95200 34.36600
H  41.73500 12.57600 35.33300
H  39.74500 11.21800 36.77100
H  38.80700 12.57600 36.06100
H  34.95200 7.65600 31.43600
H  36.33400 7.11500 32.42300
H  35.87600 6.10500 31.21600
H  35.35300 5.07800 29.18200
H  34.45500 5.71300 27.90600
H  34.61900 6.68500 29.45800
H  40.17100 9.06600 25.01500
H  43.05900 8.88900 25.52100
H  42.05100 6.78500 25.22500
H  40.59600 6.98400 24.15100
H  40.40000 6.29000 25.77300
H  42.54600 10.73900 24.08700
H  42.97700 11.35900 25.69500
H  41.05100 12.57200 25.88900
H  40.20500 11.14200 25.82100
H  40.61700 11.95100 24.22000
H  46.06800 12.06400 28.26700
H  46.44700 10.45500 28.57500
H  46.91600 11.62100 29.83200
H  43.53100 12.80400 33.68300
H  43.28400 10.92000 37.04000
H  44.34200 12.16100 37.70500
H  45.12300 10.76200 37.07400

