158

Mg 24.41000 -4.92500 45.08900
C  26.25200 -2.61800 43.38100
C  21.76800 -4.38900 42.91800
C  22.98900 -7.86000 46.08300
C  27.32600 -5.94000 46.86700
N  24.11400 -3.56900 43.40100
C  24.96100 -2.73300 42.89500
C  24.37200 -1.95400 41.68300
C  22.87800 -2.32200 41.80500
C  22.91800 -3.50100 42.80900
C  21.94800 -1.17600 42.33600
C  25.05200 -2.37500 40.38200
C  25.52300 -1.31900 39.30900
H  25.28300 -1.56900 37.85600
N  22.49500 -5.83700 44.71200
C  21.59000 -5.49800 43.74100
C  20.48400 -6.42900 43.76800
C  20.79000 -7.46000 44.66300
C  22.14800 -7.07200 45.22400
C  19.20500 -6.35900 42.82800
C  19.98400 -8.77700 44.84400
O  18.94800 -8.92000 44.23600
C  20.42100 -9.95900 45.59600
N  25.02200 -6.61900 46.46200
C  24.25600 -7.72000 46.63000
C  24.90000 -8.75800 47.54100
C  26.14600 -7.97500 48.06000
C  26.20100 -6.78200 47.08100
C  23.93100 -9.18100 48.66700
C  27.43600 -8.81700 48.17300
C  28.41100 -8.47900 49.25800
N  26.37600 -4.27900 45.31700
C  27.45000 -4.76100 46.06000
C  28.62300 -3.93100 45.76700
C  28.22300 -3.09400 44.73200
C  26.86200 -3.37800 44.48700
C  30.01400 -4.04500 46.43100
C  28.65400 -2.08000 43.69900
O  29.77000 -1.56700 43.57500
C  27.35700 -1.73900 42.81300
C  27.04600 -0.23900 42.82400
O  26.62300 0.43300 43.74300
O  27.52100 0.27300 41.62300
C  27.23900 1.72700 41.34600
H  20.98500 -4.16300 42.19100
H  22.70900 -8.88400 46.33800
H  28.20600 -6.35900 47.35900
H  24.54900 -0.90700 41.92700
H  22.52600 -2.75800 40.87100
H  22.38100 -0.17800 42.26900
H  21.40900 -1.37800 43.26100
H  21.16700 -0.97800 41.60200
H  24.22700 -2.83900 39.84200
H  25.82800 -3.13500 40.48000
H  26.59000 -1.11600 39.40200
H  25.08900 -0.36000 39.59000
H  19.04000 -5.32600 42.52300
H  18.30000 -6.78600 43.25900
H  19.64400 -6.93900 42.01600
H  21.26400 -10.46100 45.12100
H  19.58800 -10.62000 45.83800
H  20.61500 -9.66600 46.62700
H  25.27700 -9.65100 47.04200
H  25.98300 -7.65600 49.08900
H  23.20900 -8.39100 48.87300
H  24.50500 -9.22300 49.59300
H  23.48700 -10.13800 48.39300
H  27.87500 -8.86200 47.17700
H  27.05400 -9.78600 48.49400
H  28.63000 -9.39700 49.80200
H  28.13000 -7.79500 50.05800
H  29.28500 -8.22100 48.65900
H  30.03400 -3.74300 47.47800
H  30.86900 -3.58300 45.93700
H  30.25700 -5.10600 46.38800
H  27.70200 -2.14100 41.86000
H  28.13000 2.19100 41.76800
H  26.30700 1.99500 41.84400
H  27.11300 1.98600 40.29400
Mg 24.66900 1.53100 28.76300
C  26.67100 1.26100 31.62700
C  21.92900 1.74400 30.75700
C  22.75900 1.65300 25.88800
C  27.44700 0.78500 26.81500
N  24.40400 1.63600 30.92400
C  25.31300 1.56100 31.96100
C  24.67900 1.67600 33.36500
C  23.16500 1.51400 33.08000
C  23.14100 1.66000 31.43900
C  22.44600 0.18000 33.45300
C  25.14900 3.02700 34.06100
C  25.91200 3.03400 35.44400
H  25.27400 3.92700 36.56400
N  22.70500 1.78300 28.41600
C  21.75200 1.86600 29.34100
C  20.47800 2.03700 28.69100
C  20.68700 1.86400 27.31500
C  22.09800 1.66800 27.16000
C  19.13100 2.17100 29.48700
C  19.62200 1.65800 26.15900
O  19.99900 1.42400 25.01600
C  18.24400 1.81900 26.39600
N  25.05100 1.25600 26.70400
C  24.13800 1.50600 25.71900
C  24.71300 1.52800 24.29300
C  26.25800 1.35900 24.56800
C  26.25300 1.14800 26.11700
C  24.23000 0.48100 23.41400
C  27.13000 2.53600 24.05700
C  27.21400 3.74800 25.03100
N  26.61800 0.97400 29.12600
C  27.62200 0.78300 28.19100
C  28.85800 0.64100 28.91300
C  28.52300 0.71300 30.26100
C  27.15100 1.02100 30.34400
C  30.20100 0.36100 28.41000
C  28.98500 0.65500 31.61900
O  30.11700 0.40300 31.97500
C  27.86400 1.11500 32.58000
C  27.60000 -0.03400 33.51300
O  26.69600 -0.85000 33.54500
O  28.54900 -0.04900 34.48100
C  28.64000 -1.15700 35.39100
H  21.10800 1.90700 31.46000
H  22.26300 1.73100 24.91900
H  28.36000 0.61700 26.23900
H  24.98000 0.86800 34.03300
H  22.56400 2.33900 33.46300
H  22.01700 -0.26800 32.55700
H  21.53100 0.28700 34.03600
H  23.05900 -0.51900 34.02100
H  24.24000 3.61400 34.19000
H  25.79000 3.53000 33.33700
H  26.91700 3.41400 35.26300
H  26.07300 2.00300 35.76100
H  19.43000 2.62800 30.43000
H  18.80100 1.13700 29.58800
H  18.29600 2.75200 29.09500
H  17.98100 2.61000 27.09900
H  17.75000 0.89600 26.70000
H  17.76900 2.05000 25.44300
H  24.51300 2.45700 23.75700
H  26.70900 0.45500 24.15900
H  23.23100 0.78800 23.10600
H  24.10000 -0.33800 24.12200
H  24.92000 0.23000 22.60800
H  26.75000 2.93900 23.11900
H  28.15400 2.21200 23.87300
H  26.28200 3.96900 25.55000
H  27.44100 4.66700 24.48900
H  27.99500 3.57100 25.77000
H  31.00900 0.67400 29.07100
H  30.34300 0.83500 27.43900
H  30.30900 -0.68600 28.12500
H  28.13400 2.07400 33.02300
H  28.70200 -2.07400 34.80600
H  27.92300 -1.25600 36.20500
H  29.61800 -0.97900 35.83600

