158

Mg -2.27400 18.09200 27.72500
C  -2.62500 15.66000 30.20700
C  -3.05100 20.53800 29.92900
C  -2.37200 20.22500 25.11800
C  -1.92100 15.34400 25.30500
N  -2.74100 18.12600 29.82200
C  -2.86200 17.01300 30.65600
C  -3.18200 17.38200 32.11600
C  -3.41400 18.95200 31.92100
C  -3.06700 19.22100 30.47600
C  -4.87600 19.51600 32.34900
C  -2.10200 16.88600 33.12800
C  -1.51100 17.89500 34.08200
H  -1.07400 17.23200 35.43500
N  -2.55400 20.07600 27.54300
C  -2.77800 20.92400 28.66900
C  -2.78700 22.32600 28.12900
C  -2.55900 22.21000 26.65700
C  -2.45600 20.80600 26.36300
C  -3.06500 23.57000 29.03100
C  -2.53900 23.34300 25.68000
O  -2.56600 23.14300 24.45400
C  -2.51200 24.69200 26.22200
N  -2.15500 17.80700 25.52400
C  -2.11200 18.85800 24.72100
C  -1.86200 18.55500 23.28600
C  -1.54500 17.04600 23.39700
C  -1.91000 16.66700 24.81500
C  -2.97900 18.91800 22.30700
C  -0.08200 16.69600 23.07700
C  1.03400 17.35500 23.85100
N  -2.21400 15.89100 27.70600
C  -2.16000 15.00900 26.67600
C  -2.20100 13.68100 27.27600
C  -2.34900 13.83400 28.65500
C  -2.34900 15.23000 28.87600
C  -2.38100 12.41600 26.61500
C  -2.60200 13.12300 29.87500
O  -2.69500 11.89500 30.04700
C  -2.74500 14.37400 30.97600
C  -1.84500 14.05400 32.03700
O  -0.68400 14.36200 32.09100
O  -2.46600 13.31500 33.03500
C  -1.77100 12.88600 34.27000
H  -3.20000 21.31900 30.67700
H  -2.42000 20.91700 24.27500
H  -1.90300 14.52500 24.58300
H  -4.07200 16.83800 32.43300
H  -2.68300 19.50400 32.51100
H  -5.27200 18.86900 33.13100
H  -5.61900 19.56700 31.55300
H  -4.91700 20.53500 32.73200
H  -1.18100 16.54900 32.65200
H  -2.56100 16.00000 33.56600
H  -2.24400 18.56200 34.53600
H  -0.70400 18.46900 33.62600
H  -2.25500 24.30000 29.04900
H  -3.19100 23.35100 30.09100
H  -4.01000 23.95700 28.65000
H  -1.63400 24.89100 26.83700
H  -3.45800 24.94700 26.70000
H  -2.47100 25.41800 25.41000
H  -0.96000 19.15400 23.16100
H  -2.19000 16.36800 22.83800
H  -2.72800 19.67700 21.56600
H  -3.95000 19.15700 22.74100
H  -3.11700 18.01900 21.70600
H  0.00300 17.11700 22.07500
H  -0.07300 15.60600 23.05300
H  0.57500 18.01500 24.58700
H  1.78100 17.83700 23.21900
H  1.43900 16.60500 24.53100
H  -3.43800 12.22600 26.42600
H  -2.04700 11.57000 27.21700
H  -1.81800 12.36900 25.68300
H  -3.77000 14.30200 31.33900
H  -0.91700 12.27100 33.98700
H  -2.48500 12.25000 34.79200
H  -1.43100 13.72200 34.88200
Mg 45.70400 3.50500 48.53600
C  43.76700 6.24300 47.39500
C  42.85600 1.55700 47.85200
C  47.54800 0.74200 48.88400
C  48.42700 5.53500 48.80600
N  43.47200 3.89500 47.66600
C  42.97200 5.06600 47.35100
C  41.53100 4.92800 46.84800
C  41.31800 3.43100 46.98400
C  42.62700 2.88700 47.59100
C  40.07300 3.03800 47.84600
C  41.17900 5.53100 45.43400
C  39.85100 6.26000 45.29600
H  39.07400 6.01300 43.98700
N  45.29000 1.37900 48.34400
C  44.04900 0.83000 48.12200
C  44.21000 -0.64100 48.13000
C  45.59600 -0.89800 48.43700
C  46.23200 0.42200 48.62600
C  43.06500 -1.64600 47.89100
C  46.18100 -2.28800 48.57000
O  45.54300 -3.33800 48.32100
C  47.54300 -2.55300 49.00700
N  47.75300 3.16200 48.65000
C  48.26000 1.92700 48.87100
C  49.74400 2.04900 49.24400
C  50.03800 3.65400 49.26400
C  48.72700 4.16100 48.88600
C  50.21700 1.28500 50.53400
C  51.04600 4.17400 48.22700
C  52.31200 4.96200 48.68900
N  46.11800 5.46300 48.22500
C  47.28500 6.22600 48.41500
C  47.07500 7.54800 48.27000
C  45.67900 7.58200 47.89300
C  45.10600 6.31000 47.88600
C  47.96500 8.68500 48.26300
C  44.59600 8.55400 47.53700
O  44.60900 9.79000 47.42100
C  43.36200 7.68500 47.31800
C  42.22500 8.01300 48.23000
O  41.79900 7.34700 49.17600
O  41.57600 9.23300 47.86500
C  40.44100 9.82900 48.59100
H  42.01500 0.93200 47.54500
H  48.21200 -0.12000 48.96700
H  49.22500 6.25200 49.00600
H  40.97000 5.50000 47.58600
H  41.28200 2.83700 46.07000
H  39.41400 3.90200 47.76100
H  40.45700 2.86200 48.85000
H  39.57900 2.18300 47.38300
H  41.14600 4.75000 44.67400
H  41.98800 6.16200 45.06500
H  40.08100 7.30400 45.50600
H  39.27500 6.09700 46.20700
H  42.50000 -1.36900 47.00100
H  42.34900 -1.63700 48.71300
H  43.40400 -2.67800 47.80000
H  48.27100 -2.19100 48.28100
H  47.59800 -3.63700 49.10400
H  47.76900 -2.04500 49.94500
H  50.30300 1.67200 48.38700
H  50.16300 3.98300 50.29600
H  50.67200 2.01200 51.20700
H  50.96500 0.51100 50.36200
H  49.28200 0.99800 51.01700
H  50.53700 4.73700 47.44500
H  51.60300 3.40100 47.69700
H  52.45200 5.03600 49.76800
H  52.15400 5.96000 48.28000
H  53.25200 4.58000 48.29000
H  47.56300 9.41200 47.55800
H  48.96700 8.38300 47.95800
H  47.97000 9.12400 49.26100
H  43.07300 7.78900 46.27200
H  40.28600 9.21700 49.48100
H  39.49700 9.79100 48.04600
H  40.69900 10.85100 48.86700

