158

Mg 35.02100 48.21500 26.19200
C  35.13900 46.20900 29.04200
C  34.06400 50.87600 28.03300
C  34.43500 49.90900 23.31800
C  35.49800 45.19900 24.31500
N  34.51300 48.50300 28.23900
C  34.74600 47.56700 29.26800
C  34.56900 48.22300 30.67400
C  33.91000 49.60700 30.27500
C  34.18400 49.69700 28.74600
C  32.35800 49.72700 30.56400
C  35.91600 48.43000 31.39500
C  36.11200 48.11600 32.91600
H  36.24900 49.29000 33.88700
N  34.40900 50.14300 25.79400
C  34.04300 51.08900 26.61700
C  33.62600 52.35100 26.02000
C  33.81900 52.06300 24.61100
C  34.23500 50.63900 24.54400
C  32.95600 53.46900 26.74900
C  33.49100 52.95900 23.39400
O  33.54300 52.55200 22.24900
C  33.02700 54.38700 23.48400
N  34.71800 47.61500 24.18000
C  34.68200 48.50900 23.18200
C  34.56400 47.83600 21.85400
C  35.10900 46.43300 22.09400
C  35.19600 46.35700 23.63700
C  33.23000 47.71400 21.08200
C  36.51500 46.12100 21.46600
C  36.77800 44.66700 20.91100
N  35.27500 46.10600 26.54500
C  35.44900 44.99000 25.66600
C  35.73800 43.77600 26.43600
C  35.65500 44.20000 27.78100
C  35.32300 45.65400 27.78400
C  36.16100 42.45200 25.89800
C  35.77500 43.82000 29.24600
O  36.23300 42.80900 29.79300
C  35.42400 45.11700 30.06900
C  34.29000 44.79300 30.97600
O  33.20400 44.33400 30.59600
O  34.64600 44.90800 32.34400
C  33.51400 44.79600 33.27400
H  33.93100 51.74900 28.67500
H  34.30200 50.37800 22.34100
H  35.68300 44.34900 23.65500
H  33.91400 47.65900 31.33900
H  34.49200 50.37900 30.77900
H  32.33700 50.62500 31.18100
H  32.00000 48.74100 30.86000
H  31.73100 50.11400 29.76100
H  36.39200 49.40500 31.29200
H  36.58700 47.82200 30.79000
H  37.06900 47.59300 32.92100
H  35.24800 47.54600 33.25700
H  33.71400 54.18500 27.06900
H  32.42900 53.07800 27.61900
H  32.24100 53.99600 26.11700
H  32.00200 54.49900 23.83600
H  33.31600 54.83200 22.53200
H  33.64900 54.91600 24.20700
H  35.30000 48.40400 21.28500
H  34.37900 45.70400 21.74300
H  32.36600 48.16400 21.57100
H  32.95100 46.72100 20.73000
H  33.37900 48.24600 20.14200
H  37.17700 46.32400 22.30700
H  36.75300 46.77100 20.62400
H  35.81400 44.30300 20.55500
H  37.19000 44.07200 21.72700
H  37.54500 44.56100 20.14400
H  36.65000 42.74900 24.97000
H  35.32600 41.77200 25.73200
H  37.04800 42.14300 26.45000
H  36.23100 45.47300 30.71100
H  32.71800 45.50100 33.03200
H  34.00400 44.92100 34.24000
H  33.12600 43.77800 33.30700
Mg -1.63200 35.06500 26.85900
C  -3.21400 33.64000 29.68500
C  -0.48500 37.55000 28.75400
C  -0.91500 36.67300 23.93600
C  -3.49900 32.67100 24.90100
N  -2.02200 35.53600 29.02900
C  -2.47100 34.78300 30.00600
C  -2.14400 35.33100 31.36500
C  -1.34600 36.68200 30.99100
C  -1.13200 36.51100 29.50000
C  -2.01300 38.01300 31.44600
C  -1.30200 34.28400 32.15900
C  -1.92600 33.86700 33.59300
H  -0.97300 34.13100 34.74300
N  -0.76600 36.85400 26.39900
C  -0.30500 37.72100 27.37800
C  0.36000 38.78700 26.69900
C  0.26500 38.55300 25.30700
C  -0.55800 37.33800 25.14000
C  0.90400 39.92300 27.47600
C  0.88200 39.34200 24.20400
O  0.76600 39.05300 23.04600
C  1.71800 40.51700 24.57400
N  -2.25600 34.70500 24.79300
C  -1.63900 35.45700 23.76400
C  -1.91400 34.87100 22.35600
C  -2.82000 33.66200 22.66300
C  -2.81900 33.62200 24.23100
C  -2.50200 35.88200 21.28500
C  -2.42300 32.40100 21.92900
C  -1.06900 31.76600 22.36700
N  -3.00300 33.41000 27.15200
C  -3.65100 32.63200 26.30000
C  -4.38400 31.64400 27.00600
C  -4.22400 31.96800 28.34100
C  -3.39700 33.11300 28.39000
C  -5.15700 30.56000 26.38000
C  -4.62500 31.50600 29.64700
O  -5.33800 30.60300 30.02700
C  -3.93200 32.57600 30.64700
C  -5.01000 33.14800 31.41800
O  -5.88100 33.93700 31.09000
O  -4.82200 32.67100 32.65900
C  -5.86800 32.91800 33.65900
H  -0.02400 38.27700 29.42700
H  -0.46600 37.04700 23.01400
H  -4.19100 31.99900 24.38800
H  -3.13500 35.49900 31.78600
H  -0.30800 36.79100 31.30500
H  -2.73100 37.96100 32.26400
H  -2.46700 38.43800 30.55100
H  -1.13800 38.57600 31.77000
H  -0.25900 34.58200 32.25900
H  -1.35800 33.36500 31.57600
H  -2.17700 32.80600 33.58600
H  -2.85700 34.37400 33.84500
H  1.00300 39.70800 28.54000
H  0.34100 40.85100 27.37300
H  1.93600 40.09400 27.17000
H  1.27200 41.29800 25.18900
H  2.03400 40.95200 23.62600
H  2.59300 40.14200 25.10600
H  -0.89200 34.61000 22.08100
H  -3.86300 33.81300 22.38800
H  -2.51400 36.79900 21.87400
H  -3.48800 35.50400 21.01600
H  -1.77700 35.79300 20.47500
H  -2.50800 32.68500 20.88000
H  -3.13100 31.58600 22.08200
H  -1.43200 30.75700 22.56000
H  -0.69700 32.20400 23.29300
H  -0.29100 31.74700 21.60400
H  -5.51100 29.77600 27.05000
H  -4.56300 30.10200 25.58900
H  -6.01500 30.92600 25.81700
H  -3.25200 31.99200 31.26700
H  -5.24900 33.08700 34.54000
H  -6.40800 31.98400 33.81400
H  -6.52500 33.75300 33.41600

