158

Mg 17.06800 -1.93100 28.17400
C  16.30900 0.00900 31.05600
C  19.04600 -3.91900 30.34700
C  18.52400 -3.30300 25.53400
C  15.48100 0.36600 26.24100
N  17.51400 -2.02600 30.42000
C  17.07300 -1.14000 31.39100
C  17.45300 -1.58300 32.79300
C  18.53500 -2.71100 32.57000
C  18.34800 -2.91900 31.00100
C  19.93500 -2.48900 33.17100
C  16.20100 -1.96100 33.77400
C  16.34600 -1.58600 35.29100
H  17.84800 -1.49100 35.95500
N  18.37300 -3.63700 27.96800
C  19.07600 -4.32000 28.95600
C  19.84600 -5.36700 28.36100
C  19.58300 -5.30600 26.95900
C  18.82400 -4.04400 26.70700
C  20.75000 -6.34000 29.11000
C  20.06200 -6.16100 25.88000
O  19.60500 -6.07900 24.75500
C  21.00600 -7.37200 26.25100
N  17.04000 -1.49600 26.17200
C  17.78400 -2.21400 25.22400
C  17.45500 -1.77100 23.76200
C  16.35200 -0.70500 24.04800
C  16.23200 -0.57600 25.56300
C  18.71900 -1.38900 22.88500
C  15.05100 -0.80200 23.21700
C  13.76400 -1.34400 23.85700
N  16.04300 -0.17400 28.48900
C  15.43500 0.64300 27.64700
C  14.73500 1.66300 28.30300
C  15.06700 1.45300 29.62000
C  15.88600 0.32000 29.71600
C  13.84900 2.64200 27.64300
C  14.90900 2.00400 30.98700
O  14.32400 2.95500 31.41500
C  15.71200 1.08400 31.95900
C  16.80500 1.96900 32.67700
O  17.90100 2.27900 32.17400
O  16.23200 2.50100 33.77700
C  17.05400 3.53200 34.45300
H  19.70500 -4.44100 31.04400
H  18.94500 -3.74600 24.62900
H  14.91900 1.05500 25.60800
H  18.03900 -0.79900 33.27300
H  18.31600 -3.66100 33.05900
H  20.16900 -3.31800 33.83900
H  19.95000 -1.55000 33.72400
H  20.67300 -2.47000 32.36900
H  16.10800 -3.04600 33.74600
H  15.27300 -1.59500 33.33600
H  15.88900 -2.35200 35.91800
H  15.81300 -0.64400 35.41500
H  21.79100 -6.51200 28.83700
H  20.23700 -7.30200 29.13800
H  20.82200 -6.18500 30.18700
H  22.00800 -7.08700 26.57200
H  21.13100 -7.86300 25.28600
H  20.49700 -7.95100 27.02100
H  16.92600 -2.61900 23.32800
H  16.87700 0.20800 23.76600
H  19.61500 -1.61800 23.46100
H  18.70000 -0.31600 22.68900
H  18.52500 -1.91800 21.95200
H  15.36900 -1.53000 22.47000
H  14.96100 0.19500 22.78400
H  13.06200 -1.78000 23.14600
H  13.16500 -0.56000 24.32100
H  14.03900 -2.17800 24.50100
H  14.20800 2.72900 26.61700
H  14.00000 3.56100 28.20800
H  12.84000 2.23200 27.70300
H  15.09900 0.60700 32.72400
H  18.08600 3.19100 34.52300
H  16.72100 3.77400 35.46300
H  16.83400 4.47000 33.94300
Mg 36.54700 49.85600 26.26900
C  36.67300 47.93200 29.36000
C  35.54900 52.50100 28.20700
C  35.96600 51.54900 23.37800
C  37.03100 46.98800 24.46500
N  36.25700 50.19800 28.53600
C  36.43100 49.28400 29.60800
C  36.16500 49.94500 30.99800
C  35.67300 51.33800 30.48600
C  35.85900 51.39100 28.98400
C  34.24800 51.79800 31.07900
C  37.55600 49.97000 31.75500
C  37.71200 49.71200 33.28200
H  36.44100 49.79300 34.00600
N  35.99400 51.75000 25.87700
C  35.68400 52.72500 26.84100
C  35.40900 53.95000 26.16200
C  35.49700 53.69700 24.74400
C  35.82300 52.26500 24.60000
C  34.64000 55.08000 26.77700
C  35.37600 54.66200 23.57800
O  35.37800 54.29500 22.38300
C  35.21200 56.12900 24.00700
N  36.59200 49.32200 24.23000
C  36.40800 50.25300 23.20900
C  36.53100 49.60800 21.80700
C  37.15000 48.17600 22.21100
C  36.91900 48.14400 23.71800
C  35.17700 49.49600 20.98900
C  38.65800 48.02700 21.95500
C  39.17200 46.66200 21.30000
N  36.78700 47.83200 26.68900
C  37.04200 46.78500 25.86100
C  37.17800 45.55000 26.62500
C  36.98300 45.96800 27.95200
C  36.78200 47.38300 27.95600
C  37.64200 44.23200 26.14000
C  37.04300 45.51200 29.32400
O  37.27700 44.42100 29.77400
C  36.85700 46.79300 30.30100
C  35.56500 46.49200 31.15500
O  34.42600 46.89600 30.98200
O  35.96700 45.77900 32.24100
C  34.86400 45.41400 33.18300
H  35.04400 53.26200 28.80600
H  35.78000 52.03900 22.42000
H  37.27800 46.05100 23.96000
H  35.39400 49.41800 31.56000
H  36.29100 52.12500 30.91700
H  33.85200 50.92200 31.59100
H  33.54600 51.98400 30.26600
H  34.32400 52.56700 31.84800
H  37.97600 50.96100 31.58300
H  38.14800 49.14600 31.35800
H  38.46600 50.41500 33.63800
H  38.17300 48.73200 33.40600
H  33.77900 55.38700 26.18200
H  35.28900 55.92100 27.01900
H  34.25800 54.92600 27.78600
H  34.24300 56.28500 24.48000
H  35.11200 56.63000 23.04500
H  35.99000 56.48700 24.68200
H  37.26600 50.16200 21.22400
H  36.51900 47.34500 21.89800
H  34.74500 48.52800 21.24200
H  35.57500 49.48700 19.97400
H  34.49400 50.32800 21.16200
H  39.09800 48.01100 22.95200
H  39.08800 48.81200 21.33200
H  39.95200 47.02900 20.63200
H  38.34100 46.30800 20.68900
H  39.65300 45.97000 21.99100
H  38.14200 44.30000 25.17400
H  36.79200 43.55000 26.14500
H  38.32500 43.84200 26.89500
H  37.82700 46.87100 30.79300
H  35.30900 44.56100 33.69600
H  33.92500 45.21600 32.66700
H  34.75300 46.21100 33.91800

