158

Mg 41.24900 8.37400 29.47700
C  43.32800 9.80200 32.02800
C  39.42900 6.96700 31.67900
C  39.48100 7.36900 26.77400
C  43.69800 9.58800 27.14600
N  41.46300 8.29200 31.61500
C  42.20500 9.04300 32.49900
C  41.71200 8.87900 33.90800
C  40.68000 7.72500 33.78000
C  40.43300 7.70300 32.24300
C  41.10200 6.29800 34.34300
C  41.24200 10.22400 34.47500
C  41.13600 10.16600 36.05600
H  41.57900 11.35600 36.89600
N  39.60800 7.35400 29.25100
C  39.01900 6.78400 30.31900
C  37.90800 6.03600 29.77400
C  37.72600 6.37300 28.44000
C  38.99600 7.02800 28.06500
C  37.08600 5.15800 30.63500
C  36.67900 5.94900 27.46100
O  36.84500 6.20200 26.25400
C  35.38600 5.24100 27.75300
N  41.64700 8.24100 27.36200
C  40.68200 7.89300 26.43000
C  41.30600 7.73500 25.07600
C  42.41900 8.89200 25.13200
C  42.65300 8.86700 26.62900
C  41.85100 6.31100 24.66400
C  41.94400 10.30400 24.71800
C  42.98800 10.88800 23.76400
N  43.18100 9.36300 29.55100
C  44.01900 9.82000 28.53200
C  45.14000 10.48500 29.10800
C  44.85200 10.55500 30.43800
C  43.69100 9.88100 30.68700
C  46.24000 11.02200 28.25800
C  45.31400 11.12300 31.72200
O  46.23500 11.84800 31.96500
C  44.26700 10.72000 32.77100
C  45.00500 9.87600 33.75800
O  45.63100 8.88600 33.55200
O  44.73400 10.43900 34.99900
C  45.53000 9.81600 36.07000
H  38.78100 6.36600 32.32100
H  38.93200 7.14500 25.85700
H  44.33700 10.10000 26.42300
H  42.43000 8.45100 34.60700
H  39.74200 8.03700 34.24100
H  42.08600 6.33500 34.81100
H  41.18000 5.48200 33.62300
H  40.28800 6.00200 35.00400
H  40.21200 10.30800 34.13000
H  41.75800 11.08600 34.05200
H  41.67200 9.31500 36.47600
H  40.06500 10.04100 36.21200
H  37.83700 4.51800 31.10000
H  36.38400 4.63800 29.98300
H  36.44700 5.63400 31.37900
H  34.96500 5.46000 28.73400
H  35.62800 4.17800 27.76800
H  34.62500 5.56000 27.04100
H  40.65600 8.13000 24.29400
H  43.34300 8.56400 24.65600
H  41.55200 5.57100 25.40700
H  42.93900 6.23900 24.64100
H  41.34600 6.09600 23.72300
H  41.79100 10.96200 25.57300
H  40.99700 10.20200 24.18900
H  43.68200 10.14800 23.36600
H  43.51500 11.73800 24.19700
H  42.47200 11.24300 22.87300
H  45.85400 11.43000 27.32400
H  46.93500 10.25200 27.92400
H  46.71500 11.81100 28.84000
H  43.87200 11.65700 33.16600
H  45.30900 10.30000 37.02100
H  46.58000 9.60300 35.87000
H  45.16800 8.79200 36.16100
Mg -2.24500 35.38100 27.31900
C  -4.06800 33.45700 29.54200
C  -1.32000 37.45000 29.86500
C  -0.57800 37.13200 25.10500
C  -3.45100 33.24700 24.72200
N  -2.71000 35.49800 29.36400
C  -3.31700 34.55100 30.13000
C  -3.17300 34.75400 31.59900
C  -2.60800 36.11500 31.69000
C  -2.16600 36.38200 30.27400
C  -3.64400 37.15600 32.29200
C  -2.55200 33.60400 32.43200
C  -3.27100 33.04900 33.60900
H  -2.48800 32.51600 34.82000
N  -1.20500 37.09500 27.46400
C  -0.87000 37.78200 28.57300
C  -0.02200 38.93500 28.27900
C  0.21200 38.86800 26.88200
C  -0.52600 37.65700 26.42100
C  0.30300 40.01400 29.28900
C  1.01900 39.75400 26.04100
O  1.13500 39.56700 24.81000
C  1.74300 40.95200 26.68500
N  -2.02300 35.26700 25.27300
C  -1.20900 36.02700 24.55500
C  -1.15000 35.68400 23.03900
C  -2.05300 34.44700 23.00300
C  -2.54900 34.23100 24.44600
C  -1.62500 36.79000 22.02700
C  -1.28200 33.13100 22.46500
C  -1.76200 32.55100 21.09500
N  -3.64600 33.84900 27.08600
C  -3.97300 33.01300 26.02500
C  -4.92500 31.98300 26.41200
C  -4.91800 32.05800 27.78100
C  -4.19000 33.22500 28.18500
C  -5.56100 30.93200 25.55200
C  -5.32500 31.41900 28.94800
O  -5.91300 30.36100 29.10500
C  -4.88200 32.33400 30.20200
C  -6.20200 32.83600 30.89500
O  -7.11600 33.45100 30.24000
O  -6.27600 32.60600 32.18500
C  -7.46200 32.91700 32.88200
H  -0.99600 37.92900 30.79200
H  -0.12700 37.72800 24.30900
H  -3.77300 32.46400 24.03200
H  -4.21600 34.81900 31.90900
H  -1.67600 36.07500 32.25300
H  -3.23300 38.16200 32.37800
H  -3.89700 36.98400 33.33800
H  -4.59000 37.06400 31.75800
H  -1.63400 33.98400 32.88100
H  -2.31000 32.79200 31.74700
H  -3.73400 32.12400 33.26400
H  -4.08400 33.68700 33.95600
H  0.03100 39.85700 30.33200
H  -0.11200 40.94000 28.88900
H  1.39000 40.08900 29.30100
H  2.78600 40.73300 26.91400
H  1.34300 41.39400 27.59800
H  1.58700 41.70100 25.90900
H  -0.13300 35.35000 22.83100
H  -2.97700 34.56700 22.43600
H  -1.12100 36.49100 21.10800
H  -1.57100 37.82100 22.37700
H  -2.68600 36.62100 21.84400
H  -1.34600 32.39200 23.26400
H  -0.21700 33.27000 22.28100
H  -0.79200 32.38500 20.62700
H  -2.45800 33.23400 20.60700
H  -2.30300 31.64200 21.35500
H  -6.43300 30.48500 26.03000
H  -4.88100 30.15900 25.19500
H  -5.88300 31.29700 24.57700
H  -4.23000 31.76500 30.86400
H  -7.15500 33.60400 33.67100
H  -7.88200 31.99400 33.28100
H  -8.28300 33.37700 32.33200

