158

Mg 25.85700 0.37000 28.75300
C  27.76800 0.06600 31.66200
C  23.07500 0.47100 30.70100
C  24.07200 0.64000 25.88700
C  28.66700 -0.54400 26.80200
N  25.50900 0.45700 30.94500
C  26.41100 0.36000 31.94600
C  25.80200 0.46500 33.36700
C  24.29700 0.65100 33.06700
C  24.25300 0.54700 31.51400
C  23.48900 -0.50600 33.72600
C  26.42900 1.53000 34.20000
C  26.91700 1.13200 35.58400
H  26.65500 2.06900 36.82000
N  23.85000 0.53500 28.33600
C  22.83900 0.51100 29.27200
C  21.53900 0.55500 28.56300
C  21.83500 0.77300 27.16700
C  23.25600 0.75900 27.04900
C  20.13200 0.52100 29.25900
C  20.80300 1.07500 25.96500
O  21.14600 1.29800 24.79100
C  19.36800 1.25700 26.33300
N  26.37100 0.04600 26.60900
C  25.45300 0.34000 25.68100
C  26.00700 0.33100 24.23900
C  27.56400 -0.03500 24.58900
C  27.54500 -0.23500 26.07700
C  25.47100 -0.68000 23.18300
C  28.48500 1.10900 24.26600
C  29.88200 0.68700 23.69000
N  27.86200 0.00500 29.12800
C  28.93500 -0.45400 28.25000
C  30.05300 -0.84000 29.06700
C  29.67600 -0.59900 30.40400
C  28.31200 -0.05800 30.37000
C  31.35500 -1.52900 28.70300
C  30.15500 -0.67400 31.76100
O  31.19800 -1.07800 32.29200
C  28.97100 -0.24200 32.63400
C  28.65400 -1.33400 33.58800
O  28.17000 -2.40500 33.33600
O  28.96100 -0.96700 34.86000
C  28.83500 -2.08600 35.79700
H  22.15700 0.49200 31.29100
H  23.56600 0.84700 24.94200
H  29.52900 -0.76900 26.17000
H  26.12200 -0.48500 33.79400
H  23.95500 1.64600 33.35300
H  23.80800 -1.47300 33.33700
H  22.42900 -0.44200 33.47700
H  23.59800 -0.50200 34.81000
H  25.70300 2.31500 34.41500
H  27.20500 2.08400 33.67100
H  28.00400 1.14800 35.50300
H  26.55600 0.12800 35.80800
H  19.63600 1.48300 29.38600
H  20.19600 0.19500 30.29700
H  19.44300 -0.14200 28.73500
H  18.79900 0.33200 26.42200
H  19.10700 1.55700 25.31800
H  19.25400 2.06200 27.06000
H  25.95200 1.37100 23.91600
H  27.79200 -0.94000 24.02500
H  26.25500 -1.19500 22.62800
H  24.79700 -0.13600 22.52100
H  24.82100 -1.43100 23.63200
H  28.75100 1.73100 25.12000
H  28.03500 1.83600 23.59000
H  30.02600 0.70900 22.61000
H  30.10600 -0.32700 24.02200
H  30.52700 1.45300 24.12100
H  31.08600 -2.18300 27.87300
H  31.77100 -2.08700 29.54100
H  32.12800 -0.79100 28.48300
H  29.32400 0.62200 33.19800
H  29.38500 -2.96700 35.46600
H  27.79200 -2.37300 35.93700
H  29.35200 -1.80200 36.71300
Mg 46.94700 25.28200 28.70300
C  47.42800 27.55800 31.37700
C  45.67500 23.00500 31.04800
C  47.00800 22.79400 26.34800
C  48.37800 27.51800 26.41100
N  46.72300 25.26900 30.90800
C  46.81900 26.36000 31.78400
C  46.33300 25.93300 33.15800
C  45.89300 24.43500 33.03700
C  46.10700 24.23300 31.53200
C  46.79200 23.54600 34.01500
C  45.31100 26.92300 33.86200
C  45.73600 27.11600 35.38300
H  44.74400 27.32800 36.49900
N  46.35100 23.23300 28.73200
C  45.83300 22.47600 29.77200
C  45.49300 21.20300 29.32400
C  45.76400 21.09000 27.98400
C  46.39100 22.41500 27.62300
C  44.88100 20.16300 30.21500
C  45.51000 19.89900 27.07500
O  46.02700 19.87100 25.94400
C  44.76500 18.65900 27.68400
N  47.59100 25.18600 26.71700
C  47.55700 24.02000 25.97500
C  48.24600 24.24500 24.60200
C  48.54200 25.77900 24.58000
C  48.17900 26.16500 25.97900
C  49.46400 23.31600 24.28500
C  47.70000 26.59800 23.55400
C  46.25100 27.01200 23.94900
N  47.76800 27.10000 28.79200
C  48.30200 27.95700 27.77900
C  48.73400 29.15800 28.44200
C  48.32800 29.09600 29.76700
C  47.79700 27.78000 30.01900
C  49.38000 30.30500 27.73800
C  48.33200 29.80800 30.97600
O  48.68900 30.93400 31.26000
C  47.79300 28.86500 32.14500
C  48.88600 28.71900 33.15400
O  50.00200 28.29500 32.77400
O  48.61000 29.08100 34.46100
C  49.61200 28.88300 35.54600
H  45.31200 22.39000 31.87400
H  47.13100 22.03000 25.57800
H  48.75800 28.24500 25.68900
H  47.27200 26.11300 33.68000
H  44.88500 24.18900 33.37100
H  47.44200 23.03000 33.30800
H  46.22500 22.77900 34.54100
H  47.42100 24.06200 34.74100
H  44.31200 26.49400 33.77900
H  45.25200 27.91300 33.40900
H  46.22700 28.08200 35.26300
H  46.51100 26.43000 35.72600
H  45.02500 20.55100 31.22400
H  45.47900 19.25200 30.19800
H  43.81100 19.97200 30.13100
H  45.50800 18.18800 28.32800
H  44.44500 17.89800 26.97200
H  43.86600 19.00000 28.19700
H  47.54700 24.00300 23.80200
H  49.57400 25.92500 24.26100
H  49.17900 22.47300 23.65500
H  49.91800 22.86100 25.16600
H  50.23300 23.90400 23.78400
H  47.67400 26.00700 22.63900
H  48.31800 27.48500 23.42000
H  46.16900 26.57600 24.94500
H  45.54000 26.61700 23.22300
H  46.13400 28.08400 24.10500
H  49.72800 30.93800 28.55400
H  48.74000 30.87400 27.06300
H  50.22800 29.96500 27.14400
H  46.99000 29.38400 32.66800
H  49.24700 28.16800 36.28300
H  49.87800 29.81300 36.04900
H  50.54500 28.43300 35.20800

