158

Mg 8.65300 3.51000 27.97500
C  10.11500 2.03300 30.82800
C  6.93600 5.66500 30.11800
C  6.95700 4.89400 25.23400
C  9.99200 1.15500 25.90300
N  8.54800 3.82700 30.18500
C  9.29600 3.12000 31.14400
C  9.09900 3.66500 32.55000
C  7.94600 4.78200 32.33200
C  7.80100 4.76200 30.78000
C  6.63200 4.62100 33.05700
C  10.40800 4.33900 33.13000
C  10.98400 3.77500 34.43700
H  10.88100 4.79400 35.67900
N  7.14800 5.10300 27.69600
C  6.59600 5.88300 28.67600
C  5.65700 6.84300 28.14500
C  5.63900 6.57900 26.71300
C  6.60900 5.47600 26.48300
C  4.85300 7.72700 28.95800
C  4.77400 7.19700 25.64100
O  4.63300 6.78100 24.48500
C  3.97400 8.45200 25.97600
N  8.66400 3.18000 25.91300
C  7.94000 3.83000 25.00800
C  8.23700 3.30300 23.58600
C  9.31400 2.26300 23.76900
C  9.30400 2.16600 25.30500
C  6.95700 2.90200 22.78700
C  10.70800 2.65600 23.15200
C  11.54600 1.48100 22.54800
N  9.78200 1.88300 28.23700
C  10.21400 1.01900 27.27700
C  11.14400 0.13300 27.93100
C  11.18700 0.48500 29.30300
C  10.29400 1.55300 29.45300
C  11.74400 -1.07900 27.21000
C  11.66500 0.14000 30.59400
O  12.40700 -0.79700 30.94400
C  11.17000 1.30500 31.60000
C  10.52600 0.64800 32.76200
O  9.34900 0.22200 32.77600
O  11.42100 0.51900 33.76000
C  11.12200 0.09500 35.09400
H  6.40500 6.38900 30.73900
H  6.46800 5.30500 24.34800
H  10.58100 0.40300 25.37300
H  8.70000 2.88400 33.19800
H  8.30200 5.75100 32.68300
H  6.36200 5.45600 33.70300
H  6.60600 3.63900 33.52900
H  5.91200 4.55700 32.24000
H  10.16000 5.36300 33.41100
H  11.18200 4.32500 32.36200
H  12.00600 3.42000 34.29800
H  10.39600 2.88800 34.67100
H  4.59300 7.31800 29.93400
H  3.89900 7.83900 28.44400
H  5.26100 8.73700 28.98000
H  3.89800 9.13700 25.13200
H  4.60000 9.01700 26.66700
H  3.05400 8.17900 26.49400
H  8.56300 4.16800 23.00800
H  9.15200 1.28600 23.31400
H  6.01900 2.92900 23.34100
H  7.04300 1.87800 22.42500
H  6.66300 3.67600 22.07700
H  11.33500 3.10600 23.92200
H  10.63800 3.34200 22.30800
H  11.84000 1.58200 21.50300
H  11.04900 0.51500 22.63200
H  12.44100 1.35800 23.15900
H  12.56100 -0.72400 26.58200
H  11.02700 -1.56400 26.54900
H  12.08400 -1.85500 27.89600
H  11.95300 1.97900 31.94800
H  10.36500 0.74700 35.52900
H  11.95000 0.06500 35.80200
H  10.62900 -0.87400 35.00900
Mg 17.19900 -1.38500 27.78100
C  15.92600 0.73500 30.32500
C  18.90400 -3.00000 30.25000
C  18.37900 -3.26600 25.39700
C  15.58500 0.74500 25.42100
N  17.42600 -1.09200 30.05900
C  16.86600 -0.18300 30.83100
C  17.19300 -0.33800 32.36400
C  18.34800 -1.36200 32.22200
C  18.20600 -1.90300 30.79300
C  19.83500 -0.89700 32.64900
C  16.00100 -0.70800 33.22800
C  15.97400 -0.27400 34.74500
H  16.52000 -1.32000 35.73100
N  18.42000 -3.00000 27.80800
C  19.02800 -3.53900 28.95300
C  19.80000 -4.62900 28.55400
C  19.60100 -4.79800 27.16200
C  18.74300 -3.68500 26.71000
C  20.78700 -5.46900 29.53000
C  20.15100 -5.89400 26.25500
O  19.91100 -5.90100 25.05100
C  20.76800 -7.12300 26.86400
N  17.13700 -1.10400 25.76200
C  17.72300 -2.08200 24.96300
C  17.59000 -1.75000 23.43900
C  16.53500 -0.61400 23.46800
C  16.37200 -0.34900 24.97200
C  18.96100 -1.29000 22.77700
C  15.15800 -0.85100 22.85700
C  14.17100 -1.78900 23.51100
N  15.88600 0.30500 27.79100
C  15.39500 1.06700 26.77900
C  14.44400 2.14200 27.32200
C  14.71800 2.10200 28.70000
C  15.60200 0.98400 28.92400
C  13.57800 3.09300 26.56800
C  14.54800 2.77100 29.96300
O  13.98300 3.80700 30.27000
C  15.21600 1.85400 30.99700
C  15.93300 2.76200 31.85400
O  16.94500 3.36900 31.55600
O  15.33500 2.85100 33.11500
C  16.00700 3.83300 34.05200
H  19.55000 -3.57000 30.92000
H  18.78400 -3.89500 24.60100
H  15.01400 1.37000 24.73000
H  17.66100 0.58800 32.69800
H  18.14800 -2.21900 32.86500
H  20.01000 0.08300 33.09300
H  20.37200 -0.81300 31.70400
H  20.36900 -1.72700 33.11200
H  15.92000 -1.79100 33.14100
H  15.07000 -0.36200 32.77900
H  14.91400 -0.14700 34.96500
H  16.58700 0.62700 34.74200
H  21.78200 -5.36900 29.09600
H  20.40700 -6.48700 29.61100
H  20.81700 -5.07900 30.54700
H  21.72300 -6.96600 27.36400
H  20.89900 -7.85900 26.07000
H  19.98100 -7.53900 27.49300
H  17.22900 -2.68200 23.00400
H  17.00900 0.26300 23.02800
H  19.39700 -0.49500 23.38300
H  18.80400 -1.02600 21.73100
H  19.63100 -2.14900 22.74900
H  15.23600 -1.16700 21.81600
H  14.61700 0.09500 22.86500
H  13.27600 -1.29400 23.88700
H  14.69900 -2.35800 24.27700
H  13.83500 -2.49500 22.75200
H  14.06900 3.15700 25.59700
H  13.64700 4.12700 26.90600
H  12.55700 2.75000 26.40200
H  14.44000 1.40400 31.61700
H  15.31800 3.97400 34.88500
H  16.04100 4.88200 33.76000
H  16.95200 3.39700 34.37800

