158

Mg 41.31900 40.72000 26.47000
C  40.80100 43.14100 29.14000
C  42.75800 38.79100 28.95600
C  42.15800 38.69400 24.15400
C  40.57500 43.35000 24.24200
N  41.69600 41.00600 28.79900
C  41.27100 41.97000 29.65600
C  41.42900 41.59300 31.13000
C  42.30900 40.28700 30.93900
C  42.30400 39.97600 29.43900
C  43.73300 40.47000 31.42800
C  40.09300 41.63000 31.89500
C  40.19500 40.90700 33.28000
H  39.51000 41.51600 34.51300
N  42.05600 38.92400 26.58700
C  42.66000 38.26300 27.71500
C  43.13200 36.94300 27.33800
C  42.97700 36.85900 25.91600
C  42.39200 38.18200 25.45500
C  43.69400 35.94100 28.29700
C  43.41700 35.74300 24.98900
O  43.30100 35.87000 23.75200
C  44.04200 34.47100 25.52400
N  41.52500 41.02500 24.48500
C  41.78800 39.96600 23.65500
C  41.41200 40.31600 22.16400
C  40.87000 41.80300 22.25100
C  41.00600 42.08000 23.74600
C  42.61100 40.18500 21.19200
C  39.37600 41.85400 21.84900
C  38.37400 41.17400 22.86500
N  40.72500 42.81100 26.54200
C  40.60200 43.74200 25.57700
C  40.28400 45.05900 26.13700
C  40.36600 44.87300 27.51100
C  40.61000 43.42800 27.73400
C  39.98400 46.30000 25.31200
C  40.21900 45.52400 28.78400
O  39.78800 46.62200 29.01400
C  40.58500 44.49500 29.83600
C  41.78000 44.93500 30.57100
O  42.90800 44.96700 30.05100
O  41.53500 45.30600 31.83900
C  42.73800 45.59700 32.65400
H  43.22800 38.14100 29.69800
H  42.11600 37.82600 23.49300
H  40.21000 44.10900 23.54600
H  42.01600 42.38500 31.59400
H  41.82800 39.46000 31.46100
H  44.45500 40.31400 30.62600
H  43.81100 39.68900 32.18400
H  43.82900 41.45700 31.88000
H  39.41800 41.03100 31.28500
H  39.75700 42.66600 31.95200
H  41.25600 40.76800 33.48800
H  39.86900 39.88200 33.10100
H  43.29300 34.95300 28.07100
H  43.28600 36.11400 29.29300
H  44.77600 35.99500 28.18000
H  44.81800 34.59400 26.28000
H  44.42400 33.83500 24.72500
H  43.17800 33.89400 25.85400
H  40.68800 39.56100 21.85800
H  41.56500 42.38800 21.64800
H  43.45000 39.93000 21.83900
H  42.97400 41.08100 20.68900
H  42.49300 39.40400 20.44100
H  39.31600 41.60100 20.79100
H  39.09400 42.90700 21.83400
H  37.71800 41.96100 23.23600
H  38.77800 40.76900 23.79200
H  37.72500 40.41200 22.43200
H  40.37700 47.20700 25.77000
H  38.90400 46.44400 25.27100
H  40.38000 46.10300 24.31500
H  39.73100 44.49100 30.51400
H  43.19500 46.46300 32.17400
H  43.42600 44.75400 32.59300
H  42.44600 45.81200 33.68200
Mg 16.96300 52.62200 26.84200
C  19.04100 51.17500 29.10600
C  14.62900 53.26900 29.44800
C  14.69300 53.97800 24.57500
C  19.03900 51.73000 24.33900
N  16.82100 52.15000 28.91400
C  17.91500 51.82000 29.65300
C  17.69900 52.10200 31.16300
C  16.18700 52.40200 31.32000
C  15.78400 52.56000 29.78700
C  15.33900 51.32800 32.14900
C  18.60600 53.14500 31.71700
C  18.90400 53.10300 33.21200
H  17.99700 52.39100 34.27500
N  15.02100 53.60200 27.02600
C  14.23300 53.74200 28.14800
C  13.02500 54.47800 27.84100
C  13.16000 54.87900 26.46300
C  14.34200 54.12500 25.98200
C  11.95000 54.82700 28.85400
C  12.32600 55.84700 25.66400
O  12.43600 55.96500 24.47800
C  11.16000 56.45100 26.36800
N  16.80000 52.73500 24.77100
C  15.81700 53.38900 24.03800
C  16.04100 53.16800 22.55400
C  17.55800 52.91200 22.45300
C  17.86900 52.48100 23.95500
C  15.04800 52.09200 22.00200
C  18.43400 54.11100 22.06400
C  18.60200 54.31100 20.59100
N  18.56600 51.52900 26.65400
C  19.37600 51.24300 25.59900
C  20.53900 50.42500 25.98300
C  20.46700 50.41400 27.34400
C  19.25900 51.12300 27.70700
C  21.56200 49.69500 24.99800
C  21.06200 49.94100 28.60900
O  22.06800 49.22900 28.67700
C  20.22900 50.51100 29.88700
C  19.83200 49.52500 30.91000
O  19.10000 48.57700 30.77900
O  20.32900 49.97100 32.15400
C  19.99300 49.04200 33.27200
H  14.12800 53.61100 30.35600
H  14.01400 54.41600 23.84000
H  19.80200 51.60100 23.56800
H  17.93400 51.19000 31.71200
H  16.06400 53.40500 31.73000
H  14.67700 50.85400 31.42400
H  14.71000 51.87700 32.85000
H  15.99500 50.63300 32.67200
H  18.24700 54.13700 31.44400
H  19.62200 53.21800 31.33100
H  18.69500 54.13400 33.49500
H  19.93800 52.77300 33.31600
H  11.88100 54.11900 29.67900
H  10.92400 54.80300 28.48600
H  12.14000 55.81400 29.27700
H  10.74900 57.22300 25.71800
H  11.37600 56.87100 27.35100
H  10.48000 55.61200 26.51300
H  15.79400 54.13300 22.11100
H  17.65500 52.04400 21.80100
H  15.65000 51.31700 21.52700
H  14.47300 52.67500 21.28200
H  14.35700 51.62900 22.70500
H  19.40900 53.98100 22.53500
H  18.02600 55.05800 22.41700
H  18.73300 55.34300 20.26500
H  17.72200 53.78100 20.22800
H  19.50500 53.78400 20.28200
H  21.11100 49.57700 24.01300
H  21.73600 48.72200 25.45700
H  22.52200 50.21200 24.96600
H  20.61800 51.36200 30.44400
H  20.58800 48.13500 33.15600
H  18.93700 48.77600 33.24600
H  20.24300 49.51700 34.22000

