158

Mg 54.73100 24.22700 44.77700
C  52.32900 26.64700 43.91300
C  52.69900 21.79100 43.72000
C  57.31600 22.08500 44.94300
C  56.90200 26.92000 45.66000
N  52.83700 24.30800 43.74300
C  51.93400 25.29000 43.64400
C  50.51600 24.77900 43.22200
C  50.59500 23.33700 43.78300
C  52.13400 23.10300 43.62400
C  49.92900 23.02700 45.21700
C  50.32400 24.96600 41.64200
C  49.01400 24.56700 41.04600
H  48.74600 25.05400 39.57800
N  54.93800 22.09000 44.53900
C  53.93400 21.30800 44.14500
C  54.44400 19.93600 44.01600
C  55.84600 19.97900 44.40000
C  56.12500 21.39600 44.62500
C  53.62300 18.73600 43.58200
C  56.74300 18.81400 44.53100
O  56.36900 17.75100 44.04900
C  58.17400 18.80500 45.10300
N  56.85100 24.45800 45.03100
C  57.67100 23.42300 45.16800
C  59.09800 23.87100 45.72400
C  58.86400 25.39100 46.00200
C  57.46000 25.64500 45.59200
C  59.61700 23.04900 46.96700
C  59.89200 26.39400 45.42600
C  61.22500 26.49200 46.16300
N  54.64700 26.40000 44.82700
C  55.54100 27.28300 45.34300
C  54.85000 28.58000 45.50500
C  53.56500 28.38800 44.90600
C  53.55100 27.05000 44.49800
C  55.33000 29.85600 46.15200
C  52.27900 28.95000 44.59600
O  51.80700 30.05400 44.77400
C  51.41700 27.88800 43.87800
C  50.90400 28.41300 42.54000
O  51.61100 28.66200 41.55800
O  49.49200 28.52700 42.61400
C  48.76300 28.97300 41.42400
H  51.93400 21.02800 43.55800
H  58.14900 21.38600 44.84200
H  57.57600 27.67900 46.06200
H  49.73000 25.33500 43.73400
H  50.04700 22.73900 43.05600
H  50.48100 22.40600 45.92200
H  48.98000 22.56400 44.94800
H  49.58500 23.97200 45.63800
H  51.00200 24.16800 41.33800
H  50.74700 25.86200 41.18900
H  48.31400 24.84100 41.83600
H  48.96400 23.47900 41.02600
H  52.54200 18.87100 43.58600
H  53.75000 17.87400 44.23600
H  53.99800 18.39900 42.61500
H  58.44200 17.78500 45.38100
H  58.27500 19.39600 46.01400
H  58.88200 19.16800 44.35900
H  59.83900 23.76100 44.93200
H  58.72900 25.69800 47.03900
H  59.04600 22.24000 47.42300
H  59.82100 23.79500 47.73500
H  60.64600 22.72600 46.81100
H  59.45800 27.36700 45.19800
H  60.31100 26.24800 44.43100
H  62.11600 26.09000 45.68100
H  61.17300 26.10400 47.18000
H  61.49700 27.52600 46.37600
H  56.35400 30.01000 45.81000
H  55.34000 29.72000 47.23400
H  54.66900 30.65800 45.82400
H  50.50800 27.60000 44.40500
H  48.15700 28.16500 41.01400
H  49.47400 29.33900 40.68200
H  48.04300 29.75800 41.65500
Mg 16.98000 51.80000 25.98000
C  19.17000 49.95700 28.21100
C  14.93400 52.27500 28.70000
C  14.86200 53.09400 23.94400
C  18.84900 50.36300 23.44400
N  17.11100 51.27700 28.17800
C  18.08400 50.58800 28.89100
C  17.88000 50.70800 30.38100
C  16.37400 51.02600 30.34400
C  16.09900 51.49900 28.96500
C  15.40500 49.91100 30.85400
C  18.82000 51.81000 31.03800
C  19.19300 51.53900 32.44000
H  18.14400 50.93700 33.31000
N  15.19300 52.71900 26.30600
C  14.48000 52.88300 27.49700
C  13.40000 53.81700 27.32400
C  13.34100 54.09500 25.85200
C  14.44300 53.29100 25.26600
C  12.57200 54.40600 28.48000
C  12.41500 54.98800 25.08500
O  12.64600 55.26900 23.92300
C  11.25400 55.69900 25.76200
N  16.74400 51.44400 23.86200
C  15.82300 52.29100 23.26400
C  16.24800 52.62300 21.82600
C  17.69500 52.02100 21.73800
C  17.84400 51.23200 23.11300
C  15.27400 51.93300 20.80700
C  18.87400 53.09500 21.59600
C  19.83900 52.92300 20.41500
N  18.65800 50.45800 25.80700
C  19.21200 49.89200 24.71200
C  20.28700 48.98400 25.07200
C  20.30700 49.05600 26.47000
C  19.30300 49.92200 26.84400
C  21.20200 48.14000 24.09900
C  21.03400 48.59100 27.63700
O  22.08200 47.92500 27.72200
C  20.32400 49.18200 28.84000
C  19.85700 48.16400 29.77900
O  19.17200 47.17000 29.53700
O  20.52300 48.40000 30.96100
C  20.32200 47.35800 32.03200
H  14.27200 52.44500 29.55200
H  14.38400 53.73900 23.20400
H  19.59200 50.10900 22.68400
H  18.05100 49.67300 30.68000
H  16.16100 51.93900 30.90000
H  14.84400 49.51500 30.00700
H  14.70600 50.39800 31.53400
H  15.96100 49.08200 31.29100
H  18.25700 52.74100 30.97500
H  19.75700 51.84200 30.48200
H  19.49400 52.51000 32.83400
H  20.03400 50.85300 32.34200
H  12.65500 53.82600 29.39900
H  11.52000 54.57300 28.25200
H  13.12100 55.33100 28.65800
H  10.75800 56.28500 24.98800
H  11.79400 56.28200 26.50800
H  10.59100 54.96400 26.21700
H  16.27200 53.70700 21.72300
H  17.73000 51.39700 20.84500
H  14.25500 52.03200 21.17900
H  15.54300 50.89400 20.61500
H  15.20700 52.45600 19.85300
H  19.28500 52.92100 22.59000
H  18.48400 54.11200 21.54200
H  19.53100 52.05200 19.83600
H  20.88300 52.83000 20.71100
H  19.80400 53.83400 19.81700
H  21.77300 47.31300 24.52200
H  22.01800 48.78500 23.77600
H  20.53100 47.79000 23.31500
H  20.97400 49.82600 29.43300
H  20.64700 46.40900 31.60800
H  19.30000 47.16200 32.35600
H  21.00600 47.68400 32.81600

