158

Mg 6.50400 55.00700 41.67800
C  5.71300 51.53100 41.27200
C  9.70800 54.29600 40.80100
C  6.92600 58.18400 41.60500
C  3.04100 55.40800 42.21400
N  7.55400 53.10400 40.91100
C  7.03500 51.85600 40.80100
C  8.18900 50.85200 40.27200
C  9.47900 51.75600 40.42300
C  8.90600 53.14900 40.73100
C  10.49600 51.27900 41.57400
C  7.93100 50.24800 38.80900
C  7.47500 51.19600 37.69000
H  6.52700 50.68400 36.60000
N  8.13600 56.14100 41.26100
C  9.37200 55.68800 40.92800
C  10.16400 56.80500 40.54500
C  9.34900 57.96300 40.77800
C  8.08400 57.46800 41.23800
C  11.65700 56.76900 40.18200
C  9.84700 59.45200 40.71200
O  10.99300 59.67700 40.40200
C  9.02000 60.59100 40.84900
N  5.20600 56.53800 41.93100
C  5.59800 57.84000 41.88600
C  4.51800 58.83900 42.20600
C  3.30000 57.96700 42.17300
C  3.86800 56.52100 42.13400
C  4.85300 59.41300 43.57600
C  2.35900 58.19400 40.91400
C  0.79900 58.30100 41.01600
N  4.72400 53.77900 41.87600
C  3.41500 54.09100 42.10300
C  2.62600 52.91700 42.21100
C  3.50100 51.85500 42.02300
C  4.69500 52.47200 41.65000
C  1.13800 52.87200 42.58200
C  3.62900 50.46200 41.90700
O  2.71500 49.63200 42.04800
C  5.10500 50.20600 41.37600
C  4.76000 49.52400 40.11000
O  4.28900 50.01700 39.06700
O  4.99200 48.19800 40.25000
C  4.63600 47.26800 39.13200
H  10.79300 54.25300 40.91900
H  7.00700 59.25700 41.41600
H  1.98100 55.65000 42.30700
H  8.30600 50.04300 40.99300
H  9.99400 51.81500 39.46400
H  10.14500 50.42100 42.14700
H  10.70700 52.12000 42.23600
H  11.42300 51.14400 41.01900
H  7.23200 49.41300 38.85900
H  8.90200 49.93600 38.42200
H  8.47300 51.51800 37.39200
H  6.96900 52.02700 38.18200
H  11.87800 57.57100 39.47700
H  11.95400 55.83500 39.70600
H  12.23600 56.91700 41.09400
H  8.32100 60.47500 40.02100
H  9.49000 61.55900 40.67600
H  8.42800 60.67000 41.76200
H  4.39200 59.61200 41.44900
H  2.76700 58.06800 43.11800
H  5.12200 58.61000 44.26300
H  3.92000 59.85900 43.92000
H  5.70400 60.09400 43.58600
H  2.48500 57.37200 40.20900
H  2.60700 59.06900 40.31300
H  0.43100 58.73400 41.94600
H  0.50900 57.26900 40.82000
H  0.40200 58.97400 40.25600
H  0.42800 52.72600 41.76700
H  0.84500 53.77200 43.12100
H  1.06800 52.01900 43.25800
H  5.71700 49.66200 42.09500
H  3.61900 47.05200 38.80700
H  5.14900 46.37000 39.47600
H  5.26000 47.62800 38.31300
Mg 16.27500 52.51800 26.73600
C  18.26000 51.23900 29.51300
C  14.09600 53.82200 28.88300
C  14.81000 53.62500 24.07200
C  18.52700 50.68800 24.68300
N  16.15200 52.41400 28.86500
C  17.07800 51.95400 29.84700
C  16.58100 52.34100 31.28800
C  15.06000 52.78900 31.03000
C  15.12300 52.99800 29.51300
C  14.03000 51.73600 31.42900
C  17.46300 53.33600 31.98600
C  17.80300 53.18100 33.48600
H  16.70900 52.64500 34.46500
N  14.59100 53.54300 26.54600
C  13.87800 54.11400 27.53400
C  12.89100 54.99200 26.88300
C  13.10100 54.92100 25.45500
C  14.19900 53.94200 25.29400
C  11.92400 55.81700 27.74600
C  12.29800 55.62600 24.39600
O  12.32400 55.33900 23.17300
C  11.36900 56.72700 24.71300
N  16.84500 52.40200 24.67000
C  15.96100 52.94800 23.78800
C  16.44200 52.75200 22.32900
C  17.72100 51.83000 22.55300
C  17.72200 51.58700 24.05400
C  15.35100 52.29600 21.20400
C  19.08800 52.36600 22.06400
C  20.08700 51.36400 21.69500
N  18.00000 51.25200 27.02700
C  18.71000 50.46600 26.03500
C  19.85700 49.73700 26.60400
C  19.65900 49.95200 28.00500
C  18.56800 50.86200 28.16200
C  20.95200 49.04200 25.89000
C  20.20100 49.69900 29.36400
O  21.20400 49.06500 29.70800
C  19.36900 50.62600 30.32100
C  18.83800 49.73900 31.40100
O  17.72800 49.16200 31.44900
O  19.84400 49.57000 32.31200
C  19.59700 48.76100 33.49000
H  13.40900 54.21100 29.63700
H  14.31800 54.01200 23.17700
H  19.13200 50.18300 23.92700
H  16.51600 51.44000 31.89800
H  14.94000 53.78400 31.45900
H  13.49400 52.24600 32.22900
H  14.37800 50.73900 31.70000
H  13.31700 51.63600 30.61100
H  17.15000 54.36300 31.79500
H  18.45100 53.13300 31.57200
H  17.98800 54.17900 33.88300
H  18.70200 52.57100 33.58100
H  12.09700 56.88100 27.58600
H  12.20200 55.72300 28.79500
H  10.89300 55.56800 27.49600
H  10.64100 56.38200 25.44600
H  10.95600 57.21100 23.82800
H  11.94700 57.50500 25.21200
H  16.77400 53.76100 22.08500
H  17.60700 50.81500 22.17300
H  14.35400 52.57400 21.54600
H  15.51400 51.23500 21.01300
H  15.44900 52.89000 20.29600
H  19.51000 52.83000 22.95500
H  19.05200 53.05600 21.22200
H  20.84800 51.17300 22.45200
H  20.59500 51.71700 20.79800
H  19.49500 50.50500 21.37800
H  21.06200 49.53600 24.92500
H  20.67500 47.99200 25.78700
H  21.87800 49.09100 26.46200
H  19.95100 51.32200 30.92400
H  19.26300 47.78300 33.14300
H  18.80000 49.31900 33.98200
H  20.41200 48.55200 34.18300

