158

Mg 26.63700 0.67800 29.39600
C  28.56100 0.33800 32.17400
C  23.78300 1.17800 31.38800
C  24.66600 0.63300 26.59100
C  29.48100 -0.09500 27.31000
N  26.25700 0.68100 31.55000
C  27.22200 0.69300 32.52900
C  26.61500 0.89400 33.92000
C  25.08800 1.01000 33.60200
C  25.00900 1.02300 32.09300
C  24.25100 -0.02700 34.27600
C  27.19600 2.25200 34.53500
C  28.08700 2.01400 35.74900
H  27.81600 2.87900 37.03000
N  24.58000 0.88900 28.99400
C  23.61900 1.10900 29.96800
C  22.30600 1.30900 29.28300
C  22.53600 1.04100 27.88200
C  23.96200 0.86800 27.79900
C  20.99100 1.54500 30.00200
C  21.52900 1.07800 26.70100
O  21.89300 0.93900 25.52200
C  20.07400 1.29200 26.94500
N  27.03700 0.23700 27.31900
C  25.99800 0.33900 26.40700
C  26.55200 0.35900 24.92800
C  28.17000 0.23100 25.13400
C  28.23100 0.10400 26.70600
C  25.99700 -0.68500 24.10500
C  28.97800 1.56500 24.72500
C  30.03600 1.28600 23.68600
N  28.54800 0.13500 29.64500
C  29.59100 -0.09100 28.70400
C  30.79200 -0.33800 29.50900
C  30.43200 -0.18200 30.85400
C  29.07300 0.10800 30.87000
C  32.14800 -0.69000 28.93900
C  30.91400 -0.34700 32.19500
O  31.91600 -0.86000 32.70800
C  29.71000 0.10400 33.11200
C  29.40000 -0.99600 34.11400
O  28.63500 -1.97600 33.91800
O  30.07400 -0.74700 35.27800
C  30.09000 -1.81700 36.25800
H  22.81700 1.32800 31.87600
H  24.23100 0.69500 25.59200
H  30.42000 -0.34200 26.81100
H  26.82600 0.06100 34.59000
H  24.74000 1.94400 34.04300
H  23.55900 0.42600 34.98500
H  24.94200 -0.73500 34.73400
H  23.64500 -0.53900 33.52800
H  26.47500 2.97100 34.92500
H  27.81400 2.78100 33.80900
H  29.10600 2.31200 35.49900
H  28.05400 0.96400 36.03800
H  20.39900 0.65300 29.79800
H  20.50800 2.39200 29.51600
H  21.02000 1.68600 31.08200
H  19.48700 1.11600 26.04300
H  20.02100 2.36700 27.12200
H  19.73900 0.62200 27.73700
H  26.34400 1.25800 24.34900
H  28.49400 -0.64700 24.57600
H  26.66800 -1.14900 23.38300
H  25.37400 -0.19900 23.35300
H  25.39600 -1.45200 24.59300
H  29.56200 2.03700 25.51600
H  28.32200 2.34800 24.34500
H  31.05000 1.32600 24.08200
H  30.05800 2.05900 22.91700
H  29.86700 0.32100 23.20700
H  32.93700 -0.46700 29.65900
H  32.36400 -0.15900 28.01200
H  32.12400 -1.77200 28.80900
H  29.91200 1.06200 33.58900
H  30.12500 -2.85200 35.91700
H  29.25100 -1.63800 36.93000
H  31.02000 -1.76100 36.82300
Mg 48.56000 35.36700 26.99400
C  46.62200 34.02700 29.41800
C  49.15000 38.21700 29.24200
C  50.05500 37.21800 24.43400
C  47.70600 32.86600 24.75700
N  47.85900 36.06700 29.04400
C  47.14800 35.20400 29.85800
C  47.13200 35.70100 31.30500
C  47.69700 37.20500 31.22500
C  48.31000 37.14800 29.80600
C  46.70900 38.37500 31.33400
C  48.16000 34.81600 32.12700
C  47.66100 34.33000 33.52300
H  46.48200 35.13700 34.15400
N  49.57000 37.35200 26.90000
C  49.78000 38.25300 27.91800
C  50.45200 39.39900 27.38000
C  50.77500 39.20700 25.98100
C  50.17000 37.89300 25.73400
C  50.74900 40.58500 28.28400
C  51.55500 40.00600 25.01400
O  51.91200 39.56900 23.91900
C  52.01400 41.36900 25.31900
N  48.75200 35.14200 24.89300
C  49.45000 35.97200 24.08300
C  49.59900 35.36600 22.69000
C  48.86000 33.97400 22.84800
C  48.39900 33.98200 24.24300
C  49.28300 36.24100 21.45100
C  49.73700 32.69400 22.51300
C  49.03000 31.58600 21.85600
N  47.48400 33.75100 27.01100
C  47.28300 32.75500 26.09000
C  46.43100 31.71000 26.72500
C  46.10400 32.19800 27.97800
C  46.79900 33.38800 28.10700
C  46.05700 30.41300 26.07000
C  45.34700 32.03900 29.20300
O  44.60800 31.12100 29.46500
C  45.65300 33.13100 30.24500
C  46.21300 32.30500 31.31400
O  47.23400 31.65300 31.28300
O  45.32600 32.23500 32.30700
C  45.55600 31.12700 33.26100
H  49.32100 38.99300 29.99100
H  50.65200 37.66900 23.63900
H  47.35200 32.02800 24.15400
H  46.12400 35.67200 31.71900
H  48.46000 37.45900 31.96100
H  45.82800 38.08800 31.90600
H  46.35900 38.74400 30.36900
H  47.14500 39.12800 31.99100
H  49.07600 35.40000 32.21400
H  48.43600 33.98800 31.47300
H  48.53800 34.36100 34.17000
H  47.43400 33.26700 33.44600
H  49.86100 41.21700 28.28700
H  51.54100 41.21400 27.87800
H  50.94200 40.34100 29.32900
H  52.72400 41.38100 26.14500
H  51.12000 41.97400 25.47000
H  52.49800 41.70400 24.40100
H  50.65400 35.09600 22.73800
H  47.95600 34.05300 22.24500
H  48.62000 35.76700 20.72800
H  50.25400 36.57700 21.08600
H  48.78600 37.15800 21.76600
H  50.10200 32.31800 23.46900
H  50.62500 32.94500 21.93200
H  48.04100 31.75300 21.42900
H  49.02300 30.72200 22.52000
H  49.60400 31.32500 20.96700
H  44.97200 30.36400 25.98300
H  46.44900 29.56800 26.63700
H  46.52100 30.39700 25.08400
H  44.67000 33.57500 30.40400
H  44.70100 31.21400 33.93100
H  46.45600 31.28700 33.85500
H  45.65900 30.13500 32.82300

