158

Mg 24.89200 -6.51500 47.94900
C  27.31700 -4.32400 46.81800
C  22.64600 -5.23600 45.60700
C  22.96500 -9.15200 48.69100
C  27.48700 -8.06300 50.12100
N  25.00800 -4.90200 46.52100
C  26.06900 -4.12400 46.17600
C  25.68700 -3.12800 45.09600
C  24.17800 -3.34900 44.85200
C  23.89500 -4.54600 45.76700
C  23.24400 -2.07700 45.05400
C  26.57900 -3.22400 43.78700
C  27.39800 -1.99400 43.31700
H  27.01500 -1.50100 41.89400
N  22.98600 -7.04600 47.24500
C  22.24800 -6.40400 46.35700
C  20.97600 -7.10000 46.29700
C  21.04500 -8.28600 47.10100
C  22.37200 -8.20200 47.73000
C  19.89500 -6.60000 45.36700
C  19.87700 -9.33300 47.29400
O  18.89200 -9.34200 46.57200
C  19.98600 -10.50500 48.31500
N  25.14700 -8.26500 49.27900
C  24.15600 -9.10900 49.41200
C  24.35000 -10.23300 50.44000
C  25.77800 -9.85600 50.94900
C  26.19500 -8.66700 50.06700
C  23.24500 -10.37400 51.49900
C  26.74000 -11.10500 50.95800
C  27.10000 -11.57400 52.36600
N  26.99000 -6.30100 48.45200
C  27.81700 -6.92100 49.35900
C  29.06800 -6.15900 49.36000
C  28.90900 -5.13600 48.41700
C  27.66500 -5.31700 47.80300
C  30.40200 -6.54800 50.18800
C  29.55500 -3.96100 47.86300
O  30.67000 -3.51300 48.07300
C  28.55700 -3.47900 46.77500
C  28.19100 -2.04700 47.18800
O  27.41600 -1.77200 48.06900
O  28.91700 -1.12700 46.38100
C  28.59300 0.28700 46.72300
H  22.02000 -4.91300 44.77300
H  22.34600 -10.01000 48.96400
H  28.24600 -8.36200 50.84700
H  25.74400 -2.17700 45.62600
H  23.96500 -3.70400 43.84400
H  23.25500 -1.54500 44.10300
H  23.70900 -1.44300 45.80900
H  22.23100 -2.26700 45.40800
H  25.85200 -3.34200 42.98400
H  27.07900 -4.19100 43.73100
H  28.46000 -2.24100 43.31100
H  27.24200 -1.15000 43.98900
H  19.93600 -5.51000 45.38800
H  18.91400 -6.91000 45.72600
H  20.16600 -6.93400 44.36600
H  20.67100 -11.19000 47.81500
H  18.95700 -10.86600 48.29800
H  20.27500 -10.11400 49.29100
H  24.34100 -11.16100 49.86900
H  25.51900 -9.42000 51.91400
H  23.66300 -10.30000 52.50200
H  22.70400 -11.32100 51.52200
H  22.48200 -9.60200 51.39200
H  27.60200 -10.88600 50.32900
H  26.18200 -11.90000 50.46400
H  26.80600 -10.97300 53.22600
H  28.18200 -11.55100 52.49300
H  26.84700 -12.62300 52.52000
H  30.26100 -6.14200 51.18900
H  31.26300 -6.24200 49.59300
H  30.45900 -7.63500 50.22700
H  28.95200 -3.42900 45.76000
H  28.84200 0.31600 47.78400
H  27.51200 0.40800 46.66000
H  29.00600 0.96300 45.97500
Mg 55.32500 22.09500 44.39900
C  53.02500 24.88500 43.70900
C  53.09300 19.97700 43.09700
C  57.81300 19.79200 43.95700
C  57.72700 24.57300 45.18900
N  53.30700 22.47600 43.39400
C  52.50000 23.55700 43.29500
C  51.12100 23.17000 42.75700
C  51.14600 21.61600 42.90900
C  52.59400 21.31900 43.16100
C  50.22100 21.13400 44.06400
C  50.92100 23.65300 41.26200
C  52.10600 23.86400 40.34800
H  51.92400 24.85700 39.20700
N  55.46700 20.15900 43.63300
C  54.35600 19.43200 43.25000
C  54.74100 17.99900 43.14200
C  56.08700 17.94800 43.54100
C  56.57000 19.28100 43.67200
C  53.70800 16.89700 42.88000
C  56.85700 16.64100 43.62500
O  56.21900 15.62400 43.54900
C  58.33400 16.43700 43.84400
N  57.49300 22.20000 44.38500
C  58.24200 21.09000 44.20800
C  59.70700 21.42600 44.57400
C  59.68500 22.95200 44.89700
C  58.19400 23.29500 44.80800
C  60.31800 20.56700 45.70200
C  60.47200 23.91600 43.91400
C  61.82200 24.29400 44.39200
N  55.37900 24.25200 44.59300
C  56.45100 25.06300 45.03300
C  55.94100 26.43300 45.17200
C  54.62200 26.44600 44.55900
C  54.33000 25.08300 44.26600
C  56.81700 27.61600 45.49700
C  53.49900 27.27000 44.20100
O  53.29700 28.46000 44.39000
C  52.40900 26.28000 43.64600
C  51.84900 26.76900 42.28600
O  52.47600 27.03100 41.28700
O  50.51100 27.00900 42.39200
C  49.81900 27.68400 41.24000
H  52.35600 19.20400 42.86900
H  58.61500 19.05200 44.00300
H  58.50200 25.23700 45.57800
H  50.45200 23.71200 43.42600
H  50.69400 21.09300 42.06500
H  49.46200 20.48600 43.62700
H  49.67000 21.95900 44.51500
H  50.87400 20.70500 44.82400
H  50.24900 24.51100 41.29500
H  50.40900 22.80300 40.81100
H  52.36900 22.86300 40.00800
H  52.97200 24.20900 40.91500
H  53.53700 16.78300 41.81000
H  52.74300 17.28500 43.20800
H  53.75400 15.92300 43.36700
H  58.62800 16.85500 44.80700
H  58.82100 16.98700 43.03900
H  58.48900 15.36200 43.74400
H  60.36000 21.32100 43.70800
H  59.96200 23.09600 45.94100
H  61.38600 20.42000 45.54200
H  59.74000 19.66600 45.90900
H  60.37700 21.17900 46.60200
H  59.87600 24.75200 43.55000
H  60.52500 23.32900 42.99700
H  62.58700 23.87100 43.74100
H  62.04300 23.89300 45.38100
H  62.00400 25.36800 44.35300
H  57.51300 27.55300 46.33400
H  56.27800 28.56300 45.53600
H  57.42500 27.68700 44.59500
H  51.55000 26.24100 44.31700
H  49.96100 28.73400 41.49600
H  48.77700 27.36900 41.18800
H  50.30300 27.46800 40.28800

