158

Mg -0.21000 7.65900 27.36000
C  0.47500 9.98800 29.83700
C  -0.64200 5.28500 29.59300
C  -0.74100 5.58600 24.66800
C  0.81800 10.14000 25.04500
N  0.11500 7.69500 29.54500
C  0.06600 8.74500 30.38000
C  -0.17400 8.33100 31.77100
C  -0.39400 6.77700 31.68900
C  -0.27500 6.54400 30.17400
C  0.64400 5.93700 32.35700
C  -1.29800 9.06200 32.47400
C  -1.35800 8.94100 34.01900
H  -0.16700 8.47900 34.82300
N  -0.53300 5.73200 27.14700
C  -0.81600 4.92600 28.21800
C  -1.10900 3.59400 27.71800
C  -1.09500 3.60900 26.31800
C  -0.80100 5.05600 26.01600
C  -1.36100 2.40500 28.69300
C  -1.34300 2.47700 25.22200
O  -1.39100 2.64700 23.99900
C  -1.63700 1.02600 25.85400
N  0.10600 7.83100 25.12500
C  -0.28800 6.84900 24.28800
C  -0.29600 7.39200 22.85000
C  -0.08600 8.88500 22.97100
C  0.36200 8.95500 24.43800
C  0.65800 6.46200 22.03100
C  -1.46300 9.63900 22.84000
C  -1.79300 10.29800 21.41900
N  0.55100 9.63100 27.40100
C  0.98200 10.50300 26.40000
C  1.37700 11.82100 26.95400
C  1.22300 11.68000 28.33400
C  0.86500 10.28800 28.52100
C  1.80300 13.01400 26.15900
C  1.33900 12.28100 29.58100
O  1.61400 13.43600 29.93000
C  0.92400 11.20900 30.61100
C  1.92800 11.18300 31.64600
O  3.02300 10.65500 31.48800
O  1.48300 11.82800 32.75100
C  2.38400 11.81000 33.86700
H  -0.80100 4.58100 30.41300
H  -0.90400 4.87400 23.85700
H  0.96900 10.90000 24.27600
H  0.73100 8.41500 32.37300
H  -1.36000 6.40200 32.02800
H  1.45400 5.73500 31.65700
H  0.27300 4.95000 32.63700
H  1.07600 6.38800 33.25000
H  -2.17500 8.50700 32.14000
H  -1.39300 10.13500 32.30600
H  -2.25700 8.36200 34.22800
H  -1.62200 9.91300 34.43600
H  -2.41600 2.32600 28.95600
H  -0.87600 2.69000 29.62600
H  -0.99900 1.42500 28.38100
H  -1.99800 0.45100 25.00100
H  -2.42800 1.11700 26.59800
H  -0.73000 0.59300 26.27800
H  -1.32000 7.30600 22.48900
H  0.72200 9.19600 22.30900
H  0.95700 5.52100 22.49300
H  1.46300 7.00700 21.53700
H  0.04300 6.03200 21.24000
H  -1.40600 10.49200 23.51700
H  -2.35400 9.09500 23.15300
H  -2.79600 10.00100 21.11300
H  -1.00200 10.16200 20.68200
H  -1.74000 11.36800 21.62300
H  0.86600 13.33000 25.70100
H  2.55800 12.75100 25.41800
H  2.32100 13.69300 26.83700
H  0.02900 11.63900 31.06000
H  2.53600 10.76200 34.12400
H  2.07100 12.36300 34.75200
H  3.41400 12.11800 33.68600
Mg 47.33300 15.81900 27.33300
C  45.56100 16.07600 30.35700
C  49.94500 17.68500 28.90000
C  49.10200 15.89400 24.50400
C  44.68000 14.33400 25.80600
N  47.80100 16.52500 29.56400
C  46.84700 16.56200 30.56100
C  47.49200 17.11400 31.82600
C  48.79000 17.83200 31.23200
C  48.88600 17.31500 29.79000
C  48.84100 19.42500 31.30500
C  47.69700 16.10400 33.01300
C  47.24400 16.54200 34.42600
H  47.23300 18.04600 34.85700
N  49.31600 16.71500 26.77300
C  50.13900 17.40500 27.54800
C  51.37300 17.59700 26.85700
C  51.15100 17.17600 25.50900
C  49.81400 16.60600 25.48500
C  52.53600 18.28700 27.51300
C  52.08900 17.21800 24.31400
O  51.77900 16.72900 23.21800
C  53.40900 17.96500 24.41500
N  46.97800 15.03700 25.45700
C  47.93300 15.20600 24.45300
C  47.33700 14.49100 23.16300
C  45.90500 13.89900 23.54500
C  45.84100 14.38100 25.03500
C  47.16900 15.32600 21.85500
C  45.84200 12.34400 23.54800
C  45.34000 11.71000 22.23600
N  45.50200 15.30300 27.89100
C  44.50500 14.73300 27.14800
C  43.27900 14.68800 27.96000
C  43.67000 15.05500 29.25600
C  45.02100 15.53100 29.15400
C  41.88800 14.24400 27.48600
C  43.25500 15.29600 30.56700
O  42.16200 14.99300 31.04700
C  44.48300 15.80500 31.35200
C  44.10500 16.93200 32.22400
O  44.16600 18.11100 31.92000
O  43.54700 16.46500 33.38300
C  43.36400 17.50100 34.42100
H  50.63900 18.39500 29.35500
H  49.66100 15.86500 23.56600
H  43.78100 13.97600 25.30100
H  46.94200 17.95600 32.24700
H  49.66800 17.60000 31.83500
H  47.97000 19.80700 31.83800
H  48.91600 19.80800 30.28700
H  49.76400 19.79900 31.74700
H  48.74000 15.78800 33.00700
H  47.10400 15.26100 32.66000
H  47.84100 15.98000 35.14400
H  46.25500 16.17900 34.70700
H  52.77600 17.55200 28.28200
H  52.27900 19.27500 27.89500
H  53.43500 18.59200 26.97800
H  53.31300 18.98200 24.79500
H  53.80600 18.04900 23.40400
H  54.14400 17.36200 24.95000
H  47.95000 13.64800 22.84600
H  45.06400 14.39700 23.06200
H  47.87300 16.15800 21.89400
H  46.23200 15.88200 21.85400
H  47.40300 14.77400 20.94400
H  45.22900 11.99300 24.37800
H  46.83900 11.94100 23.72500
H  44.40600 11.18400 22.43400
H  46.07900 11.04300 21.79100
H  45.06900 12.47300 21.50600
H  41.06600 14.50800 28.15100
H  42.03400 13.16400 27.44400
H  41.66100 14.66500 26.50700
H  44.76100 14.96900 31.99400
H  44.20200 17.25800 35.07300
H  42.40900 17.41900 34.94000
H  43.42500 18.56700 34.20100

