158

Mg 25.84900 0.86500 30.45200
C  28.08900 0.66600 33.04300
C  23.36300 1.24100 32.76200
C  23.67400 0.73100 27.87700
C  28.39800 -0.38800 28.33500
N  25.78000 0.90700 32.72500
C  26.83100 1.02900 33.51500
C  26.43100 1.31900 34.90500
C  24.84400 1.36000 34.84600
C  24.60800 1.17700 33.37600
C  24.03600 0.25300 35.79000
C  27.10000 2.60100 35.40100
C  27.90000 2.65000 36.70100
H  27.42400 3.65100 37.78000
N  23.75400 1.13700 30.35600
C  22.94100 1.23000 31.41000
C  21.57700 1.19300 30.91600
C  21.62000 1.17200 29.47900
C  23.06000 0.95800 29.20200
C  20.40400 1.39100 31.80300
C  20.56900 1.19600 28.43200
O  20.82300 1.31700 27.20300
C  19.19300 1.28800 28.84100
N  26.04400 0.21500 28.44700
C  24.99100 0.42300 27.56100
C  25.49900 0.33100 26.09500
C  26.97700 -0.00800 26.24600
C  27.15000 -0.09200 27.75600
C  24.72500 -0.53400 25.02700
C  28.01200 0.95500 25.58300
C  29.26200 0.37900 24.98000
N  27.78900 0.21300 30.57700
C  28.72700 -0.19000 29.67500
C  30.00400 -0.43800 30.31400
C  29.81300 -0.11700 31.65400
C  28.47500 0.29200 31.73200
C  31.22800 -0.97000 29.65100
C  30.44200 0.00400 32.95100
O  31.55600 -0.19900 33.33300
C  29.33300 0.51800 33.91300
C  29.24100 -0.51700 35.02900
O  28.66000 -1.60600 34.95100
O  29.89500 -0.02400 36.13800
C  29.89100 -0.84900 37.34300
H  22.58000 1.44100 33.49600
H  23.05300 0.93800 27.00300
H  29.15600 -0.71600 27.62100
H  26.73600 0.45700 35.49800
H  24.45900 2.36000 35.04700
H  23.22000 -0.27300 35.29500
H  23.51700 0.71200 36.63200
H  24.79900 -0.47600 36.06100
H  26.33400 3.36000 35.55900
H  27.63200 2.99400 34.53400
H  28.96500 2.84200 36.56900
H  27.75700 1.69500 37.20700
H  20.64000 1.48400 32.86300
H  19.73200 0.55500 31.60800
H  19.96000 2.33400 31.48200
H  19.04300 2.12600 29.52100
H  19.08900 0.34400 29.37600
H  18.56900 1.29900 27.94700
H  25.50800 1.31400 25.62300
H  27.14900 -0.99600 25.82000
H  23.67600 -0.61300 25.31500
H  25.17000 -1.52700 24.96600
H  24.63400 -0.10400 24.02900
H  28.25300 1.68700 26.35400
H  27.58800 1.55500 24.77800
H  29.34600 -0.68500 25.20000
H  30.08700 0.96300 25.38600
H  29.20400 0.50700 23.89900
H  31.00000 -2.03600 29.67700
H  32.22100 -0.85000 30.08600
H  31.23400 -0.62000 28.61900
H  29.78200 1.42700 34.31300
H  28.85600 -0.90800 37.68000
H  30.49000 -0.32700 38.09000
H  30.14000 -1.89100 37.14100
Mg 43.91500 3.89200 46.98500
C  42.05300 6.72700 46.87900
C  40.91000 1.98600 46.80400
C  45.76000 1.20300 46.40200
C  46.86100 5.84800 46.46500
N  41.71800 4.37500 46.96100
C  41.19600 5.58700 46.86000
C  39.68000 5.52100 46.80700
C  39.30300 4.02100 46.94700
C  40.73400 3.40200 46.84500
C  38.52400 3.69700 48.26200
C  39.09400 6.22900 45.61400
C  39.44100 5.64600 44.21800
H  39.91400 6.62900 43.17100
N  43.37300 1.85300 46.78000
C  42.12300 1.21600 46.81000
C  42.26000 -0.15600 46.64400
C  43.58700 -0.37100 46.32900
C  44.35300 0.88500 46.44700
C  41.01700 -1.08100 46.73200
C  44.08500 -1.73800 45.92000
O  43.23800 -2.62400 45.86800
C  45.46600 -1.96400 45.56600
N  46.06500 3.59700 46.50000
C  46.48100 2.36900 46.48000
C  48.07100 2.31700 46.55300
C  48.43100 3.79100 46.36900
C  47.09700 4.51000 46.49200
C  48.50700 1.74600 47.92900
C  48.97000 4.15200 44.92300
C  50.44200 4.50100 44.94900
N  44.38600 5.87400 46.67300
C  45.62500 6.54400 46.51300
C  45.37600 8.00900 46.52900
C  43.97600 8.07000 46.64500
C  43.41300 6.81700 46.75100
C  46.30400 9.08000 46.56700
C  42.91500 8.93100 46.79600
O  42.95600 10.18000 46.81100
C  41.58100 8.18500 46.85800
C  40.73000 8.68200 47.92600
O  40.42600 8.04000 48.88900
O  40.18000 9.89400 47.54600
C  38.97100 10.32500 48.25500
H  39.97100 1.44900 46.65400
H  46.40800 0.32800 46.48500
H  47.71600 6.52300 46.38700
H  39.28700 6.13200 47.61900
H  38.72500 3.68000 46.08800
H  39.23400 3.84500 49.07600
H  38.39500 2.62200 48.38400
H  37.62600 4.28100 48.46200
H  39.45600 7.25500 45.56100
H  38.00800 6.27700 45.69800
H  38.58700 5.05200 43.89100
H  40.31000 5.01300 44.39600
H  40.77700 -1.52100 45.76400
H  40.10600 -0.51100 46.91500
H  41.16500 -1.84900 47.49100
H  46.05700 -2.16600 46.45900
H  45.80700 -1.08800 45.01400
H  45.50400 -2.80700 44.87600
H  48.46600 1.81000 45.67200
H  48.99800 4.30800 47.14300
H  47.68700 1.51100 48.60700
H  49.13600 2.50100 48.40000
H  49.01900 0.80200 47.74100
H  48.37500 4.95400 44.48600
H  48.70800 3.30400 44.29000
H  50.95400 3.91800 44.18300
H  50.80900 4.15900 45.91600
H  50.67200 5.56500 44.88900
H  45.87300 10.02900 46.24800
H  47.05300 8.88000 45.80100
H  46.77000 9.20700 47.54400
H  41.10500 8.50600 45.93200
H  38.98300 10.26000 49.34300
H  38.07200 9.83600 47.87900
H  38.79600 11.39200 48.11200

