158

Mg 35.40100 2.44100 30.31900
C  32.74000 3.17400 32.46800
C  37.62800 2.53600 32.90900
C  37.95500 1.97500 28.10300
C  33.19200 2.70600 27.64800
N  35.19900 2.75600 32.39500
C  33.96800 2.98700 33.10500
C  34.24900 3.10700 34.63700
C  35.77400 3.19300 34.68400
C  36.26600 2.74100 33.24200
C  36.37000 4.55800 35.20800
C  33.70300 1.92500 35.50200
C  33.16400 2.19000 36.91800
H  33.91600 3.23100 37.82500
N  37.49100 2.10300 30.53000
C  38.17900 2.20300 31.70500
C  39.52500 1.73400 31.42100
C  39.65400 1.40200 30.09200
C  38.37400 1.85800 29.48800
C  40.64100 1.58100 32.42900
C  40.74200 0.76000 29.29600
O  40.63400 0.61200 28.05700
C  41.97800 0.23100 29.86100
N  35.59200 2.59200 28.16400
C  36.72400 2.32600 27.54300
C  36.55300 2.28200 26.00500
C  34.96300 2.42600 25.87000
C  34.54400 2.61000 27.30700
C  37.40500 3.44000 25.34200
C  34.22900 1.19000 25.31600
C  32.92800 1.32200 24.44300
N  33.37800 2.78400 30.06400
C  32.58300 2.82600 28.85500
C  31.20300 3.05000 29.24200
C  31.21400 3.35400 30.62500
C  32.56500 3.12100 31.09500
C  30.16200 3.23600 28.28200
C  30.43600 3.78000 31.77400
O  29.27900 4.20700 31.89700
C  31.42700 3.62100 32.98500
C  31.63700 4.94300 33.64200
O  32.00400 6.03100 33.14200
O  31.48900 4.78000 34.95000
C  31.61300 5.94900 35.91100
H  38.21100 2.58800 33.83100
H  38.73900 1.74000 27.38000
H  32.51000 2.78300 26.79800
H  33.83600 4.01500 35.07700
H  36.28600 2.37500 35.19100
H  35.75000 5.15800 35.87400
H  36.50300 5.20200 34.33800
H  37.33400 4.34500 35.67000
H  34.48100 1.16200 35.51800
H  32.83100 1.54900 34.96600
H  33.35300 1.21700 37.37200
H  32.08400 2.33200 36.92300
H  41.55600 1.81200 31.88300
H  40.63300 0.53800 32.74500
H  40.68100 2.23600 33.30000
H  42.50500 -0.40400 29.14900
H  41.70700 -0.29500 30.77700
H  42.60800 1.09100 30.08600
H  36.90500 1.38700 25.49200
H  34.70100 3.24300 25.19700
H  36.82100 3.92400 24.55900
H  38.32400 3.09200 24.86900
H  37.67200 4.19600 26.08100
H  33.89800 0.61000 26.17700
H  34.91200 0.57400 24.73100
H  32.68500 2.33000 24.10700
H  32.05800 0.95000 24.98500
H  33.16300 0.72600 23.56200
H  30.44500 3.53500 27.27300
H  29.41200 3.93700 28.64900
H  29.69200 2.26300 28.14300
H  30.89200 3.03000 33.72800
H  30.93100 5.90500 36.76000
H  31.36500 6.88600 35.41200
H  32.64100 5.99700 36.27000
Mg 40.88500 8.36500 29.78900
C  42.69500 9.64800 32.52900
C  38.64400 7.01700 32.06900
C  39.21100 7.26600 27.18500
C  43.52200 9.36100 27.60200
N  40.69100 8.36300 32.10500
C  41.55900 9.00700 32.94700
C  40.97400 8.97500 34.40800
C  39.80800 7.90800 34.34300
C  39.69600 7.71600 32.78800
C  39.96200 6.62000 35.12700
C  40.67900 10.39100 35.01100
C  41.48900 10.81100 36.24600
H  40.98200 11.94000 37.18500
N  39.17400 7.26600 29.58400
C  38.35800 6.78700 30.66100
C  37.15700 6.19200 30.06100
C  37.25100 6.54600 28.62800
C  38.60200 7.03500 28.41100
C  36.11100 5.40200 30.82700
C  36.17900 6.47700 27.65000
O  36.33500 6.76100 26.45000
C  34.83800 6.13100 28.09900
N  41.33600 8.20100 27.73400
C  40.39600 7.78100 26.84000
C  40.88000 7.83900 25.38800
C  42.21200 8.76600 25.51500
C  42.38400 8.78300 27.03400
C  41.05500 6.42100 24.70100
C  42.15000 10.20200 24.82800
C  41.23300 11.25800 25.56200
N  42.78900 9.22200 29.95400
C  43.68600 9.60600 29.00300
C  44.80200 10.22200 29.63900
C  44.42000 10.29000 31.02500
C  43.18600 9.65800 31.15700
C  46.08900 10.71000 28.96100
C  44.92000 10.68400 32.31100
O  46.01700 11.13000 32.60600
C  43.76900 10.37600 33.39100
C  44.31000 9.42600 34.37000
O  44.28600 8.20700 34.27000
O  44.87400 10.15100 35.37800
C  45.46000 9.29900 36.42500
H  37.93500 6.65000 32.81400
H  38.58600 7.04300 26.31800
H  44.32100 9.57300 26.88800
H  41.74200 8.44400 34.97100
H  38.81200 8.22000 34.65700
H  40.93900 6.51400 35.59800
H  39.91000 5.74400 34.48200
H  39.19100 6.51700 35.89200
H  39.66600 10.40500 35.41500
H  40.84700 11.16400 34.26200
H  42.48600 11.14600 35.95800
H  41.70600 9.93300 36.85400
H  36.59800 5.25800 31.79200
H  35.94000 4.42200 30.38300
H  35.24600 6.06500 30.83600
H  34.84900 5.17100 28.61600
H  34.28400 6.00700 27.16800
H  34.39900 6.89800 28.73700
H  40.15600 8.43600 24.83300
H  43.09700 8.21700 25.19300
H  40.52800 5.65000 25.26300
H  42.08400 6.08100 24.58300
H  40.52800 6.47100 23.74800
H  41.94800 10.21200 23.75700
H  43.14000 10.65200 24.90400
H  40.40500 10.75600 26.06200
H  40.83500 12.04300 24.91800
H  41.85700 11.72900 26.32100
H  46.14300 11.69400 28.49400
H  46.42100 9.96900 28.23400
H  46.92900 10.62400 29.65000
H  43.47000 11.30300 33.88100
H  46.52700 9.51900 36.39900
H  45.31200 8.22300 36.32700
H  45.12900 9.64700 37.40300

