158

Mg 48.18300 15.89700 28.48400
C  46.17700 15.61900 31.38800
C  50.25000 18.00000 30.21800
C  50.07200 16.06100 25.81000
C  45.83200 14.00900 26.75700
N  48.09500 16.77700 30.55800
C  47.23200 16.36400 31.57100
C  47.75800 16.94700 32.94600
C  48.94300 17.86600 32.47300
C  49.05700 17.57200 30.96000
C  48.74200 19.44500 32.68500
C  48.19900 15.90200 33.92300
C  48.03200 16.33700 35.45200
H  49.10900 15.89200 36.41400
N  49.86800 16.96100 28.16500
C  50.59500 17.77600 28.95600
C  51.82200 18.21300 28.31200
C  51.79700 17.64900 26.96900
C  50.56900 16.80300 26.91600
C  52.89800 19.02100 29.02000
C  52.86100 17.74700 25.86800
O  52.81200 17.09800 24.82800
C  54.09800 18.54900 26.03800
N  47.88400 15.29300 26.53300
C  48.91500 15.37100 25.60500
C  48.58300 14.68200 24.27700
C  47.14500 14.23100 24.53100
C  46.92900 14.51200 25.99900
C  48.57900 15.70400 23.00500
C  46.97600 12.72800 24.14500
C  47.80100 11.64500 24.93800
N  46.38100 15.05700 28.94100
C  45.54500 14.25200 28.11500
C  44.37000 13.97900 28.83300
C  44.57000 14.45200 30.14300
C  45.82500 15.09200 30.16300
C  43.18600 13.19800 28.26700
C  43.95800 14.47300 31.43400
O  42.89600 14.00600 31.85900
C  44.98700 15.16800 32.34300
C  44.43100 16.48400 32.88500
O  44.11800 17.50400 32.23800
O  44.29500 16.38000 34.28100
C  44.08500 17.70200 34.93600
H  50.88200 18.68800 30.78300
H  50.74700 16.17000 24.95900
H  45.08100 13.41000 26.23700
H  46.98300 17.57200 33.39000
H  49.86300 17.56200 32.97100
H  48.58700 20.05700 31.79600
H  49.56900 19.82500 33.28400
H  47.86000 19.73400 33.25600
H  49.25600 15.73000 33.72200
H  47.67100 14.97800 33.68800
H  47.12000 15.80700 35.72400
H  47.86400 17.41000 35.53300
H  52.81600 19.10200 30.10400
H  53.06800 19.98700 28.54500
H  53.76900 18.39400 28.83100
H  53.85000 19.38000 26.69900
H  54.30600 18.86500 25.01600
H  54.99300 18.05800 26.42200
H  49.26000 13.85100 24.08000
H  46.35800 14.85000 24.10100
H  47.58100 15.84500 22.58800
H  49.22300 15.34100 22.20400
H  48.85000 16.72300 23.27900
H  47.42800 12.64500 23.15700
H  45.90200 12.58200 24.03200
H  47.08100 10.87400 25.21200
H  48.34200 12.02800 25.80200
H  48.57700 11.19300 24.32100
H  42.80900 13.40500 27.26500
H  42.36900 13.46700 28.93600
H  43.38000 12.12600 28.30200
H  45.34300 14.42300 33.05500
H  44.50600 18.49600 34.31900
H  44.60800 17.67300 35.89200
H  43.00100 17.81600 34.92600
Mg 7.01100 57.20500 41.73300
C  5.93600 53.75900 41.84600
C  9.89400 56.12200 40.21100
C  7.72100 60.49700 41.16600
C  3.75400 58.03200 42.65500
N  7.77700 55.12200 41.12500
C  7.24600 53.86900 41.21400
C  8.15400 52.78300 40.62500
C  9.55600 53.56900 40.56700
C  9.03600 55.03900 40.62100
C  10.54500 53.30300 41.70000
C  7.54800 52.34200 39.28000
C  7.48900 50.91800 38.88900
H  6.48400 50.44800 37.83700
N  8.69700 58.20400 40.88600
C  9.77300 57.54100 40.33500
C  10.61900 58.55200 39.83000
C  10.02700 59.84300 40.08400
C  8.71700 59.55300 40.72700
C  12.08900 58.21900 39.35400
C  10.71900 61.20800 39.92600
O  11.69500 61.34500 39.19200
C  10.05200 62.43000 40.31500
N  5.91700 58.97600 41.75800
C  6.44700 60.21300 41.70200
C  5.52400 61.34900 42.08000
C  4.23000 60.50100 42.38600
C  4.65600 59.05400 42.23700
C  6.12400 62.31000 43.13600
C  3.04500 60.87300 41.49700
C  2.18800 62.06700 42.10300
N  5.19600 56.13600 42.26900
C  3.99500 56.66500 42.62800
C  3.14200 55.60400 43.09900
C  3.91600 54.44700 42.81000
C  5.14800 54.78000 42.24100
C  1.67400 55.72000 43.73700
C  3.98700 52.99700 43.04800
O  3.24700 52.26500 43.65300
C  5.33300 52.45800 42.25500
C  4.83900 51.51500 41.14900
O  4.21200 51.76000 40.16500
O  5.05200 50.19300 41.57500
C  4.29300 49.11700 40.98000
H  10.86600 55.83000 39.80800
H  7.88600 61.56400 41.00100
H  2.86500 58.28600 43.23500
H  8.26300 51.92800 41.29400
H  10.15600 53.53100 39.65800
H  11.54500 53.04200 41.35600
H  10.08000 52.40300 42.10100
H  10.45800 54.09500 42.44300
H  8.16000 52.78600 38.49500
H  6.61600 52.89700 39.16900
H  7.15700 50.34000 39.75200
H  8.49100 50.66500 38.54300
H  12.01400 58.50400 38.30500
H  12.41000 57.21100 39.61600
H  12.75500 58.80500 39.98800
H  9.19300 62.62000 39.67200
H  10.77900 63.23800 40.24400
H  9.68200 62.25900 41.32600
H  5.41100 61.97400 41.19300
H  4.01000 60.67900 43.43900
H  7.20500 62.17600 43.16900
H  5.81600 62.07900 44.15600
H  5.90500 63.37200 43.02800
H  2.40000 60.00000 41.59100
H  3.32700 61.17700 40.48900
H  1.31300 61.52900 42.46800
H  1.92000 62.95300 41.52700
H  2.65300 62.41800 43.02400
H  1.68700 55.50200 44.80500
H  1.00200 55.02400 43.23500
H  1.36700 56.74600 43.53400
H  5.91300 51.91900 43.00500
H  3.99400 48.51400 41.83800
H  5.04100 48.55800 40.41800
H  3.42900 49.41900 40.38900

