158

Mg 1.89900 -1.45100 44.47200
C  5.24200 -0.28200 44.24600
C  0.81100 1.32400 42.71000
C  -1.09700 -2.94400 44.24200
C  3.23800 -4.55900 45.69400
N  2.94100 0.29300 43.48400
C  4.23900 0.60100 43.67300
C  4.56800 1.95000 42.98700
C  3.15800 2.53900 42.53200
C  2.24700 1.29800 42.93600
C  2.76300 3.95600 43.17400
C  5.62000 1.76800 41.80500
C  5.41000 0.50000 40.89500
H  5.15500 0.75000 39.37500
N  0.12400 -0.93100 43.61400
C  -0.14500 0.28100 42.93600
C  -1.53500 0.34100 42.58200
C  -2.17300 -0.76700 43.23400
C  -1.04100 -1.64100 43.68300
C  -2.19500 1.53200 41.91500
C  -3.64200 -1.07100 43.20500
O  -4.40400 -0.26400 42.64500
C  -4.29600 -2.20200 43.98600
N  1.18300 -3.54900 44.80800
C  -0.13200 -3.79500 44.74000
C  -0.38900 -5.22000 45.32400
C  1.03800 -5.73500 45.81600
C  1.88000 -4.57400 45.34200
C  -1.69600 -5.54300 46.16500
C  1.41700 -7.03500 45.12300
C  2.01500 -8.03100 46.07600
N  3.81600 -2.32600 44.99600
C  4.16600 -3.52300 45.46200
C  5.64100 -3.56400 45.67400
C  6.05700 -2.33200 45.15300
C  4.93200 -1.62700 44.75300
C  6.50100 -4.74600 46.19100
C  7.26300 -1.52700 44.92100
O  8.41300 -1.85600 45.17100
C  6.79400 -0.11100 44.32000
C  7.31000 0.95100 45.25600
O  7.27100 0.84600 46.48100
O  7.85200 1.97300 44.58300
C  8.70700 3.00500 45.23000
H  0.50700 2.24400 42.20600
H  -2.07200 -3.40400 44.41900
H  3.67500 -5.42200 46.20200
H  5.08300 2.66000 43.63500
H  3.21100 2.46400 41.44600
H  2.90600 4.83900 42.55000
H  3.38300 4.05500 44.06500
H  1.69700 3.99000 43.39900
H  6.64800 1.81700 42.16300
H  5.46000 2.62500 41.15100
H  4.67900 -0.15400 41.37000
H  6.33100 -0.08300 40.93500
H  -1.47800 2.22800 41.48100
H  -2.70900 2.09600 42.69300
H  -2.82400 1.19000 41.09300
H  -5.34400 -1.95200 44.15100
H  -3.82800 -2.34900 44.96000
H  -4.42800 -3.14800 43.46100
H  -0.78800 -5.89100 44.56400
H  1.10700 -5.79000 46.90300
H  -1.88700 -4.59900 46.67600
H  -1.45200 -6.41900 46.76800
H  -2.59400 -5.76900 45.59000
H  1.97300 -6.80100 44.21500
H  0.47600 -7.51600 44.85500
H  1.25300 -8.70000 46.47400
H  2.50800 -7.51500 46.90000
H  2.78300 -8.54100 45.49500
H  6.30300 -4.89100 47.25300
H  7.57700 -4.57700 46.18500
H  6.42200 -5.64300 45.57700
H  7.25900 0.03700 43.34500
H  8.53700 3.82500 44.53300
H  9.73100 2.63100 45.25300
H  8.44600 3.27400 46.25400
Mg 47.47400 25.30300 28.19900
C  48.64700 27.69700 30.59400
C  46.24600 23.45700 30.79000
C  47.21800 22.77300 26.06500
C  49.57400 26.96500 25.87200
N  47.55000 25.52800 30.40800
C  47.75300 26.71500 31.13000
C  47.33700 26.61900 32.64400
C  46.83600 25.08900 32.74500
C  46.90400 24.65100 31.23200
C  47.76600 24.06400 33.51700
C  46.41300 27.68600 33.28300
C  46.78700 28.09600 34.73900
H  45.81400 28.45500 35.79200
N  46.70000 23.39900 28.38700
C  46.20900 22.80500 29.49900
C  45.64400 21.50300 29.22900
C  45.83800 21.28300 27.80000
C  46.59700 22.48100 27.31900
C  45.14600 20.49600 30.26600
C  45.43100 20.02700 26.93300
O  45.55300 19.96800 25.68000
C  44.61500 19.02900 27.62300
N  48.17900 24.93500 26.26700
C  47.88100 23.88300 25.54200
C  48.41100 23.96400 24.15100
C  48.86200 25.42200 24.00000
C  48.81000 25.79500 25.46500
C  49.49100 22.86900 23.81900
C  48.03000 26.40500 23.10400
C  48.54900 26.44500 21.70500
N  48.83000 27.09300 28.10800
C  49.51600 27.63200 27.10800
C  50.32600 28.76600 27.62500
C  49.99400 28.86600 29.00400
C  49.06900 27.80100 29.25000
C  51.33700 29.58700 26.75300
C  50.21100 29.54900 30.23700
O  50.74800 30.62600 30.42300
C  49.29800 28.87000 31.30800
C  50.18900 28.39100 32.44700
O  50.95700 27.41500 32.43800
O  49.98400 29.20600 33.52900
C  50.71800 28.85000 34.74500
H  45.52300 22.99300 31.46400
H  47.06700 21.92500 25.39400
H  49.98500 27.55100 25.04700
H  48.25100 26.64900 33.23700
H  45.80100 24.99800 33.07500
H  48.50000 24.60000 34.11900
H  48.26900 23.33500 32.88300
H  47.12200 23.57300 34.24700
H  45.38900 27.31300 33.31700
H  46.30400 28.59100 32.68600
H  47.58300 28.84000 34.69700
H  47.22800 27.23500 35.24000
H  44.22700 19.97600 29.99700
H  45.06100 20.92700 31.26300
H  45.86800 19.68100 30.22400
H  45.22700 18.78100 28.49000
H  44.45300 18.14900 27.00200
H  43.69100 19.58900 27.77100
H  47.52300 23.66300 23.59600
H  49.92100 25.38200 23.74100
H  50.41400 23.35700 23.50600
H  49.09200 22.14600 23.10800
H  49.68000 22.27200 24.71100
H  47.86800 27.37900 23.56600
H  47.04000 25.95100 23.14300
H  48.71000 27.51900 21.61100
H  47.74800 26.08300 21.06100
H  49.47700 25.92400 21.47300
H  50.81700 30.23100 26.04300
H  52.06300 28.88000 26.35100
H  51.86700 30.21100 27.47300
H  48.58900 29.59200 31.71300
H  51.72700 28.48200 34.55800
H  50.19900 28.13500 35.38300
H  50.78900 29.75800 35.34400

