158

Mg 8.31100 2.77200 27.44500
C  9.45200 1.33800 30.32400
C  6.55400 5.06800 29.30000
C  6.62200 3.74700 24.61300
C  9.49800 -0.16600 25.67100
N  7.78700 2.93000 29.64400
C  8.58800 2.41400 30.68800
C  8.31900 3.05000 31.95300
C  7.41000 4.30300 31.58100
C  7.17500 4.11100 30.10900
C  6.21000 4.57400 32.47400
C  9.62900 3.38600 32.75200
C  9.47800 3.98300 34.21800
H  10.56600 3.51000 35.27400
N  7.05000 4.32000 26.96100
C  6.50900 5.18800 27.85300
C  5.89500 6.27600 27.14700
C  6.01600 6.02600 25.76600
C  6.59600 4.63900 25.77400
C  5.21600 7.53600 27.69200
C  5.47900 6.70500 24.50200
O  5.75100 6.31000 23.36600
C  4.55700 7.84100 24.65100
N  8.25200 1.95500 25.39500
C  7.40500 2.57200 24.47800
C  7.43200 1.76600 23.16100
C  8.43500 0.64400 23.42200
C  8.80000 0.82700 24.89300
C  6.03900 1.41700 22.55200
C  9.75100 0.46700 22.48100
C  9.39700 -0.39200 21.24800
N  9.30500 1.01200 27.85200
C  9.74100 -0.11400 27.07100
C  10.55300 -1.11600 27.94500
C  10.45300 -0.45700 29.18800
C  9.71300 0.74600 29.10200
C  11.38100 -2.26300 27.60400
C  10.91700 -0.67300 30.51900
O  11.69700 -1.54100 30.93500
C  10.34200 0.49300 31.32800
C  9.65500 -0.12800 32.48500
O  8.57300 -0.75800 32.44300
O  10.56700 -0.11800 33.58600
C  9.94300 -0.53400 34.78900
H  6.09800 5.97400 29.70500
H  6.12300 4.11400 23.71400
H  10.00100 -0.99100 25.16200
H  7.73700 2.36000 32.56400
H  8.13400 5.11600 31.53100
H  6.33700 5.63300 32.69700
H  6.10500 3.92000 33.34000
H  5.37000 4.33900 31.82000
H  10.21300 4.03500 32.10000
H  10.19200 2.47600 32.95900
H  8.54100 3.65600 34.66900
H  9.40800 5.07100 34.19500
H  4.20600 7.74400 27.33700
H  5.72000 8.36700 27.20000
H  5.29700 7.73200 28.76100
H  3.64800 7.55700 25.18100
H  4.19800 8.20300 23.68700
H  5.06000 8.71400 25.06600
H  7.78700 2.46500 22.40400
H  7.88800 -0.29700 23.46600
H  6.02300 0.37900 22.22100
H  5.85400 2.04900 21.68400
H  5.33400 1.64000 23.35300
H  10.62100 0.06000 22.99700
H  10.06900 1.45400 22.14800
H  8.32500 -0.58600 21.26400
H  9.96000 -1.32100 21.33200
H  9.59300 0.05000 20.27100
H  11.28100 -2.97300 28.42500
H  12.43100 -2.09600 27.36400
H  10.79300 -2.66300 26.77800
H  11.29100 0.96300 31.58400
H  9.24800 0.20900 35.18100
H  10.69500 -0.74000 35.55000
H  9.47900 -1.52000 34.75100
Mg -5.15200 23.72700 26.39300
C  -3.50600 25.55100 28.92300
C  -6.46200 21.76100 28.88200
C  -6.99800 22.27000 24.09000
C  -3.75500 25.83500 23.96800
N  -5.00000 23.64400 28.53400
C  -4.32500 24.58000 29.39300
C  -4.69500 24.34400 30.85200
C  -5.43500 22.95400 30.83800
C  -5.59600 22.77000 29.31400
C  -4.71300 21.74400 31.48200
C  -5.70400 25.48000 31.35600
C  -5.78600 25.81200 32.81300
H  -5.30100 24.72000 33.80400
N  -6.43200 22.10600 26.45700
C  -6.93100 21.38100 27.59200
C  -7.88400 20.36600 27.19700
C  -7.97500 20.47000 25.72200
C  -7.12500 21.63900 25.37300
C  -8.49900 19.26800 28.08200
C  -8.89500 19.74400 24.70800
O  -8.90600 19.94600 23.48700
C  -9.89600 18.78200 25.22400
N  -5.22200 23.93100 24.26800
C  -6.10800 23.18900 23.57900
C  -6.02300 23.52500 22.06400
C  -4.89500 24.67600 22.03000
C  -4.51300 24.79200 23.45600
C  -5.86700 22.20600 21.07200
C  -5.40200 25.95600 21.30900
C  -4.72000 26.51900 20.10800
N  -3.71400 25.22200 26.40300
C  -3.30200 26.01800 25.33100
C  -2.44400 27.07300 25.87700
C  -2.51000 26.91700 27.26600
C  -3.28600 25.80800 27.53700
C  -1.70800 28.06100 25.08000
C  -1.94800 27.42300 28.51700
O  -1.17400 28.33800 28.65000
C  -2.68000 26.64800 29.60300
C  -1.74600 26.09200 30.55300
O  -0.72900 25.44100 30.29900
O  -2.15600 26.41700 31.82000
C  -1.41200 25.70900 32.84900
H  -6.95400 21.17400 29.66000
H  -7.63200 21.92100 23.27200
H  -3.35300 26.53900 23.23700
H  -3.81400 24.36900 31.49400
H  -6.40700 23.02500 31.32600
H  -4.46400 21.03700 30.69000
H  -5.29200 21.27300 32.27600
H  -3.86700 22.10800 32.06400
H  -6.69400 25.20000 30.99500
H  -5.43500 26.43800 30.91200
H  -6.84100 25.76000 33.08300
H  -5.37100 26.80200 32.99900
H  -9.57100 19.46400 28.05100
H  -8.10400 19.41100 29.08800
H  -8.39400 18.24500 27.72100
H  -10.48100 19.38000 25.92200
H  -9.32000 17.98200 25.69000
H  -10.44700 18.28100 24.42800
H  -7.03000 23.86500 21.82300
H  -4.08900 24.32200 21.38800
H  -5.20000 21.53800 21.61700
H  -5.47600 22.47500 20.09100
H  -6.84000 21.73400 20.93800
H  -5.56200 26.75900 22.02800
H  -6.44000 25.80900 21.01100
H  -5.20200 26.35100 19.14500
H  -3.71900 26.08800 20.10700
H  -4.54100 27.56300 20.36700
H  -0.74400 27.69500 24.72600
H  -1.58000 28.93400 25.72000
H  -2.30100 28.39200 24.22800
H  -3.31800 27.39400 30.07700
H  -0.33000 25.75900 32.73500
H  -1.66400 24.66100 32.68600
H  -1.62000 26.11000 33.84100

