158

Mg 30.34900 57.99100 40.66700
C  27.29000 56.38000 39.59000
C  31.87800 55.02600 39.53300
C  33.21400 59.71200 40.34900
C  28.54700 60.78500 41.15600
N  29.65000 55.92100 39.67800
C  28.39100 55.55500 39.30400
C  28.40400 54.25600 38.56500
C  29.76400 53.63600 38.87700
C  30.48900 54.88600 39.46900
C  29.88700 52.34800 39.81100
C  28.13200 54.46000 36.99200
C  27.11300 53.61900 36.19300
H  26.08300 54.34600 35.19600
N  32.33800 57.38400 40.07600
C  32.71100 56.14700 39.76700
C  34.11000 56.25000 39.49400
C  34.57800 57.52000 39.85700
C  33.34700 58.28100 40.09100
C  34.88700 55.17400 38.89100
C  36.03400 58.05100 39.66500
O  36.90500 57.24000 39.32500
C  36.43500 59.41500 39.98500
N  30.81400 60.04600 40.79600
C  32.05500 60.50700 40.71200
C  32.10500 62.00100 41.13500
C  30.59500 62.29100 41.45900
C  29.92800 60.97400 41.09300
C  33.07900 62.40900 42.21300
C  30.03500 63.48800 40.74500
C  29.68900 63.42900 39.27100
N  28.28900 58.50200 40.65300
C  27.77600 59.69900 40.86900
C  26.37300 59.64000 40.51000
C  26.14300 58.35400 40.04600
C  27.32300 57.66900 40.10300
C  25.24500 60.72200 40.53700
C  25.10800 57.50100 39.54000
O  23.95000 57.76800 39.29800
C  25.79900 56.12400 39.16900
C  25.32500 55.03100 40.06100
O  25.21500 55.07400 41.31500
O  24.87700 53.94800 39.39400
C  24.36500 52.83800 40.19700
H  32.24500 54.04000 39.23900
H  34.03600 60.41200 40.18400
H  28.05300 61.69700 41.49500
H  27.58800 53.66300 38.97700
H  30.30000 53.47100 37.94200
H  30.82800 52.43600 40.35500
H  29.63600 51.48100 39.20100
H  28.99800 52.42900 40.43700
H  29.10100 54.57700 36.50700
H  27.73200 55.46800 36.88600
H  26.43400 53.20600 36.93900
H  27.68500 52.82500 35.71300
H  35.37100 55.48900 37.96700
H  34.33000 54.28100 38.60700
H  35.55300 54.76200 39.64900
H  37.48100 59.32000 40.27800
H  35.85500 59.67600 40.87000
H  36.28700 60.16600 39.20800
H  32.27400 62.48800 40.17500
H  30.54800 62.35300 42.54600
H  33.69500 63.17600 41.74400
H  33.67300 61.50400 42.34300
H  32.80100 62.95200 43.11700
H  30.71200 64.34100 40.81000
H  29.17500 63.91200 41.26300
H  30.26300 64.17100 38.71600
H  28.64600 63.56200 38.98600
H  29.97200 62.42000 38.97000
H  25.45300 61.65400 40.01200
H  24.99100 60.97000 41.56700
H  24.28900 60.36400 40.15400
H  25.50900 55.90900 38.14000
H  24.98200 52.73500 41.09000
H  24.60400 51.89000 39.71400
H  23.27900 52.90900 40.25700
Mg -9.26200 40.76100 42.80100
C  -8.30000 37.57300 41.90000
C  -6.51200 42.05800 41.15000
C  -10.46200 43.96200 43.07100
C  -12.35800 39.62700 43.84100
N  -7.72300 39.85700 41.41500
C  -7.48800 38.52300 41.33500
C  -6.07600 38.24300 40.66700
C  -5.43400 39.72400 40.68600
C  -6.65300 40.64900 41.09200
C  -4.06600 39.83900 41.37800
C  -6.33200 37.65000 39.24300
C  -5.32800 36.58300 38.76700
H  -4.67200 36.65600 37.29900
N  -8.52700 42.74100 42.24400
C  -7.36500 43.06100 41.66500
C  -7.19900 44.44700 41.54600
C  -8.31300 45.11200 42.18000
C  -9.19800 43.95700 42.48500
C  -5.97500 45.06400 40.89900
C  -8.49200 46.56100 42.42100
O  -7.65800 47.33000 41.92100
C  -9.61500 47.02500 43.27200
N  -11.16500 41.69200 43.28800
C  -11.31700 43.02900 43.54800
C  -12.74100 43.39000 44.13900
C  -13.23900 41.95400 44.51900
C  -12.25500 41.06600 43.86300
C  -12.75300 44.42000 45.30600
C  -14.71500 41.67600 44.01000
C  -15.63800 41.02800 45.07000
N  -10.16700 38.96700 42.95700
C  -11.43000 38.60200 43.38800
C  -11.63200 37.20100 43.32400
C  -10.47000 36.73100 42.79200
C  -9.59100 37.86700 42.52300
C  -12.82700 36.38800 43.76000
C  -9.68200 35.51900 42.39100
O  -10.00700 34.36900 42.48400
C  -8.27900 36.06100 41.70800
C  -7.10100 35.42900 42.38700
O  -6.78600 35.62000 43.51700
O  -6.42600 34.57800 41.43500
C  -5.17900 33.94200 41.91200
H  -5.56100 42.45000 40.78300
H  -10.95100 44.87000 43.43100
H  -13.33100 39.16700 44.02800
H  -5.55100 37.63000 41.40000
H  -5.18400 39.99600 39.66100
H  -3.34000 39.54900 40.61900
H  -4.07600 39.02900 42.10700
H  -3.83200 40.81100 41.81300
H  -6.13300 38.38300 38.46200
H  -7.33500 37.25700 39.07700
H  -5.80900 35.60900 38.86000
H  -4.52800 36.61300 39.50700
H  -6.16400 46.02600 40.42300
H  -5.52800 44.41700 40.14400
H  -5.26900 45.20700 41.71700
H  -9.43000 48.01200 43.69700
H  -9.56200 46.29800 44.08200
H  -10.51700 47.07100 42.66300
H  -13.17900 43.77100 43.21600
H  -13.14100 41.69200 45.57200
H  -13.44700 45.23500 45.10400
H  -11.71000 44.71800 45.41300
H  -13.09500 43.98900 46.24800
H  -14.55000 41.07200 43.11700
H  -15.28500 42.52600 43.63500
H  -16.49800 41.68300 45.20600
H  -15.11100 40.75100 45.98400
H  -15.93900 40.09200 44.59900
H  -12.59700 35.32300 43.78400
H  -13.70300 36.48600 43.11900
H  -13.05500 36.64100 44.79500
H  -8.25300 35.76900 40.65800
H  -5.44600 33.33000 42.77300
H  -4.53400 34.77300 42.19700
H  -4.82800 33.27400 41.12500

