158

Mg 0.77700 -2.51000 44.60700
C  4.04000 -1.59400 43.81600
C  -0.33100 0.30100 42.97600
C  -2.43000 -3.62800 44.97300
C  2.00600 -5.55800 45.95100
N  1.77100 -0.88000 43.49000
C  3.10600 -0.76000 43.25100
C  3.38000 0.44000 42.28200
C  2.02200 1.20900 42.26500
C  1.09500 0.17800 42.97600
C  1.93700 2.60500 42.92800
C  3.98200 0.02200 40.91900
C  5.31500 0.61600 40.44900
H  5.17700 1.56300 39.17200
N  -1.14400 -1.87400 43.99900
C  -1.34800 -0.62500 43.45200
C  -2.73500 -0.35500 43.28400
C  -3.41300 -1.47400 43.89100
C  -2.31700 -2.40300 44.32900
C  -3.27700 0.89800 42.68400
C  -4.92700 -1.73100 43.99400
O  -5.77500 -0.92900 43.53400
C  -5.46300 -2.93500 44.68600
N  -0.12800 -4.33800 45.33800
C  -1.45700 -4.57500 45.34800
C  -1.75600 -5.98300 46.05600
C  -0.34300 -6.52800 46.25900
C  0.58400 -5.41400 45.77500
C  -2.68400 -5.90300 47.27900
C  -0.07500 -7.89600 45.57500
C  0.68900 -8.94200 46.39300
N  2.64300 -3.36200 45.01700
C  2.98900 -4.62800 45.59000
C  4.48300 -4.73200 45.56800
C  4.89600 -3.51800 44.98800
C  3.75600 -2.76000 44.57600
C  5.27100 -5.93500 46.01800
C  6.05100 -2.77600 44.59800
O  7.27300 -3.01600 44.77300
C  5.53500 -1.53900 43.76400
C  6.10200 -0.23700 44.21200
O  6.92100 0.36600 43.52100
O  5.57900 0.24600 45.39600
C  6.07700 1.46500 45.96600
H  -0.74000 1.21300 42.53700
H  -3.35000 -4.13600 45.26800
H  2.27400 -6.58700 46.19700
H  4.11100 1.11700 42.72400
H  1.74800 1.35200 41.22000
H  1.59000 3.37700 42.24000
H  2.94900 2.80900 43.27900
H  1.16300 2.47500 43.68400
H  3.26400 0.23800 40.12800
H  4.08200 -1.06300 40.92400
H  5.99300 -0.15400 40.07800
H  5.76800 1.20500 41.24600
H  -4.34000 0.83400 42.45000
H  -2.73800 1.00800 41.74300
H  -3.03800 1.67300 43.41200
H  -5.00200 -2.85500 45.67000
H  -5.31000 -3.90400 44.21000
H  -6.54700 -2.83500 44.73800
H  -2.28100 -6.54700 45.28500
H  -0.17600 -6.75600 47.31100
H  -2.83700 -4.85800 47.55200
H  -2.18200 -6.24500 48.18400
H  -3.59300 -6.50000 47.20500
H  0.60700 -7.72400 44.74200
H  -0.99000 -8.45400 45.37500
H  1.69100 -9.04900 45.97700
H  0.25400 -9.94100 46.39400
H  0.68600 -8.75400 47.46700
H  4.83500 -6.31900 46.94100
H  6.27200 -5.55600 46.22500
H  5.29300 -6.72200 45.26500
H  5.85400 -1.59800 42.72400
H  6.91900 1.91000 45.43500
H  6.40800 1.16900 46.96200
H  5.22700 2.14700 46.00800
Mg 16.22100 -2.63600 27.79000
C  15.21800 -0.42800 30.46200
C  17.78500 -4.52700 30.20000
C  17.63000 -4.44100 25.40900
C  14.63300 -0.44900 25.48000
N  16.44700 -2.44100 30.08700
C  15.94100 -1.50600 30.94600
C  16.07200 -1.96000 32.41800
C  17.06000 -3.17300 32.31000
C  17.09100 -3.42000 30.75500
C  18.45600 -3.00700 33.01400
C  14.75000 -2.27800 33.03600
C  14.41400 -1.66700 34.42700
H  15.56400 -1.27400 35.30000
N  17.51200 -4.24800 27.87900
C  17.99800 -4.96400 28.90800
C  18.85600 -6.05200 28.49500
C  18.74900 -6.04100 27.05200
C  17.95700 -4.87100 26.71600
C  19.53200 -7.02500 29.47500
C  19.43700 -7.00000 26.07300
O  19.33800 -6.85300 24.84200
C  20.36900 -8.04700 26.67200
N  15.97700 -2.56600 25.78200
C  16.82600 -3.29700 25.07500
C  16.72200 -2.88800 23.57300
C  15.54900 -1.84600 23.58700
C  15.34700 -1.61500 25.06500
C  18.01800 -2.18500 23.07800
C  14.23400 -2.30800 22.91000
C  13.32800 -1.28700 22.16400
N  15.03600 -0.84300 27.86500
C  14.49600 -0.02400 26.85100
C  13.73800 1.07900 27.36000
C  14.03400 1.00500 28.78900
C  14.84000 -0.16500 29.01400
C  12.93700 2.06400 26.56600
C  13.84600 1.57100 30.08400
O  13.33100 2.62500 30.32100
C  14.42900 0.58600 31.22000
C  15.20300 1.49700 32.03600
O  16.35700 1.85300 31.88500
O  14.36300 1.85100 33.13000
C  14.93300 2.87000 33.95800
H  18.25000 -5.16200 30.95700
H  18.09700 -4.89400 24.53200
H  14.19600 0.19000 24.71000
H  16.51700 -1.09700 32.91300
H  16.63300 -4.06900 32.76000
H  18.54600 -3.83900 33.71300
H  18.45400 -2.04600 33.52800
H  19.15100 -3.11900 32.18200
H  14.69700 -3.34700 33.24500
H  13.93600 -1.97400 32.37900
H  13.78700 -2.37600 34.96900
H  13.84600 -0.75200 34.26300
H  19.65500 -8.06700 29.18000
H  19.17400 -6.90200 30.49700
H  20.55400 -6.64900 29.52700
H  19.69200 -8.87800 26.86800
H  21.10400 -7.73400 27.41400
H  21.02700 -8.37200 25.86600
H  16.43800 -3.82800 23.10000
H  15.82800 -0.86100 23.21300
H  18.19200 -2.39100 22.02200
H  18.92300 -2.23200 23.68500
H  17.91600 -1.10000 23.05500
H  13.62300 -2.68600 23.73000
H  14.58700 -3.09500 22.24400
H  12.66400 -0.98900 22.97500
H  12.72600 -1.71900 21.36400
H  13.98500 -0.45400 21.91400
H  12.90200 3.01400 27.10000
H  11.91700 1.68200 26.53600
H  13.31100 2.25100 25.56000
H  13.54100 0.24000 31.74800
H  15.36200 2.31300 34.79100
H  14.14500 3.46300 34.42100
H  15.70900 3.48700 33.50500

