158

Mg 7.88200 2.73900 27.57100
C  9.44700 1.37500 30.33400
C  5.97800 4.53400 29.90400
C  5.86100 3.60100 25.13700
C  9.41400 0.36800 25.53200
N  7.81500 3.01500 29.82700
C  8.63100 2.41200 30.72500
C  8.38800 2.90000 32.14700
C  7.14300 3.79800 32.00100
C  6.91800 3.75700 30.48100
C  5.89800 3.36900 32.83000
C  9.62900 3.54600 32.88900
C  9.32600 4.62500 33.92200
H  10.17200 4.63800 35.14900
N  6.21500 3.98100 27.54200
C  5.58400 4.61400 28.52800
C  4.50800 5.37800 28.04200
C  4.46700 5.26300 26.58500
C  5.53400 4.23000 26.35200
C  3.54400 6.16800 28.99400
C  3.66300 5.90900 25.54200
O  3.76800 5.62100 24.34400
C  2.59300 6.94200 25.88200
N  7.75800 2.14000 25.58400
C  6.85300 2.73700 24.73200
C  7.12000 2.22000 23.28300
C  8.34800 1.26700 23.42400
C  8.48100 1.22400 24.95300
C  5.76400 1.63200 22.73300
C  9.65300 1.41900 22.55900
C  10.08200 0.14500 21.89900
N  9.17100 1.19800 27.78300
C  9.65000 0.29300 26.91100
C  10.50500 -0.68100 27.53300
C  10.39100 -0.26900 28.94900
C  9.57000 0.86700 29.03400
C  11.38400 -1.78400 26.91400
C  10.87800 -0.63200 30.29500
O  11.66600 -1.47000 30.70200
C  10.32300 0.50100 31.26200
C  9.60200 -0.11900 32.40100
O  8.57800 -0.82900 32.35500
O  10.24900 0.18300 33.56100
C  9.63400 -0.34000 34.78400
H  5.48600 5.15200 30.65800
H  5.20800 3.76100 24.27700
H  9.83800 -0.27000 24.75400
H  8.28300 2.05500 32.82900
H  7.35200 4.83700 32.25700
H  5.23300 2.86100 32.13100
H  5.43600 4.27300 33.22900
H  6.29500 2.65300 33.54900
H  10.30100 3.91900 32.11700
H  10.21600 2.89200 33.53500
H  8.31300 4.44600 34.28400
H  9.35800 5.64800 33.54700
H  3.48800 7.18400 28.60100
H  4.07200 6.31800 29.93500
H  2.55500 5.72400 29.11200
H  2.14000 6.85500 24.89500
H  2.87000 7.99500 25.94100
H  1.88500 6.58100 26.62800
H  7.52000 3.06700 22.72600
H  7.96000 0.25900 23.27500
H  5.01900 1.52100 23.52100
H  5.86200 0.62600 22.32500
H  5.32400 2.23100 21.93500
H  10.47300 1.71300 23.21400
H  9.47400 2.23300 21.85600
H  10.82000 -0.21100 22.61700
H  10.48100 0.34100 20.90400
H  9.27800 -0.55900 21.68300
H  11.27000 -1.71800 25.83200
H  11.02900 -2.74300 27.29200
H  12.43900 -1.56400 27.07500
H  11.17900 1.12100 31.52900
H  9.69500 -1.42800 34.80400
H  8.63700 -0.04300 35.11000
H  10.29300 -0.18400 35.63800
Mg 49.40000 35.98200 27.44400
C  47.06700 34.90700 29.82800
C  49.99500 38.82400 29.07100
C  51.33300 37.08000 24.75700
C  48.38500 33.27400 25.36200
N  48.58200 36.73100 29.19300
C  47.64800 36.19800 30.07500
C  47.49300 37.09800 31.26900
C  48.31200 38.37800 30.88100
C  48.97600 37.94000 29.61400
C  47.42000 39.71100 30.78700
C  47.79500 36.52500 32.81800
C  46.85000 36.57100 33.93500
H  46.89800 37.86000 34.79000
N  50.61500 37.64800 27.02200
C  50.73600 38.73200 27.87800
C  51.76600 39.63100 27.37400
C  52.24800 39.09400 26.13200
C  51.36700 37.88900 25.91100
C  52.22500 40.84200 28.09500
C  53.24400 39.64100 25.13500
O  53.51000 39.13100 24.03400
C  54.18500 40.75300 25.58000
N  49.81600 35.28900 25.32600
C  50.63400 35.91900 24.49400
C  50.76900 35.17400 23.19300
C  49.87000 33.92400 23.41800
C  49.30200 34.15200 24.78700
C  50.47800 35.92200 21.99600
C  50.45300 32.48600 23.26600
C  50.71600 32.12900 21.86500
N  48.16600 34.28600 27.55300
C  47.79500 33.32000 26.68600
C  46.82400 32.43200 27.21700
C  46.48600 33.00500 28.44500
C  47.32000 34.13500 28.61500
C  46.28100 31.26800 26.46600
C  45.57300 32.92800 29.61000
O  44.70000 32.18400 29.99800
C  46.07700 34.03000 30.60700
C  46.73500 33.29100 31.78400
O  47.83700 32.86600 31.94000
O  45.80000 33.22000 32.81800
C  46.23100 32.53200 34.10300
H  50.21000 39.74600 29.61500
H  51.98800 37.33200 23.92000
H  47.99300 32.52600 24.67000
H  46.42200 37.29400 31.20700
H  49.04400 38.50000 31.67900
H  46.63900 39.63100 31.54400
H  47.09300 39.83000 29.75400
H  48.10200 40.52500 31.03000
H  48.70300 37.05400 33.10700
H  48.05000 35.48100 32.63500
H  46.99900 35.70400 34.57900
H  45.85200 36.50000 33.50300
H  51.59200 41.70000 27.86600
H  53.26600 41.04600 27.84500
H  52.23100 40.77600 29.18300
H  53.71600 41.71700 25.77600
H  54.90400 40.98200 24.79300
H  54.75000 40.39200 26.43900
H  51.84100 35.01300 23.08300
H  49.15800 33.93100 22.59200
H  50.18300 36.93600 22.26400
H  49.70800 35.45400 21.38200
H  51.45400 36.02400 21.52300
H  49.66100 31.81100 23.59100
H  51.31000 32.35800 23.92700
H  51.58000 31.46800 21.78000
H  50.99500 32.95600 21.21300
H  49.87000 31.56600 21.47200
H  45.76600 31.50000 25.53400
H  45.57900 30.85300 27.18900
H  47.10600 30.62300 26.16400
H  45.19000 34.50000 31.03000
H  45.59400 32.99600 34.85600
H  47.24900 32.75100 34.42400
H  46.02500 31.46200 34.12100

