158

Mg 36.30100 48.98700 25.45400
C  36.38000 47.19900 28.50800
C  35.35800 51.85900 27.20200
C  35.63200 50.45400 22.48900
C  37.35100 46.10200 23.77200
N  35.66300 49.37400 27.57300
C  35.91600 48.53000 28.63900
C  35.80000 49.28400 29.94000
C  35.24400 50.68600 29.47000
C  35.42200 50.67000 27.97500
C  33.79500 51.15400 29.85500
C  37.20100 49.29500 30.72200
C  37.23100 49.04900 32.27300
H  35.86900 48.84800 32.94500
N  35.60100 50.88500 24.93300
C  35.39200 51.96700 25.78900
C  35.13000 53.19900 25.02500
C  35.08800 52.81200 23.64300
C  35.40500 51.25600 23.57900
C  34.83600 54.60400 25.63600
C  34.85000 53.64600 22.41400
O  34.83300 53.12300 21.30600
C  34.48400 55.02900 22.48100
N  36.33500 48.33000 23.45100
C  36.08100 49.17800 22.40600
C  36.42400 48.43400 21.07000
C  36.97200 47.04000 21.45300
C  36.94900 47.18600 23.01100
C  35.16600 48.29600 20.07500
C  38.34200 46.74300 20.89400
C  39.57900 47.34100 21.59100
N  36.75100 46.99800 25.97300
C  37.28900 46.00000 25.17300
C  37.48500 44.84900 26.07600
C  37.23200 45.33200 27.39100
C  36.81400 46.67500 27.27600
C  37.78400 43.44000 25.49200
C  37.12000 44.92300 28.82700
O  37.32000 43.83300 29.27400
C  36.56500 46.11600 29.57900
C  35.24400 45.73400 30.20300
O  34.17100 45.94800 29.63100
O  35.31700 45.14700 31.41300
C  34.02900 44.91300 32.10500
H  35.13300 52.76900 27.76100
H  35.52100 50.97200 21.53400
H  37.58400 45.21600 23.17700
H  35.00600 48.82500 30.53000
H  35.87800 51.49800 29.82500
H  33.98300 51.97100 30.55100
H  33.25600 50.31300 30.29400
H  33.22500 51.66100 29.07700
H  37.74300 50.21700 30.50800
H  37.81500 48.53700 30.23600
H  37.68000 49.91800 32.75500
H  37.89500 48.22400 32.52900
H  33.76000 54.76700 25.68700
H  35.36300 55.39500 25.10200
H  35.25400 54.62300 26.64300
H  34.40800 55.42100 21.46700
H  35.36900 55.47600 22.93200
H  33.59900 55.15300 23.10500
H  37.12000 49.03000 20.48000
H  36.22400 46.28200 21.22000
H  34.29800 48.51200 20.69700
H  35.17100 47.32400 19.58000
H  35.17300 49.10700 19.34700
H  38.30900 47.09700 19.86300
H  38.48700 45.66300 20.87800
H  39.27500 48.00400 22.40100
H  40.12500 47.90400 20.83500
H  40.28000 46.53200 21.79500
H  38.29100 43.45200 24.52800
H  36.85300 42.96000 25.19000
H  38.29400 42.82700 26.23500
H  37.30800 46.38900 30.32900
H  33.15800 45.34100 31.60900
H  34.13200 45.52600 33.00000
H  33.82600 43.88600 32.40700
Mg 26.90100 50.66300 27.01500
C  24.80000 51.77400 29.60100
C  29.23300 49.78200 29.36400
C  29.09400 49.85000 24.51600
C  24.56300 51.78100 24.68900
N  27.07100 50.89000 29.26000
C  25.97700 51.24100 30.09600
C  26.32800 50.86700 31.55600
C  27.86000 50.48800 31.51300
C  28.11400 50.36900 29.98400
C  28.80800 51.43200 32.16600
C  25.34200 49.77100 32.21400
C  24.05700 50.42700 33.02600
H  23.69500 49.80600 34.42600
N  28.93600 49.84900 26.96900
C  29.68300 49.46800 28.07200
C  30.87300 48.81700 27.58600
C  30.84100 48.88400 26.15100
C  29.58600 49.59900 25.82000
C  31.98900 48.32800 28.55600
C  31.83900 48.46100 25.08500
O  31.65600 48.57800 23.88000
C  33.17000 48.01800 25.46400
N  26.86000 50.86600 24.88600
C  27.83300 50.44300 24.06700
C  27.42500 50.38800 22.57100
C  25.90000 50.95500 22.65500
C  25.73000 51.25600 24.13500
C  28.37800 51.25100 21.69800
C  24.82900 49.98600 22.18600
C  24.20300 48.95000 23.09200
N  25.15000 51.78200 27.05900
C  24.32500 52.12200 26.04200
C  23.16400 52.88700 26.53700
C  23.33600 52.73000 27.93900
C  24.51600 52.02300 28.20700
C  22.12200 53.63400 25.74600
C  22.74200 52.99100 29.18200
O  21.68400 53.59700 29.40600
C  23.68200 52.44200 30.34400
C  24.21400 53.65300 31.12500
O  25.04800 54.48300 30.79900
O  23.47600 53.75400 32.30100
C  23.90700 54.70500 33.26800
H  29.85900 49.31500 30.12700
H  29.70400 49.55900 23.65900
H  23.79700 52.00900 23.94500
H  26.25300 51.80600 32.10500
H  28.05300 49.52400 31.98500
H  28.64900 51.19400 33.21800
H  28.53300 52.45900 31.92500
H  29.84000 51.37700 31.82100
H  25.87400 49.09400 32.88100
H  24.93500 49.17000 31.40100
H  23.20800 49.97900 32.51000
H  24.10100 51.51700 33.03700
H  32.14400 47.25300 28.64900
H  31.89500 48.72500 29.56700
H  32.94000 48.67500 28.15200
H  33.70500 48.94600 25.66500
H  33.58600 47.59200 24.55100
H  33.12800 47.26900 26.25400
H  27.60700 49.33700 22.34400
H  25.79200 51.95500 22.23600
H  29.10600 50.65500 21.14700
H  28.92800 51.96300 22.31300
H  27.91800 51.82900 20.89700
H  25.14200 49.45100 21.28900
H  23.96200 50.54300 21.82800
H  24.60200 48.97900 24.10600
H  24.46100 47.95900 22.71900
H  23.12200 49.07900 23.13700
H  22.25500 53.52100 24.67000
H  22.11700 54.69100 26.01200
H  21.16700 53.18500 26.01700
H  23.18600 51.69300 30.96100
H  24.60700 54.26700 33.97900
H  23.05600 54.98700 33.88700
H  24.32500 55.62400 32.85600

