158

Mg 47.32800 16.02700 28.22300
C  45.03600 15.95700 30.89700
C  49.41500 17.92900 30.49000
C  49.20600 16.83700 25.75000
C  44.81700 14.82000 26.16100
N  47.17600 16.99300 30.44600
C  46.10800 16.70500 31.32400
C  46.51900 17.05500 32.76400
C  47.72000 17.99500 32.56900
C  48.19000 17.55200 31.13200
C  47.57600 19.56800 32.61400
C  46.96800 15.79400 33.54600
C  46.63500 15.94400 35.06200
H  46.38700 17.27800 35.70400
N  49.23900 17.06900 28.13500
C  49.90300 17.75100 29.16600
C  51.19200 18.22400 28.63300
C  51.17000 17.98900 27.21800
C  49.87400 17.27600 26.95500
C  52.32000 18.85100 29.47500
C  52.16400 18.33200 26.12900
O  51.86700 18.37000 24.96500
C  53.51400 18.96800 26.42400
N  47.02900 15.88700 26.28900
C  48.00200 16.20500 25.40600
C  47.57900 15.97100 23.94600
C  46.52600 14.91000 24.19700
C  46.05900 15.21600 25.61700
C  47.17600 17.23300 23.05400
C  47.23900 13.51500 24.19300
C  46.46900 12.41500 23.40800
N  45.32700 15.52700 28.41900
C  44.46800 14.90200 27.50900
C  43.30700 14.41500 28.19300
C  43.53300 14.73300 29.52300
C  44.72000 15.46800 29.62500
C  42.15300 13.56200 27.59300
C  42.94700 14.61300 30.83300
O  41.91600 14.05300 31.23600
C  43.92100 15.38400 31.79900
C  43.10500 16.32800 32.61100
O  42.69000 17.46700 32.23000
O  42.88600 15.84100 33.87100
C  42.03800 16.69100 34.71800
H  50.18800 18.30600 31.16400
H  49.84900 16.94900 24.87500
H  44.12400 14.22100 25.56600
H  45.73800 17.65500 33.23100
H  48.49700 17.73100 33.28700
H  47.58400 19.92600 31.58400
H  48.46000 20.02800 33.05700
H  46.68000 19.92400 33.12200
H  48.03100 15.58000 33.43600
H  46.47500 14.91500 33.13000
H  47.33500 15.33800 35.63700
H  45.72800 15.38200 35.28500
H  53.13800 18.15200 29.65000
H  51.96700 19.20900 30.44200
H  52.68800 19.69500 28.89100
H  53.42800 19.99300 26.78500
H  54.22100 18.94500 25.59500
H  53.89100 18.37400 27.25600
H  48.49100 15.67400 23.42800
H  45.71900 14.82200 23.46900
H  47.58300 18.15600 23.46700
H  46.09600 17.35400 22.97700
H  47.44400 17.04300 22.01500
H  47.28800 13.17600 25.22800
H  48.27800 13.54600 23.86200
H  47.19000 12.02400 22.69000
H  45.54000 12.78500 22.97400
H  46.07700 11.53800 23.92400
H  41.23500 13.97300 28.01200
H  42.24700 12.50500 27.84400
H  42.03500 13.65800 26.51300
H  44.32100 14.61400 32.45800
H  42.52400 16.68200 35.69400
H  41.07300 16.19500 34.82600
H  41.95300 17.73900 34.43100
Mg -2.73700 35.25500 26.30300
C  -4.14700 33.64500 29.12300
C  -1.04700 37.41700 28.40800
C  -1.57900 36.95700 23.58800
C  -4.37300 33.04900 24.22400
N  -2.59800 35.44300 28.56600
C  -3.31200 34.73600 29.46500
C  -2.81600 35.14500 30.90700
C  -1.96900 36.45500 30.59700
C  -1.81700 36.42600 29.08200
C  -2.55600 37.76400 31.18100
C  -2.10000 33.97100 31.69800
C  -2.67000 33.60700 33.13000
H  -1.80600 33.66100 34.39800
N  -1.57800 36.94100 26.05500
C  -0.95500 37.67500 27.05700
C  -0.15200 38.64700 26.48200
C  -0.16100 38.46900 25.10200
C  -1.20800 37.47700 24.83800
C  0.52900 39.72000 27.35500
C  0.78500 39.10000 24.09800
O  0.66100 38.94800 22.89600
C  1.92100 39.89100 24.53800
N  -3.00200 35.06700 24.22800
C  -2.35000 35.86200 23.32600
C  -2.66300 35.46800 21.86900
C  -3.43900 34.06400 22.07200
C  -3.59700 34.02300 23.58700
C  -3.59800 36.62500 21.31600
C  -2.61100 32.85100 21.38000
C  -1.97300 31.71400 22.24600
N  -3.98600 33.72600 26.55300
C  -4.61300 32.87700 25.59500
C  -5.36800 31.90400 26.26300
C  -5.27700 32.23400 27.59600
C  -4.35100 33.27600 27.75600
C  -6.19300 30.77400 25.71400
C  -5.66100 31.73100 28.87000
O  -6.33500 30.71900 29.11500
C  -5.02000 32.69300 29.89200
C  -6.03200 33.35000 30.61300
O  -6.51700 34.42900 30.39100
O  -6.09300 32.71000 31.79900
C  -6.69300 33.41800 32.98400
H  -0.52500 38.05400 29.12600
H  -1.17600 37.52000 22.74400
H  -4.74800 32.26200 23.56600
H  -3.73500 35.27100 31.47900
H  -1.02800 36.30200 31.12600
H  -3.49200 37.64900 31.72700
H  -2.73400 38.37500 30.29700
H  -1.73500 38.10000 31.81500
H  -1.06400 34.23400 31.91100
H  -1.98200 33.03100 31.15800
H  -3.05100 32.58700 33.07000
H  -3.59400 34.13600 33.36100
H  0.15700 39.98800 28.34400
H  0.61600 40.64400 26.78300
H  1.48800 39.20100 27.35100
H  2.48200 39.51700 25.39400
H  1.54700 40.90400 24.68500
H  2.62300 39.96700 23.70700
H  -1.80500 35.32700 21.21200
H  -4.41300 34.10700 21.58400
H  -3.06300 37.52600 21.01600
H  -4.48900 36.77900 21.92500
H  -3.98700 36.21400 20.38500
H  -1.92900 33.38900 20.72000
H  -3.29200 32.34100 20.69800
H  -0.99700 31.60100 21.77300
H  -2.51400 30.77200 22.15900
H  -1.76400 32.02100 23.27100
H  -6.03100 29.86000 26.28500
H  -5.90200 30.56000 24.68600
H  -7.23700 31.05900 25.84200
H  -4.33300 32.08500 30.48000
H  -7.15200 34.38900 32.79600
H  -6.10600 33.48900 33.90000
H  -7.49300 32.70100 33.16700

