158

Mg 44.24500 4.43000 46.87500
C  42.51200 7.55800 46.63200
C  41.38400 2.83100 45.89100
C  46.15800 1.77900 46.14700
C  47.30800 6.31500 47.07400
N  42.19100 5.13400 46.17300
C  41.71600 6.43700 46.24000
C  40.19400 6.45200 45.89000
C  39.79400 4.94800 45.74700
C  41.17900 4.22900 46.00000
C  38.59400 4.43600 46.64900
C  39.71700 7.51700 44.78800
C  40.68800 7.60700 43.53800
H  39.98800 7.85900 42.19700
N  43.85200 2.52400 46.26200
C  42.56900 2.09600 45.87800
C  42.70700 0.70200 45.60200
C  44.05100 0.43800 45.42500
C  44.81000 1.62500 45.94800
C  41.59100 -0.21500 45.41300
C  44.57600 -0.82400 44.86300
O  43.80000 -1.76200 44.56600
C  46.04100 -1.18700 44.77600
N  46.37700 4.10500 46.74600
C  46.88900 2.86300 46.66200
C  48.45300 2.83900 46.76100
C  48.77600 4.35300 46.87500
C  47.39500 5.01500 46.89100
C  49.03500 2.00400 47.92900
C  49.70200 4.91900 45.75800
C  50.95900 5.52600 46.29100
N  44.81300 6.48100 46.87900
C  46.11300 7.09700 47.01000
C  45.95200 8.55800 47.06300
C  44.52700 8.75400 47.02900
C  43.92400 7.50300 46.89000
C  47.06500 9.50800 47.05200
C  43.53500 9.79300 46.96400
O  43.70900 11.01100 47.09700
C  42.13300 9.09500 46.86300
C  41.35900 9.19500 48.12700
O  41.54200 8.57200 49.14300
O  40.47200 10.16000 47.94900
C  39.57900 10.36300 49.07100
H  40.47800 2.38800 45.47400
H  46.84100 0.97300 45.86800
H  48.24100 6.87100 47.19600
H  39.81800 6.75700 46.86600
H  39.57100 4.73400 44.70200
H  39.01400 3.70800 47.34300
H  37.85200 4.04500 45.95300
H  38.14200 5.24500 47.22200
H  39.36400 8.43900 45.24900
H  38.75700 7.18300 44.39700
H  41.21700 6.65400 43.54500
H  41.38300 8.42200 43.74300
H  41.50100 -0.54300 44.37800
H  40.67800 0.32600 45.66300
H  41.59800 -1.09000 46.06300
H  46.24300 -2.21200 44.46700
H  46.30600 -1.05800 45.82500
H  46.42500 -0.45500 44.06500
H  48.89800 2.46400 45.84000
H  49.21800 4.36200 47.87100
H  49.93000 1.49800 47.56800
H  48.18200 1.41500 48.26700
H  49.29600 2.62000 48.79000
H  49.14600 5.71700 45.26600
H  49.90200 4.07500 45.09900
H  50.78500 5.99800 47.25900
H  51.19100 6.27200 45.53200
H  51.77600 4.80600 46.34400
H  46.71900 10.44100 46.60900
H  48.05700 9.28500 46.66000
H  47.25200 9.78300 48.09000
H  41.47300 9.50700 46.10000
H  40.14300 10.65700 49.95600
H  38.86400 9.54200 49.13500
H  39.01000 11.24500 48.77500
Mg -12.18600 16.34900 41.54000
C  -9.25600 14.25800 41.07400
C  -10.49400 18.81400 40.06100
C  -15.10100 17.92000 41.05700
C  -13.82600 13.48000 42.53300
N  -10.19900 16.36800 40.49100
C  -9.05700 15.55800 40.58800
C  -7.75100 16.20300 40.05800
C  -8.16500 17.66700 40.14800
C  -9.73300 17.65000 40.29800
C  -7.41600 18.62100 41.18400
C  -7.40400 15.71300 38.64300
C  -5.95600 15.28300 38.29900
H  -5.25300 15.88100 37.04900
N  -12.69500 18.25900 40.87800
C  -11.81200 19.07200 40.32700
C  -12.57900 20.32800 39.88700
C  -13.92000 20.14500 40.33500
C  -13.94700 18.77000 40.84300
C  -11.97400 21.52400 39.25600
C  -15.04600 21.12500 40.37900
O  -14.83600 22.28300 40.04100
C  -16.40200 20.83000 40.88300
N  -14.21300 15.74100 41.59800
C  -15.23100 16.59500 41.39900
C  -16.56300 15.83200 41.58700
C  -16.19400 14.45800 42.27300
C  -14.66200 14.56200 42.12300
C  -17.61800 16.66500 42.42300
C  -16.80500 13.26900 41.50400
C  -17.56300 12.14900 42.26000
N  -11.73500 14.29100 41.75800
C  -12.47800 13.28200 42.36900
C  -11.64300 12.11400 42.67300
C  -10.31200 12.40400 42.19100
C  -10.45200 13.72700 41.61600
C  -12.08100 10.80100 43.30100
C  -8.94300 11.96800 42.00700
O  -8.47900 10.85800 42.28200
C  -8.23700 13.18500 41.23600
C  -6.98800 13.56400 41.96500
O  -6.91700 13.82100 43.11800
O  -5.82200 13.60100 41.13200
C  -4.50100 14.03600 41.65900
H  -9.81600 19.61700 39.76500
H  -16.08500 18.39300 41.07300
H  -14.43500 12.65900 42.91800
H  -6.89500 15.95700 40.68700
H  -8.06600 18.19500 39.19900
H  -6.98700 19.46200 40.64100
H  -6.56200 18.07000 41.57900
H  -8.14000 18.96300 41.92400
H  -7.71100 16.45300 37.90400
H  -8.12400 14.90500 38.51300
H  -5.88200 14.19800 38.23700
H  -5.28600 15.46500 39.13900
H  -12.59600 22.08500 38.55900
H  -11.11300 21.17200 38.68700
H  -11.57800 22.13100 40.07000
H  -16.21500 20.33400 41.83500
H  -17.01700 20.22400 40.21600
H  -16.98100 21.71500 41.14700
H  -16.92400 15.57700 40.59100
H  -16.46000 14.43400 43.33000
H  -17.22100 17.48300 43.02400
H  -18.20800 16.06300 43.11300
H  -18.31400 17.10900 41.71100
H  -15.98900 12.72600 41.02800
H  -17.50300 13.55800 40.71900
H  -18.44800 11.95400 41.65500
H  -17.90500 12.48200 43.24000
H  -16.84700 11.33000 42.33700
H  -12.92300 10.54100 42.66000
H  -12.53600 10.82500 44.29100
H  -11.34100 10.00600 43.20200
H  -7.94200 12.77500 40.27100
H  -4.56600 15.11800 41.54900
H  -3.72400 13.54500 41.07400
H  -4.46800 13.67500 42.68700

