158

Mg 16.86600 -2.47700 27.31700
C  16.20800 -0.32000 30.00400
C  18.51100 -4.57900 29.37200
C  17.58600 -4.27600 24.64600
C  15.06700 -0.08700 25.21300
N  17.47200 -2.27600 29.38400
C  17.00600 -1.38700 30.32100
C  17.44500 -1.80400 31.78900
C  18.30700 -3.14500 31.56200
C  18.08400 -3.38400 30.04200
C  19.78300 -3.13100 31.96900
C  16.31700 -2.02900 32.88400
C  16.55500 -1.79700 34.40700
H  18.04700 -1.39000 34.90500
N  17.95700 -4.16600 27.03200
C  18.50700 -4.93600 27.95400
C  18.94400 -6.21600 27.36600
C  18.79400 -6.10300 26.00700
C  18.10900 -4.80700 25.83200
C  19.43400 -7.32900 28.20700
C  19.19500 -7.11900 24.89300
O  19.07700 -6.82900 23.65700
C  19.75900 -8.50600 25.16900
N  16.37300 -2.15300 25.25100
C  16.94000 -3.02700 24.37200
C  16.63600 -2.53400 22.84900
C  15.45200 -1.55700 23.09800
C  15.62300 -1.21500 24.53000
C  17.92800 -1.87700 22.39000
C  14.04100 -2.21300 22.95100
C  13.16000 -1.60600 21.90400
N  15.94500 -0.54800 27.57300
C  15.22100 0.17600 26.65300
C  14.64900 1.27800 27.36400
C  15.04000 1.19000 28.70900
C  15.67400 -0.03500 28.80000
C  13.98000 2.33000 26.71600
C  14.97200 1.76400 30.05500
O  14.44700 2.82000 30.41700
C  15.73100 0.81100 30.94700
C  16.75600 1.58500 31.74000
O  17.87000 1.87300 31.33900
O  16.11100 2.14900 32.87500
C  16.87200 3.26100 33.52300
H  19.00000 -5.25500 30.07600
H  17.91800 -4.83500 23.76900
H  14.36000 0.59600 24.73700
H  18.14100 -1.07300 32.19800
H  17.78100 -3.98000 32.02600
H  19.94300 -3.81100 32.80600
H  20.08100 -2.13200 32.28600
H  20.38400 -3.49000 31.13300
H  16.07200 -3.08200 32.74700
H  15.37000 -1.56600 32.60600
H  16.34200 -2.68000 35.00900
H  15.86600 -0.98800 34.65000
H  20.28600 -7.80600 27.72300
H  18.66700 -8.07800 28.40700
H  19.90600 -6.93700 29.10800
H  19.14700 -9.03800 25.89600
H  20.80100 -8.40400 25.47200
H  19.71800 -9.04500 24.22200
H  16.40100 -3.32300 22.13500
H  15.58000 -0.61800 22.55900
H  17.79800 -0.79600 22.33100
H  18.14700 -2.20700 21.37500
H  18.77600 -2.07400 23.04500
H  13.54100 -2.39100 23.90300
H  14.34100 -3.18900 22.56900
H  12.08900 -1.58600 22.10400
H  13.31900 -2.17500 20.98800
H  13.51500 -0.58500 21.76800
H  13.67800 3.07300 27.45400
H  13.16700 1.95900 26.09100
H  14.72300 2.76300 26.04600
H  15.09300 0.38000 31.71900
H  17.55200 2.75800 34.21100
H  16.25900 3.91000 34.14800
H  17.59400 3.85600 32.96500
Mg 25.37400 50.36500 26.73400
C  23.19800 51.49700 29.23100
C  27.66000 49.65400 29.23400
C  27.61600 49.88900 24.27000
C  23.30400 52.00900 24.44300
N  25.36000 50.47600 28.97300
C  24.33100 50.93200 29.80200
C  24.68100 50.73100 31.28800
C  26.15700 50.43300 31.21900
C  26.47200 50.24000 29.72900
C  27.12700 51.48500 31.89900
C  23.74600 49.64200 31.95200
C  23.06500 50.03200 33.24900
H  23.83800 50.95900 34.18700
N  27.31700 49.87800 26.78900
C  28.07600 49.48300 27.90100
C  29.26600 48.81900 27.44700
C  29.30000 48.87700 26.01700
C  28.04700 49.57000 25.61300
C  30.30200 48.14800 28.29700
C  30.30400 48.31700 25.05100
O  30.11900 48.44400 23.80800
C  31.55900 47.64500 25.56900
N  25.54800 50.99400 24.58400
C  26.56800 50.55500 23.78200
C  26.25800 50.94400 22.33300
C  24.83300 51.56800 22.43500
C  24.50300 51.48300 23.89700
C  27.25400 51.99900 21.68700
C  23.78300 50.96400 21.43900
C  23.26800 49.53400 21.70500
N  23.54600 51.33100 26.73700
C  22.80500 51.89700 25.73000
C  21.53900 52.41500 26.22400
C  21.70200 52.28800 27.60300
C  22.95400 51.64200 27.88700
C  20.44900 53.02400 25.36100
C  21.06800 52.58700 28.87100
O  19.94800 53.00800 29.11600
C  22.06800 52.10800 30.00200
C  22.40800 53.25400 30.84100
O  23.42900 53.94100 30.76500
O  21.35000 53.35700 31.74500
C  21.38000 54.49200 32.62900
H  28.39400 49.42200 30.00800
H  28.31100 49.58300 23.48600
H  22.76000 52.58500 23.69100
H  24.59300 51.70200 31.77500
H  26.26500 49.42800 31.62700
H  27.28200 51.10700 32.90900
H  26.65900 52.46600 31.98700
H  28.04600 51.54400 31.31600
H  24.15400 48.63400 32.01700
H  22.96000 49.52300 31.20600
H  22.79800 49.05000 33.64200
H  22.09000 50.42100 32.95700
H  29.99800 48.25300 29.33900
H  31.22200 48.73000 28.25600
H  30.33600 47.06600 28.16900
H  32.22000 47.27200 24.78700
H  31.25200 46.76200 26.12900
H  32.06300 48.38900 26.18600
H  26.38700 50.02700 21.75700
H  24.81900 52.64600 22.27800
H  26.86200 53.00700 21.82400
H  27.42500 51.73500 20.64300
H  28.23300 51.94900 22.16300
H  24.26400 51.12300 20.47400
H  22.90900 51.61100 21.51900
H  23.26000 48.88300 20.83100
H  22.30700 49.55500 22.21800
H  23.94800 49.07700 22.42500
H  20.68100 52.81800 24.31600
H  20.27000 54.08200 25.54900
H  19.52700 52.47900 25.56300
H  21.61300 51.34900 30.63900
H  21.63200 55.26100 31.89800
H  22.03700 54.34800 33.48700
H  20.39000 54.75100 33.00300

