158

Mg 35.97800 48.99200 24.88500
C  36.14200 46.96000 27.67000
C  34.40300 51.38200 26.81700
C  34.89700 50.63600 22.06000
C  36.91000 46.25900 22.96000
N  35.34400 49.13300 26.96200
C  35.62300 48.19300 27.90900
C  35.36800 48.77300 29.29000
C  34.44000 49.96100 28.99300
C  34.71800 50.18200 27.50900
C  32.86800 49.81800 29.23000
C  36.74900 49.30800 29.93600
C  36.71500 49.15300 31.46800
H  35.37700 48.91800 32.15600
N  35.03100 50.79400 24.47600
C  34.52600 51.62000 25.43200
C  34.20400 52.88400 24.87700
C  34.34100 52.78000 23.44400
C  34.71600 51.28800 23.25100
C  33.77100 54.09300 25.68000
C  34.27200 53.78600 22.30000
O  34.79500 53.60400 21.23200
C  33.83600 55.18800 22.57500
N  35.84700 48.45600 22.78300
C  35.46800 49.35800 21.85600
C  35.86100 48.85000 20.42900
C  36.77500 47.64200 20.72500
C  36.54800 47.44600 22.24900
C  34.52000 48.56100 19.62400
C  38.25100 47.82700 20.30000
C  39.36500 47.62300 21.41600
N  36.54000 47.00600 25.17900
C  36.95300 46.04400 24.31100
C  37.42400 44.86900 25.03700
C  37.13300 45.15700 26.40100
C  36.52000 46.43500 26.36900
C  38.05300 43.66100 24.53200
C  37.08000 44.68000 27.81400
O  37.39300 43.62400 28.36100
C  36.57400 45.90900 28.63100
C  35.56100 45.43200 29.52900
O  34.37400 45.42300 29.26100
O  36.14300 45.10400 30.72100
C  35.18500 44.55100 31.73300
H  34.03900 52.17000 27.47900
H  34.75400 51.18000 21.12400
H  37.41000 45.46600 22.40000
H  34.87900 48.00000 29.88300
H  34.70000 50.76500 29.68100
H  32.29200 49.66100 28.31800
H  32.52600 50.74400 29.69200
H  32.64300 48.96100 29.86500
H  36.93000 50.35100 29.67400
H  37.48600 48.59000 29.57500
H  37.06600 50.14600 31.74900
H  37.33600 48.31500 31.78500
H  33.49900 53.74700 26.67700
H  32.90100 54.56100 25.21900
H  34.60000 54.79900 25.71800
H  32.99800 55.15100 23.27200
H  33.39600 55.60500 21.66900
H  34.65000 55.80100 22.96100
H  36.45800 49.65300 19.99700
H  36.39000 46.72100 20.28700
H  33.63900 48.75600 20.23600
H  34.44900 47.53900 19.25100
H  34.53700 49.36600 18.88800
H  38.34800 48.89600 20.10700
H  38.48200 47.19300 19.44400
H  39.19900 46.69300 21.96000
H  39.37100 48.36600 22.21400
H  40.34900 47.55700 20.95100
H  38.08700 42.86100 25.27200
H  39.05500 43.99300 24.26200
H  37.54200 43.23500 23.66900
H  37.35400 46.22500 29.32300
H  34.23600 44.15700 31.36800
H  34.92600 45.34600 32.43200
H  35.60300 43.71700 32.29700
Mg 1.53100 42.62300 26.41700
C  2.99800 42.63400 29.75400
C  -1.34200 41.42600 27.77300
C  0.40900 41.84400 23.30400
C  4.64300 43.36000 25.11900
N  0.98100 42.00800 28.54700
C  1.58700 42.31000 29.76400
C  0.62200 42.13200 30.93300
C  -0.66300 41.78600 30.21700
C  -0.33000 41.76300 28.71100
C  -1.36000 40.50000 30.78200
C  0.51200 43.51800 31.69000
C  0.99300 43.37900 33.12600
H  0.52100 42.20200 33.97800
N  -0.30600 41.91200 25.64000
C  -1.35900 41.40700 26.36500
C  -2.38300 40.99800 25.41500
C  -1.94700 41.14600 24.08000
C  -0.57600 41.67400 24.29200
C  -3.69700 40.49000 25.94800
C  -2.61600 40.80800 22.71800
O  -1.99200 40.80200 21.67300
C  -4.06800 40.71100 22.73400
N  2.38700 42.57200 24.48500
C  1.67800 42.37000 23.32700
C  2.62500 42.28300 22.14500
C  3.98200 42.95600 22.72600
C  3.71300 43.02400 24.22600
C  2.71600 40.81300 21.61600
C  4.28200 44.40000 22.11300
C  4.96100 44.42200 20.67200
N  3.46300 42.90300 27.21200
C  4.61100 43.24600 26.53100
C  5.66600 43.34300 27.49900
C  5.06200 43.13700 28.75000
C  3.77200 42.85900 28.58200
C  7.11600 43.59100 27.10700
C  5.40800 43.01800 30.17900
O  6.45600 43.15700 30.85900
C  3.96000 42.83400 30.88000
C  4.15100 41.59100 31.72300
O  4.17100 40.43900 31.31400
O  4.57500 41.95000 32.97500
C  5.08700 40.82700 33.83200
H  -2.36100 41.19500 28.09200
H  0.10600 41.58500 22.28700
H  5.63600 43.55400 24.70800
H  0.94900 41.31500 31.57700
H  -1.40700 42.57500 30.33400
H  -1.13500 40.46700 31.84800
H  -1.12700 39.56500 30.27400
H  -2.44600 40.59500 30.80000
H  -0.52600 43.82000 31.83100
H  1.05900 44.31400 31.18500
H  0.75600 44.30700 33.64500
H  2.08300 43.33800 33.14300
H  -4.32000 41.37500 26.07700
H  -3.58500 39.91900 26.87000
H  -4.19200 39.77700 25.28900
H  -4.45400 41.46800 23.41600
H  -4.37500 39.68600 22.94100
H  -4.37400 41.10400 21.76500
H  2.14700 42.79200 21.30700
H  4.85800 42.30900 22.68300
H  3.74400 40.56200 21.35600
H  2.22600 40.54400 20.68000
H  2.37400 40.04700 22.31200
H  4.99000 44.93400 22.74700
H  3.35400 44.96800 22.04900
H  5.01400 43.36800 20.39900
H  6.02400 44.66300 20.66900
H  4.43100 45.09700 20.00000
H  7.62200 42.73500 26.65900
H  7.58300 44.04500 27.98100
H  6.99300 44.44500 26.44100
H  3.77300 43.72900 31.47200
H  5.27200 41.23300 34.82700
H  6.03900 40.63300 33.33700
H  4.47300 39.92900 33.89600

