158

Mg 35.72400 2.91500 30.93800
C  33.12300 3.92200 32.93200
C  37.85800 2.93800 33.49400
C  38.26400 1.92900 28.79000
C  33.59200 3.38000 28.15100
N  35.42100 3.37800 32.93200
C  34.33700 3.62200 33.59600
C  34.57300 3.53600 35.09500
C  36.16200 3.47700 35.24600
C  36.53300 3.35000 33.76500
C  36.82300 4.75900 35.94100
C  33.87800 2.30100 35.72700
C  33.41100 2.54900 37.18500
H  34.09800 3.49300 38.14100
N  37.79400 2.48400 31.14900
C  38.49300 2.50000 32.30100
C  39.85900 2.03300 32.14000
C  39.91800 1.71300 30.77700
C  38.61600 2.01400 30.16800
C  40.85300 1.90300 33.27500
C  41.11400 1.04900 29.97700
O  41.12100 0.99500 28.77900
C  42.31700 0.41600 30.69700
N  35.94300 2.76000 28.73600
C  37.02500 2.19300 28.15700
C  36.86500 2.16800 26.61600
C  35.42800 2.72800 26.42600
C  34.93900 3.05000 27.83200
C  38.01300 3.00800 25.81500
C  34.54400 1.78900 25.52400
C  34.15100 0.46100 26.20000
N  33.68800 3.51300 30.55800
C  32.91300 3.66000 29.38700
C  31.63700 4.02200 29.72800
C  31.58800 4.08800 31.15100
C  32.88200 3.79100 31.58400
C  30.47900 4.25200 28.74000
C  30.73500 4.29500 32.30600
O  29.55200 4.46000 32.41800
C  31.76800 4.12800 33.55300
C  31.73700 5.42600 34.34800
O  31.73700 6.54900 33.88400
O  31.50300 5.19300 35.70900
C  31.21000 6.29300 36.58800
H  38.46800 2.76100 34.38300
H  39.02600 1.55900 28.10000
H  32.96000 3.56900 27.28000
H  34.18400 4.45300 35.53800
H  36.46400 2.51300 35.65400
H  37.67600 5.10900 35.36000
H  37.11600 4.44200 36.94200
H  36.03500 5.50900 35.99700
H  34.62600 1.51200 35.80100
H  33.05600 1.98000 35.08600
H  33.32300 1.57600 37.66900
H  32.35100 2.79200 37.25500
H  41.00700 0.85500 33.53300
H  40.47600 2.16100 34.26400
H  41.78300 2.45900 33.15800
H  43.06600 0.06600 29.98700
H  42.02100 -0.17800 31.56200
H  42.86000 1.23800 31.16200
H  36.90200 1.11000 26.35700
H  35.46900 3.73000 26.00000
H  37.66000 3.77600 25.12700
H  38.52200 2.33000 25.13000
H  38.71500 3.47900 26.50400
H  35.12000 1.52100 24.63900
H  33.69700 2.35000 25.13000
H  34.76000 0.27800 27.08500
H  34.18100 -0.40900 25.54400
H  33.13300 0.48700 26.58900
H  30.29300 3.28100 28.28200
H  30.77100 4.89000 27.90600
H  29.61000 4.72100 29.20200
H  31.47500 3.27200 34.16200
H  30.48800 5.99700 37.34800
H  30.64500 7.08100 36.08900
H  32.15600 6.68400 36.96300
Mg 16.98900 51.59700 25.60500
C  18.57400 50.15200 28.45900
C  14.21800 52.08600 27.45100
C  15.58400 52.50400 22.86800
C  19.83400 50.54100 23.72500
N  16.57700 51.30500 27.73900
C  17.37100 50.75900 28.71700
C  16.73000 51.18500 30.11000
C  15.23200 51.40100 29.71000
C  15.26000 51.65000 28.20400
C  14.36400 50.10100 30.01200
C  17.28100 52.47000 30.81600
C  16.86900 52.89100 32.24100
H  15.81400 52.03500 33.01100
N  15.19300 52.28100 25.23000
C  14.14900 52.46500 26.12200
C  13.07400 53.13500 25.45700
C  13.48200 53.35700 24.14600
C  14.75200 52.73100 24.04200
C  11.61300 53.30000 25.97500
C  12.69500 54.05700 22.95400
O  13.10600 54.27900 21.82000
C  11.39500 54.62000 23.24300
N  17.72300 51.53500 23.56200
C  16.86000 51.95200 22.66900
C  17.41600 51.82400 21.24700
C  18.79900 51.22900 21.47300
C  18.85600 51.19600 23.01700
C  16.63500 50.89100 20.29000
C  20.04600 51.96500 20.86600
C  20.31600 53.34400 21.50500
N  18.91200 50.68400 25.95500
C  19.90500 50.26900 25.11100
C  20.93100 49.55700 25.87000
C  20.41100 49.46300 27.21400
C  19.22300 50.13700 27.21500
C  22.06300 48.87600 25.21800
C  20.70300 48.88400 28.46700
O  21.62400 48.20600 28.83200
C  19.61300 49.49000 29.42500
C  19.05500 48.51500 30.40400
O  18.38300 47.51300 30.10900
O  19.08900 49.06800 31.70800
C  18.55700 48.10900 32.66000
H  13.29900 52.17000 28.03500
H  15.10300 52.85700 21.95400
H  20.61100 50.13100 23.07800
H  16.84100 50.32900 30.77700
H  14.82700 52.34400 30.07900
H  13.76900 50.43800 30.86100
H  14.94700 49.23300 30.32100
H  13.79300 49.81800 29.12800
H  16.98400 53.32400 30.20800
H  18.37000 52.42300 30.79100
H  16.54100 53.92700 32.16400
H  17.75500 52.82700 32.87200
H  11.08800 54.25100 25.88700
H  11.76500 53.17800 27.04700
H  10.97800 52.53200 25.53300
H  11.46500 55.58500 23.74600
H  10.75600 53.85500 23.68300
H  10.96600 54.71200 22.24500
H  17.40400 52.85800 20.90400
H  18.87000 50.22600 21.05200
H  17.25800 50.33800 19.58800
H  15.86700 51.44000 19.74500
H  16.12300 50.11100 20.85300
H  19.85900 52.18300 19.81500
H  20.90800 51.30400 20.78700
H  20.30700 54.23700 20.88000
H  21.32100 53.27600 21.92200
H  19.59100 53.49800 22.30400
H  22.86800 49.61100 25.23600
H  21.93000 48.54800 24.18700
H  22.20200 47.99900 25.84900
H  20.11800 50.22300 30.05400
H  17.57100 47.82100 32.29700
H  18.42600 48.61600 33.61600
H  19.23400 47.25700 32.70800

