158

Mg 35.34800 3.02300 30.31300
C  32.99400 3.95600 32.56600
C  37.72700 2.92400 32.82800
C  37.82600 2.46700 28.02200
C  33.09200 3.54400 27.77600
N  35.38900 3.39400 32.40500
C  34.16900 3.62500 33.20000
C  34.47400 3.70500 34.68800
C  36.08000 3.64700 34.72900
C  36.45800 3.35300 33.22600
C  36.77900 4.92300 35.28300
C  33.77300 2.47100 35.42700
C  33.31800 2.76700 36.82600
H  33.98800 3.89200 37.59600
N  37.53000 2.56400 30.45300
C  38.23500 2.54400 31.61400
C  39.62800 2.10300 31.31900
C  39.62200 1.92600 29.84600
C  38.34300 2.30100 29.35700
C  40.66900 1.90200 32.29300
C  40.67700 1.36100 29.01700
O  40.54300 1.22200 27.82300
C  41.96300 0.97300 29.68200
N  35.46900 2.82900 28.19900
C  36.58200 2.74300 27.46800
C  36.27200 2.77200 25.98100
C  34.78300 3.00900 25.96400
C  34.33300 3.11000 27.40700
C  37.19400 3.74900 25.18300
C  33.93600 1.96100 25.22500
C  33.41900 0.64400 25.90600
N  33.44100 3.62800 30.11800
C  32.58200 3.81200 29.03000
C  31.35100 4.25800 29.42700
C  31.37800 4.28400 30.79800
C  32.72300 3.99100 31.17500
C  30.14500 4.49300 28.51200
C  30.69600 4.55600 32.01800
O  29.52300 4.80100 32.14400
C  31.70800 4.42900 33.23500
C  31.90400 5.69500 33.94900
O  32.52300 6.62900 33.49300
O  31.35100 5.65900 35.17400
C  31.74700 6.80600 36.00100
H  38.37500 2.78800 33.69600
H  38.42600 2.16900 27.16000
H  32.28300 3.73600 27.06800
H  34.07600 4.60700 35.15200
H  36.38400 2.86400 35.42300
H  36.15100 5.81200 35.34500
H  37.66000 5.06300 34.65700
H  37.07900 4.84500 36.32800
H  34.51000 1.67700 35.54800
H  33.03400 2.11100 34.71100
H  33.65600 1.89400 37.38400
H  32.23000 2.71000 36.82800
H  41.63800 2.37700 32.13900
H  40.88800 0.83500 32.34300
H  40.36300 2.21000 33.29300
H  42.68100 0.72000 28.90100
H  41.97600 0.06400 30.28300
H  42.34600 1.93300 30.02600
H  36.40600 1.77200 25.56800
H  34.58400 3.92200 25.40200
H  37.95600 3.24200 24.59200
H  37.71300 4.36400 25.91800
H  36.66900 4.33600 24.42900
H  34.36200 1.56000 24.30500
H  33.08100 2.47200 24.78000
H  32.34500 0.67700 25.72700
H  33.62000 0.52900 26.97100
H  33.63200 -0.23500 25.29700
H  29.66800 3.53800 28.29300
H  30.52400 4.96300 27.60400
H  29.55600 5.20600 29.08800
H  31.30500 3.66000 33.89300
H  31.77500 6.52100 37.05200
H  30.98500 7.58600 35.97300
H  32.73500 7.16300 35.71200
Mg -0.42000 43.13200 26.60800
C  1.47000 43.45700 29.42000
C  -3.06300 41.89600 28.60400
C  -2.21600 42.32900 23.85800
C  2.43200 43.56100 24.66100
N  -0.66000 42.29000 28.77900
C  0.11300 42.96700 29.67400
C  -0.47400 43.15800 31.04600
C  -1.82300 42.33200 30.88500
C  -1.88200 42.08500 29.35600
C  -1.94800 41.07100 31.76400
C  -0.75100 44.65800 31.37300
C  -0.88000 45.04800 32.77900
H  -1.31300 43.93900 33.76900
N  -2.36900 42.26500 26.26900
C  -3.27300 42.02500 27.24100
C  -4.57300 41.73000 26.58000
C  -4.36900 41.81200 25.20300
C  -2.93900 42.11200 24.99200
C  -5.80100 41.64700 27.35100
C  -5.41400 41.77400 24.08200
O  -5.08800 41.89700 22.90600
C  -6.89300 41.42900 24.30800
N  0.04600 43.11900 24.66000
C  -0.90700 42.80700 23.68600
C  -0.29700 42.77800 22.22900
C  1.05200 43.58800 22.54600
C  1.21400 43.40000 24.04000
C  -0.19800 41.27600 21.69900
C  1.13300 45.11400 22.31200
C  2.37000 45.52200 21.53200
N  1.50500 43.46200 26.96500
C  2.64200 43.58800 26.07900
C  3.86300 43.74200 26.83200
C  3.41300 43.83400 28.14900
C  2.02700 43.59700 28.20800
C  5.20400 43.91300 26.37700
C  3.83200 44.03800 29.44600
O  4.92500 44.32600 29.86500
C  2.51000 43.90900 30.37700
C  2.86600 42.85700 31.34300
O  2.79100 41.66300 31.13600
O  3.21000 43.31700 32.54800
C  3.49300 42.31100 33.60700
H  -3.87500 41.53800 29.24100
H  -2.76000 42.00400 22.96900
H  3.31400 43.82700 24.07400
H  0.21100 42.72200 31.77300
H  -2.69200 42.96500 31.06200
H  -2.58800 40.35600 31.24700
H  -2.28800 41.29400 32.77500
H  -0.93700 40.66800 31.82800
H  -1.67800 45.03800 30.94300
H  0.09200 45.25200 31.02100
H  -1.61900 45.84900 32.79500
H  0.04000 45.39100 33.25300
H  -6.74200 41.94100 26.88600
H  -5.75700 42.36700 28.16800
H  -5.81700 40.64900 27.78800
H  -6.74900 40.51700 24.88800
H  -7.35100 41.26100 23.33300
H  -7.36300 42.24500 24.85700
H  -0.95400 43.27100 21.51300
H  1.79100 43.03400 21.96700
H  -1.02500 41.29300 20.98800
H  -0.43200 40.44300 22.36200
H  0.78300 41.07800 21.26800
H  1.10400 45.72900 23.21200
H  0.22200 45.36700 21.77100
H  2.98400 44.72500 21.11300
H  3.01300 46.20700 22.08500
H  1.99700 46.02100 20.63800
H  5.47000 42.89900 26.08000
H  5.94000 44.23100 27.11600
H  5.23600 44.65500 25.57900
H  2.54700 44.86000 30.90800
H  2.64100 41.75600 33.99900
H  3.88700 42.76500 34.51600
H  4.23100 41.60900 33.21800

