158

Mg 49.55300 34.20000 25.74500
C  47.37500 33.03700 28.19300
C  49.62200 37.22500 27.33100
C  51.50700 35.33100 23.26500
C  48.99200 31.29300 23.95700
N  48.58700 35.02900 27.59600
C  47.90100 34.34400 28.51800
C  47.68400 35.15400 29.83000
C  48.05700 36.56600 29.34100
C  48.72800 36.29500 27.96300
C  46.78900 37.47100 29.15000
C  48.69100 34.68000 30.98200
C  48.03400 34.38900 32.31100
H  46.89900 35.33400 32.81100
N  50.49100 36.04000 25.36900
C  50.36500 37.16500 26.17200
C  51.14500 38.19900 25.48000
C  51.60400 37.74100 24.27800
C  51.18300 36.32600 24.27100
C  51.32900 39.53800 26.04400
C  52.31600 38.44100 23.12400
O  52.79600 37.85600 22.13400
C  52.60200 39.91800 23.21500
N  50.02100 33.46500 23.68600
C  50.99000 34.11900 22.95200
C  51.44700 33.22100 21.80800
C  50.71400 31.87300 22.10100
C  49.92000 32.20000 23.36900
C  51.09800 33.71300 20.38800
C  51.74000 30.63300 22.35500
C  52.10700 29.78100 21.16000
N  48.35600 32.50000 25.90100
C  48.17500 31.39500 25.11100
C  47.22100 30.44700 25.65200
C  46.79300 31.07200 26.86100
C  47.55800 32.30600 27.00600
C  46.79600 29.18100 24.97100
C  46.00000 30.98000 28.09700
O  45.22900 30.12000 28.52800
C  46.40300 32.24300 28.99600
C  46.96200 31.54300 30.19400
O  48.05300 31.15000 30.32200
O  46.02400 31.37800 31.13600
C  46.51900 30.66300 32.35800
H  49.54000 38.15400 27.89900
H  52.22000 35.62700 22.49200
H  48.80800 30.38400 23.38000
H  46.65600 35.08500 30.18500
H  48.68000 37.12400 30.04100
H  45.90600 37.12600 29.68700
H  46.57200 37.45000 28.08200
H  46.92500 38.51900 29.41600
H  49.49300 35.38800 31.19000
H  49.08900 33.68900 30.76700
H  48.87700 34.58700 32.97300
H  47.74300 33.40300 32.67200
H  51.03800 39.53200 27.09400
H  50.68500 40.26300 25.54500
H  52.34100 39.90900 25.88500
H  53.35100 40.04000 23.99700
H  51.71500 40.43300 23.58400
H  53.01300 40.28500 22.27500
H  52.52600 33.13900 21.94300
H  49.99300 31.75500 21.29300
H  51.04400 32.93700 19.62400
H  51.84200 34.46900 20.13900
H  50.13300 34.20900 20.48400
H  51.24300 30.07800 23.15100
H  52.60500 31.10600 22.81900
H  53.17700 29.94600 21.03300
H  51.56500 30.24600 20.33700
H  51.75800 28.75300 21.24900
H  45.87600 28.94800 25.50700
H  47.54200 28.38700 24.93300
H  46.50100 29.54900 23.98900
H  45.50800 32.84500 29.15800
H  46.93300 31.51500 32.89800
H  47.22100 29.84800 32.18400
H  45.69600 30.32800 32.98900
Mg 8.74900 48.78300 26.04600
C  7.08500 48.80700 29.09900
C  11.57700 49.87100 27.75900
C  10.51200 48.52200 23.17000
C  5.83900 48.09200 24.38000
N  9.20300 49.28900 28.17100
C  8.41900 49.14200 29.21900
C  9.12000 49.50600 30.43600
C  10.38200 50.29500 29.99700
C  10.41000 49.84400 28.53900
C  10.44700 51.85200 30.26100
C  9.41300 48.35200 31.42900
C  8.69600 48.41400 32.78100
H  8.77300 47.29300 33.74800
N  10.79200 49.30900 25.48100
C  11.78700 49.61800 26.37900
C  13.11100 49.61700 25.66900
C  12.85200 49.10600 24.35000
C  11.33900 48.89300 24.29600
C  14.39600 49.80900 26.47800
C  13.79900 48.69800 23.29500
O  13.48900 48.19900 22.23400
C  15.26800 48.79100 23.46100
N  8.22700 48.47700 24.04900
C  9.13600 48.36900 23.09000
C  8.46500 48.04600 21.75800
C  7.14200 47.48100 22.29200
C  7.02300 48.11000 23.66000
C  8.41900 49.10700 20.58500
C  7.00100 45.95800 22.17800
C  6.64100 45.15600 23.46500
N  6.81400 48.53000 26.58900
C  5.70200 48.24000 25.79500
C  4.50700 48.19400 26.64900
C  4.94900 48.38900 27.98000
C  6.37000 48.66100 27.91700
C  3.17900 47.83000 26.30000
C  4.61800 48.39700 29.38700
O  3.47800 48.24600 29.96200
C  5.99100 48.57100 30.18700
C  6.07600 47.25000 31.01300
O  6.89700 46.37500 30.88600
O  5.09400 47.32000 32.02900
C  5.00100 46.28100 33.01300
H  12.48600 50.08900 28.32300
H  10.96400 48.52600 22.17600
H  5.02500 47.62300 23.82300
H  8.53200 50.28200 30.92600
H  11.27200 49.81500 30.40200
H  10.07300 52.38800 29.38900
H  11.45600 52.20500 30.47800
H  9.75900 51.91800 31.10300
H  10.46700 48.26300 31.69300
H  9.19100 47.45900 30.84400
H  7.67800 48.77800 32.63900
H  9.27800 49.14000 33.34900
H  14.26300 50.66400 27.14100
H  15.23600 50.18900 25.89500
H  14.76200 48.91100 26.97600
H  15.60900 48.18000 24.29600
H  15.69700 49.78700 23.56600
H  15.76300 48.38100 22.58000
H  9.08400 47.22300 21.39900
H  6.29200 47.97000 21.81700
H  7.44000 49.53000 20.36100
H  8.89000 48.66600 19.70700
H  8.90100 50.05200 20.83600
H  7.85400 45.43100 21.75100
H  6.13000 45.80100 21.54300
H  6.90700 45.48900 24.46800
H  6.96600 44.11600 23.43500
H  5.56600 44.98200 23.43800
H  2.82100 46.93000 26.80100
H  3.30400 47.62600 25.23700
H  2.51800 48.67700 26.48200
H  6.04100 49.42500 30.86300
H  5.51400 46.70100 33.87800
H  5.53000 45.38700 32.68200
H  3.94200 46.08000 33.17800

