158

Mg 35.59200 2.20900 29.75100
C  33.64200 3.45800 32.35400
C  38.39900 2.31900 31.78300
C  37.36400 1.18400 27.13500
C  32.91500 2.81700 27.55000
N  35.98800 3.05200 31.74000
C  34.99300 3.22300 32.72200
C  35.65600 3.37100 34.13600
C  37.17900 3.14100 33.87700
C  37.22000 2.89200 32.37100
C  38.18100 4.17800 34.33300
C  34.92400 2.33900 35.06900
C  34.69800 2.73300 36.56200
H  35.49800 4.02000 37.04600
N  37.59900 1.71400 29.50100
C  38.60900 1.81300 30.46600
C  39.89400 1.17500 30.02900
C  39.56300 0.99500 28.61000
C  38.14100 1.34500 28.35900
C  41.07200 0.91500 30.98800
C  40.50000 0.42200 27.60400
O  40.15200 0.24300 26.43000
C  41.89900 -0.00600 27.93000
N  35.25300 2.12600 27.62000
C  36.10000 1.63100 26.78100
C  35.56100 1.54900 25.30900
C  34.07400 1.91900 25.58900
C  34.05200 2.31600 27.00000
C  36.24400 2.53400 24.39300
C  33.19000 0.62500 25.38200
C  32.29200 0.66300 24.22600
N  33.69900 2.94100 29.86700
C  32.72000 3.12300 28.91100
C  31.52700 3.58300 29.56400
C  31.81500 3.69000 30.88200
C  33.16500 3.33800 31.01600
C  30.16900 3.94300 28.99800
C  31.26000 4.04900 32.13900
O  30.09600 4.40000 32.39000
C  32.48000 3.87900 33.15200
C  32.66100 5.16400 33.85800
O  32.94900 6.22100 33.32400
O  32.41800 4.97800 35.21400
C  32.42000 6.14200 36.07200
H  39.27800 2.26200 32.42900
H  37.98100 0.80200 26.31900
H  31.97500 2.90500 27.00200
H  35.52900 4.39900 34.47500
H  37.42100 2.19300 34.35800
H  37.62000 4.98600 34.80300
H  38.66200 4.54700 33.42700
H  38.88600 3.78700 35.06600
H  35.46900 1.39500 35.05200
H  34.00000 1.94900 34.64400
H  35.15500 1.89900 37.09500
H  33.65000 2.82400 36.85000
H  41.70800 0.11900 30.59900
H  40.51600 0.63500 31.88200
H  41.61000 1.85500 31.11400
H  42.50800 0.87300 28.13900
H  42.32900 -0.42200 27.01900
H  41.76300 -0.77600 28.68900
H  35.70600 0.51400 24.99900
H  33.62400 2.73500 25.02300
H  36.65400 3.38200 24.94200
H  35.72900 2.84000 23.48200
H  37.17800 2.02500 24.15600
H  32.65300 0.40000 26.30300
H  33.80300 -0.27100 25.28000
H  32.47100 -0.19500 23.57800
H  32.06300 1.63700 23.79200
H  31.39400 0.26900 24.70000
H  29.60400 3.07700 28.65100
H  30.22400 4.64100 28.16300
H  29.52400 4.37900 29.76100
H  32.18500 3.11900 33.87600
H  32.62700 5.85300 37.10200
H  31.36200 6.40700 36.08900
H  33.16600 6.86500 35.74400
Mg -12.74500 14.56300 42.50100
C  -9.43900 13.70100 41.65400
C  -12.22800 17.58500 40.89700
C  -15.99600 15.26200 43.00600
C  -13.42700 11.23700 43.32100
N  -11.04600 15.40700 41.30900
C  -9.71100 14.93500 41.24200
C  -8.76100 15.93000 40.54100
C  -9.67000 17.14300 40.35100
C  -11.09800 16.73900 40.84500
C  -9.05300 18.45700 40.86900
C  -8.02900 15.38800 39.25000
C  -6.52900 15.27600 39.27400
H  -5.72600 15.90300 38.21500
N  -14.00400 16.18500 41.95800
C  -13.56600 17.37600 41.33400
C  -14.79100 18.19000 41.34800
C  -15.83700 17.51000 41.92700
C  -15.31500 16.23900 42.27500
C  -14.67800 19.55100 40.74900
C  -17.29100 18.10200 42.10500
O  -17.52200 19.28200 41.82400
C  -18.48900 17.19300 42.57700
N  -14.53100 13.35600 43.05300
C  -15.68900 13.93800 43.41100
C  -16.57700 12.98600 44.17800
C  -15.88400 11.62000 44.06000
C  -14.54900 12.05300 43.44800
C  -16.82700 13.34600 45.61900
C  -16.66000 10.45300 43.32500
C  -16.84400 9.21900 44.23600
N  -11.71400 12.89900 42.62800
C  -12.14700 11.61500 42.84500
C  -10.94900 10.76200 42.77900
C  -9.93200 11.51800 42.22800
C  -10.40200 12.85700 42.22000
C  -10.92000 9.31100 43.27300
C  -8.58100 11.46700 41.70100
O  -7.80500 10.54800 41.63100
C  -8.17300 12.93800 41.45000
C  -7.07500 13.45400 42.32500
O  -7.29200 14.13100 43.31400
O  -5.87400 13.23300 41.76000
C  -4.64200 13.77100 42.41700
H  -12.03400 18.59400 40.52700
H  -17.00500 15.40500 43.40000
H  -13.61500 10.17100 43.46200
H  -7.97800 16.27100 41.21900
H  -9.85200 17.25000 39.28200
H  -9.50100 19.27700 40.30700
H  -7.99400 18.43500 40.61500
H  -9.16500 18.45500 41.95300
H  -8.28800 16.10800 38.47300
H  -8.49100 14.40700 39.14100
H  -6.14400 14.27100 39.44100
H  -6.25100 15.76000 40.21000
H  -14.93500 19.57500 39.69000
H  -13.64800 19.90700 40.76700
H  -15.27400 20.28400 41.29300
H  -18.54500 16.28900 41.97000
H  -19.38000 17.77200 42.33200
H  -18.46900 17.05000 43.65700
H  -17.50600 13.09300 43.61800
H  -15.63300 11.36100 45.08900
H  -17.09500 12.46700 46.20400
H  -17.64700 14.05200 45.74700
H  -15.97100 13.82500 46.09400
H  -16.20800 10.13500 42.38500
H  -17.65100 10.87900 43.16000
H  -17.35700 8.45700 43.64800
H  -17.59300 9.58300 44.94000
H  -15.97900 8.71400 44.66500
H  -11.05900 9.30200 44.35400
H  -9.91400 8.92800 43.10500
H  -11.56900 8.71200 42.63400
H  -7.88600 12.95600 40.39800
H  -3.78400 13.28800 41.94900
H  -4.75100 13.35400 43.41800
H  -4.73700 14.85500 42.35600

