158

Mg 8.64400 47.69500 25.40000
C  6.82600 47.58000 28.31900
C  11.29800 48.99500 27.03200
C  10.34900 47.55900 22.45000
C  5.76800 46.97300 23.58600
N  9.03300 48.14700 27.52800
C  8.14700 48.00600 28.51500
C  8.76700 48.54300 29.84300
C  10.08300 49.22700 29.34000
C  10.14900 48.81300 27.87100
C  10.03800 50.77500 29.45700
C  8.98200 47.39000 30.86000
C  8.50500 47.52400 32.32500
H  8.81200 46.39100 33.29200
N  10.59600 48.01300 24.94200
C  11.54000 48.59000 25.70500
C  12.87500 48.42100 25.09500
C  12.61900 48.01800 23.71300
C  11.14600 47.84600 23.65800
C  14.20900 48.83700 25.75400
C  13.57600 47.72100 22.56900
O  13.23000 47.29700 21.43100
C  15.00700 47.93800 22.75600
N  8.12000 47.57500 23.29500
C  8.97500 47.43400 22.28600
C  8.29700 47.17600 20.93700
C  6.93000 46.73000 21.37000
C  6.88900 47.21200 22.80100
C  8.30000 48.49900 20.05800
C  6.68800 45.17200 21.13200
C  5.41600 44.81500 20.34400
N  6.67100 47.48800 25.76500
C  5.62100 47.16100 24.96800
C  4.48900 46.94700 25.72900
C  4.90600 47.01000 27.06900
C  6.26800 47.34200 27.04600
C  3.16600 46.53200 25.25700
C  4.46600 47.00800 28.41600
O  3.31600 46.86500 28.80700
C  5.74300 47.32300 29.30500
C  5.92300 46.15400 30.12800
O  6.62600 45.19700 29.81500
O  5.35500 46.34100 31.36000
C  5.51600 45.19300 32.29400
H  12.22000 49.22100 27.57100
H  10.93400 47.46900 21.53200
H  4.92700 46.72500 22.93600
H  8.14800 49.31300 30.30200
H  10.92900 48.81500 29.89000
H  10.35500 51.07200 30.45700
H  8.97600 50.98000 29.32000
H  10.65500 51.23300 28.68400
H  10.04700 47.16000 30.83400
H  8.52400 46.48600 30.45800
H  7.42900 47.36200 32.25300
H  8.67100 48.55100 32.65000
H  14.85300 47.96100 25.67700
H  14.09200 49.08800 26.80800
H  14.71000 49.65000 25.23000
H  15.20200 48.98500 22.98800
H  15.59600 47.77700 21.85400
H  15.43200 47.28900 23.52100
H  8.85200 46.45700 20.33400
H  6.16000 47.25000 20.80000
H  9.05800 48.40000 19.28100
H  8.69500 49.31100 20.66900
H  7.32900 48.84900 19.70800
H  6.54200 44.86200 22.16600
H  7.55300 44.60000 20.79700
H  5.74600 44.33900 19.42000
H  4.87000 45.69100 19.99300
H  4.81200 44.16200 20.97400
H  3.11800 45.49700 25.59500
H  3.14900 46.44000 24.17100
H  2.37000 47.20000 25.58600
H  5.49900 48.19300 29.91400
H  4.56900 44.75300 32.60800
H  5.99900 45.58800 33.18800
H  6.32300 44.51100 32.02300
Mg -8.35300 40.50200 42.54100
C  -7.42900 37.36100 41.35300
C  -5.79200 41.89300 40.87300
C  -9.99400 43.51600 42.73000
C  -11.27200 38.99000 43.71700
N  -6.90600 39.70400 41.24600
C  -6.56900 38.40300 40.92100
C  -5.22100 38.17800 40.27600
C  -4.57400 39.62100 40.44300
C  -5.84300 40.49700 40.88700
C  -3.47400 39.66400 41.57000
C  -5.29500 37.67000 38.77500
C  -4.48500 36.35100 38.61300
H  -3.23100 36.45500 37.68800
N  -7.83600 42.51500 42.14400
C  -6.71800 42.86700 41.41800
C  -6.55100 44.32300 41.46700
C  -7.77900 44.88600 42.02600
C  -8.62600 43.65000 42.27900
C  -5.25100 44.84100 40.97300
C  -8.10300 46.30100 42.29500
O  -7.32400 47.16200 41.89200
C  -9.33200 46.69300 42.98400
N  -10.44100 41.17200 43.00600
C  -10.76900 42.49200 43.14000
C  -12.20500 42.62000 43.68900
C  -12.48000 41.18100 44.17900
C  -11.40900 40.38900 43.49600
C  -12.40200 43.70400 44.79800
C  -13.91800 40.71400 44.08200
C  -14.25900 39.80100 42.86900
N  -9.24000 38.57500 42.61000
C  -10.40100 38.13000 43.12400
C  -10.40600 36.68200 43.05600
C  -9.26100 36.33100 42.40900
C  -8.60900 37.55600 42.09600
C  -11.45900 35.78400 43.68800
C  -8.41800 35.19900 41.89000
O  -8.57600 34.00700 41.96500
C  -7.22100 35.85700 41.12500
C  -5.96900 35.38500 41.83800
O  -5.56500 35.75200 42.89600
O  -5.40500 34.38600 41.09800
C  -4.10200 33.94800 41.56200
H  -4.85200 42.16600 40.38900
H  -10.54600 44.45600 42.80100
H  -12.03000 38.50600 44.33700
H  -4.69100 37.50200 40.94700
H  -4.16400 40.01400 39.51200
H  -3.85900 39.98900 42.53700
H  -2.74200 40.38400 41.20500
H  -3.07400 38.66800 41.75700
H  -4.85600 38.37300 38.06700
H  -6.32600 37.56200 38.43900
H  -5.23000 35.63500 38.26600
H  -4.12300 36.02100 39.58700
H  -5.22700 44.51900 39.93200
H  -4.35400 44.40600 41.41200
H  -5.16900 45.92800 40.98600
H  -9.09100 47.67400 43.39300
H  -9.51500 46.08600 43.87100
H  -10.13600 46.68100 42.24800
H  -12.88600 42.84400 42.86800
H  -12.35900 41.20300 45.26200
H  -12.67800 43.33700 45.78600
H  -13.28300 44.26100 44.48000
H  -11.48500 44.29200 44.82300
H  -14.57000 41.58600 44.03500
H  -14.27000 40.13600 44.93700
H  -14.43000 38.78300 43.22100
H  -13.41700 39.93000 42.18900
H  -15.16800 40.18700 42.40700
H  -12.29600 35.68400 42.99700
H  -11.65600 36.15300 44.69500
H  -11.08400 34.76500 43.78700
H  -7.30200 35.62400 40.06300
H  -3.44200 34.72800 41.94200
H  -3.53800 33.33500 40.85900
H  -4.24700 33.31200 42.43500

