158

Mg 24.23200 -4.68900 45.62300
C  26.64000 -2.53100 43.89400
C  21.94800 -3.66900 43.25400
C  22.46400 -7.22800 46.53700
C  27.04600 -5.89900 47.56600
N  24.39500 -3.31700 43.72200
C  25.37700 -2.46000 43.36600
C  24.94900 -1.58300 42.15500
C  23.40900 -1.67600 42.16300
C  23.19700 -2.90800 43.10400
C  22.69800 -0.51100 42.74700
C  25.59200 -2.16000 40.77600
C  26.29400 -1.06300 39.94700
H  26.04800 -1.19500 38.37000
N  22.41300 -5.35600 45.03700
C  21.61600 -4.79100 44.04100
C  20.38900 -5.60300 43.84800
C  20.54400 -6.63200 44.84400
C  21.81400 -6.45100 45.53100
C  19.27300 -5.21100 42.82500
C  19.54300 -7.80400 44.98800
O  18.60000 -7.77400 44.27000
C  19.71800 -8.91000 46.05500
N  24.67100 -6.27600 47.07100
C  23.75400 -7.23200 47.15400
C  24.22400 -8.38300 48.10400
C  25.64500 -7.91900 48.52500
C  25.85700 -6.64200 47.59500
C  23.21700 -8.72500 49.27300
C  26.79500 -8.98300 48.48200
C  27.76400 -9.09200 49.67000
N  26.32700 -4.21900 45.79700
C  27.25200 -4.79500 46.67700
C  28.49800 -4.13800 46.41500
C  28.35900 -3.21900 45.30900
C  27.01600 -3.32200 44.96500
C  29.80700 -4.35400 47.21600
C  29.01000 -2.23900 44.43500
O  30.15000 -1.77200 44.41000
C  27.88500 -1.76800 43.44700
C  27.81900 -0.32500 43.66100
O  27.68300 0.26100 44.75200
O  28.10200 0.27100 42.50200
C  27.83600 1.75400 42.41300
H  21.21100 -3.46200 42.47500
H  21.95400 -8.15500 46.80300
H  27.88400 -6.33100 48.11600
H  25.26100 -0.55100 42.31000
H  23.05200 -1.85600 41.14900
H  21.62300 -0.58400 42.58000
H  23.12300 0.35000 42.23200
H  22.73300 -0.53100 43.83600
H  24.75000 -2.43500 40.14100
H  26.25000 -2.99300 41.02000
H  27.35600 -1.08600 40.18900
H  26.08200 -0.06900 40.33900
H  19.67500 -5.37000 41.82400
H  18.98100 -4.17000 42.95600
H  18.42800 -5.89900 42.85300
H  19.77500 -8.43600 47.03500
H  20.66200 -9.36200 45.74900
H  18.82700 -9.53800 46.07900
H  24.41100 -9.25700 47.47900
H  25.58100 -7.47800 49.52000
H  23.72400 -8.54800 50.22100
H  22.93600 -9.77800 49.23200
H  22.29600 -8.14300 49.23500
H  27.37400 -8.69400 47.60500
H  26.24700 -9.91300 48.33300
H  28.73000 -8.97700 49.17800
H  27.60900 -10.02800 50.20600
H  27.60000 -8.31700 50.41900
H  30.49300 -3.54600 46.96000
H  30.32000 -5.27400 46.93200
H  29.67500 -4.34300 48.29700
H  28.14000 -1.94100 42.40200
H  26.84000 1.96400 42.80400
H  27.80100 2.01300 41.35500
H  28.61800 2.19100 43.03400
Mg 16.68700 52.45400 26.39700
C  18.41300 50.90200 29.12400
C  14.11700 53.19400 28.63300
C  14.84600 53.52600 23.75900
C  18.79200 50.69000 24.17300
N  16.28700 51.95700 28.60500
C  17.19100 51.49900 29.53500
C  16.75900 51.74800 30.92800
C  15.23700 52.13800 30.71600
C  15.18900 52.51200 29.19300
C  14.17700 51.10500 31.29000
C  17.65700 52.83300 31.58300
C  18.01300 52.59400 33.10900
H  17.05500 51.68600 33.91000
N  14.77000 53.47600 26.27700
C  13.91800 53.61900 27.27300
C  12.74700 54.41200 26.75200
C  12.96700 54.57400 25.31100
C  14.19300 53.81100 25.07200
C  11.65300 54.87800 27.62100
C  12.09400 55.25000 24.25600
O  12.52000 55.31800 23.08700
C  10.84400 55.91900 24.69600
N  16.81200 52.17700 24.29600
C  16.04100 52.86000 23.40300
C  16.51800 52.63600 21.93700
C  17.91800 52.03200 22.15200
C  17.78000 51.45100 23.61100
C  15.60200 51.76300 21.11300
C  19.15900 52.95600 21.93400
C  20.15900 52.55600 20.80600
N  18.34500 51.13300 26.54000
C  19.10000 50.54100 25.54600
C  20.19300 49.79000 26.20000
C  19.96900 49.89400 27.54800
C  18.80100 50.68400 27.71800
C  21.31600 49.02500 25.53500
C  20.46400 49.58100 28.83400
O  21.41400 48.96000 29.25200
C  19.48900 50.21600 29.91700
C  18.92300 49.03500 30.66700
O  18.26700 48.18500 30.10000
O  19.10500 49.17400 31.99100
C  18.80000 48.04900 32.89400
H  13.33100 53.36000 29.37200
H  14.41900 54.00100 22.87300
H  19.48800 50.29300 23.43100
H  16.81200 50.76300 31.39100
H  15.05200 53.09800 31.19800
H  14.58000 50.18100 31.70400
H  13.56100 50.81100 30.43900
H  13.74600 51.64300 32.13400
H  17.12700 53.78000 31.48700
H  18.60100 52.85900 31.03900
H  17.94000 53.63400 33.42600
H  19.02900 52.22500 33.24400
H  10.65400 54.58200 27.30100
H  11.73200 55.96400 27.67700
H  11.69300 54.52000 28.65000
H  11.04700 56.62700 25.49900
H  10.09400 55.18400 24.98900
H  10.38600 56.43900 23.85400
H  16.59600 53.66900 21.59800
H  18.00500 51.15500 21.51100
H  16.16000 51.26000 20.32300
H  14.83600 52.39100 20.65700
H  14.97000 51.02200 21.60100
H  19.85000 52.80600 22.76300
H  18.97600 54.02700 21.85600
H  20.16700 53.38000 20.09200
H  19.74200 51.67700 20.31500
H  21.15700 52.46900 21.23500
H  21.89100 48.38100 26.20000
H  22.03800 49.75500 25.16800
H  20.95500 48.29300 24.81400
H  20.08400 50.86700 30.55800
H  19.60000 47.95500 33.63000
H  18.89800 47.06900 32.42700
H  17.80700 48.08600 33.34300

