158

Mg 46.87700 15.05600 27.74900
C  44.90000 15.08500 30.72000
C  48.91800 17.41800 29.24300
C  48.47200 15.18300 25.01200
C  44.24700 13.16700 26.25600
N  46.82000 16.07600 29.74700
C  45.98100 15.94300 30.78300
C  46.52300 16.62900 32.00300
C  47.55200 17.69200 31.37400
C  47.79700 16.99700 30.01200
C  47.20200 19.16400 31.22300
C  47.28000 15.56400 32.93200
C  46.96900 15.63600 34.40000
H  48.17700 15.47800 35.40300
N  48.57900 16.04800 27.22400
C  49.28900 16.94100 27.95600
C  50.42200 17.42200 27.19500
C  50.37000 16.75500 25.92100
C  49.12800 15.97100 26.01200
C  51.41400 18.43500 27.72500
C  51.30600 16.80600 24.69700
O  51.11600 16.19200 23.62900
C  52.56900 17.68200 24.83400
N  46.26700 14.37700 25.78800
C  47.25500 14.50800 24.84600
C  46.93800 13.61100 23.62400
C  45.53800 12.96000 24.02900
C  45.31000 13.51500 25.41600
C  46.83100 14.48800 22.35800
C  45.45500 11.32700 23.96600
C  46.68400 10.57500 24.62500
N  45.02600 14.22100 28.26300
C  44.05800 13.57900 27.52400
C  42.93400 13.26800 28.38100
C  43.23700 13.85200 29.61600
C  44.49800 14.43600 29.52900
C  41.63600 12.76000 27.95200
C  42.61300 14.10100 30.96500
O  41.50300 13.89500 31.46600
C  43.82300 14.84000 31.71500
C  43.27400 16.16700 32.19600
O  43.02200 17.10300 31.50100
O  43.12500 16.13000 33.58500
C  42.67600 17.30200 34.36200
H  49.59600 18.14100 29.70300
H  49.14900 15.18900 24.15600
H  43.41500 12.64200 25.78400
H  45.70900 17.03500 32.60300
H  48.44500 17.74000 31.99700
H  46.99100 19.39700 30.17900
H  48.04400 19.76100 31.57200
H  46.27200 19.30400 31.77300
H  48.35000 15.63500 32.73400
H  46.95500 14.57000 32.62400
H  46.26000 14.86800 34.70900
H  46.48500 16.59500 34.58500
H  51.70500 19.12600 26.93400
H  52.28500 17.90100 28.10600
H  51.03000 19.01800 28.56300
H  53.12600 17.62700 23.89900
H  53.18200 17.29800 25.64900
H  52.26800 18.72900 24.85900
H  47.67500 12.80800 23.63400
H  44.79000 13.26800 23.29700
H  46.50900 15.51400 22.53600
H  46.04700 14.10400 21.70500
H  47.84100 14.55500 21.95300
H  45.49500 11.02700 22.91900
H  44.59200 10.89500 24.47200
H  47.27300 10.15200 23.81200
H  46.24700 9.77700 25.22600
H  47.23900 11.22400 25.30300
H  41.22300 13.19600 27.04300
H  40.98600 13.04300 28.78000
H  41.80600 11.69100 27.82500
H  44.16600 14.35700 32.63000
H  42.30700 18.17100 33.81800
H  43.47600 17.69100 34.99200
H  41.85900 17.01300 35.02300
Mg 46.98600 34.91000 27.98100
C  45.27400 33.02600 30.33000
C  47.24100 37.46500 30.34800
C  48.12200 36.78500 25.61700
C  46.42000 32.29900 25.64600
N  46.19900 35.23100 29.96800
C  45.66500 34.27500 30.82300
C  45.73000 34.73800 32.29400
C  45.86300 36.24800 32.10400
C  46.42300 36.36500 30.69300
C  44.50900 37.03700 32.23400
C  47.02800 34.12700 32.88400
C  47.06600 33.89300 34.38800
H  46.05600 34.71300 35.32200
N  47.68700 36.86000 28.02800
C  47.80900 37.73100 29.07800
C  48.46100 39.00100 28.61600
C  48.88900 38.71100 27.29500
C  48.21700 37.43400 26.90800
C  48.74200 40.09200 29.52900
C  49.74700 39.59800 26.37300
O  49.94000 39.13000 25.26000
C  50.16500 40.95100 26.73500
N  47.11900 34.61000 25.91400
C  47.68300 35.54000 25.15700
C  47.62500 35.14700 23.61700
C  47.43200 33.67700 23.74200
C  46.91600 33.47500 25.19600
C  46.35200 35.90500 22.97800
C  48.56900 32.70300 23.37300
C  50.09500 33.15700 23.43600
N  46.23200 32.91300 27.98500
C  46.06900 32.00800 26.94600
C  45.44200 30.76800 27.49700
C  45.11100 31.06400 28.81000
C  45.56600 32.40700 29.02300
C  45.14700 29.57300 26.59500
C  44.42900 30.66600 29.98900
O  43.80100 29.63600 30.23100
C  44.48000 31.91500 31.01600
C  44.92400 31.40200 32.32300
O  45.91800 30.78300 32.52800
O  44.01800 31.72600 33.25100
C  44.26500 31.03000 34.47600
H  47.27400 38.31200 31.03700
H  48.49900 37.34600 24.76000
H  46.23000 31.49100 24.93700
H  44.89000 34.31500 32.84600
H  46.60500 36.67800 32.77700
H  44.14700 37.61500 31.38400
H  44.55200 37.70400 33.09500
H  43.83500 36.25100 32.57600
H  47.81400 34.88000 32.82900
H  47.38200 33.18400 32.46900
H  48.05500 34.05200 34.81700
H  46.68800 32.88600 34.56600
H  49.81500 40.00700 29.70200
H  48.23300 40.08600 30.49300
H  48.51100 41.07000 29.10600
H  49.40800 41.61600 27.15000
H  50.65800 41.44500 25.89800
H  50.95200 40.78300 27.46900
H  48.53500 35.46200 23.10500
H  46.51800 33.39300 23.22000
H  46.80500 36.61600 22.28600
H  45.74400 36.38800 23.74200
H  45.73100 35.30900 22.30900
H  48.45500 32.44400 22.32000
H  48.47100 31.79000 23.96000
H  50.19300 34.17500 23.81000
H  50.46800 33.09600 22.41400
H  50.83800 32.54700 23.95100
H  45.95000 29.45300 25.86800
H  44.18500 29.64900 26.08900
H  45.10000 28.61900 27.12100
H  43.43100 32.20200 31.07800
H  43.46200 31.04700 35.21300
H  45.15200 31.53000 34.86500
H  44.43400 29.97800 34.24200

