158

Mg 44.55500 4.26900 45.69700
C  42.74800 7.16600 45.72600
C  41.63100 2.48900 45.47100
C  46.46200 1.60200 45.31800
C  47.53500 6.34600 45.10000
N  42.34300 4.76200 45.46200
C  41.90300 6.02400 45.52600
C  40.37300 6.09400 45.37800
C  39.98800 4.50100 45.30700
C  41.35900 3.82400 45.45000
C  38.80800 4.08400 46.28500
C  39.82000 6.82500 44.14100
C  40.81200 7.31300 43.04000
H  40.32400 7.19800 41.59400
N  44.14200 2.32100 45.53100
C  42.90300 1.77600 45.43200
C  43.01600 0.36300 45.30900
C  44.41100 0.06700 45.20100
C  45.09500 1.32800 45.33100
C  41.83000 -0.59500 45.12600
C  44.97100 -1.30700 44.88400
O  44.28500 -2.31400 44.78300
C  46.45400 -1.56300 44.72800
N  46.66200 4.01500 45.39800
C  47.18500 2.78400 45.27000
C  48.70600 2.70700 45.22400
C  49.06700 4.21700 44.95900
C  47.68000 4.91400 45.16100
C  49.37300 2.24200 46.60100
C  49.65100 4.59100 43.62100
C  51.19800 4.39800 43.52900
N  45.09800 6.30200 45.53700
C  46.29800 7.01200 45.46200
C  46.06500 8.50600 45.60300
C  44.67000 8.55900 45.75200
C  44.12400 7.26600 45.62000
C  47.10300 9.59700 45.73800
C  43.60700 9.41500 46.02900
O  43.62300 10.62300 46.18000
C  42.32800 8.61700 45.89300
C  41.45300 8.85400 47.10300
O  41.48400 8.31400 48.13700
O  40.52100 9.73400 46.72700
C  39.38800 9.90100 47.64600
H  40.71600 1.90000 45.38600
H  47.17900 0.77900 45.27700
H  48.45800 6.89800 44.90900
H  39.89500 6.61200 46.21000
H  39.69300 4.22000 44.29600
H  37.89700 3.82800 45.74500
H  38.53700 4.88800 46.97000
H  38.97400 3.15700 46.83400
H  39.21900 7.64900 44.52600
H  39.13000 6.14900 43.63600
H  41.82700 6.91800 43.10200
H  40.77400 8.38800 43.21600
H  41.98500 -1.34200 45.90400
H  41.82200 -1.08700 44.15300
H  40.90800 -0.08500 45.40400
H  46.57800 -2.60400 44.43300
H  47.01900 -1.34500 45.63400
H  46.84800 -0.96200 43.90800
H  49.05900 2.01500 44.45900
H  49.74000 4.69500 45.67100
H  48.47400 2.16000 47.21200
H  50.03100 2.91300 47.15300
H  49.76700 1.22600 46.61600
H  49.31200 5.49300 43.11000
H  49.28800 3.83500 42.92400
H  51.38200 3.61100 42.79600
H  51.76800 4.21200 44.43900
H  51.73500 5.19400 43.01300
H  46.53000 10.49200 45.98300
H  47.59800 9.82600 44.79400
H  47.84200 9.37900 46.51000
H  41.76800 9.03800 45.05800
H  38.50400 9.39700 47.25600
H  39.20200 10.96200 47.81300
H  39.47400 9.45000 48.63500
Mg -12.12800 37.86800 42.10400
C  -9.87700 35.33200 41.23500
C  -10.15900 40.06400 40.12700
C  -14.61400 40.19800 41.96100
C  -14.29900 35.56000 43.38200
N  -10.38100 37.62700 40.68200
C  -9.57900 36.51600 40.55100
C  -8.38500 36.69800 39.62400
C  -8.51600 38.24400 39.29400
C  -9.75200 38.71900 40.03500
C  -7.26400 39.02400 39.57000
C  -8.62500 35.63000 38.45200
C  -7.44500 34.84900 37.93500
H  -6.77000 35.61400 36.81300
N  -12.28600 39.89600 41.42400
C  -11.32600 40.59100 40.67300
C  -11.71400 41.93600 40.46700
C  -13.04100 42.03200 40.93800
C  -13.42900 40.67300 41.43000
C  -10.85200 43.00100 39.74200
C  -13.87300 43.20500 40.86800
O  -13.43600 44.23100 40.40900
C  -15.30800 43.32100 41.31800
N  -14.24100 37.89900 42.55000
C  -15.02000 38.95000 42.45500
C  -16.50900 38.59000 42.80300
C  -16.30800 37.17900 43.37400
C  -14.91000 36.80000 42.96300
C  -17.04100 39.72700 43.79400
C  -17.33300 36.13900 42.78500
C  -17.94200 35.16700 43.84400
N  -12.14300 35.85000 42.33400
C  -13.00100 35.05600 42.96600
C  -12.47900 33.73000 43.14000
C  -11.30000 33.82500 42.43000
C  -11.08200 35.14300 42.00000
C  -13.22100 32.53400 43.79600
C  -10.07100 33.09900 42.08100
O  -9.77900 31.94200 42.29100
C  -9.04700 34.09400 41.35600
C  -7.91200 34.22500 42.33700
O  -7.04500 33.40100 42.63800
O  -7.94600 35.54800 42.89800
C  -6.71200 35.90600 43.60400
H  -9.46400 40.73700 39.61900
H  -15.48200 40.85900 41.92300
H  -14.94800 34.90200 43.96300
H  -7.41800 36.50600 40.08900
H  -8.79500 38.33900 38.24400
H  -6.35000 38.49200 39.30700
H  -7.15600 39.24900 40.63100
H  -7.37500 39.89600 38.92500
H  -8.95500 36.21100 37.59100
H  -9.32100 34.86100 38.78500
H  -8.00300 33.96300 37.63000
H  -6.82100 34.60700 38.79600
H  -11.00100 44.03200 40.06600
H  -11.02700 42.90800 38.67000
H  -9.79700 42.82900 39.95700
H  -15.94600 42.70900 40.68000
H  -15.67000 44.34200 41.43900
H  -15.32700 42.95700 42.34500
H  -17.05100 38.57600 41.85800
H  -16.41000 37.22900 44.45800
H  -17.91600 40.26800 43.43200
H  -16.22100 40.41200 44.01000
H  -17.25300 39.23600 44.74400
H  -17.05500 35.46800 41.97200
H  -18.10900 36.72100 42.28800
H  -18.87600 35.65700 44.12100
H  -17.17900 35.02800 44.61000
H  -18.16300 34.21800 43.35500
H  -12.77700 32.35700 44.77500
H  -13.18500 31.68700 43.11000
H  -14.26100 32.82400 43.94700
H  -8.70300 33.59000 40.45200
H  -6.42100 35.33100 44.48300
H  -6.90200 36.92600 43.93900
H  -5.85800 35.86600 42.92800

