158

Mg 41.52400 7.35900 29.55300
C  43.32200 9.08400 32.04200
C  39.02200 6.64300 31.81000
C  39.79100 5.87100 27.07300
C  44.15700 7.98200 27.39700
N  41.20300 7.86100 31.68000
C  42.14500 8.47600 32.50900
C  41.58100 8.55400 33.94600
C  40.15700 7.90700 33.80100
C  40.12000 7.41500 32.38400
C  39.80400 6.79300 34.85100
C  41.63400 9.99800 34.50600
C  40.66000 10.34900 35.57500
H  41.01100 11.41200 36.63300
N  39.73800 6.30400 29.48800
C  38.84200 6.13800 30.54600
C  37.61600 5.53300 30.06100
C  37.89600 5.19500 28.73500
C  39.20000 5.84100 28.33700
C  36.42400 5.25100 30.89700
C  37.04100 4.43900 27.71000
O  37.39600 4.17000 26.54900
C  35.70000 3.93900 28.15500
N  41.96100 6.80000 27.52600
C  41.05000 6.30900 26.67700
C  41.63900 6.14800 25.29900
C  42.88500 6.97900 25.33300
C  43.05300 7.29600 26.83300
C  41.78400 4.64800 24.82600
C  42.82900 8.31700 24.46000
C  41.93300 9.36700 25.07500
N  43.40100 8.33400 29.65300
C  44.31300 8.58500 28.64700
C  45.34100 9.43900 29.09500
C  45.06100 9.58500 30.49600
C  43.78100 8.99100 30.71600
C  46.48000 9.90300 28.27900
C  45.53500 10.16800 31.74900
O  46.55600 10.83600 31.96200
C  44.41700 9.89600 32.78800
C  44.97000 9.09500 33.98600
O  45.05500 7.90300 34.00200
O  45.20900 9.92100 34.96900
C  45.39400 9.36400 36.29900
H  38.19300 6.65600 32.52000
H  39.21900 5.50800 26.21700
H  44.93700 8.15100 26.65200
H  42.26600 7.93800 34.52900
H  39.50700 8.77500 33.91200
H  38.86500 7.05800 35.33700
H  40.51500 6.55900 35.64400
H  39.72900 5.81600 34.37400
H  41.58400 10.68400 33.66100
H  42.58600 10.12100 35.02100
H  40.53400 9.44400 36.16900
H  39.78900 10.75400 35.06100
H  36.31500 4.16800 30.96200
H  35.53700 5.77300 30.53700
H  36.45800 5.58800 31.93300
H  35.65200 3.25700 29.00400
H  35.16800 3.50700 27.30900
H  35.13000 4.81000 28.48100
H  40.90700 6.57200 24.61100
H  43.68400 6.31000 25.01400
H  41.43600 3.91800 25.55600
H  42.82100 4.42000 24.57700
H  41.13800 4.44900 23.97100
H  42.40600 7.92300 23.53600
H  43.85300 8.68900 24.50000
H  42.51700 10.27500 25.21900
H  41.52200 9.06700 26.03900
H  41.10500 9.52500 24.38400
H  46.96600 10.70400 28.83600
H  46.15500 10.31300 27.32300
H  47.24800 9.13900 28.16300
H  43.89500 10.79500 33.11600
H  45.39700 8.27600 36.36200
H  44.62800 9.66500 37.01400
H  46.38000 9.64100 36.67400
Mg 16.06100 51.99100 25.90100
C  18.20400 50.75300 28.42000
C  13.62800 52.46500 28.39000
C  14.03900 52.62500 23.49000
C  18.52600 50.94900 23.60500
N  15.93500 51.60500 28.07700
C  16.96700 51.18100 28.90000
C  16.56400 51.49700 30.37000
C  15.04700 51.85000 30.36900
C  14.88600 52.03200 28.84300
C  14.09500 50.67600 30.77900
C  17.39300 52.64100 31.10700
C  17.54800 52.68800 32.66700
H  16.81000 51.53900 33.42100
N  14.12500 52.66400 25.94000
C  13.27200 52.79900 27.01900
C  11.96100 53.28200 26.57500
C  12.02800 53.29100 25.16000
C  13.41400 52.89300 24.76400
C  10.82000 53.60500 27.46400
C  10.90600 53.60000 24.12400
O  11.12400 53.67000 22.93900
C  9.42000 53.88100 24.55300
N  16.30800 51.89300 23.83300
C  15.30200 52.23900 23.06700
C  15.58000 52.20000 21.54700
C  17.14400 51.79400 21.59800
C  17.37800 51.46400 23.04700
C  14.66600 51.21800 20.80200
C  18.08800 52.90300 21.04400
C  19.24700 52.41100 20.18000
N  17.99300 51.09600 25.92800
C  18.91100 50.72200 24.95200
C  20.13000 50.13600 25.52600
C  19.82500 50.15500 26.86200
C  18.54300 50.73700 27.03800
C  21.41000 49.63300 24.87700
C  20.38000 49.83300 28.17400
O  21.45400 49.32200 28.32500
C  19.40000 50.36000 29.21500
C  19.05000 49.18600 30.17600
O  18.51300 48.13400 29.86400
O  19.42800 49.44100 31.46300
C  19.34500 48.32400 32.48600
H  12.83200 52.70000 29.10000
H  13.40900 52.91600 22.64700
H  19.29000 50.63400 22.89000
H  16.70500 50.58600 30.95100
H  14.79900 52.77500 30.88900
H  14.74900 49.80400 30.79800
H  13.24800 50.61800 30.09500
H  13.65400 50.75100 31.77300
H  16.93800 53.56400 30.74800
H  18.39800 52.78800 30.71100
H  17.25100 53.67800 33.01200
H  18.58700 52.42700 32.86900
H  10.48000 54.63700 27.38500
H  11.03000 53.54200 28.53200
H  9.96700 52.94200 27.32100
H  8.87000 52.94800 24.67800
H  8.96000 54.50800 23.79000
H  9.41000 54.55100 25.41300
H  15.56000 53.22800 21.18500
H  17.30700 50.92400 20.96100
H  14.56300 51.60800 19.78900
H  13.66100 51.20300 21.22300
H  14.96700 50.17200 20.84600
H  18.34400 53.67500 21.77000
H  17.54700 53.45800 20.27800
H  19.25100 52.59600 19.10500
H  19.42000 51.34100 20.29200
H  20.18800 52.81100 20.55600
H  21.71800 50.29200 24.06500
H  21.28100 48.65200 24.41900
H  22.22200 49.76400 25.59200
H  19.80200 51.14000 29.86200
H  18.32900 47.93100 32.47000
H  19.48100 48.84600 33.43300
H  20.22200 47.67700 32.50400

