158

Mg 25.81500 0.15000 29.41200
C  27.57800 0.14300 32.34600
C  22.88800 0.43000 31.16400
C  24.17600 0.03600 26.51500
C  28.85300 -0.47800 27.75000
N  25.37100 0.33100 31.46800
C  26.27400 0.43300 32.55700
C  25.57700 0.91700 33.89300
C  24.04300 0.98700 33.41200
C  24.08500 0.48000 31.96500
C  22.94000 0.29400 34.34700
C  26.14100 2.26100 34.43900
C  25.32800 2.81500 35.63800
H  26.03600 2.79300 36.98200
N  23.77100 0.23500 28.94800
C  22.68200 0.33500 29.74200
C  21.45600 0.40200 29.01600
C  21.88100 0.49600 27.68800
C  23.35500 0.21900 27.67200
C  20.07600 0.54800 29.53800
C  21.03800 0.80600 26.44700
O  21.45500 0.87100 25.25900
C  19.60300 1.06200 26.62100
N  26.44200 -0.30200 27.37000
C  25.51400 -0.20300 26.36300
C  26.28600 -0.34700 25.07100
C  27.75300 -0.25400 25.42900
C  27.69600 -0.44500 26.93600
C  25.83600 -1.66700 24.47200
C  28.33500 1.22000 24.95500
C  29.88700 1.28100 24.75700
N  27.74900 -0.32900 29.93300
C  28.85100 -0.54600 29.12600
C  30.03400 -0.75600 29.95200
C  29.57700 -0.48000 31.25300
C  28.22000 -0.13200 31.17000
C  31.36300 -1.16300 29.47600
C  29.91900 -0.33000 32.67100
O  30.93400 -0.60100 33.29600
C  28.66500 0.09200 33.38300
C  28.39700 -0.99300 34.33100
O  27.63300 -1.92400 34.11600
O  29.09700 -0.76800 35.46000
C  28.91200 -1.66700 36.60100
H  21.96400 0.60900 31.71800
H  23.68200 -0.05600 25.54500
H  29.81400 -0.51100 27.23300
H  25.51500 0.16700 34.68100
H  23.81900 2.05100 33.33200
H  22.30300 1.08500 34.74200
H  23.34400 -0.30000 35.16700
H  22.37200 -0.43400 33.76800
H  26.31400 2.91100 33.58100
H  27.13100 2.00300 34.81600
H  24.35900 2.32300 35.72500
H  25.09200 3.86100 35.44200
H  19.37900 -0.22600 29.22000
H  19.59500 1.50900 29.35400
H  20.16800 0.47000 30.62200
H  18.98800 1.13200 25.72500
H  19.55600 2.06300 27.05000
H  19.14400 0.27100 27.21500
H  25.93900 0.55500 24.56600
H  28.39100 -1.05300 25.05100
H  26.60500 -2.41900 24.30000
H  25.26400 -1.47400 23.56400
H  25.09600 -2.13200 25.12300
H  27.98400 2.06700 25.54400
H  27.85500 1.49000 24.01500
H  30.13300 1.32900 23.69700
H  30.39300 0.42400 25.20200
H  30.35700 2.13700 25.24200
H  31.65400 -2.20900 29.57700
H  32.07100 -0.69600 30.16100
H  31.62800 -0.81000 28.48000
H  28.74500 1.07800 33.84000
H  29.16400 -1.13700 37.52000
H  29.62500 -2.49200 36.60400
H  27.90600 -2.07800 36.67800
Mg 6.85100 53.21300 42.02900
C  6.25200 49.66000 41.54500
C  10.06000 52.62000 40.71200
C  7.36100 56.48200 41.81500
C  3.47300 53.51800 42.48500
N  7.94700 51.28100 41.02400
C  7.56800 49.96000 41.17500
C  8.78200 49.11200 40.73200
C  9.92500 50.04800 40.62500
C  9.33600 51.42000 40.91000
C  11.13400 49.76500 41.56500
C  8.67900 48.09200 39.60100
C  8.67100 48.65300 38.21200
H  7.35100 48.49800 37.54100
N  8.54400 54.35000 41.47000
C  9.76600 53.96800 40.98000
C  10.65400 55.16000 40.88000
C  9.87500 56.23100 41.34600
C  8.49500 55.71900 41.49900
C  12.11700 55.02300 40.51100
C  10.40300 57.59500 41.60000
O  11.55500 57.83200 41.46100
C  9.62100 58.78100 42.08100
N  5.59000 54.74100 42.04300
C  6.09000 56.01000 42.12600
C  5.04000 56.94400 42.61600
C  3.75200 56.00600 42.63200
C  4.29000 54.65600 42.43000
C  5.21300 57.80300 43.94200
C  2.65400 56.41900 41.63100
C  2.47800 55.58700 40.34600
N  5.17000 51.90200 42.11100
C  3.89800 52.20300 42.39200
C  3.07300 51.08200 42.48600
C  3.99000 50.03800 42.25700
C  5.23000 50.61800 41.98100
C  1.57800 51.01000 42.80800
C  4.15300 48.61900 42.22200
O  3.29900 47.80200 42.60100
C  5.60500 48.22900 41.76100
C  5.23100 47.57500 40.43800
O  4.62200 48.07500 39.48000
O  5.66200 46.26700 40.37900
C  5.14900 45.24400 39.42100
H  11.08100 52.44700 40.36700
H  7.64600 57.51800 42.01100
H  2.45000 53.72100 42.80800
H  8.80800 48.59600 41.69200
H  10.37000 50.01100 39.63100
H  10.65200 49.28200 42.41500
H  11.49800 50.72100 41.94000
H  11.97100 49.29100 41.05300
H  7.76000 47.51100 39.68000
H  9.60100 47.55000 39.81200
H  9.26100 47.98500 37.58400
H  8.78800 49.73500 38.15000
H  12.65800 54.94300 41.45400
H  12.36000 55.94400 39.98200
H  12.42600 54.24700 39.81000
H  8.98000 59.12500 41.26900
H  10.32500 59.58500 42.29200
H  9.10600 58.49700 42.99900
H  5.02000 57.67600 41.80800
H  3.19000 56.17200 43.55100
H  6.23200 58.00700 44.27000
H  4.54300 57.39200 44.69600
H  4.88800 58.83900 43.84000
H  2.78200 57.45700 41.32600
H  1.78300 56.28700 42.27300
H  3.44500 55.17700 40.05700
H  2.12000 56.18300 39.50600
H  1.79200 54.75500 40.50500
H  1.17300 50.81300 41.81600
H  1.24500 51.97200 43.20000
H  1.29400 50.17300 43.44500
H  6.08700 47.45500 42.35800
H  4.95300 45.62500 38.41900
H  4.25500 44.82900 39.88600
H  5.89000 44.44600 39.37700

