158

Mg 42.40400 42.19100 26.93900
C  41.55000 44.54200 29.53600
C  43.59100 40.04500 29.53000
C  43.81000 40.27800 24.69200
C  41.58200 44.63000 24.65400
N  42.55900 42.28500 29.36500
C  42.03800 43.29000 30.12100
C  42.00800 42.86700 31.64700
C  42.82600 41.51700 31.55300
C  42.98200 41.21800 30.06700
C  44.30300 41.38900 32.14000
C  40.58100 42.78300 32.13900
C  40.20200 43.33500 33.52600
H  41.23300 43.58600 34.59900
N  43.43300 40.31900 27.03600
C  43.75700 39.59600 28.17800
C  44.36000 38.33500 27.83200
C  44.30200 38.30800 26.40700
C  43.83600 39.66800 25.98300
C  44.96500 37.40700 28.82300
C  44.62900 37.25600 25.45300
O  44.37500 37.36600 24.23100
C  44.95900 35.85000 26.01300
N  42.64500 42.34900 25.01700
C  43.25800 41.44700 24.24200
C  43.18700 41.82500 22.75800
C  42.36000 43.12300 22.73400
C  42.19500 43.42800 24.20900
C  44.60500 41.94400 22.12900
C  41.08400 43.09900 21.90300
C  39.80100 42.57300 22.52100
N  41.84400 44.21100 26.96700
C  41.48900 45.08300 25.96400
C  41.02000 46.33300 26.50800
C  41.00100 46.14200 27.92200
C  41.55800 44.89700 28.16900
C  40.55500 47.61800 25.67500
C  40.55600 46.78800 29.20000
O  39.95000 47.86300 29.39000
C  40.98400 45.72200 30.30900
C  42.00400 46.41000 31.13300
O  43.15900 46.69800 30.75300
O  41.52800 46.52000 32.40900
C  42.37100 47.26300 33.31800
H  43.74500 39.31600 30.32900
H  44.26100 39.67600 23.90100
H  41.21800 45.30100 23.87400
H  42.59100 43.61700 32.18200
H  42.28100 40.64000 31.90400
H  44.44600 42.11400 32.94100
H  45.10900 41.56700 31.43000
H  44.47800 40.37900 32.51100
H  40.24800 41.74700 32.20000
H  40.01800 43.24600 31.32800
H  39.46200 42.64200 33.92600
H  39.69200 44.28500 33.36500
H  45.22300 37.71900 29.83500
H  45.83200 37.03500 28.27600
H  44.23300 36.64600 29.09100
H  44.71500 35.20500 25.16900
H  44.33700 35.47300 26.82500
H  46.00400 35.75100 26.30600
H  42.66000 41.00100 22.27900
H  42.92000 44.00700 22.42900
H  44.60300 41.48900 21.13800
H  45.37500 41.44400 22.71500
H  44.87900 42.99100 21.99900
H  41.37500 42.43900 21.08600
H  40.89200 44.09100 21.49600
H  39.10500 42.32000 21.72000
H  39.27200 43.35100 23.07000
H  40.03200 41.74700 23.19300
H  39.63800 48.03100 26.09600
H  40.48600 47.37800 24.61400
H  41.39600 48.27900 25.88200
H  40.09400 45.57500 30.92000
H  41.70600 47.89300 33.90900
H  42.96000 48.08800 32.91600
H  42.95800 46.59700 33.94900
Mg -2.68100 33.70600 26.09400
C  -4.44000 32.15600 28.77700
C  -1.32800 35.93300 28.55400
C  -1.52400 35.66500 23.75600
C  -4.29900 31.66400 23.92700
N  -2.90900 34.00800 28.42500
C  -3.58200 33.19500 29.26400
C  -3.41200 33.57900 30.73200
C  -2.53300 34.92300 30.57000
C  -2.19900 34.98000 29.08100
C  -3.12100 36.20800 31.20300
C  -2.77300 32.40900 31.57000
C  -3.58600 31.76500 32.64700
H  -2.91100 31.87900 34.01200
N  -1.45200 35.46200 26.08500
C  -1.01100 36.21600 27.17700
C  -0.15200 37.35200 26.72000
C  -0.18700 37.25100 25.28900
C  -1.04500 36.07600 24.95500
C  0.35200 38.42400 27.68100
C  0.53000 38.06600 24.18600
O  0.61500 37.84500 22.97100
C  1.40600 39.20500 24.69000
N  -3.08300 33.78100 24.10400
C  -2.36300 34.63800 23.32100
C  -2.51000 34.29000 21.84100
C  -3.02800 32.86000 21.99100
C  -3.53900 32.73900 23.43300
C  -3.41900 35.30600 21.07400
C  -1.89400 31.75600 21.62000
C  -1.19600 30.86800 22.62000
N  -4.07700 32.18600 26.28700
C  -4.65900 31.41800 25.27300
C  -5.45100 30.34100 25.78100
C  -5.45100 30.58300 27.17900
C  -4.57400 31.74200 27.44400
C  -6.20100 29.32100 25.08100
C  -5.86700 30.15400 28.44900
O  -6.47900 29.12900 28.70300
C  -5.25000 31.14700 29.56200
C  -6.40300 31.63700 30.29200
O  -7.20800 32.44600 29.81700
O  -6.46200 31.02000 31.59700
C  -7.59600 31.15300 32.45400
H  -0.66300 36.49500 29.21400
H  -1.16800 36.22400 22.88800
H  -4.79100 30.90100 23.31900
H  -4.41000 33.79000 31.11700
H  -1.57600 34.71900 31.05000
H  -2.41400 36.60300 31.93300
H  -3.98500 35.99800 31.83300
H  -3.31600 36.96500 30.44300
H  -1.81500 32.72800 31.98200
H  -2.47700 31.57900 30.92900
H  -3.83500 30.74200 32.36700
H  -4.63700 32.05300 32.64600
H  1.35600 38.77300 27.43600
H  0.25500 38.31300 28.76100
H  -0.27100 39.24700 27.33200
H  0.72800 39.89800 25.18800
H  1.99500 39.71100 23.92600
H  2.07900 38.77700 25.43400
H  -1.54300 34.41000 21.35200
H  -3.85500 32.71000 21.29800
H  -3.47400 36.16800 21.73900
H  -4.42300 34.90100 20.94800
H  -2.92200 35.73200 20.20200
H  -1.10000 32.33100 21.14400
H  -2.21300 31.10300 20.80800
H  -1.82300 30.95500 23.50800
H  -0.16000 31.12600 22.83700
H  -1.26000 29.83800 22.27000
H  -5.47700 29.13600 24.28800
H  -7.08200 29.77800 24.63100
H  -6.40100 28.40200 25.63200
H  -4.64900 30.54000 30.23900
H  -7.25600 31.76000 33.29300
H  -8.06300 30.30500 32.95500
H  -8.40200 31.79300 32.09500

