158

Mg 8.73500 3.41000 28.21700
C  9.94900 1.86800 31.10200
C  7.03500 5.61600 30.03200
C  7.26100 4.39100 25.30600
C  10.01300 0.54600 26.37300
N  8.66100 3.78200 30.37200
C  9.17700 3.06400 31.37500
C  8.81600 3.56200 32.77700
C  7.61900 4.57900 32.37700
C  7.81900 4.74900 30.87100
C  6.08200 4.18600 32.76300
C  10.03100 4.29700 33.53500
C  10.41600 3.82100 35.07100
H  9.26700 3.70600 36.03100
N  7.43700 4.84300 27.69900
C  6.88000 5.71700 28.62700
C  6.06600 6.74100 27.93100
C  6.07200 6.37900 26.56200
C  6.98100 5.15400 26.46900
C  5.31400 7.79700 28.74200
C  5.39700 7.08000 25.43900
O  5.40600 6.71500 24.28800
C  4.71000 8.32900 25.71100
N  8.46700 2.46900 26.10400
C  8.00000 3.26200 25.13200
C  8.49200 2.70000 23.72900
C  9.29800 1.36200 24.10900
C  9.18800 1.40700 25.63500
C  7.47500 2.74200 22.58300
C  10.73400 1.22400 23.46500
C  11.08100 -0.19800 23.01900
N  9.93200 1.66300 28.62700
C  10.35800 0.60200 27.77300
C  11.14900 -0.34800 28.52600
C  11.02500 0.08300 29.88900
C  10.21100 1.28300 29.83300
C  11.84000 -1.52400 28.00400
C  11.30300 -0.23900 31.27900
O  12.01600 -1.06800 31.80500
C  10.52800 0.84900 32.10200
C  9.49900 0.17700 32.89600
O  8.65000 -0.61300 32.47700
O  9.72200 0.41000 34.21700
C  8.91300 -0.24500 35.28900
H  6.47300 6.27400 30.69800
H  6.83900 4.83000 24.40000
H  10.52500 -0.27600 25.86700
H  8.43200 2.77500 33.42500
H  7.75700 5.55600 32.83900
H  5.62500 4.72700 33.59100
H  6.14200 3.12100 32.98900
H  5.33600 4.26300 31.97200
H  9.80800 5.36100 33.61300
H  10.92900 4.06800 32.96100
H  11.03500 4.63800 35.44300
H  11.03500 2.92300 35.06000
H  5.81200 8.73200 28.48400
H  5.37200 7.76400 29.83000
H  4.28300 7.69400 28.40200
H  5.41000 9.01700 26.18500
H  3.84800 8.15500 26.35400
H  4.32900 8.76300 24.78700
H  9.34400 3.35500 23.55000
H  8.69800 0.51100 23.78700
H  6.56400 3.12200 23.04500
H  7.33700 1.78700 22.07700
H  7.69400 3.57100 21.91000
H  11.56400 1.52200 24.10600
H  10.81000 1.91300 22.62300
H  12.01300 -0.06100 22.47100
H  10.23900 -0.50200 22.39700
H  11.15200 -0.85400 23.88600
H  12.69300 -1.20100 27.40600
H  11.20300 -2.24000 27.48400
H  12.30600 -1.96000 28.88700
H  11.25900 1.32600 32.75500
H  9.47300 -1.00400 35.83500
H  8.00100 -0.69300 34.89400
H  8.51400 0.50500 35.97200
Mg 53.74900 23.02800 45.62400
C  51.41400 25.47800 44.58500
C  51.66500 20.66300 44.35900
C  56.46300 20.75200 45.72600
C  56.06600 25.58300 46.17900
N  51.84300 23.21500 44.49200
C  50.96800 24.26700 44.29400
C  49.60600 23.83200 43.78400
C  49.66800 22.24600 44.08300
C  51.21200 22.01800 44.17300
C  48.98200 21.81900 45.42400
C  49.32500 24.23900 42.31800
C  48.29200 23.41600 41.61800
H  47.71500 23.71900 40.22800
N  54.01100 20.98400 45.23000
C  52.95800 20.18100 44.79500
C  53.46200 18.85400 44.91800
C  54.74100 18.77500 45.44000
C  55.15100 20.24700 45.48800
C  52.53300 17.79700 44.43800
C  55.63500 17.62900 45.83000
O  55.21100 16.49500 45.64200
C  56.91000 17.73400 46.47100
N  55.98100 23.15700 45.68800
C  56.87700 22.10000 45.78900
C  58.26900 22.59900 45.94600
C  58.07400 24.20900 46.12700
C  56.58300 24.31900 45.98000
C  58.86500 21.99900 47.17900
C  59.06800 24.99400 45.22800
C  59.81400 26.16800 46.02400
N  53.71800 25.05300 45.60000
C  54.67000 25.95000 45.97300
C  54.15400 27.27400 45.91600
C  52.83200 27.13700 45.40600
C  52.62400 25.80800 45.09700
C  54.85000 28.53400 46.18400
C  51.66600 27.87700 44.96700
O  51.41900 29.04000 45.02700
C  50.77700 26.81400 44.32200
C  50.68700 27.16200 42.83500
O  51.59600 27.05100 42.07700
O  49.44800 27.68000 42.57300
C  48.92800 27.91400 41.13900
H  50.85300 19.98200 44.09500
H  57.29300 20.05000 45.62500
H  56.82000 26.36400 46.29800
H  48.82300 24.28000 44.39500
H  49.19600 21.60600 43.33800
H  49.74300 21.34700 46.04600
H  48.29200 21.01200 45.17700
H  48.49600 22.65700 45.92300
H  50.25700 24.48600 41.80800
H  48.80900 25.19700 42.37700
H  47.52300 23.30200 42.38300
H  48.86000 22.50300 41.43800
H  52.91100 16.77800 44.53100
H  52.33700 17.92500 43.37400
H  51.62900 17.85000 45.04500
H  56.90300 18.51900 47.22700
H  57.69300 18.04600 45.78000
H  57.17500 16.81300 46.99200
H  58.84300 22.43800 45.03300
H  58.22000 24.39000 47.19200
H  58.20200 21.30900 47.70200
H  59.20700 22.73000 47.91200
H  59.75200 21.43500 46.89000
H  58.67000 25.53000 44.36600
H  59.80300 24.29800 44.82400
H  59.13600 27.01000 45.89100
H  60.83200 26.31600 45.66100
H  59.79000 25.96200 47.09400
H  55.71000 28.81500 45.57600
H  55.25400 28.44300 47.19200
H  54.13400 29.35200 46.09000
H  49.77300 26.88100 44.74100
H  47.85300 27.74500 41.20700
H  49.34200 27.26500 40.36700
H  49.14100 28.94500 40.85800

