158

Mg 43.15000 41.94500 26.19600
C  42.22100 44.30000 28.74000
C  44.40000 39.93400 28.71100
C  44.20400 39.94000 23.87400
C  42.41300 44.42400 23.82500
N  43.28400 42.13100 28.53100
C  42.78500 43.12900 29.33300
C  42.74700 42.79300 30.84300
C  43.68500 41.54600 30.75100
C  43.87400 41.17800 29.25100
C  45.04000 41.70500 31.49800
C  41.31100 42.58000 31.52700
C  40.94200 43.41900 32.80000
H  41.87500 43.62000 33.92600
N  44.00800 40.10400 26.27900
C  44.53300 39.44500 27.39800
C  45.11800 38.14300 26.95100
C  44.83900 38.06600 25.55000
C  44.31400 39.33900 25.18000
C  45.82100 37.29200 27.96000
C  44.92700 36.93400 24.64300
O  44.68900 36.97300 23.45500
C  45.33100 35.59900 25.20500
N  43.46000 42.29700 24.18400
C  43.71700 41.21100 23.43100
C  43.41500 41.37100 21.92500
C  42.90600 42.81400 21.92400
C  43.02900 43.27900 23.37100
C  44.68800 41.28500 20.97600
C  41.52100 42.95000 21.37100
C  40.51700 42.13500 22.07300
N  42.46800 44.00000 26.18500
C  42.25200 44.84400 25.14600
C  41.73500 46.11800 25.70300
C  41.60500 45.94500 27.10700
C  42.15700 44.64000 27.38000
C  41.49900 47.42900 24.82900
C  41.21500 46.56400 28.36100
O  40.73500 47.67200 28.56000
C  41.66600 45.53100 29.49400
C  42.63300 46.15400 30.42100
O  43.82300 46.21800 30.21800
O  42.02100 46.76100 31.45100
C  42.82100 47.57700 32.42800
H  44.65700 39.18700 29.46400
H  44.57700 39.25700 23.10800
H  42.38300 45.25900 23.12300
H  43.40900 43.48400 31.36500
H  43.26700 40.63100 31.16900
H  44.74200 41.97800 32.51100
H  45.64800 42.48500 31.04100
H  45.70800 40.84600 31.44000
H  41.25600 41.52400 31.79000
H  40.61100 42.72800 30.70400
H  40.01200 42.93300 33.09900
H  40.72400 44.42400 32.43800
H  45.09800 36.63600 28.44500
H  46.33200 37.82300 28.76400
H  46.59000 36.65300 27.52700
H  46.39200 35.58300 25.45500
H  45.14700 34.80600 24.48000
H  44.69100 35.36000 26.05500
H  42.74200 40.57200 21.61600
H  43.66100 43.41200 21.41400
H  44.61600 41.72300 19.98100
H  44.92900 40.22600 20.88200
H  45.61700 41.71500 21.35100
H  41.55200 42.55100 20.35700
H  41.14600 43.96700 21.25400
H  40.93500 41.69200 22.97700
H  40.26800 41.33600 21.37500
H  39.62300 42.69600 22.34300
H  41.37700 47.10500 23.79600
H  42.37600 48.07600 24.84800
H  40.58000 47.91600 25.15600
H  40.76400 45.26000 30.04200
H  43.16200 47.00500 33.29100
H  42.19200 48.30900 32.93600
H  43.66700 48.07900 31.96100
Mg 27.25100 50.13500 27.19100
C  25.13700 51.04900 29.79600
C  29.55800 49.19300 29.61200
C  29.47900 49.83600 24.73500
C  24.98200 51.59900 24.89900
N  27.31000 49.97500 29.34500
C  26.26100 50.42200 30.18200
C  26.59100 50.13100 31.64000
C  28.10900 49.74400 31.60900
C  28.35600 49.62800 30.11100
C  29.06000 50.77600 32.25300
C  25.60300 49.03600 32.26400
C  25.00100 49.27400 33.63700
H  25.32900 48.29700 34.81400
N  29.25600 49.62100 27.15600
C  29.98500 49.15100 28.23100
C  31.31600 48.72200 27.72300
C  31.30500 48.88500 26.35100
C  30.01400 49.51400 26.02100
C  32.33800 48.05500 28.68300
C  32.43400 48.59300 25.35000
O  32.35900 48.95300 24.20000
C  33.66300 47.96200 25.85100
N  27.26000 50.67300 25.12300
C  28.28600 50.37000 24.32100
C  28.02700 50.76000 22.84200
C  26.44400 51.08200 22.86800
C  26.21900 51.12700 24.40500
C  28.81500 51.97900 22.34200
C  25.58000 49.96500 22.12600
C  24.27300 50.49800 21.43200
N  25.41600 50.90700 27.30800
C  24.64800 51.57500 26.28600
C  23.46500 52.14500 26.93900
C  23.61700 51.99600 28.33400
C  24.79500 51.22600 28.50300
C  22.36800 52.83200 26.12400
C  23.04300 52.39800 29.56400
O  22.00600 53.00300 29.86700
C  23.98800 51.64500 30.60700
C  24.51800 52.72500 31.45400
O  25.51800 53.32600 31.24200
O  23.69100 52.81500 32.56400
C  23.99300 53.95100 33.42800
H  30.18900 48.83500 30.42800
H  30.24300 49.76000 23.95800
H  24.26400 51.93700 24.14900
H  26.42200 51.04000 32.21600
H  28.21000 48.83300 32.19900
H  28.52400 51.58100 32.75600
H  29.61000 51.24100 31.43500
H  29.62600 50.21900 33.00000
H  26.13700 48.08800 32.33000
H  24.88500 48.83800 31.46800
H  23.92700 49.18400 33.47500
H  25.14300 50.30200 33.97300
H  32.47000 46.99100 28.48600
H  32.13700 48.10100 29.75300
H  33.24800 48.64400 28.57000
H  34.37100 47.70700 25.06200
H  33.49900 46.98100 26.29900
H  34.13200 48.59100 26.60800
H  28.24300 49.85600 22.27200
H  26.24400 52.07500 22.46500
H  28.93500 52.59900 23.23000
H  28.39000 52.52700 21.50100
H  29.78700 51.62800 21.99500
H  25.15000 49.29700 22.87300
H  26.20700 49.41000 21.42900
H  24.09800 51.49800 21.82900
H  23.45300 49.80700 21.62700
H  24.39800 50.61000 20.35500
H  21.49000 52.88200 26.76800
H  22.12700 52.26500 25.22500
H  22.71200 53.83700 25.88000
H  23.55000 51.01900 31.38400
H  24.58800 53.60600 34.27400
H  23.06300 54.29000 33.88200
H  24.35100 54.84900 32.92300

