158

Mg 55.33800 24.24500 44.98700
C  52.62100 26.11000 44.05100
C  53.84900 21.44500 43.59800
C  58.19100 22.56300 45.55000
C  56.81400 27.23900 46.27300
N  53.51500 23.83300 43.95700
C  52.58900 24.79100 43.60600
C  51.50900 24.11300 42.73000
C  51.57300 22.62800 43.28300
C  53.07300 22.62000 43.58100
C  50.66800 22.38200 44.48800
C  51.83300 24.18600 41.26300
C  50.68200 24.45000 40.21400
H  50.54600 23.46700 39.05000
N  55.87200 22.26700 44.63700
C  55.15400 21.26200 44.13000
C  55.85700 19.99400 44.20900
C  57.12400 20.30100 44.71300
C  57.10500 21.76000 45.03500
C  55.23800 18.65800 43.80400
C  58.20200 19.18300 44.94800
O  57.87500 17.99300 44.87900
C  59.71000 19.46900 45.38400
N  57.26800 24.87400 45.71100
C  58.29400 23.98900 45.77500
C  59.51100 24.73800 46.23500
C  59.15800 26.25900 46.49300
C  57.69500 26.19600 46.03200
C  60.31500 24.06700 47.37100
C  59.99500 27.33200 45.68400
C  60.40500 28.63000 46.49500
N  54.78400 26.23300 45.35200
C  55.48800 27.32500 45.88800
C  54.57500 28.45000 46.00100
C  53.43400 28.09100 45.24300
C  53.59300 26.71300 44.87600
C  54.87000 29.68300 46.74700
C  52.16400 28.49100 44.65500
O  51.64300 29.59100 44.71600
C  51.59300 27.22600 43.86800
C  51.48900 27.69500 42.45200
O  52.26200 28.44600 41.87900
O  50.25600 27.31900 41.96700
C  49.65200 27.92800 40.80100
H  53.30600 20.53700 43.33000
H  59.08900 21.95600 45.68200
H  57.11300 28.13700 46.81600
H  50.57500 24.57700 43.04600
H  51.26100 21.97700 42.46700
H  50.00100 23.19500 44.77300
H  51.24200 22.14100 45.38300
H  50.10000 21.47400 44.28700
H  52.36400 23.26400 41.02700
H  52.57000 24.98900 41.23000
H  51.06300 25.40200 39.84400
H  49.75500 24.62200 40.76000
H  55.76300 18.20300 42.96400
H  54.16900 18.56200 43.61300
H  55.43200 17.96700 44.62400
H  60.27800 20.18500 44.78900
H  60.22000 18.50900 45.46800
H  59.71700 19.85900 46.40100
H  60.14600 24.75400 45.35000
H  59.26700 26.36700 47.57300
H  59.70900 23.20800 47.66000
H  60.37700 24.77000 48.20100
H  61.27500 23.81800 46.91900
H  59.28400 27.62500 44.91200
H  60.82200 26.81800 45.19500
H  61.30700 29.13700 46.15500
H  60.42100 28.40700 47.56200
H  59.66900 29.43300 46.47200
H  54.11000 30.42100 46.49100
H  55.88400 29.94700 46.44800
H  54.94900 29.38100 47.79100
H  50.66100 26.91600 44.34000
H  50.43000 28.12200 40.06200
H  49.17900 28.87100 41.07600
H  48.89100 27.24400 40.42600
Mg 48.38500 15.57600 27.11800
C  46.80100 15.65400 30.33500
C  50.93800 17.52200 28.59900
C  49.69700 15.77400 24.23300
C  45.57200 13.87000 25.97200
N  48.83100 16.36900 29.22300
C  48.10900 16.24500 30.37100
C  48.85200 16.83000 31.54800
C  49.98900 17.67000 30.91500
C  49.93200 17.16100 29.45800
C  49.81400 19.21600 30.89600
C  49.37200 15.71800 32.47300
C  49.22900 16.10600 34.07100
H  48.99400 17.52800 34.52500
N  50.14800 16.51200 26.47500
C  51.08000 17.20600 27.18400
C  52.16600 17.50500 26.24700
C  51.69500 17.16700 24.95100
C  50.49800 16.39200 25.16800
C  53.33100 18.38300 26.78100
C  52.17300 17.53700 23.62700
O  51.72200 17.13000 22.56700
C  53.31600 18.46700 23.56700
N  47.64400 15.19200 25.34200
C  48.46600 15.15100 24.26400
C  47.79000 14.68000 23.00800
C  46.50000 14.11600 23.60000
C  46.61500 14.34000 25.07600
C  47.52900 15.76100 21.91800
C  46.21900 12.59000 23.26800
C  44.95400 12.39500 22.45600
N  46.50500 14.98200 27.93100
C  45.54600 14.23600 27.34800
C  44.41000 13.99400 28.24900
C  44.93200 14.40000 29.46500
C  46.21000 15.07000 29.21000
C  43.14800 13.24900 27.92000
C  44.59500 14.53100 30.90900
O  43.55400 14.15100 31.49100
C  45.80800 15.36600 31.54000
C  45.26700 16.62300 32.25600
O  44.98800 17.70200 31.77600
O  44.90800 16.33900 33.50300
C  43.75800 17.11900 33.98900
H  51.60100 18.25700 29.06000
H  50.12100 15.64200 23.23500
H  44.80100 13.18200 25.61700
H  48.13100 17.44300 32.08800
H  50.98500 17.50100 31.32400
H  48.85100 19.51700 31.30900
H  49.82200 19.74100 29.94000
H  50.63600 19.63600 31.47400
H  50.43200 15.50400 32.33300
H  48.81600 14.84200 32.13900
H  50.16300 15.80600 34.54600
H  48.46900 15.49300 34.55500
H  53.21200 19.46500 26.72600
H  54.26200 18.14100 26.26800
H  53.43900 18.20600 27.85200
H  53.22600 19.42100 24.08600
H  53.43800 18.68800 22.50700
H  54.17200 17.95500 24.00800
H  48.33800 13.82700 22.60900
H  45.62200 14.74300 23.44400
H  48.00900 16.71200 22.15200
H  46.47000 15.94600 21.74100
H  47.89700 15.33900 20.98300
H  45.99100 12.07600 24.20200
H  47.08400 12.19600 22.73500
H  45.16400 11.85500 21.53300
H  44.68300 13.39200 22.11100
H  44.07800 12.11900 23.04500
H  43.45600 12.45200 27.24400
H  42.44400 13.95800 27.48400
H  42.79000 12.84600 28.86700
H  46.18400 14.64700 32.26700
H  43.29000 16.61500 34.83500
H  43.01200 17.20500 33.19900
H  44.13300 18.10300 34.27200

