158

Mg -1.09400 18.10700 26.81000
C  -1.64200 15.76000 29.52500
C  -1.44000 20.62400 29.25800
C  -0.59100 20.19000 24.41800
C  -0.96300 15.29000 24.75900
N  -1.39600 18.12700 29.19600
C  -1.58700 17.10400 30.03500
C  -1.77400 17.62800 31.43400
C  -1.93800 19.16100 31.19200
C  -1.46200 19.38000 29.79800
C  -3.40900 19.58500 31.50400
C  -0.64100 17.30800 32.45200
C  -1.18500 16.99000 33.85300
H  -0.07100 16.72500 34.92300
N  -0.92100 20.12600 26.87500
C  -1.11100 20.95300 27.93900
C  -0.98200 22.33800 27.38300
C  -0.66700 22.23000 25.98000
C  -0.79400 20.80100 25.68100
C  -0.93200 23.57400 28.25400
C  -0.50800 23.26900 24.89100
O  -0.33200 23.08000 23.69200
C  -0.44100 24.66800 25.41600
N  -0.72800 17.77900 24.84500
C  -0.59600 18.83700 24.01300
C  -0.58600 18.40200 22.49900
C  -0.49500 16.82000 22.64500
C  -0.74500 16.56300 24.13500
C  -1.84800 18.93400 21.72500
C  0.78000 16.22700 22.03200
C  1.94600 15.85200 22.96400
N  -1.30900 16.01300 27.04500
C  -1.25100 15.02800 26.05200
C  -1.58800 13.77500 26.60400
C  -1.75400 14.01600 27.93900
C  -1.54300 15.38100 28.17200
C  -1.92500 12.56600 25.74100
C  -2.04300 13.34900 29.21600
O  -2.27200 12.21300 29.45100
C  -1.95400 14.48600 30.32900
C  -0.95100 14.09500 31.45800
O  0.28300 14.11900 31.42700
O  -1.60300 13.75400 32.67600
C  -0.75200 13.25000 33.68300
H  -1.75500 21.48600 29.84900
H  -0.49600 20.82700 23.53700
H  -0.89200 14.53300 23.97500
H  -2.65200 17.22100 31.93400
H  -1.29700 19.67600 31.90700
H  -3.83800 20.25400 30.75800
H  -3.41200 20.17500 32.42000
H  -4.16400 18.83000 31.72500
H  0.09600 18.09100 32.63100
H  -0.01700 16.49500 32.08300
H  -1.83100 16.12600 33.70000
H  -1.77500 17.83100 34.21700
H  0.06300 23.99800 28.38800
H  -1.33900 23.37500 29.24500
H  -1.61600 24.29200 27.79900
H  -1.36300 25.08800 25.81700
H  -0.23000 25.33900 24.58300
H  0.34100 24.73700 26.17200
H  0.34400 18.78000 22.07400
H  -1.30700 16.33300 22.10500
H  -2.34000 18.24600 21.03700
H  -1.45500 19.76200 21.13500
H  -2.64900 19.32900 22.34900
H  1.20100 16.86000 21.25100
H  0.49200 15.29200 21.55300
H  1.92100 16.52800 23.81900
H  2.85300 16.13000 22.42700
H  2.09900 14.80300 23.21800
H  -2.69000 12.78500 24.99700
H  -2.41900 11.85000 26.39800
H  -1.08700 12.05500 25.26700
H  -2.91600 14.63800 30.81800
H  -0.42500 14.13600 34.22800
H  0.14500 12.71800 33.36600
H  -1.19500 12.52500 34.36500
Mg 39.42100 9.38500 29.51700
C  41.58200 10.93200 32.03500
C  37.58000 8.13400 31.93700
C  37.81100 7.67700 27.12800
C  42.05000 10.05300 27.26100
N  39.59100 9.67100 31.65300
C  40.40600 10.38300 32.53100
C  39.91200 10.29000 33.97200
C  38.84900 9.18300 33.89700
C  38.62500 8.98300 32.40400
C  39.16600 7.90700 34.69800
C  39.38500 11.62700 34.49000
C  39.12700 11.56400 36.00700
H  40.08100 12.29000 37.03600
N  37.82200 8.19800 29.49600
C  37.14000 7.82300 30.61600
C  35.93900 7.10800 30.23500
C  35.96200 7.06700 28.82800
C  37.25500 7.61900 28.43700
C  34.94400 6.50900 31.17900
C  34.92200 6.52400 27.85400
O  34.89500 6.78700 26.68800
C  33.80400 5.69000 28.38800
N  39.85600 8.93400 27.47300
C  39.04900 8.17800 26.66600
C  39.51400 8.13300 25.18000
C  40.91500 8.94800 25.31100
C  40.93800 9.35800 26.79800
C  39.56800 6.77600 24.54300
C  40.95100 10.15900 24.30600
C  40.34700 11.57200 24.75800
N  41.47300 10.30000 29.58000
C  42.37000 10.50400 28.58300
C  43.46600 11.27400 29.03000
C  43.23300 11.50200 30.43300
C  41.99500 10.86700 30.68200
C  44.60600 11.81100 28.22100
C  43.71400 12.08100 31.71800
O  44.73100 12.73000 31.93100
C  42.62000 11.74300 32.77600
C  43.35800 11.05500 33.92000
O  43.70400 9.89100 34.01000
O  43.59200 11.96100 34.91200
C  44.00900 11.50700 36.22500
H  36.91100 7.82500 32.74200
H  37.50800 6.98300 26.34100
H  42.80700 10.23500 26.49600
H  40.68900 9.96200 34.66200
H  37.89500 9.47800 34.33300
H  39.30100 7.03800 34.05400
H  38.32600 7.70400 35.36200
H  40.08000 8.05100 35.27400
H  38.45600 11.89700 33.98800
H  40.11700 12.39000 34.22700
H  39.07900 10.52700 36.33700
H  38.16700 12.05800 36.15400
H  33.97100 7.00000 31.15200
H  35.29700 6.67400 32.19600
H  34.84600 5.42600 31.10500
H  34.22100 4.98900 29.11200
H  33.43300 5.12400 27.53400
H  33.03000 6.33000 28.81100
H  38.77400 8.73000 24.64700
H  41.77600 8.30000 25.14800
H  39.62500 6.03900 25.34400
H  40.49800 6.68300 23.98000
H  38.66100 6.72200 23.94100
H  40.38600 9.80200 23.44500
H  41.94100 10.06400 23.86100
H  39.61200 11.24000 25.49100
H  39.91100 12.02800 23.86900
H  40.98400 12.33100 25.21400
H  44.31200 12.04400 27.19800
H  45.36000 11.06100 27.98000
H  44.91700 12.74000 28.69800
H  42.26900 12.71200 33.13000
H  43.57200 10.55200 36.51500
H  43.82500 12.23100 37.01900
H  45.09200 11.39800 36.28800

