158

Mg 16.38100 -2.24200 27.64100
C  15.23100 -0.26700 30.24300
C  18.43500 -3.84800 29.78400
C  17.48300 -3.97600 24.98500
C  14.46300 -0.14500 25.50100
N  16.86900 -2.00300 29.76800
C  16.24100 -1.17200 30.62300
C  16.75100 -1.40300 32.08300
C  17.78900 -2.59900 31.89500
C  17.67600 -2.89500 30.39700
C  19.15500 -2.28100 32.34900
C  15.61600 -1.83900 33.02300
C  15.45700 -1.07800 34.31700
H  16.68600 -0.45400 34.96200
N  17.75100 -3.75000 27.47900
C  18.46600 -4.37500 28.46600
C  19.38700 -5.28800 27.89800
C  19.01100 -5.43500 26.52300
C  18.04500 -4.32100 26.27000
C  20.51300 -5.98400 28.58400
C  19.45400 -6.45800 25.44400
O  19.03000 -6.47500 24.31500
C  20.48100 -7.47900 25.84200
N  16.10400 -2.01900 25.50200
C  16.58000 -2.89200 24.60700
C  16.20600 -2.50700 23.08800
C  15.17000 -1.39900 23.30300
C  15.22400 -1.11100 24.85100
C  17.51100 -2.04900 22.35600
C  13.77300 -1.78700 22.79100
C  13.16800 -1.04200 21.59100
N  15.07900 -0.69800 27.79300
C  14.40800 0.08600 26.85200
C  13.71100 1.11100 27.47600
C  14.01100 1.00400 28.77800
C  14.81000 -0.07900 28.96700
C  12.69600 2.09200 26.81700
C  13.84600 1.71900 30.03200
O  13.20400 2.71800 30.24600
C  14.63400 0.82300 31.09300
C  15.50400 1.94300 31.53900
O  16.31700 2.52300 30.77600
O  15.23800 2.43600 32.80700
C  16.09500 3.50200 33.30200
H  19.12300 -4.41000 30.41800
H  17.79900 -4.50900 24.08600
H  13.74200 0.51300 25.01200
H  17.35500 -0.59800 32.50100
H  17.33100 -3.50900 32.28100
H  19.86600 -2.09700 31.54300
H  19.50200 -3.20000 32.82000
H  19.10400 -1.51800 33.12600
H  15.73200 -2.88000 33.32600
H  14.63700 -1.82400 32.54300
H  14.86600 -1.71700 34.97300
H  14.75700 -0.29500 34.02400
H  20.06300 -6.96300 28.75200
H  20.65700 -5.52200 29.56100
H  21.41800 -5.98600 27.97600
H  20.24200 -8.08600 26.71600
H  21.47500 -7.05400 25.98000
H  20.51500 -8.12400 24.96400
H  15.88700 -3.43500 22.61300
H  15.40600 -0.50300 22.72800
H  18.30900 -1.88300 23.08000
H  17.35000 -1.15800 21.75000
H  17.86400 -2.84800 21.70200
H  13.03100 -1.68100 23.58300
H  13.79600 -2.85900 22.59500
H  13.89200 -1.05800 20.77600
H  12.93400 -0.05900 21.99800
H  12.26600 -1.57700 21.29200
H  13.25000 2.83900 26.24800
H  11.97500 2.55200 27.49300
H  12.17100 1.49400 26.07200
H  14.04600 0.49000 31.94900
H  17.10000 3.43500 32.88600
H  16.13800 3.33700 34.37800
H  15.76300 4.51900 33.09200
Mg -11.59200 37.56100 41.88700
C  -9.48700 35.04100 40.67700
C  -9.74100 39.86600 40.05200
C  -14.17300 39.78300 42.28900
C  -13.54300 35.07200 43.24700
N  -9.83300 37.40900 40.45800
C  -9.08500 36.30800 40.21800
C  -7.92600 36.69600 39.31100
C  -7.94400 38.29200 39.25400
C  -9.28200 38.55600 40.03500
C  -6.68500 39.05900 39.73400
C  -7.97900 36.06900 37.88000
C  -6.76200 35.23300 37.50000
H  -5.72800 35.94000 36.62200
N  -11.80200 39.59600 41.43100
C  -10.92500 40.32600 40.68900
C  -11.41700 41.69100 40.55300
C  -12.64400 41.71500 41.32100
C  -12.87700 40.32600 41.81500
C  -10.78600 42.80600 39.81600
C  -13.46600 43.00600 41.57900
O  -13.03300 44.05800 41.05800
C  -14.73900 43.03000 42.41200
N  -13.56700 37.40000 42.60600
C  -14.45600 38.40800 42.69100
C  -15.90300 37.94000 43.13600
C  -15.72500 36.47000 43.40400
C  -14.15900 36.29800 43.07300
C  -16.44900 38.75100 44.35000
C  -16.53100 35.56100 42.44100
C  -17.60000 34.54400 42.91000
N  -11.43500 35.48800 42.18200
C  -12.28200 34.63600 42.78500
C  -11.67400 33.30300 42.77500
C  -10.51400 33.45000 42.02800
C  -10.46500 34.75400 41.58000
C  -12.29800 32.10700 43.42800
C  -9.39800 32.74600 41.37400
O  -9.08000 31.56400 41.44300
C  -8.70100 33.79200 40.54600
C  -7.24700 33.82200 41.04900
O  -6.43600 32.95300 40.78100
O  -7.05400 34.95700 41.77400
C  -5.79900 35.10900 42.53400
H  -9.09400 40.55300 39.50400
H  -14.98400 40.51300 42.33800
H  -14.18600 34.30000 43.67400
H  -6.98900 36.40000 39.78200
H  -8.06900 38.66300 38.23700
H  -6.91800 39.52700 40.69000
H  -6.38800 39.92000 39.13700
H  -5.90900 38.33300 39.97500
H  -8.11100 36.86200 37.14400
H  -8.92600 35.57000 37.67900
H  -6.95600 34.22200 37.14200
H  -6.31300 35.02700 38.47200
H  -9.93300 42.59700 39.17000
H  -10.37200 43.49700 40.55100
H  -11.47000 43.37400 39.18600
H  -15.02500 44.00200 42.81300
H  -14.66100 42.37900 43.28300
H  -15.57000 42.64700 41.82000
H  -16.52600 38.17400 42.27200
H  -15.93100 36.21100 44.44300
H  -15.60600 38.88300 45.02800
H  -17.27300 38.16500 44.75600
H  -16.83500 39.74400 44.12100
H  -15.89400 34.82400 41.95100
H  -16.99100 36.18500 41.67600
H  -18.54500 35.01600 43.17700
H  -17.13600 34.22500 43.84300
H  -17.71600 33.72400 42.20100
H  -12.82100 31.50800 42.68300
H  -13.02400 32.46400 44.15900
H  -11.38500 31.71000 43.87200
H  -8.66200 33.44000 39.51500
H  -6.12400 35.66100 43.41600
H  -4.99400 35.70300 42.10100
H  -5.30400 34.24300 42.97500

