158

Mg 1.94000 -1.04400 43.68400
C  5.44800 -0.54200 43.47200
C  1.48100 1.87800 42.06300
C  -1.04600 -2.17300 43.05100
C  2.84500 -4.45800 44.89300
N  3.29000 0.48000 42.84100
C  4.66100 0.49000 42.91900
C  5.13000 1.76300 42.23000
C  3.91800 2.61900 41.95600
C  2.77200 1.64800 42.27800
C  3.94900 3.91500 42.80300
C  5.86600 1.30700 40.84800
C  7.23100 1.94800 40.61200
H  7.23700 3.07300 39.62400
N  0.38700 -0.23100 42.79100
C  0.31900 1.00300 42.20800
C  -0.93200 1.20200 41.72500
C  -1.73400 0.09300 42.20600
C  -0.82200 -0.89600 42.63400
C  -1.36700 2.43000 40.97200
C  -3.29900 0.06300 42.06400
O  -3.90800 1.07000 41.62900
C  -4.07100 -1.13100 42.54200
N  1.06300 -3.04300 44.07300
C  -0.25900 -3.14900 43.70400
C  -0.83500 -4.60200 44.10000
C  0.43700 -5.41100 44.57100
C  1.52800 -4.22900 44.49100
C  -1.96000 -4.54900 45.15800
C  0.77700 -6.68400 43.74300
C  1.33400 -7.91500 44.50500
N  3.71500 -2.23700 44.24500
C  3.91200 -3.50500 44.77200
C  5.34700 -3.66600 45.06800
C  5.93600 -2.51700 44.66500
C  4.90900 -1.70000 44.08400
C  5.99400 -4.87400 45.71600
C  7.22100 -1.75900 44.64300
O  8.28000 -1.90300 45.20100
C  6.94000 -0.44400 43.79200
C  7.32300 0.71500 44.55100
O  6.90600 1.16000 45.60700
O  8.24000 1.40000 43.76100
C  8.52100 2.72400 44.17800
H  1.29800 2.83100 41.56200
H  -2.04400 -2.57000 42.85700
H  3.00700 -5.48800 45.21400
H  5.81700 2.39900 42.78800
H  3.85800 2.79500 40.88200
H  4.79400 4.04700 43.47900
H  2.99800 3.94200 43.33500
H  3.98000 4.81900 42.19400
H  5.20800 1.47400 39.99600
H  5.97900 0.22300 40.86400
H  7.98800 1.20600 40.35900
H  7.65000 2.39700 41.51300
H  -0.49500 2.91100 40.53000
H  -1.80900 3.07300 41.73300
H  -2.07600 2.18400 40.18100
H  -5.12900 -0.93000 42.37400
H  -3.94800 -1.20100 43.62300
H  -3.78800 -1.96900 41.90600
H  -1.25100 -5.02000 43.18300
H  0.41200 -5.75700 45.60400
H  -1.47400 -4.91600 46.06200
H  -2.86400 -5.15200 45.06800
H  -2.33100 -3.52600 45.20400
H  1.46600 -6.28300 43.00000
H  -0.17900 -7.00700 43.33000
H  2.37900 -8.10300 44.25800
H  0.79200 -8.80600 44.19000
H  1.25800 -7.73800 45.57800
H  5.22200 -5.49300 46.17400
H  6.77300 -4.60300 46.42900
H  6.56400 -5.39000 44.94400
H  7.49000 -0.50700 42.85300
H  7.96100 3.41300 43.54700
H  9.57700 2.92500 44.00000
H  8.31100 2.94600 45.22400
Mg -5.24700 26.09200 25.78100
C  -4.11300 27.51300 28.74400
C  -7.33500 24.03000 27.69800
C  -6.51900 24.84900 22.97800
C  -3.03700 28.18500 24.01800
N  -5.49500 25.66500 27.93400
C  -4.98200 26.42700 28.98900
C  -5.37400 25.90600 30.38100
C  -6.09000 24.50300 29.98900
C  -6.35700 24.71600 28.46900
C  -5.32900 23.22000 30.23900
C  -6.43700 26.80800 31.05700
C  -6.55400 26.76600 32.61800
H  -5.78700 25.66000 33.38500
N  -6.60400 24.50500 25.39000
C  -7.40600 23.95700 26.27300
C  -8.36800 23.18200 25.52700
C  -8.19400 23.43200 24.19200
C  -7.05600 24.28600 24.12200
C  -9.50400 22.48200 26.27300
C  -9.07100 22.89000 23.02000
O  -8.75600 23.04900 21.80600
C  -10.22400 22.02300 23.21800
N  -4.83500 26.50700 23.77400
C  -5.46200 25.76200 22.81100
C  -4.78000 26.01500 21.44100
C  -3.89200 27.24500 21.76200
C  -3.89700 27.31600 23.27100
C  -4.10400 24.80300 20.85300
C  -4.40900 28.53000 21.09200
C  -3.38600 29.36100 20.30800
N  -3.81600 27.53100 26.26700
C  -3.05000 28.32400 25.41800
C  -2.28200 29.30400 26.25700
C  -2.68700 28.97500 27.58000
C  -3.63200 27.92600 27.53500
C  -1.27200 30.31200 25.85300
C  -2.46900 29.29500 28.96900
O  -1.68000 29.97000 29.59800
C  -3.50700 28.50600 29.71100
C  -2.91800 27.84400 30.96900
O  -2.13000 26.91100 31.01900
O  -3.08000 28.67100 32.07300
C  -2.25900 28.41700 33.27400
H  -8.02400 23.43800 28.30400
H  -7.01100 24.51400 22.06300
H  -2.30500 28.84400 23.54600
H  -4.47400 25.59300 30.91100
H  -7.02100 24.36800 30.54000
H  -6.00400 22.48000 30.67000
H  -4.46900 23.47100 30.85900
H  -4.94100 22.91800 29.26600
H  -7.40400 26.56700 30.61600
H  -6.23500 27.85700 30.84400
H  -7.60900 26.71500 32.88700
H  -6.19000 27.70100 33.04600
H  -9.38500 22.49800 27.35600
H  -9.64400 21.48200 25.86200
H  -10.42500 23.05000 26.14500
H  -10.94600 21.95800 22.40400
H  -10.84100 22.21800 24.09500
H  -9.74400 21.05500 23.36600
H  -5.65000 26.31000 20.85400
H  -2.88900 27.05100 21.38200
H  -4.29900 23.88300 21.40400
H  -3.01800 24.86900 20.91700
H  -4.30900 24.76900 19.78300
H  -4.93800 29.10300 21.85200
H  -5.23600 28.31700 20.41500
H  -3.43200 29.22400 19.22700
H  -2.38500 29.09100 20.64500
H  -3.59600 30.42200 20.43900
H  -1.70400 31.18900 25.37000
H  -0.46800 29.91000 25.23700
H  -0.76400 30.81000 26.67800
H  -4.31100 29.17300 30.02200
H  -1.22700 28.06600 33.25600
H  -2.84500 27.67600 33.81800
H  -2.43900 29.26800 33.93000

