158

Mg -11.03800 40.47800 42.77900
C  -10.20900 37.24100 41.98100
C  -7.98300 41.50900 41.58100
C  -12.31900 43.56500 42.86800
C  -14.48400 39.25900 43.29500
N  -9.42800 39.53300 41.64000
C  -9.23600 38.16900 41.58700
C  -7.88400 37.82900 40.92000
C  -7.09200 39.27100 40.90300
C  -8.18900 40.16900 41.34300
C  -5.68800 39.22700 41.65600
C  -8.07100 37.20100 39.45500
C  -7.04100 36.21100 39.09500
H  -5.96800 36.68200 38.09800
N  -10.15500 42.22300 42.53000
C  -8.86800 42.49600 42.06100
C  -8.69100 43.95600 42.00200
C  -9.83200 44.54800 42.59000
C  -10.86200 43.41800 42.65200
C  -7.36800 44.55200 41.51700
C  -10.09400 46.05000 42.92600
O  -9.27700 46.88800 42.51500
C  -11.17300 46.41800 43.78400
N  -13.15000 41.27400 43.02600
C  -13.32800 42.62600 43.03200
C  -14.82500 43.01500 42.93800
C  -15.54200 41.61000 43.06900
C  -14.31700 40.62700 43.08800
C  -15.28300 44.06300 43.97400
C  -16.64900 41.39500 41.99700
C  -18.15100 41.25100 42.38300
N  -12.17300 38.57900 42.81100
C  -13.46500 38.30500 43.06900
C  -13.64800 36.88000 43.11100
C  -12.38000 36.37600 42.71100
C  -11.53100 37.47600 42.46500
C  -14.92800 36.17800 43.34500
C  -11.64400 35.24800 42.33400
O  -11.90500 34.06900 42.40300
C  -10.21900 35.75800 41.79400
C  -9.23200 35.00300 42.55000
O  -9.03900 35.05000 43.80200
O  -8.45600 34.26900 41.72800
C  -7.48700 33.48000 42.32900
H  -7.02700 41.76100 41.11900
H  -12.58200 44.62200 42.79500
H  -15.52200 38.95800 43.45300
H  -7.25400 37.20700 41.55500
H  -6.87900 39.61200 39.89000
H  -4.94200 39.67100 40.99600
H  -5.53800 38.20600 42.00700
H  -5.76900 39.91900 42.49400
H  -8.19900 38.04900 38.78300
H  -8.92200 36.52300 39.38600
H  -7.57700 35.37600 38.64300
H  -6.59000 35.77600 39.98700
H  -6.70200 43.80800 41.08100
H  -6.88200 45.04500 42.35900
H  -7.54300 45.32300 40.76600
H  -12.04600 46.73500 43.21300
H  -10.80500 47.20800 44.43700
H  -11.43000 45.55400 44.39700
H  -15.07000 43.45900 41.97300
H  -16.00000 41.47800 44.05000
H  -14.41000 44.46600 44.48900
H  -16.12200 43.71900 44.57700
H  -15.61500 44.99100 43.50700
H  -16.42500 40.47700 41.45200
H  -16.63200 42.20400 41.26700
H  -18.62100 41.94000 41.68200
H  -18.27400 41.65500 43.38800
H  -18.65800 40.29700 42.23900
H  -15.26300 36.42400 44.35200
H  -14.76800 35.10100 43.40000
H  -15.73200 36.44400 42.65900
H  -10.28300 35.52600 40.73100
H  -8.02700 32.88200 43.06300
H  -6.75300 34.20500 42.68200
H  -7.12800 32.82200 41.53700
Mg -1.90700 34.36700 27.22400
C  -3.34000 32.71600 29.80000
C  -0.24500 36.28700 29.52200
C  -0.81200 36.32700 24.68700
C  -3.75300 32.55500 24.92900
N  -1.91200 34.55100 29.44800
C  -2.48800 33.65500 30.28100
C  -2.13700 33.88900 31.74800
C  -1.09200 35.09700 31.64200
C  -1.07100 35.32100 30.12200
C  -1.33400 36.40000 32.39500
C  -1.51700 32.60300 32.50100
C  -2.16400 32.00800 33.75000
H  -1.36100 31.64300 35.01100
N  -0.64800 36.03700 27.10100
C  -0.02700 36.65400 28.17900
C  0.91900 37.60000 27.64200
C  0.67500 37.73900 26.23500
C  -0.32700 36.72000 25.96300
C  1.70900 38.49100 28.65700
C  1.17400 38.77700 25.13600
O  0.77800 38.90900 24.03300
C  2.37000 39.54900 25.56500
N  -2.30100 34.47800 25.15700
C  -1.65600 35.32800 24.33700
C  -2.15100 35.16100 22.93300
C  -2.85200 33.77000 22.93900
C  -3.02100 33.58400 24.40100
C  -3.10000 36.25200 22.46100
C  -2.08000 32.65000 22.22400
C  -0.56900 32.39200 22.69500
N  -3.32800 33.00200 27.30400
C  -3.89700 32.17300 26.30000
C  -4.70000 31.12000 26.88700
C  -4.58000 31.33900 28.26400
C  -3.65100 32.42900 28.43400
C  -5.56500 30.06900 26.25400
C  -4.91400 30.81400 29.52800
O  -5.48900 29.77700 29.77700
C  -4.14700 31.77600 30.61300
C  -5.25500 32.43400 31.29200
O  -6.14500 33.05000 30.80800
O  -5.14500 32.01600 32.61600
C  -6.22000 32.53000 33.48700
H  0.35700 36.64100 30.36200
H  -0.47100 36.93000 23.84200
H  -4.17000 31.89700 24.16400
H  -3.01700 34.22600 32.29500
H  -0.09400 34.87900 32.02100
H  -0.43200 36.75100 32.89600
H  -2.09900 36.37000 33.17000
H  -1.69600 37.18300 31.72900
H  -0.47100 32.85900 32.67300
H  -1.52000 31.78800 31.77800
H  -2.71000 31.10600 33.47500
H  -2.77700 32.81000 34.16200
H  2.74200 38.61500 28.33200
H  1.73400 38.10500 29.67600
H  1.30600 39.49500 28.79100
H  2.87800 39.98700 24.70500
H  3.07600 38.88300 26.05900
H  1.95300 40.34100 26.18700
H  -1.29600 35.13900 22.25800
H  -3.87000 33.71100 22.55400
H  -3.33200 36.78800 23.38100
H  -4.02600 35.85600 22.04500
H  -2.54800 36.83200 21.72100
H  -2.09600 32.79000 21.14300
H  -2.63800 31.72600 22.37400
H  0.14800 32.55600 21.89000
H  -0.42600 31.36900 23.04100
H  -0.31100 33.12600 23.45900
H  -5.22800 29.87200 25.23600
H  -6.59600 30.40200 26.37700
H  -5.39500 29.06500 26.64300
H  -3.59000 31.10200 31.26400
H  -7.16700 32.08900 33.17600
H  -6.31000 33.61600 33.45400
H  -5.91700 32.29600 34.50800

