158

Mg 46.77000 24.87100 27.84700
C  47.65300 27.42400 30.31800
C  46.46700 22.62700 30.40100
C  46.22800 22.63300 25.56400
C  47.66900 27.32800 25.44100
N  47.04400 25.05800 30.05800
C  47.27900 26.20500 30.85700
C  47.21500 25.84500 32.36300
C  46.91100 24.27400 32.42700
C  46.83300 23.94000 30.83800
C  47.88900 23.40600 33.25400
C  46.34200 26.86200 33.07300
C  45.66800 26.46100 34.38700
H  45.96200 27.43900 35.54700
N  46.30500 22.92100 27.95800
C  46.20600 22.14500 29.08800
C  45.87000 20.75900 28.70800
C  45.77500 20.78900 27.27100
C  46.11500 22.14800 26.84900
C  45.91500 19.64900 29.63800
C  45.41400 19.65800 26.29200
O  45.32000 19.79700 25.08400
C  45.07800 18.29700 26.75200
N  46.98800 25.00200 25.79500
C  46.56900 23.90400 25.07500
C  46.73700 24.06500 23.57100
C  47.20500 25.59200 23.58200
C  47.21100 26.07600 25.00500
C  47.74900 23.17600 22.81900
C  46.15200 26.49600 22.77900
C  46.67600 27.17100 21.50300
N  47.47400 26.97800 27.79100
C  47.77800 27.79000 26.74700
C  48.27200 29.12800 27.22600
C  48.14600 29.06800 28.61900
C  47.66600 27.71500 28.95000
C  48.87600 30.17700 26.35900
C  48.49900 29.71600 29.82700
O  49.14300 30.76700 29.92700
C  48.01300 28.75400 30.99800
C  49.09700 28.75600 32.02300
O  50.00300 27.97200 32.12900
O  48.68000 29.64500 33.00500
C  49.57700 29.76100 34.14900
H  46.33800 21.83900 31.14600
H  46.09500 21.87900 24.78600
H  47.84000 27.96700 24.57200
H  48.28300 25.94700 32.55500
H  45.93700 24.16300 32.90500
H  48.56700 24.07600 33.78300
H  48.40800 22.71300 32.59100
H  47.32800 22.81400 33.97700
H  45.47100 27.12200 32.47200
H  46.95500 27.74000 33.27400
H  45.92600 25.44100 34.67000
H  44.58900 26.56200 34.27700
H  44.95100 19.15600 29.51800
H  45.91200 19.84300 30.71100
H  46.64000 18.90100 29.31700
H  44.26100 18.29400 27.47500
H  45.99800 18.05400 27.28300
H  44.90600 17.64400 25.89700
H  45.76000 23.82100 23.15600
H  48.16600 25.66900 23.07400
H  48.55800 23.69400 22.30500
H  47.29000 22.46000 22.13700
H  48.38300 22.63200 23.52000
H  45.78300 27.33300 23.37200
H  45.33000 25.84300 22.48200
H  46.81200 28.22200 21.75700
H  46.00800 26.90100 20.68500
H  47.61800 26.70300 21.21800
H  48.51900 30.25200 25.33100
H  49.96300 30.10300 26.33500
H  48.68700 31.17400 26.75700
H  47.10900 29.19800 31.41500
H  50.57300 29.38600 33.91100
H  49.22600 29.18200 35.00300
H  49.70000 30.82900 34.32500
Mg -2.09600 34.74000 27.01600
C  -3.91900 32.60200 29.21300
C  -1.40800 36.81200 29.57100
C  -0.52800 36.76600 24.86700
C  -3.03800 32.67100 24.41300
N  -2.80900 34.81100 29.15900
C  -3.28600 33.73600 29.87300
C  -3.02000 33.93400 31.34400
C  -2.54600 35.44400 31.44800
C  -2.26700 35.76600 29.99400
C  -3.35600 36.47200 32.29900
C  -2.00900 32.90200 31.93600
C  -2.12600 32.61100 33.48100
H  -3.03400 33.52500 34.34700
N  -1.11200 36.59800 27.17300
C  -0.86200 37.30900 28.36400
C  -0.11500 38.47600 28.05500
C  0.07600 38.48200 26.65100
C  -0.60100 37.28000 26.16100
C  0.30800 39.52300 29.11000
C  0.80600 39.46100 25.76400
O  0.76400 39.44600 24.53600
C  1.62400 40.54600 26.41900
N  -1.71500 34.63500 25.03800
C  -0.91700 35.57400 24.37600
C  -0.65200 35.19300 22.88000
C  -1.47700 33.85800 22.78100
C  -2.08800 33.67200 24.18000
C  -0.90500 36.26100 21.75500
C  -0.56700 32.61400 22.33400
C  0.62100 32.17600 23.29900
N  -3.30500 33.12600 26.80600
C  -3.59300 32.40700 25.67600
C  -4.63000 31.38700 25.89300
C  -4.72900 31.37700 27.30800
C  -3.95600 32.47700 27.79600
C  -5.23600 30.48800 24.87300
C  -5.30100 30.71000 28.50800
O  -6.18700 29.87700 28.56600
C  -4.72000 31.43000 29.80400
C  -5.85000 31.93800 30.68100
O  -6.69000 32.74500 30.28000
O  -5.85000 31.26400 31.84800
C  -6.93700 31.60800 32.80700
H  -1.01200 37.38200 30.41400
H  0.16500 37.28100 24.19900
H  -3.33900 32.13100 23.51300
H  -4.00000 33.86800 31.81700
H  -1.60100 35.49300 31.99000
H  -4.24700 36.14300 32.83300
H  -3.70100 37.28500 31.66000
H  -2.65700 36.90200 33.01700
H  -0.96800 33.20300 31.81900
H  -2.09100 32.02500 31.29500
H  -1.18500 32.60200 34.03200
H  -2.57500 31.61900 33.52400
H  1.39500 39.51700 29.19500
H  -0.00400 39.18400 30.09700
H  -0.06600 40.53800 28.98200
H  0.95500 41.30100 26.83200
H  2.27100 41.11400 25.75000
H  2.26300 40.13500 27.20000
H  0.41500 34.97500 22.93200
H  -2.27000 34.00500 22.04800
H  -1.18700 37.22700 22.17500
H  -1.64100 35.98200 21.00200
H  -0.01400 36.38200 21.13800
H  -0.01600 32.94600 21.45400
H  -1.21700 31.79400 22.02700
H  1.62400 32.17100 22.87200
H  0.40300 31.16000 23.62900
H  0.64700 32.76000 24.21900
H  -4.63500 30.15300 24.02800
H  -6.08000 30.95000 24.35900
H  -5.55500 29.62500 25.45700
H  -3.98600 30.85700 30.37100
H  -7.77900 32.15900 32.38900
H  -6.50900 32.27300 33.55800
H  -7.22300 30.68500 33.31200

