158

Mg 35.50900 48.36200 25.36200
C  35.84000 46.32600 28.18200
C  34.44700 51.05000 27.47700
C  34.53900 49.97900 22.78500
C  36.02000 45.44400 23.51100
N  35.25700 48.64300 27.59100
C  35.37300 47.66700 28.48700
C  35.02100 48.14000 29.93200
C  34.52400 49.60000 29.68200
C  34.80200 49.78100 28.16300
C  33.01800 49.81600 29.92700
C  36.16400 48.12400 30.98200
C  35.78400 47.78300 32.39300
H  35.52100 48.84700 33.44700
N  34.61500 50.31100 25.17800
C  34.28900 51.29100 26.07000
C  33.92500 52.51600 25.41600
C  33.94100 52.26400 24.03900
C  34.39900 50.85200 23.89100
C  33.47400 53.76500 26.15200
C  33.69800 53.21500 22.77700
O  33.94500 52.85500 21.61600
C  33.21200 54.60200 22.97700
N  35.26600 47.73700 23.43500
C  34.98100 48.63100 22.54500
C  34.80600 47.95000 21.10600
C  35.49200 46.62700 21.33400
C  35.63500 46.59000 22.85900
C  33.28900 47.91200 20.76700
C  36.86100 46.48500 20.51800
C  38.16700 47.21300 21.01600
N  36.09000 46.33100 25.70600
C  36.28100 45.25300 24.86100
C  36.63000 44.11100 25.55700
C  36.42300 44.44900 26.85600
C  36.13300 45.85000 26.88700
C  36.82800 42.73500 24.89000
C  36.48800 43.95500 28.26600
O  36.77600 42.86700 28.73700
C  36.13300 45.16100 29.13000
C  34.96700 44.80000 29.95200
O  33.84000 44.70800 29.57400
O  35.36900 44.57900 31.26400
C  34.27400 44.27900 32.13400
H  34.20900 51.85600 28.17400
H  34.34600 50.49500 21.84200
H  36.10200 44.59800 22.82700
H  34.29300 47.38200 30.22100
H  35.11400 50.34400 30.21700
H  32.77100 50.70600 30.50500
H  32.65700 48.89200 30.37900
H  32.55800 49.95300 28.94900
H  36.55500 49.14200 30.97800
H  36.99500 47.48500 30.68400
H  36.56800 47.15200 32.81100
H  34.82400 47.26700 32.41500
H  34.08900 54.61900 25.86900
H  33.59900 53.55400 27.21400
H  32.41300 54.00600 26.21500
H  33.04900 54.96400 21.96200
H  33.98500 55.15200 23.51400
H  32.27600 54.47300 23.52100
H  35.33700 48.57800 20.39000
H  34.92000 45.75700 21.01100
H  32.96900 46.96100 20.34100
H  33.02500 48.67600 20.03600
H  32.71800 48.07000 21.68100
H  36.56400 46.77100 19.50900
H  37.12000 45.42600 20.54000
H  38.86000 46.40900 21.26500
H  37.89900 47.89100 21.82600
H  38.57200 47.82300 20.20800
H  35.97800 42.08100 25.08300
H  37.65400 42.19900 25.35700
H  36.92100 42.89700 23.81600
H  37.00200 45.29500 29.77500
H  33.78900 43.31600 31.97600
H  33.58700 45.12500 32.09400
H  34.83100 44.37400 33.06600
Mg -12.33900 16.96200 40.08300
C  -8.69000 15.98300 39.94800
C  -11.11500 20.25800 39.69600
C  -15.32500 17.69300 39.47800
C  -12.98500 13.46300 39.76200
N  -10.16400 18.02000 39.78400
C  -8.94100 17.42900 39.78700
C  -7.86600 18.40000 39.55300
C  -8.57200 19.80000 39.86900
C  -10.04300 19.35600 39.75000
C  -8.23100 20.61200 41.06300
C  -7.12500 18.26900 38.13100
C  -5.67600 17.83900 38.30200
H  -4.99400 16.95700 37.25800
N  -13.13100 18.74400 39.75300
C  -12.53800 19.94800 39.59700
C  -13.54600 20.87000 39.27300
C  -14.81700 20.22700 39.30000
C  -14.51300 18.78200 39.51900
C  -13.28200 22.34800 39.08900
C  -16.18400 20.88900 39.08400
O  -16.24300 22.12700 38.91900
C  -17.39200 20.10500 39.03100
N  -13.89600 15.71500 39.73100
C  -15.06100 16.25500 39.41200
C  -16.21200 15.20600 39.13300
C  -15.34400 13.90500 38.95400
C  -13.98700 14.38200 39.57000
C  -17.40700 15.04200 40.25900
C  -15.10500 13.42800 37.49800
C  -15.01700 11.88500 37.35500
N  -11.18400 15.04800 40.01900
C  -11.65100 13.73200 39.91100
C  -10.47700 12.87400 39.82000
C  -9.34500 13.72400 39.97700
C  -9.79600 15.07700 39.97600
C  -10.49300 11.39100 39.55200
C  -7.87400 13.73500 39.89600
O  -7.09200 12.78300 39.72400
C  -7.45100 15.16800 39.93300
C  -6.61900 15.33300 41.11800
O  -6.82100 16.02000 42.11700
O  -5.40500 14.69500 40.92200
C  -4.47000 14.65200 42.03100
H  -10.84600 21.31500 39.75500
H  -16.32100 17.92800 39.09700
H  -13.25100 12.40400 39.74900
H  -7.18100 18.19600 40.37600
H  -8.29900 20.48000 39.06200
H  -7.70300 21.52200 40.77800
H  -7.47900 20.04100 41.60700
H  -9.13800 20.72300 41.65700
H  -7.10100 19.29500 37.76400
H  -7.61100 17.65100 37.37600
H  -5.54600 17.42300 39.30200
H  -5.18400 18.81100 38.27500
H  -13.79000 22.71900 38.19900
H  -12.21400 22.53900 38.98700
H  -13.63200 22.92000 39.94800
H  -17.41600 19.69900 38.01900
H  -18.25200 20.74200 39.23800
H  -17.37000 19.39700 39.85900
H  -16.77700 15.38300 38.21700
H  -15.62000 13.19400 39.73400
H  -18.27500 15.61800 39.93700
H  -17.10900 15.34400 41.26400
H  -17.93400 14.09000 40.18600
H  -14.17500 13.78300 37.05500
H  -15.93300 13.70700 36.84600
H  -15.93500 11.62400 36.82800
H  -15.13100 11.47500 38.35800
H  -14.04900 11.53500 36.99600
H  -10.06200 11.11200 38.59000
H  -11.53100 11.05900 39.54800
H  -9.94100 10.95000 40.38300
H  -6.81600 15.50200 39.11300
H  -3.83700 13.76500 42.03700
H  -4.99100 14.69900 42.98800
H  -3.87000 15.54600 41.86000

