158

Mg 2.31100 -1.12800 44.39600
C  5.65800 -0.16600 44.16900
C  1.41800 1.99400 43.28900
C  -0.83600 -2.13200 43.98500
C  3.36500 -4.42200 44.92600
N  3.50200 0.69600 43.85000
C  4.84100 0.87800 43.82800
C  5.20100 2.30000 43.37200
C  3.80800 3.05600 43.62900
C  2.78500 1.89300 43.63500
C  3.78700 3.93000 44.95200
C  5.78500 2.43200 41.88700
C  4.80400 2.17700 40.71900
H  4.85000 3.07400 39.46000
N  0.57700 -0.23000 43.57900
C  0.38900 1.07300 43.14000
C  -0.92900 1.30200 42.60500
C  -1.52500 -0.03100 42.70400
C  -0.61700 -0.89000 43.47900
C  -1.42900 2.60800 42.10200
C  -2.86500 -0.39800 42.13800
O  -3.46600 0.48100 41.58500
C  -3.38600 -1.73500 42.14800
N  1.47300 -2.98700 44.36200
C  0.11300 -3.08800 44.43100
C  -0.37700 -4.47100 44.76700
C  1.00700 -5.31900 44.97900
C  2.02200 -4.17300 44.72100
C  -1.44400 -4.50800 45.88700
C  1.19600 -6.53800 44.01300
C  1.23100 -7.88400 44.67100
N  4.10200 -2.09500 44.75600
C  4.40500 -3.46700 44.91400
C  5.77400 -3.65600 44.95400
C  6.34700 -2.41600 44.70200
C  5.31000 -1.50800 44.52000
C  6.47100 -4.96700 45.25400
C  7.62200 -1.67500 44.56200
O  8.78700 -2.03800 44.58600
C  7.14500 -0.29000 44.04600
C  7.92500 0.73400 44.68900
O  8.75100 1.33800 44.12700
O  7.63300 0.84900 46.02600
C  8.16000 2.11500 46.58700
H  1.19700 3.01200 42.96000
H  -1.88400 -2.43400 44.03100
H  3.66300 -5.45400 45.12300
H  5.92800 2.58400 44.13300
H  3.47200 3.53100 42.70800
H  3.31000 3.35700 45.74700
H  3.24600 4.83900 44.69000
H  4.77000 4.30400 45.23800
H  6.74400 1.95200 41.69000
H  6.11900 3.46500 41.79600
H  3.76500 1.99800 40.99500
H  5.05800 1.17900 40.36100
H  -2.49000 2.84800 42.16500
H  -1.08500 2.83900 41.09400
H  -0.87200 3.30500 42.72700
H  -4.15400 -1.66400 41.37700
H  -3.87000 -1.95600 43.10000
H  -2.54700 -2.38400 41.89900
H  -0.86700 -5.05900 43.99200
H  1.14400 -5.62200 46.01700
H  -1.46000 -3.53300 46.37500
H  -1.21700 -5.25000 46.65200
H  -2.47100 -4.71400 45.58500
H  2.11000 -6.37000 43.44200
H  0.42500 -6.58100 43.24500
H  0.68000 -8.64900 44.12400
H  0.64700 -7.91000 45.59200
H  2.20700 -8.29200 44.93500
H  6.47100 -5.11500 46.33400
H  7.50600 -4.97400 44.91200
H  5.99000 -5.81500 44.76700
H  7.39600 -0.15100 42.99500
H  8.01000 2.02100 47.66200
H  7.74700 3.06300 46.24300
H  9.24200 2.10900 46.45900
Mg -10.13800 17.43200 43.04800
C  -6.64000 17.08100 43.00800
C  -9.65100 20.66000 42.04900
C  -13.36000 17.56900 42.23500
C  -10.28800 13.88900 43.01000
N  -8.28700 18.73500 42.62200
C  -6.99600 18.35400 42.61700
C  -6.04800 19.55700 42.43900
C  -7.07900 20.79600 42.39700
C  -8.39800 20.03800 42.26700
C  -6.89100 21.64700 43.63300
C  -5.10900 19.39600 41.12900
C  -5.62700 18.41100 40.02800
H  -5.16000 18.69600 38.59700
N  -11.40400 18.97300 42.49700
C  -11.01700 20.25200 42.12800
C  -12.15900 21.10500 41.99000
C  -13.28200 20.21500 41.93100
C  -12.73000 18.85300 42.18600
C  -12.15100 22.66700 41.75000
C  -14.73800 20.65900 41.61500
O  -14.94500 21.85700 41.30100
C  -15.79300 19.60400 41.50000
N  -11.57700 15.96600 42.44800
C  -12.89000 16.27800 42.33500
C  -13.77600 14.99300 42.30200
C  -12.75100 13.89600 42.64400
C  -11.49600 14.62200 42.78800
C  -15.11200 15.02800 43.07900
C  -12.58600 12.80300 41.58500
C  -12.48700 11.36400 42.24900
N  -8.82500 15.75900 43.14400
C  -9.01400 14.38700 43.07600
C  -7.71700 13.72000 43.27900
C  -6.76400 14.70000 43.27900
C  -7.50900 15.92200 43.15400
C  -7.61400 12.29800 43.34500
C  -5.36900 14.96100 43.34100
O  -4.43300 14.20500 43.57400
C  -5.18600 16.51000 43.17000
C  -4.66300 17.04600 44.42400
O  -3.63100 17.71100 44.50000
O  -5.41900 16.67200 45.53900
C  -4.76400 17.25400 46.78200
H  -9.58300 21.72500 41.81700
H  -14.40500 17.53400 41.92100
H  -10.39700 12.81200 43.15500
H  -5.26100 19.59100 43.19300
H  -6.91500 21.39400 41.50100
H  -5.86000 21.71900 43.97800
H  -7.62200 21.53600 44.43500
H  -6.97400 22.70700 43.39200
H  -4.17700 19.14900 41.63800
H  -4.93600 20.39700 40.73100
H  -6.71600 18.37600 40.04300
H  -5.30500 17.42100 40.35100
H  -12.26200 22.90800 40.69300
H  -11.25500 23.18900 42.08600
H  -12.99400 23.10700 42.28200
H  -15.87100 19.00400 42.40700
H  -15.43200 18.95800 40.70000
H  -16.77300 20.03300 41.29300
H  -14.16600 14.91100 41.28800
H  -13.00700 13.44700 43.60300
H  -16.01400 14.84200 42.49700
H  -15.37500 15.96200 43.57600
H  -15.12300 14.30500 43.89400
H  -11.75900 13.05100 40.91900
H  -13.49700 12.80700 40.98600
H  -13.38400 10.78900 42.01900
H  -12.41800 11.43700 43.33400
H  -11.67600 10.79400 41.79300
H  -7.85900 11.73600 42.44400
H  -8.37400 11.95200 44.04600
H  -6.69700 11.91800 43.79500
H  -4.41200 16.85800 42.48600
H  -3.83900 16.70000 46.93800
H  -5.35700 17.02900 47.66800
H  -4.60200 18.33000 46.84600

