158

Mg -1.99300 17.21300 26.46400
C  -2.20200 14.92700 29.08600
C  -2.87100 19.69100 28.63400
C  -2.10000 19.35800 23.88800
C  -1.67800 14.54200 24.19900
N  -2.63000 17.27200 28.62900
C  -2.51500 16.27000 29.53300
C  -2.54600 16.81100 30.96600
C  -3.02300 18.34600 30.70100
C  -2.89400 18.49000 29.23100
C  -4.43000 18.66900 31.23400
C  -1.14900 16.63400 31.64600
C  -1.02200 17.50600 32.95900
H  -1.09100 16.70800 34.29700
N  -2.30600 19.28700 26.37800
C  -2.63500 20.11500 27.30100
C  -2.56700 21.46200 26.88600
C  -2.45100 21.41300 25.45000
C  -2.29200 19.94900 25.19200
C  -2.65200 22.68500 27.68700
C  -2.38100 22.47200 24.39700
O  -2.34500 22.22200 23.19800
C  -2.34000 23.96200 24.82900
N  -1.99800 16.90600 24.34400
C  -2.00500 18.04000 23.51100
C  -1.95600 17.59600 21.99200
C  -1.49600 16.02900 22.20500
C  -1.64300 15.81600 23.72400
C  -3.37000 17.77700 21.36000
C  -0.07700 15.87300 21.66500
C  1.10900 16.45800 22.45500
N  -2.01700 15.18800 26.61700
C  -1.84800 14.21700 25.57400
C  -1.96100 12.87500 26.09300
C  -2.04500 13.11600 27.51100
C  -2.07200 14.55600 27.72700
C  -1.82900 11.68200 25.27000
C  -2.13900 12.44000 28.82800
O  -2.06500 11.21900 29.16900
C  -2.30200 13.64300 29.95700
C  -1.31200 13.35300 30.94400
O  -0.09100 13.42800 30.83600
O  -1.91800 12.84500 32.06200
C  -1.04800 12.54700 33.19600
H  -3.05900 20.47500 29.37000
H  -2.07300 19.91200 22.94800
H  -1.41800 13.78500 23.45600
H  -3.28100 16.29500 31.58300
H  -2.25300 19.05200 31.01200
H  -4.41700 19.16200 32.20700
H  -4.99700 17.80100 31.56900
H  -4.99600 19.36300 30.61200
H  -0.42600 16.95600 30.89500
H  -0.90700 15.60800 31.92200
H  -1.93500 18.07200 33.14600
H  -0.18700 18.20500 33.00700
H  -2.50000 22.51800 28.75400
H  -3.63000 23.16000 27.62400
H  -1.83600 23.35100 27.40600
H  -1.44800 24.13300 25.43200
H  -3.28100 24.15900 25.34300
H  -2.07900 24.58600 23.97500
H  -1.17600 18.08400 21.40800
H  -2.16500 15.46800 21.55200
H  -3.28900 18.43900 20.49800
H  -4.01100 18.27100 22.09000
H  -3.79600 16.81700 21.06800
H  0.08300 16.22200 20.64500
H  0.00300 14.79000 21.57200
H  1.76000 17.02000 21.78600
H  1.78300 15.72200 22.89400
H  0.78300 17.15000 23.23200
H  -1.30100 11.85600 24.33200
H  -2.89000 11.49100 25.10600
H  -1.31600 10.92400 25.86200
H  -3.30700 13.41900 30.31400
H  -1.65900 12.04700 33.94800
H  -0.83100 13.54700 33.57200
H  -0.10200 12.03100 33.02800
Mg 34.85400 49.16900 25.11400
C  34.96900 47.46300 28.14300
C  33.27500 51.81700 26.63900
C  34.47600 50.59500 22.02200
C  36.21700 46.28300 23.57700
N  33.97600 49.44800 27.19700
C  34.28800 48.68900 28.34000
C  33.95200 49.46900 29.62400
C  33.26100 50.87200 29.07700
C  33.56600 50.75500 27.53400
C  31.77600 50.87600 29.21600
C  35.21700 49.73200 30.53700
C  34.88900 50.26600 31.96800
H  33.49200 50.13500 32.55200
N  33.98700 50.95800 24.41100
C  33.41100 51.92800 25.23900
C  32.93500 52.91900 24.35000
C  33.16100 52.58700 23.00600
C  33.96600 51.33200 23.10300
C  32.32600 54.09200 25.04700
C  32.73300 53.20200 21.71300
O  32.79600 52.66700 20.62400
C  31.97000 54.62400 21.86600
N  35.42800 48.57000 23.11100
C  35.14000 49.36500 22.02900
C  35.76400 48.70200 20.73100
C  36.42200 47.42400 21.30800
C  35.98900 47.41600 22.77100
C  34.80300 48.42200 19.54100
C  37.97500 47.30300 21.02300
C  38.22700 46.06300 20.22200
N  35.43800 47.28300 25.69700
C  35.90800 46.20300 24.94200
C  36.15400 45.05800 25.84800
C  35.91800 45.55000 27.14700
C  35.38000 46.87800 26.97200
C  36.44500 43.69000 25.40600
C  35.99000 45.28000 28.50300
O  36.30900 44.30500 29.15200
C  35.24200 46.42400 29.21000
C  34.05800 45.92200 29.79100
O  33.10400 45.42300 29.18200
O  34.18100 46.13600 31.14100
C  33.09700 45.64400 31.98300
H  32.87300 52.63200 27.24400
H  34.35300 51.01500 21.02200
H  36.65800 45.42800 23.06100
H  33.24800 48.89500 30.22700
H  33.74800 51.79400 29.39600
H  31.53400 50.06400 29.90100
H  31.13000 50.75600 28.34600
H  31.51400 51.81800 29.69900
H  35.67700 50.54900 29.98000
H  35.98200 48.95600 30.58200
H  35.16000 51.32200 31.99100
H  35.56800 49.84900 32.71200
H  31.27000 54.01000 25.30500
H  32.49500 54.95600 24.40400
H  32.80900 54.36900 25.98400
H  31.72600 54.90000 20.84000
H  32.69600 55.34900 22.23600
H  31.12400 54.45700 22.53300
H  36.61000 49.29200 20.37700
H  35.93300 46.51600 20.95400
H  34.65900 47.35100 19.39800
H  35.29800 48.84700 18.66800
H  33.80500 48.79800 19.76500
H  38.54700 47.24200 21.94900
H  38.42400 48.06200 20.38200
H  38.75100 46.34800 19.30900
H  37.32100 45.58800 19.84700
H  38.95300 45.36600 20.63900
H  36.10300 43.08400 26.24500
H  37.51200 43.58800 25.20800
H  35.85700 43.51200 24.50600
H  36.00200 46.75900 29.91600
H  32.50600 44.79500 31.64200
H  32.31800 46.36400 32.23300
H  33.50700 45.42500 32.96900

