158

Mg 53.76800 25.07700 43.71100
C  51.05000 27.15100 42.95200
C  52.01000 22.46200 42.68100
C  56.69400 23.42000 43.53000
C  55.51000 28.08400 44.49000
N  51.77300 24.91400 42.75100
C  50.81400 25.84900 42.65000
C  49.42500 25.22600 42.11900
C  49.76200 23.68300 42.39200
C  51.32100 23.68500 42.67100
C  48.98400 23.07300 43.61600
C  49.08400 25.33700 40.60400
C  50.24200 25.54800 39.68000
H  49.90500 25.90200 38.18900
N  54.27600 23.15300 43.19900
C  53.34500 22.18700 42.93800
C  54.05700 20.92700 42.77200
C  55.46100 21.18100 42.87000
C  55.57400 22.67100 43.22000
C  53.36500 19.70200 42.52500
C  56.44500 20.16700 42.70400
O  56.11500 19.00000 42.69500
C  57.95600 20.47000 42.63300
N  55.79800 25.67600 43.84800
C  56.87200 24.76400 43.81200
C  58.18000 25.43200 44.25100
C  57.73600 26.91100 44.38900
C  56.26800 26.92200 44.18500
C  58.86100 24.80600 45.53200
C  58.41900 27.91300 43.37300
C  59.13200 29.11600 43.92800
N  53.43900 27.16400 43.83000
C  54.18000 28.20900 44.23600
C  53.37200 29.38400 44.40100
C  52.16700 29.05200 43.77900
C  52.24800 27.68700 43.45500
C  53.84800 30.63300 45.06400
C  50.85600 29.55300 43.38500
O  50.40500 30.65700 43.51600
C  50.09800 28.28200 42.83900
C  49.56700 28.57200 41.46300
O  50.23500 29.00100 40.57200
O  48.18800 28.51300 41.43800
C  47.51900 29.19700 40.32000
H  51.37300 21.61000 42.43500
H  57.63900 22.88300 43.42900
H  56.02200 28.93600 44.94100
H  48.60200 25.60700 42.72300
H  49.64300 23.11900 41.46700
H  49.72100 22.64500 44.29600
H  48.44200 22.19700 43.26100
H  48.36800 23.83500 44.09300
H  48.32000 26.09900 40.45500
H  48.59100 24.38600 40.40000
H  50.57300 24.52400 39.50300
H  51.18700 25.97100 40.02200
H  53.34900 19.11400 43.44300
H  53.85700 19.25100 41.66300
H  52.32300 19.79100 42.21900
H  58.49000 19.56800 42.33100
H  58.18800 20.76900 43.65500
H  58.15700 21.25300 41.90300
H  58.80600 25.06200 43.43900
H  58.03500 27.26400 45.37600
H  59.54800 23.99600 45.28900
H  58.06800 24.43700 46.18300
H  59.47500 25.54400 46.04800
H  57.67800 28.21500 42.63300
H  59.14900 27.40600 42.74100
H  58.71800 29.46200 44.87500
H  59.03100 29.87800 43.15600
H  60.17600 28.88700 44.14600
H  53.28900 31.54200 44.84100
H  54.79300 30.88800 44.58500
H  54.04500 30.49800 46.12700
H  49.24900 28.18200 43.51600
H  46.45700 29.11400 40.55100
H  47.58700 28.59700 39.41300
H  47.84200 30.21900 40.11800
Mg 36.10000 50.30500 25.64400
C  35.96700 48.33200 28.55400
C  34.42300 52.72900 27.59800
C  36.00200 52.07900 22.93800
C  37.19400 47.40900 23.85600
N  35.19600 50.45100 27.83000
C  35.46200 49.59100 28.82500
C  35.00800 50.15800 30.13700
C  34.15300 51.37200 29.74400
C  34.52500 51.47200 28.23700
C  32.59800 51.24800 30.13800
C  36.19900 50.63500 30.99600
C  36.46700 49.75300 32.25800
H  35.16800 49.38300 33.05500
N  35.31800 52.19000 25.28100
C  34.75900 53.05200 26.21500
C  34.65000 54.34500 25.62200
C  35.08400 54.24100 24.21300
C  35.48600 52.80600 24.07000
C  34.20300 55.52800 26.42500
C  35.08100 55.28100 23.09900
O  35.54300 54.97200 21.97900
C  34.60300 56.69500 23.38800
N  36.30600 49.76600 23.61600
C  36.32800 50.74200 22.73200
C  36.91100 50.25600 21.40400
C  37.46200 48.85600 21.73200
C  36.91900 48.58300 23.16400
C  35.99900 50.34400 20.16100
C  38.95000 48.62200 21.58900
C  39.39000 47.92800 20.31700
N  36.53500 48.29400 26.02900
C  36.97000 47.22900 25.24300
C  37.26900 46.07300 26.06200
C  36.81300 46.45500 27.33800
C  36.46100 47.82800 27.31900
C  37.77400 44.67000 25.64200
C  36.63500 46.02200 28.70700
O  36.74200 44.86500 29.07100
C  36.15300 47.21200 29.56800
C  34.96500 46.75700 30.30800
O  33.81000 46.79600 29.88100
O  35.33900 46.24100 31.51300
C  34.36200 45.33400 32.14500
H  34.02700 53.54400 28.20800
H  36.23300 52.65400 22.03800
H  37.73300 46.65500 23.27900
H  34.31000 49.49400 30.64600
H  34.63000 52.28400 30.10200
H  32.25100 50.22200 30.25900
H  32.01600 51.65500 29.31100
H  32.37400 51.91100 30.97400
H  36.15600 51.65600 31.37700
H  37.07300 50.53500 30.35200
H  37.19800 50.23800 32.90600
H  36.98900 48.92900 31.77200
H  33.60500 55.15600 27.25700
H  33.46000 56.09600 25.86500
H  35.04300 56.12100 26.78600
H  35.31300 57.24800 24.00300
H  33.60800 56.69600 23.83400
H  34.47000 57.23100 22.44800
H  37.74000 50.94700 21.25200
H  36.95100 48.10400 21.13100
H  36.48100 51.08300 19.52100
H  35.06900 50.71700 20.59000
H  35.96900 49.40400 19.61200
H  39.27800 47.98400 22.40900
H  39.48800 49.52900 21.86300
H  39.28200 48.69700 19.55200
H  38.84100 46.99500 20.19200
H  40.43000 47.61200 20.40300
H  38.50100 44.35600 26.39100
H  38.25700 44.71200 24.66600
H  37.03700 43.86800 25.65200
H  36.91900 47.38500 30.32400
H  34.92700 44.76100 32.88000
H  33.98100 44.60600 31.42800
H  33.51200 45.85100 32.58900

