158

Mg 16.23200 -1.62000 26.80100
C  15.06700 0.19600 29.65600
C  18.18500 -3.48600 28.97500
C  17.46900 -3.14000 24.17000
C  14.43400 0.65600 24.73500
N  16.78400 -1.47200 29.00100
C  16.08800 -0.73400 29.97100
C  16.57300 -1.12700 31.39100
C  17.72800 -2.15400 31.09500
C  17.54900 -2.38900 29.56600
C  19.22000 -1.76500 31.43200
C  15.41500 -1.69000 32.27100
C  15.10700 -0.99800 33.60900
H  16.23300 -0.24100 34.33600
N  17.61400 -3.04400 26.61900
C  18.19400 -3.84200 27.62700
C  18.97700 -4.87900 27.05500
C  18.84200 -4.74100 25.63900
C  17.94000 -3.67300 25.41300
C  19.74400 -5.96000 27.82700
C  19.36600 -5.69800 24.57900
O  19.03000 -5.56500 23.41100
C  20.15500 -6.95100 24.93100
N  16.02700 -1.20000 24.57900
C  16.58900 -2.04900 23.76900
C  16.06600 -1.69100 22.38700
C  14.97700 -0.53700 22.50200
C  15.16400 -0.33000 24.05900
C  17.19500 -1.35400 21.45700
C  13.56800 -0.89800 22.10800
C  12.83700 0.09600 21.25000
N  15.00900 0.06300 27.06400
C  14.28300 0.82000 26.12100
C  13.52600 1.79300 26.85600
C  13.65700 1.54400 28.26100
C  14.68100 0.53000 28.34400
C  12.61000 2.81500 26.21400
C  13.21200 1.96500 29.62100
O  12.40900 2.83000 29.93800
C  14.10600 1.04900 30.59400
C  14.92300 2.10900 31.34100
O  15.95800 2.63600 30.94900
O  14.31200 2.31200 32.53700
C  14.79500 3.50000 33.32000
H  18.72500 -4.08800 29.70900
H  17.80100 -3.49700 23.19300
H  13.79400 1.29900 24.12800
H  16.88100 -0.21800 31.90800
H  17.56400 -3.10000 31.61100
H  19.72900 -2.45000 32.10900
H  19.25100 -0.87600 32.06300
H  19.78100 -1.64900 30.50500
H  15.58700 -2.75000 32.45700
H  14.50600 -1.65100 31.67200
H  14.81500 -1.82600 34.25500
H  14.35200 -0.22800 33.45300
H  20.75500 -6.23700 27.53200
H  19.22700 -6.90400 27.65600
H  19.66700 -5.60100 28.85300
H  20.45900 -7.46800 24.02100
H  19.47400 -7.66400 25.39800
H  21.10100 -6.69100 25.40600
H  15.64100 -2.59100 21.94200
H  15.33900 0.33200 21.95500
H  17.32100 -0.30300 21.19500
H  17.23200 -1.99600 20.57700
H  18.14900 -1.55100 21.94600
H  13.15800 -0.77200 23.11000
H  13.44700 -1.88400 21.66100
H  13.55300 0.60700 20.60500
H  12.34200 0.72200 21.99200
H  12.08600 -0.45600 20.68500
H  12.37400 3.59600 26.93500
H  11.68100 2.41700 25.80700
H  13.12100 3.28500 25.37400
H  13.48100 0.58100 31.35500
H  14.48800 4.49300 32.99400
H  15.88300 3.43800 33.34400
H  14.58300 3.32600 34.37500
Mg 34.34500 2.83900 28.87400
C  32.34500 3.62500 31.69100
C  36.94900 2.56500 30.92400
C  36.29100 2.74100 26.04000
C  31.64100 3.65100 26.83900
N  34.59800 2.88900 31.10600
C  33.63900 3.15200 32.01900
C  34.25000 3.13000 33.45700
C  35.79900 2.95700 33.10900
C  35.77800 2.74800 31.66200
C  36.65200 4.15900 33.52400
C  33.59300 2.03700 34.32800
C  33.49300 2.32500 35.84200
H  34.25000 3.55700 36.33500
N  36.23700 2.47800 28.54100
C  37.13000 2.25200 29.51900
C  38.36600 1.80200 28.90600
C  38.22700 1.81900 27.50200
C  36.89600 2.44400 27.27100
C  39.45900 1.33700 29.79700
C  39.16200 1.18300 26.44500
O  39.11100 1.62500 25.31000
C  40.20600 0.11000 26.72700
N  34.01400 3.34400 26.72800
C  34.95600 3.09200 25.77200
C  34.41200 3.18800 24.34400
C  32.86900 3.09300 24.60800
C  32.79900 3.37800 26.18200
C  34.68200 4.52100 23.62600
C  32.14900 1.72400 24.22100
C  30.69900 1.83300 23.65900
N  32.37100 3.48900 29.12000
C  31.38500 3.75100 28.17400
C  30.19400 4.04900 28.82300
C  30.47700 3.96800 30.19000
C  31.87200 3.71500 30.34800
C  28.87200 4.40500 28.24500
C  29.91400 4.13900 31.56600
O  28.81800 4.46100 31.96400
C  31.16400 3.90100 32.55400
C  31.29100 5.20000 33.33100
O  32.03900 6.12600 33.03400
O  30.44700 5.25200 34.38900
C  30.52200 6.50900 35.23100
H  37.81600 2.54200 31.58700
H  36.81100 2.67600 25.08200
H  30.75100 3.62800 26.20700
H  34.12500 4.12800 33.87700
H  36.15400 2.04000 33.58000
H  36.96100 4.83500 32.72700
H  37.54300 3.70400 33.95800
H  36.15000 4.69100 34.33200
H  34.16000 1.12000 34.16700
H  32.59400 1.75500 33.99700
H  33.82200 1.46600 36.42600
H  32.43100 2.50400 36.00900
H  39.68800 0.27300 29.73000
H  39.33900 1.56500 30.85600
H  40.38900 1.86100 29.57600
H  41.17700 0.49400 27.04000
H  40.33600 -0.50200 25.83500
H  39.91100 -0.59700 27.50300
H  34.73300 2.31800 23.77100
H  32.30700 3.89200 24.12500
H  35.17400 5.25100 24.26900
H  33.74800 4.94000 23.25200
H  35.32000 4.40100 22.75000
H  31.99000 1.19000 25.15800
H  32.69800 1.21300 23.43000
H  29.95400 1.40000 24.32600
H  30.66300 1.13800 22.82100
H  30.37900 2.81400 23.30800
H  28.83500 4.17900 27.18000
H  28.58300 5.41400 28.53900
H  28.03800 3.74700 28.48800
H  30.95500 3.00000 33.13000
H  30.36800 7.34100 34.54500
H  31.47400 6.47800 35.76100
H  29.70400 6.54800 35.95000

