158

Mg 8.65900 3.01300 27.92500
C  10.08700 1.45600 30.85700
C  6.69800 4.85200 30.01900
C  7.02900 4.13000 25.14600
C  10.32300 0.49300 26.01900
N  8.40200 3.08600 30.15700
C  9.15700 2.51400 31.15100
C  8.78700 3.02400 32.61800
C  7.74900 4.14800 32.25100
C  7.59000 4.00400 30.71800
C  6.35400 4.06100 33.01400
C  10.08700 3.61800 33.29800
C  10.64100 2.99400 34.54600
H  10.98000 4.00000 35.65100
N  7.12700 4.37900 27.62600
C  6.40300 4.95300 28.63400
C  5.43300 5.79700 27.96300
C  5.71200 5.80200 26.56300
C  6.66600 4.70800 26.37600
C  4.39800 6.66700 28.72200
C  5.10800 6.75200 25.49400
O  5.47200 6.54000 24.37100
C  4.10500 7.83600 25.78400
N  8.70300 2.45500 25.96000
C  7.98100 3.07800 24.96000
C  8.40800 2.60900 23.58500
C  9.66400 1.70400 23.91700
C  9.56700 1.53300 25.38400
C  7.37400 1.82400 22.73700
C  11.10000 2.17300 23.35300
C  12.08000 3.03200 24.20200
N  10.05000 1.33800 28.29200
C  10.51000 0.40400 27.42300
C  11.20500 -0.53200 28.15000
C  11.07200 -0.12600 29.51500
C  10.38100 1.01800 29.54100
C  11.87600 -1.73600 27.54400
C  11.43400 -0.55000 30.84200
O  12.09100 -1.50000 31.20100
C  10.74500 0.45700 31.81300
C  9.81100 -0.29100 32.77700
O  8.84600 -0.99400 32.43400
O  10.06400 -0.05200 34.06200
C  9.24500 -0.68300 35.11400
H  6.20400 5.55500 30.69300
H  6.47200 4.38000 24.24100
H  10.87600 -0.13700 25.32000
H  8.18000 2.25900 33.10100
H  8.10700 5.15700 32.45900
H  6.60100 3.84700 34.05400
H  5.71900 3.24400 32.67300
H  5.79300 4.98700 32.89000
H  9.78400 4.63700 33.53700
H  10.89000 3.72600 32.56900
H  11.45500 2.34000 34.23400
H  9.93600 2.26700 34.95000
H  4.26900 6.36900 29.76200
H  3.47800 6.58900 28.14200
H  4.65600 7.72600 28.68700
H  3.19700 7.25500 25.94700
H  4.03900 8.57100 24.98200
H  4.28300 8.33100 26.73900
H  8.67100 3.50600 23.02500
H  9.58900 0.67800 23.55700
H  6.53700 1.59700 23.39700
H  7.66700 0.83100 22.39600
H  7.02400 2.42100 21.89400
H  10.92600 2.63600 22.38200
H  11.78100 1.33400 23.20500
H  11.72400 3.03400 25.23300
H  12.24600 4.04800 23.84400
H  13.07100 2.58100 24.16600
H  11.58600 -2.04500 26.54000
H  11.49600 -2.47900 28.24500
H  12.96000 -1.78400 27.64700
H  11.53700 1.02700 32.30000
H  9.22500 -1.77100 35.04900
H  8.18800 -0.43500 35.02100
H  9.51600 -0.39300 36.12900
Mg 48.47500 35.30800 27.53600
C  46.71400 33.48800 29.93400
C  48.22200 38.07400 29.54100
C  50.02800 36.97200 25.16000
C  48.06000 32.55100 25.33600
N  47.68600 35.60600 29.62400
C  47.17200 34.68700 30.50100
C  47.14800 35.25100 31.91000
C  47.28400 36.82300 31.61800
C  47.76800 36.89600 30.19000
C  46.07700 37.60500 31.95400
C  48.38900 34.75300 32.70900
C  48.32800 34.75400 34.24200
H  47.17300 35.50400 34.97000
N  48.92200 37.25800 27.31600
C  48.73900 38.25000 28.24500
C  49.32700 39.49500 27.76200
C  49.98800 39.23600 26.51000
C  49.68500 37.80700 26.25800
C  49.28200 40.68200 28.62600
C  50.76500 40.24100 25.51000
O  51.12600 39.91500 24.38100
C  51.06000 41.63600 26.00600
N  48.80400 34.86000 25.40900
C  49.61800 35.68500 24.74800
C  50.22500 34.99800 23.46700
C  49.82100 33.54400 23.69100
C  48.76800 33.62700 24.86400
C  49.90300 35.72400 22.16400
C  51.01000 32.46700 24.08200
C  50.92000 31.21700 23.31800
N  47.52800 33.48200 27.51700
C  47.44900 32.45100 26.58500
C  46.73700 31.29900 27.08800
C  46.33000 31.71300 28.34800
C  46.83300 33.06900 28.56800
C  46.55600 30.08000 26.39700
C  45.60400 31.35100 29.50300
O  45.04000 30.33700 29.79800
C  45.68900 32.57700 30.55700
C  46.12500 32.15200 31.87600
O  47.22700 31.86900 32.26400
O  45.03100 32.16200 32.71000
C  45.22000 32.01100 34.19300
H  48.09800 38.96000 30.16700
H  50.63800 37.40600 24.36500
H  48.21100 31.69400 24.67600
H  46.22400 35.02600 32.44200
H  48.04800 37.23900 32.27400
H  46.09200 37.97900 32.97800
H  45.15400 37.04700 31.79600
H  46.15200 38.48800 31.31900
H  49.27300 35.35200 32.49000
H  48.75400 33.75700 32.45800
H  49.25600 35.24800 34.52900
H  48.32700 33.70000 34.52000
H  50.17600 40.64400 29.24800
H  48.31900 40.77400 29.12900
H  49.23900 41.54300 27.96000
H  51.96100 42.09600 25.60100
H  51.24900 41.41500 27.05700
H  50.28000 42.37900 25.84000
H  51.30000 35.07300 23.63100
H  49.26900 33.20200 22.81500
H  49.69500 34.95800 21.41800
H  50.76700 36.30100 21.83400
H  49.01000 36.34400 22.24000
H  51.06000 32.34300 25.16400
H  51.94700 32.95900 23.81900
H  51.86200 31.04000 22.79700
H  50.04500 31.12200 22.67600
H  50.77300 30.45700 24.08500
H  46.04100 30.15700 25.43900
H  45.84300 29.65300 27.10200
H  47.49100 29.52000 26.38600
H  44.72200 33.03200 30.77500
H  45.14600 30.94600 34.41300
H  44.35100 32.52100 34.60900
H  46.17200 32.38000 34.57400

