158

Mg 26.70600 50.15100 26.42300
C  24.44900 51.35300 28.91600
C  28.74600 49.23900 29.03000
C  28.88500 49.10200 24.09300
C  24.81900 51.81100 23.96900
N  26.53500 50.23600 28.73600
C  25.41900 50.57000 29.49100
C  25.76700 50.42700 31.03200
C  27.21600 49.76100 31.03400
C  27.58000 49.79400 29.48500
C  28.25400 50.43200 31.99600
C  24.69200 49.59000 31.87800
C  24.21800 50.26700 33.17000
H  23.82000 49.38800 34.34900
N  28.52100 49.24000 26.59200
C  29.21000 48.94500 27.77100
C  30.47400 48.31200 27.45600
C  30.57200 48.25900 25.98000
C  29.25400 48.86200 25.47900
C  31.52400 47.98200 28.43900
C  31.63900 47.88100 25.07600
O  31.53200 48.19800 23.88900
C  32.87900 47.18400 25.68900
N  26.80200 50.38000 24.36000
C  27.78600 49.81200 23.63800
C  27.64400 50.05500 22.12100
C  26.26300 50.88500 22.07900
C  25.93400 50.97200 23.57300
C  28.80700 50.84600 21.51100
C  25.12400 50.11700 21.36600
C  24.27400 50.91000 20.28700
N  25.06300 51.38200 26.42000
C  24.36000 51.95200 25.33400
C  23.15700 52.63500 25.80900
C  23.10800 52.35700 27.22900
C  24.27600 51.64300 27.50000
C  22.00100 53.19200 24.97300
C  22.32100 52.48300 28.39300
O  21.19100 52.93000 28.50500
C  23.14300 51.88400 29.56400
C  23.47700 52.85100 30.65500
O  24.40800 53.66300 30.48900
O  22.55700 52.88900 31.69000
C  22.72200 53.98200 32.70200
H  29.38700 48.87200 29.83400
H  29.50300 48.75600 23.26200
H  24.21800 52.11400 23.10800
H  25.77900 51.45600 31.39000
H  27.13800 48.70700 31.30100
H  28.36400 49.75900 32.84700
H  27.85400 51.39200 32.32300
H  29.18800 50.55100 31.44600
H  25.21700 48.65800 32.08500
H  23.87200 49.51100 31.16400
H  23.44300 51.03200 33.11100
H  24.97000 50.92800 33.60100
H  32.27800 48.74300 28.23900
H  31.74700 46.93400 28.23900
H  31.26100 48.02400 29.49600
H  33.71700 47.13500 24.99400
H  32.67200 46.25300 26.21800
H  33.27000 47.84700 26.46000
H  27.60400 49.07900 21.63700
H  26.29900 51.86400 21.60200
H  28.49700 51.73700 20.96300
H  29.45900 50.29400 20.83400
H  29.38900 51.17400 22.37200
H  24.47700 49.70600 22.14000
H  25.65900 49.29100 20.89800
H  24.19600 50.12500 19.53500
H  24.65400 51.74700 19.70100
H  23.28300 51.19800 20.63800
H  21.18300 53.52300 25.61200
H  21.46500 52.50800 24.31500
H  22.33300 53.99700 24.31700
H  22.47000 51.11500 29.94400
H  21.89900 54.68200 32.55900
H  23.59600 54.60000 32.49900
H  22.66300 53.51800 33.68700
Mg 16.77500 51.84300 25.77800
C  18.72600 50.55600 28.36000
C  14.36500 52.47000 28.04600
C  14.97300 53.00800 23.14900
C  19.23400 50.64300 23.45300
N  16.47200 51.42200 27.93300
C  17.50600 51.11900 28.75300
C  17.07000 51.29400 30.21000
C  15.54100 51.56100 30.13200
C  15.42200 51.78700 28.63500
C  14.53200 50.50400 30.53200
C  17.94600 52.35600 30.92300
C  18.27500 52.22900 32.37500
H  17.24800 51.43600 33.22400
N  14.99800 52.76000 25.64400
C  14.09800 52.86700 26.67700
C  12.87500 53.60000 26.13100
C  13.04900 53.79200 24.66700
C  14.40600 53.20200 24.41700
C  11.70500 53.95700 26.96400
C  12.17900 54.45900 23.68700
O  12.50100 54.68500 22.52000
C  10.86900 55.11600 24.10000
N  17.05100 51.76900 23.65500
C  16.15100 52.36100 22.75500
C  16.61400 52.30200 21.31000
C  18.02900 51.69100 21.49800
C  18.15000 51.36300 22.94500
C  15.75300 51.28200 20.41300
C  19.12100 52.51900 20.79500
C  19.86800 51.90000 19.57600
N  18.61100 50.72300 25.86800
C  19.42600 50.29500 24.86900
C  20.57800 49.67300 25.49300
C  20.32400 49.61000 26.86100
C  19.10500 50.40400 27.01600
C  21.94500 49.31000 24.78100
C  20.78500 49.17600 28.19000
O  21.74000 48.51700 28.51600
C  19.81200 49.78700 29.18500
C  19.26300 48.75800 30.02900
O  18.34200 48.02100 29.76600
O  19.96800 48.71800 31.20700
C  19.31800 47.85800 32.18000
H  13.61600 52.88800 28.72200
H  14.49300 53.42600 22.26100
H  19.88500 50.32500 22.63700
H  17.33200 50.35600 30.69800
H  15.35100 52.53400 30.58400
H  13.82200 51.06200 31.14300
H  14.97300 49.79300 31.23100
H  14.06400 50.01500 29.67700
H  17.59400 53.38800 30.91600
H  18.89200 52.34500 30.38200
H  18.40600 53.19800 32.85700
H  19.20500 51.66100 32.40200
H  10.89200 53.27100 26.72600
H  11.48100 55.00300 26.75800
H  11.94300 53.95200 28.02800
H  10.98000 56.05000 24.65000
H  10.12800 54.43800 24.52200
H  10.37800 55.33800 23.15300
H  16.59900 53.34400 20.99000
H  18.15800 50.76100 20.94400
H  14.84800 50.87200 20.86300
H  16.35000 50.40300 20.17200
H  15.54500 51.86200 19.51400
H  19.66000 52.95800 21.63400
H  18.68600 53.40600 20.33500
H  19.24000 51.14700 19.10000
H  20.81500 51.43300 19.84600
H  20.15200 52.67400 18.86300
H  22.12700 49.72200 23.78800
H  22.11200 48.24200 24.91700
H  22.66700 49.88600 25.36000
H  20.38300 50.50000 29.78000
H  19.28200 46.79700 31.92900
H  18.28900 48.11700 32.43000
H  19.90400 47.80900 33.09800

