158

Mg 23.32300 -6.26400 45.18500
C  25.59000 -3.98000 43.70800
C  20.78200 -4.72500 43.41200
C  21.26200 -8.86200 46.03100
C  25.98700 -7.80700 46.73200
N  23.17300 -4.47200 43.81400
C  24.24600 -3.72500 43.38200
C  23.78700 -2.54700 42.49600
C  22.23500 -2.64100 42.64700
C  22.00900 -3.95500 43.34500
C  21.49600 -1.44300 43.38400
C  24.23100 -2.83900 41.05600
C  24.61100 -1.57100 40.21100
H  23.98700 -1.43900 38.87900
N  21.31700 -6.71900 44.71700
C  20.43600 -5.92100 44.01700
C  19.11200 -6.52900 43.97200
C  19.24400 -7.70700 44.77700
C  20.65600 -7.78500 45.24600
C  17.90300 -5.92300 43.25400
C  18.08300 -8.66100 45.03900
O  16.93900 -8.37600 44.59400
C  18.26300 -9.88200 45.94100
N  23.54800 -8.07700 46.36800
C  22.59400 -9.00400 46.48500
C  23.05600 -10.15200 47.38900
C  24.52300 -9.74600 47.78700
C  24.74400 -8.50400 46.86000
C  22.19200 -10.49800 48.58500
C  25.54600 -10.96400 47.69000
C  26.18300 -11.34100 49.06900
N  25.41600 -6.03500 45.24400
C  26.34400 -6.70000 45.95300
C  27.61600 -6.04100 45.81300
C  27.40100 -5.05700 44.88900
C  26.00400 -5.09500 44.55200
C  28.85600 -6.32500 46.54400
C  28.07200 -3.92300 44.22500
O  29.24400 -3.52100 44.25700
C  26.87800 -3.15200 43.39400
C  26.89100 -1.72800 43.82700
O  26.26100 -1.29200 44.75800
O  27.79500 -1.01500 43.14000
C  27.95800 0.39000 43.55000
H  19.97900 -4.26800 42.82900
H  20.70100 -9.73700 46.36500
H  26.82700 -8.36500 47.15100
H  24.22400 -1.61500 42.85500
H  21.70700 -2.73200 41.69800
H  22.15700 -0.60700 43.61600
H  21.22400 -1.71900 44.40300
H  20.59500 -1.11200 42.86800
H  23.40400 -3.23100 40.46500
H  25.09000 -3.50900 41.02500
H  25.68100 -1.64300 40.01700
H  24.38600 -0.62000 40.69400
H  17.25800 -6.64200 42.74900
H  18.09900 -5.13100 42.53200
H  17.33200 -5.42900 44.04100
H  17.24600 -10.26600 46.02600
H  18.59800 -9.57800 46.93300
H  18.93900 -10.63500 45.53800
H  22.98000 -11.02200 46.73600
H  24.51400 -9.36800 48.80900
H  22.01100 -11.56700 48.47300
H  21.23400 -9.98400 48.66100
H  22.75400 -10.39600 49.51300
H  26.29200 -10.91600 46.89700
H  24.96400 -11.80100 47.30500
H  25.76400 -12.27500 49.44500
H  26.01400 -10.50700 49.74900
H  27.27000 -11.26800 49.09700
H  29.19600 -5.35100 46.89700
H  29.64600 -6.82600 45.98600
H  28.69600 -6.83500 47.49500
H  27.07600 -3.09000 42.32400
H  27.04900 0.90300 43.23600
H  28.84200 0.88300 43.14500
H  28.07600 0.34300 44.63200
Mg -11.63200 38.07700 42.34900
C  -9.35300 35.48700 41.37500
C  -9.54200 40.28400 40.60000
C  -13.92100 40.40400 42.57000
C  -13.90200 35.58300 43.14700
N  -9.75200 37.83500 41.15900
C  -8.96600 36.71700 40.91000
C  -7.70900 37.04700 40.11100
C  -7.66100 38.60900 40.20700
C  -9.07200 38.93800 40.67100
C  -6.56200 39.19000 41.10300
C  -7.67900 36.39200 38.68000
C  -6.50400 35.49300 38.36300
H  -5.51000 36.00100 37.24900
N  -11.74800 40.10100 41.71500
C  -10.79000 40.85800 41.04000
C  -11.14500 42.24800 41.00800
C  -12.43000 42.26300 41.53200
C  -12.76000 40.91800 41.99600
C  -10.34400 43.31700 40.32200
C  -13.30500 43.55000 41.62900
O  -12.85200 44.56500 41.34400
C  -14.79500 43.46300 41.93600
N  -13.66300 37.91800 42.63500
C  -14.33300 39.08400 42.92000
C  -15.72100 38.73800 43.47300
C  -15.83300 37.20100 43.61400
C  -14.41600 36.85300 43.01800
C  -16.15700 39.57200 44.70400
C  -16.94300 36.61800 42.76100
C  -17.50500 35.27800 43.17100
N  -11.55500 35.98300 42.50600
C  -12.51500 35.09900 42.89000
C  -12.03900 33.69300 42.82100
C  -10.71900 33.84300 42.35900
C  -10.51700 35.23700 42.04700
C  -12.80200 32.50000 43.20400
C  -9.54500 33.16000 42.00300
O  -9.28100 31.94200 42.00300
C  -8.56100 34.21500 41.45800
C  -7.39300 34.17200 42.30300
O  -7.31900 34.63900 43.38900
O  -6.42100 33.47600 41.65500
C  -5.35500 33.19800 42.61800
H  -8.73100 40.91700 40.23200
H  -14.56000 41.23800 42.86700
H  -14.59300 34.82200 43.51500
H  -6.86600 36.67500 40.69400
H  -7.47000 39.07100 39.23800
H  -6.02600 38.38200 41.60100
H  -7.06600 39.90000 41.75800
H  -5.80100 39.83400 40.66200
H  -7.76100 37.25200 38.01500
H  -8.69600 36.01100 38.58700
H  -6.87800 34.53800 37.99300
H  -5.97800 35.30200 39.29800
H  -9.29300 43.02700 40.30700
H  -10.50000 44.22700 40.90300
H  -10.81900 43.45100 39.35100
H  -15.10500 42.60800 41.33500
H  -15.31800 44.37500 41.64600
H  -14.93900 43.27900 43.00000
H  -16.38100 39.13000 42.69900
H  -15.84100 36.89400 44.65900
H  -16.55500 38.99300 45.53700
H  -16.84100 40.37800 44.43900
H  -15.24900 40.07100 45.04400
H  -16.66200 36.44700 41.72100
H  -17.78400 37.31000 42.80500
H  -18.58800 35.38500 43.24200
H  -17.25600 35.01300 44.19900
H  -17.24000 34.55800 42.39800
H  -12.64800 31.74400 42.43300
H  -13.84300 32.62800 43.50000
H  -12.18600 32.10600 44.01200
H  -8.26400 33.84700 40.47500
H  -4.83400 34.11800 42.88400
H  -4.62000 32.49800 42.22100
H  -5.79200 32.79100 43.53000

