158

Mg 0.80100 7.48600 25.11100
C  1.24800 8.69200 28.38100
C  1.39500 4.25900 26.38900
C  0.67500 6.04800 21.94400
C  0.99800 10.60000 23.82300
N  1.26000 6.57500 27.10700
C  1.26500 7.28800 28.32200
C  1.52800 6.28200 29.47400
C  1.70200 4.94100 28.77400
C  1.54300 5.26000 27.33300
C  3.10400 4.26400 28.98400
C  0.46900 6.32900 30.58300
C  1.01300 6.32600 31.96400
H  2.07200 5.31500 32.37800
N  0.84900 5.49200 24.29200
C  1.04500 4.34700 24.99000
C  0.91400 3.20200 24.14400
C  0.66000 3.72300 22.86400
C  0.72500 5.17400 23.00600
C  0.84100 1.82700 24.61600
C  0.46000 2.88400 21.61500
O  0.29100 3.32300 20.46200
C  0.37300 1.31600 21.52900
N  0.93500 8.17500 23.15500
C  0.65800 7.47600 22.07200
C  0.31500 8.40700 20.86700
C  0.43400 9.78800 21.51600
C  0.80900 9.52100 22.90600
C  1.29700 8.17400 19.63300
C  -0.90600 10.62900 21.49300
C  -0.91300 11.96500 20.69800
N  1.16700 9.25800 25.88700
C  1.23700 10.51100 25.24000
C  1.43300 11.50600 26.21400
C  1.41400 10.87400 27.49400
C  1.23000 9.51800 27.22000
C  1.52000 13.02100 25.90700
C  1.41700 11.09000 28.91100
O  1.58500 12.09300 29.67700
C  1.34400 9.62900 29.48900
C  2.59600 9.47700 30.29000
O  3.61700 8.97300 29.93400
O  2.42300 9.99400 31.58700
C  3.56100 9.82200 32.52600
H  1.63300 3.23300 26.67500
H  0.58900 5.63000 20.93900
H  0.84800 11.58300 23.37000
H  2.47500 6.63100 29.88700
H  0.97800 4.21700 29.14800
H  3.57800 4.83900 29.77900
H  3.82200 4.38600 28.17300
H  3.07600 3.24000 29.35700
H  -0.18300 5.45700 30.53400
H  -0.11800 7.24500 30.51500
H  0.23100 6.24900 32.72000
H  1.35400 7.34600 32.13700
H  -0.09200 1.35800 24.30500
H  0.94100 1.61900 25.68100
H  1.70100 1.30300 24.19800
H  1.05500 0.77400 22.18400
H  0.47200 0.96600 20.50100
H  -0.65200 1.19400 21.87800
H  -0.67800 8.12200 20.52200
H  1.24900 10.32700 21.03100
H  2.09100 7.43600 19.74500
H  1.67600 9.14900 19.32500
H  0.73200 7.93100 18.73300
H  -1.11600 10.84500 22.54000
H  -1.70500 9.96500 21.16500
H  -1.38600 11.94600 19.71600
H  0.12800 12.25600 20.56100
H  -1.37900 12.73900 21.30700
H  1.25000 13.71000 26.70700
H  0.73000 13.17600 25.17200
H  2.48100 13.35700 25.51800
H  0.54200 9.58600 30.22600
H  3.50300 10.51700 33.36300
H  4.52100 9.94900 32.02500
H  3.54000 8.83600 32.99100
Mg 47.59300 16.15300 29.02000
C  45.35500 15.93300 31.63400
C  49.90200 17.53500 30.93700
C  49.35900 17.05100 26.16200
C  45.17000 14.80600 26.91500
N  47.58800 16.63400 30.99400
C  46.61500 16.46900 31.95800
C  47.08500 16.70300 33.34700
C  48.39700 17.44700 33.07500
C  48.68400 17.17600 31.59100
C  48.36900 18.99600 33.42000
C  47.24500 15.30300 34.04700
C  47.32200 15.37600 35.57200
H  46.95500 16.66500 36.24900
N  49.48900 17.09000 28.61600
C  50.28500 17.56000 29.57100
C  51.54000 18.03300 28.95400
C  51.36600 17.87400 27.58200
C  49.98900 17.32300 27.42400
C  52.72200 18.45300 29.76200
C  52.31100 18.26900 26.42600
O  52.08800 18.04500 25.32000
C  53.67700 18.80900 26.64300
N  47.34500 15.82800 26.90300
C  48.21300 16.27500 25.95200
C  47.64800 16.11200 24.54400
C  46.37000 15.16000 24.80100
C  46.28900 15.21800 26.32100
C  47.38900 17.42300 23.76200
C  46.61300 13.68500 24.31200
C  46.34800 13.54000 22.79700
N  45.63400 15.35700 29.19900
C  44.77300 14.87500 28.28200
C  43.61400 14.44700 28.89100
C  43.73600 14.84900 30.27600
C  44.96400 15.38700 30.36400
C  42.35400 14.05300 28.10900
C  43.11000 14.91800 31.53200
O  41.96300 14.60700 31.83200
C  44.13200 15.58500 32.59900
C  43.43200 16.76800 33.14700
O  43.19800 17.83400 32.55100
O  42.84800 16.42500 34.31900
C  41.95000 17.47500 34.97200
H  50.64700 17.95300 31.61600
H  49.85500 17.38700 25.24900
H  44.48500 14.30100 26.23000
H  46.44800 17.39900 33.89300
H  49.14500 16.99800 33.72900
H  48.55500 19.53000 32.48900
H  49.11500 19.39400 34.10800
H  47.41800 19.33100 33.83500
H  48.26500 15.02200 33.78700
H  46.58700 14.48800 33.74600
H  48.35600 15.15100 35.83200
H  46.82800 14.50200 35.99500
H  53.55200 18.05100 29.18200
H  52.72000 18.21100 30.82500
H  52.78500 19.54100 29.74400
H  54.17900 19.16900 25.74500
H  54.35900 18.13400 27.15900
H  53.59200 19.56900 27.42000
H  48.48500 15.51000 24.19000
H  45.46700 15.50800 24.29700
H  46.33500 17.70200 23.75600
H  47.83700 17.36500 22.76900
H  47.94000 18.17700 24.32400
H  45.98400 13.03400 24.92000
H  47.60400 13.28300 24.51800
H  45.88600 12.55600 22.71800
H  47.34600 13.50300 22.36000
H  45.77700 14.37700 22.39400
H  41.94300 14.81100 27.44200
H  41.62000 13.79200 28.87100
H  42.58600 13.19000 27.48500
H  44.22700 14.76300 33.30900
H  41.05500 17.66000 34.37900
H  42.47000 18.40100 35.21900
H  41.67500 17.10400 35.95900

