158

Mg 1.57600 -1.95500 43.79700
C  4.79900 -0.82900 43.33900
C  0.46900 0.92900 42.23000
C  -1.60500 -3.28400 43.67400
C  2.80600 -5.14600 44.73600
N  2.61900 -0.14100 42.92100
C  3.91200 0.08800 42.86700
C  4.20600 1.46000 42.30600
C  2.78300 2.11600 42.16200
C  1.88300 0.89800 42.39800
C  2.48500 3.30000 43.14100
C  4.93200 1.36200 40.88900
C  6.13700 2.36600 40.65300
H  6.04300 3.05900 39.31100
N  -0.35000 -1.27000 43.21400
C  -0.57700 -0.01600 42.60600
C  -1.99800 0.17600 42.44600
C  -2.56800 -1.06300 42.81600
C  -1.46500 -1.97100 43.22700
C  -2.66200 1.40600 41.93900
C  -4.08400 -1.30600 42.78300
O  -4.92700 -0.48900 42.49500
C  -4.65300 -2.69700 43.08700
N  0.69900 -3.86200 44.20000
C  -0.59600 -4.09300 44.13900
C  -0.93100 -5.56100 44.43700
C  0.42700 -6.14200 44.88600
C  1.42400 -4.99700 44.58900
C  -2.11600 -5.61300 45.52600
C  0.79900 -7.50800 44.20300
C  1.05600 -7.52600 42.74800
N  3.46600 -2.85600 44.08900
C  3.79400 -4.10400 44.58500
C  5.25600 -4.10900 44.82200
C  5.71100 -2.88100 44.31900
C  4.54800 -2.14400 43.85000
C  6.01700 -5.28700 45.48500
C  6.89900 -2.02300 44.06300
O  8.07700 -2.26300 44.18000
C  6.33900 -0.70300 43.41200
C  6.67100 0.41400 44.35700
O  5.98300 0.89500 45.20500
O  7.88500 0.92100 43.97400
C  8.37600 2.13300 44.73900
H  0.02100 1.91500 42.09100
H  -2.58800 -3.74200 43.54400
H  3.10200 -6.06200 45.25100
H  4.80000 2.05400 43.00100
H  2.77200 2.53100 41.15500
H  1.47100 3.22400 43.53300
H  2.39800 4.27900 42.66900
H  3.21300 3.45400 43.93800
H  4.17700 1.49900 40.11500
H  5.15300 0.31300 40.68900
H  7.08000 1.82400 40.72000
H  6.27200 3.01300 41.51900
H  -3.53100 1.83500 42.43600
H  -3.03300 1.10200 40.96000
H  -1.91800 2.17500 41.73000
H  -4.44000 -3.35400 42.24300
H  -5.71600 -2.47400 43.16900
H  -4.23800 -3.06800 44.02400
H  -1.22100 -6.06800 43.51700
H  0.28100 -6.29500 45.95500
H  -2.40600 -4.62000 45.87000
H  -1.84500 -6.36600 46.26600
H  -2.88400 -6.09300 44.92000
H  -0.02400 -8.15700 44.50500
H  1.63000 -7.86300 44.81300
H  0.41900 -8.12500 42.09700
H  2.13400 -7.65600 42.64900
H  0.87900 -6.48200 42.49000
H  6.43700 -5.86100 44.65900
H  5.35200 -5.99600 45.97900
H  6.74900 -5.06000 46.26000
H  6.70900 -0.42200 42.42600
H  7.86500 2.15900 45.70100
H  8.18900 3.12800 44.33500
H  9.44700 2.03000 44.91200
Mg 53.84500 24.12200 44.81500
C  51.17500 26.25100 43.84300
C  51.90000 21.36000 43.77600
C  56.56400 22.28700 44.83000
C  55.78600 27.05300 45.08100
N  51.83500 23.85000 43.82400
C  50.95200 24.87500 43.64700
C  49.60500 24.34800 43.13300
C  49.73400 22.80700 43.51700
C  51.23400 22.62500 43.77900
C  48.88000 22.41100 44.76100
C  49.37600 24.55800 41.68500
C  47.92100 24.64700 41.22700
H  47.43100 24.05600 39.92500
N  54.21300 22.01100 44.36600
C  53.26400 21.11400 44.06000
C  53.95800 19.83200 44.03400
C  55.26500 20.04500 44.42400
C  55.44500 21.52700 44.49000
C  53.30800 18.56700 43.61200
C  56.27300 18.90500 44.72500
O  55.86600 17.73700 44.53600
C  57.68200 19.15400 45.28800
N  55.83900 24.54300 44.79900
C  56.70900 23.61700 44.97200
C  58.06700 24.26600 45.19200
C  57.86300 25.74800 45.29500
C  56.40900 25.77500 44.99100
C  58.74100 23.72600 46.47800
C  58.76500 26.63300 44.36300
C  58.74600 26.45500 42.83900
N  53.56100 26.28300 44.60900
C  54.41700 27.32900 44.87700
C  53.75200 28.57700 44.84300
C  52.42900 28.20600 44.53000
C  52.38500 26.77700 44.24800
C  54.37300 29.91000 45.03500
C  51.13800 28.67200 44.25300
O  50.69400 29.82600 44.24500
C  50.24200 27.40100 43.72900
C  49.73800 27.89300 42.43600
O  50.35600 28.07200 41.36500
O  48.40000 28.02200 42.53200
C  47.71400 28.63200 41.36100
H  51.24100 20.51200 43.57900
H  57.45900 21.66300 44.77700
H  56.49600 27.87700 45.18400
H  48.78600 24.78800 43.70200
H  49.38400 22.18600 42.69200
H  48.12600 21.63100 44.66000
H  48.35200 23.27900 45.15500
H  49.56700 22.04700 45.52500
H  50.01000 23.87300 41.12200
H  49.79500 25.53500 41.44600
H  47.55600 25.67200 41.15900
H  47.29500 24.22100 42.01200
H  53.95900 17.83000 43.14300
H  52.58500 18.85200 42.84700
H  52.73100 18.08400 44.40200
H  57.77600 18.22400 45.84900
H  57.79300 19.92500 46.05100
H  58.49500 19.17600 44.56300
H  58.62700 24.14500 44.26500
H  58.01900 26.01600 46.34000
H  59.58800 23.10100 46.19700
H  58.06800 23.10700 47.07100
H  59.12500 24.42800 47.21900
H  59.76300 26.51500 44.78500
H  58.54300 27.65600 44.66600
H  58.11600 25.65100 42.45700
H  59.73100 26.26200 42.41500
H  58.41400 27.33100 42.28100
H  53.73300 30.63600 44.53200
H  55.30900 30.17100 44.54100
H  54.49700 30.11800 46.09800
H  49.39100 27.36800 44.40800
H  46.63900 28.76200 41.48600
H  47.95500 28.15600 40.41000
H  48.08400 29.65700 41.33100

