158

Mg 47.83500 34.50500 26.83500
C  46.11000 33.26800 29.70800
C  48.25100 37.46600 28.38200
C  49.12000 35.58300 24.06100
C  46.96700 31.38900 25.22500
N  47.28900 35.18300 28.85600
C  46.63600 34.56600 29.85800
C  46.59100 35.46300 31.11200
C  47.07800 36.86200 30.53900
C  47.55200 36.50800 29.14100
C  45.94700 37.90100 30.44400
C  47.53000 34.99800 32.34100
C  46.86000 35.15800 33.76900
H  47.84800 35.56400 34.81700
N  48.71000 36.23400 26.31400
C  48.79100 37.36100 27.08800
C  49.69500 38.24900 26.47400
C  49.89900 37.77200 25.10300
C  49.21200 36.49200 25.11900
C  50.31500 39.46100 27.19300
C  50.72900 38.41300 23.93500
O  50.79200 37.88600 22.82400
C  51.60300 39.62400 24.28000
N  48.05500 33.49700 24.91300
C  48.60400 34.24100 23.94800
C  48.81900 33.37700 22.64200
C  48.19300 31.96800 23.05900
C  47.63300 32.33300 24.43200
C  48.27400 34.00700 21.30100
C  49.18900 30.74000 23.07200
C  50.19900 30.65200 24.17000
N  46.83000 32.61100 27.35400
C  46.52500 31.50800 26.56600
C  45.82200 30.52700 27.43200
C  45.54700 31.16900 28.63800
C  46.20800 32.44000 28.54700
C  45.24700 29.23500 26.92300
C  44.80500 31.20800 29.82500
O  43.96300 30.43800 30.30200
C  45.01600 32.60100 30.54500
C  45.22300 32.35800 31.97000
O  46.23600 31.95900 32.50500
O  43.94600 32.47100 32.55300
C  43.93400 32.00000 33.95600
H  48.45700 38.41700 28.87900
H  49.58700 35.96400 23.15000
H  46.69200 30.43300 24.77500
H  45.54300 35.41200 31.40600
H  47.81000 37.27600 31.23300
H  46.39500 38.89200 30.50500
H  45.25700 37.85800 31.28600
H  45.42100 37.76500 29.49900
H  48.47200 35.54700 32.34800
H  47.87200 33.98300 32.14200
H  46.39900 34.22000 34.07800
H  46.08800 35.92600 33.72600
H  49.99500 40.38200 26.70600
H  51.40500 39.45600 27.19000
H  49.97500 39.56800 28.22300
H  50.97400 40.36700 24.77300
H  51.87900 39.99900 23.29500
H  52.40800 39.17900 24.86500
H  49.89600 33.26700 22.52000
H  47.27800 31.85900 22.47600
H  49.10700 34.49000 20.79100
H  47.46500 34.73400 21.35400
H  47.87100 33.22700 20.65600
H  49.62300 30.72500 22.07200
H  48.55400 29.85400 23.07100
H  51.15100 30.49800 23.66100
H  49.88800 29.75400 24.70300
H  50.26500 31.47900 24.87700
H  44.21400 29.31100 26.58100
H  45.26200 28.55100 27.77200
H  45.88800 28.81700 26.14700
H  44.04200 33.06700 30.39300
H  44.46600 32.71300 34.58600
H  44.34800 30.99600 34.04600
H  42.89000 32.07000 34.26300
Mg -3.28200 35.01400 26.95300
C  -4.33600 32.86500 29.26500
C  -1.74000 36.85800 29.57600
C  -2.33700 37.45400 24.73800
C  -4.88400 33.38000 24.40600
N  -3.09600 34.85200 29.13600
C  -3.53800 33.82800 29.91200
C  -3.08300 33.93600 31.34100
C  -2.37500 35.29400 31.46500
C  -2.32200 35.66100 29.90400
C  -3.11900 36.33600 32.37700
C  -2.27500 32.64900 31.81400
C  -2.81700 31.88400 33.05800
H  -2.15900 31.92800 34.44100
N  -2.22700 36.87100 27.15000
C  -1.62800 37.43500 28.30200
C  -0.93900 38.69800 27.97700
C  -1.08800 38.88500 26.59200
C  -1.92900 37.72500 26.10000
C  -0.28900 39.61600 29.05000
C  -0.63400 40.03400 25.73000
O  -0.89000 40.07400 24.51700
C  0.15600 41.19700 26.34200
N  -3.78600 35.46900 24.92100
C  -3.16100 36.48500 24.20000
C  -3.70900 36.50800 22.75700
C  -4.29700 35.07300 22.58300
C  -4.33600 34.56600 24.05200
C  -4.66300 37.66900 22.57300
C  -3.59000 34.22000 21.54300
C  -2.24900 33.60200 21.83100
N  -4.51700 33.43100 26.85400
C  -5.05400 32.85600 25.73700
C  -5.68900 31.64700 26.19700
C  -5.56500 31.61200 27.56900
C  -4.81600 32.75100 27.97900
C  -6.26300 30.58700 25.28800
C  -5.80500 30.84100 28.82000
O  -6.30100 29.75200 29.11700
C  -5.04700 31.67100 29.89800
C  -5.99500 32.00900 30.95700
O  -6.70000 33.01800 30.86500
O  -5.94300 31.11700 32.03800
C  -7.00300 31.33000 33.00800
H  -1.05800 37.28000 30.31800
H  -1.98400 38.12400 23.95100
H  -5.39700 32.76700 23.66200
H  -3.97400 34.09800 31.94600
H  -1.32600 35.21800 31.75200
H  -3.84200 36.84200 31.73800
H  -2.40000 37.11800 32.62500
H  -3.63600 35.96800 33.26300
H  -1.28500 32.83000 32.23400
H  -2.17400 31.95000 30.98300
H  -3.08500 30.86000 32.80000
H  -3.82200 32.23000 33.30100
H  0.74800 39.79600 28.76300
H  -0.21000 39.15600 30.03500
H  -0.92300 40.50100 29.10600
H  0.41400 41.92000 25.56800
H  0.96700 40.62300 26.79200
H  -0.46900 41.66600 27.10100
H  -2.90300 36.65000 22.03700
H  -5.34900 35.13100 22.30500
H  -4.13900 38.36200 21.91600
H  -4.88300 38.29800 23.43500
H  -5.62200 37.43300 22.11300
H  -3.37900 34.73200 20.60400
H  -4.31300 33.45500 21.26100
H  -2.36000 32.54300 21.60200
H  -1.77700 33.79000 22.79600
H  -1.56500 33.87900 21.02900
H  -5.95500 30.65500 24.24400
H  -7.32800 30.81200 25.22800
H  -6.07900 29.54200 25.53700
H  -4.34900 30.98500 30.37800
H  -7.95300 31.17500 32.49600
H  -7.14600 32.36300 33.32600
H  -6.85600 30.72500 33.90200

