158

Mg 48.46400 35.57100 27.55100
C  46.09400 34.10900 29.75200
C  48.83200 38.08000 29.73300
C  50.26200 37.06800 25.17500
C  47.58100 33.17200 25.26100
N  47.73000 35.83000 29.60900
C  46.84800 35.15300 30.38600
C  46.95000 35.56500 31.82400
C  47.43500 37.01700 31.64000
C  48.06800 36.98500 30.25800
C  46.35400 38.11000 31.78100
C  47.83200 34.62900 32.70700
C  48.23000 35.07300 34.15400
H  47.35600 36.09500 34.82800
N  49.41900 37.26300 27.50800
C  49.51400 38.24000 28.48600
C  50.36200 39.38500 28.05500
C  50.81400 39.04800 26.77900
C  50.12300 37.78300 26.39900
C  50.70700 40.58900 28.97400
C  51.64000 39.90500 25.79600
O  52.07900 39.52400 24.66900
C  52.21800 41.28800 26.25000
N  48.83400 35.20800 25.43800
C  49.66000 35.91200 24.70900
C  49.95600 35.26800 23.31000
C  49.35400 33.90200 23.44100
C  48.53300 34.10400 24.79700
C  49.50600 36.13000 22.14000
C  50.36000 32.69300 23.51600
C  50.03000 31.60400 22.45500
N  47.14700 34.01500 27.42600
C  46.87200 33.07300 26.42000
C  45.87900 32.15000 26.82000
C  45.50400 32.50400 28.16600
C  46.25900 33.57600 28.53500
C  45.32600 30.96500 26.12500
C  44.67600 32.20900 29.32000
O  43.86500 31.26100 29.47800
C  44.90700 33.33800 30.35700
C  44.93300 32.71600 31.74900
O  45.38400 31.57300 31.99100
O  44.26400 33.54700 32.61900
C  44.33500 33.10000 34.00600
H  48.82200 38.91100 30.44200
H  50.88700 37.58500 24.44400
H  47.41900 32.31800 24.60000
H  45.89700 35.49500 32.09700
H  48.18900 37.20200 32.40500
H  45.66000 37.85200 32.58100
H  45.72500 38.44800 30.95800
H  46.88800 38.99000 32.14100
H  48.72400 34.41200 32.12000
H  47.34600 33.65400 32.74100
H  49.24100 35.47900 34.17100
H  48.32500 34.13500 34.69900
H  50.02500 41.41600 28.78100
H  51.75400 40.85100 28.82800
H  50.67900 40.20400 29.99400
H  51.54700 41.81600 26.92700
H  52.35800 42.01100 25.44600
H  53.21200 41.09200 26.65200
H  51.04200 35.20200 23.23700
H  48.64200 33.66300 22.65000
H  48.52100 35.92600 21.72000
H  50.26000 36.29400 21.37000
H  49.45200 37.14800 22.52600
H  50.56200 32.41600 24.55100
H  51.37300 32.91800 23.18100
H  50.46400 30.63200 22.68800
H  50.57900 31.87900 21.55400
H  48.96200 31.46800 22.28500
H  44.85900 31.32800 25.21000
H  44.54000 30.46200 26.68800
H  46.17600 30.30800 25.94200
H  44.08500 34.05100 30.42200
H  45.38900 33.23200 34.25000
H  44.23400 32.03400 34.20900
H  43.81400 33.70600 34.74700
Mg -0.26100 33.97700 26.74000
C  -2.31900 32.39400 29.05400
C  1.15700 35.76300 29.23000
C  1.05300 36.03700 24.33600
C  -1.82400 32.17000 24.22900
N  -0.57700 34.09200 28.91100
C  -1.39300 33.26400 29.59000
C  -1.25700 33.67800 31.11200
C  -0.23400 34.88300 31.08400
C  0.28600 34.82700 29.66900
C  -0.72200 36.26200 31.48800
C  -0.81900 32.47700 31.96300
C  -0.35600 32.72300 33.41800
H  -0.72700 31.84200 34.57800
N  1.08700 35.68200 26.77500
C  1.57400 36.18900 27.88300
C  2.52400 37.19900 27.51200
C  2.52600 37.35100 26.08000
C  1.50500 36.39800 25.64100
C  3.28600 37.96000 28.45600
C  3.26000 38.35000 25.16600
O  3.16900 38.31200 23.92400
C  4.28200 39.36900 25.64200
N  -0.60800 34.26600 24.67800
C  0.17500 35.10700 23.90000
C  0.08600 34.77500 22.42800
C  -0.80600 33.47800 22.33400
C  -1.06000 33.24000 23.82200
C  -0.40800 35.93800 21.51700
C  -0.12300 32.20600 21.72900
C  0.95300 31.55900 22.60800
N  -1.78500 32.66000 26.60100
C  -2.29700 31.96700 25.52200
C  -3.35800 31.00300 25.93300
C  -3.32900 31.12700 27.33200
C  -2.43800 32.16400 27.68000
C  -4.06100 30.01100 25.13700
C  -3.93700 30.58400 28.57600
O  -4.79700 29.74700 28.72500
C  -3.17800 31.32000 29.77600
C  -4.16900 31.81600 30.73500
O  -4.88300 32.78500 30.58200
O  -3.98400 31.13600 31.93900
C  -4.87500 31.50000 33.05000
H  1.58900 36.47500 29.93600
H  1.72700 36.55600 23.65200
H  -2.25100 31.56800 23.42400
H  -2.17700 34.06800 31.54800
H  0.66100 34.69600 31.67700
H  -1.41000 36.18300 32.33100
H  -1.26700 36.66400 30.63500
H  0.16400 36.84100 31.74900
H  0.01300 32.02100 31.42700
H  -1.57700 31.70000 32.05700
H  -0.53100 33.76600 33.68200
H  0.72200 32.56600 33.46200
H  2.84400 38.92200 28.71500
H  4.31000 38.16200 28.14000
H  3.38100 37.37300 29.36900
H  4.01900 39.68500 26.65100
H  4.20000 40.26700 25.02800
H  5.27200 38.91300 25.63800
H  1.07800 34.42700 22.14100
H  -1.67600 33.55600 21.68300
H  -0.09900 36.90900 21.90400
H  -1.49300 35.86100 21.45000
H  -0.13200 35.74400 20.48000
H  0.27400 32.39300 20.73100
H  -0.81100 31.36200 21.68200
H  1.86600 31.35300 22.04900
H  0.64700 30.60600 23.03800
H  1.28900 32.29600 23.33700
H  -3.54300 29.73700 24.21800
H  -5.01500 30.32200 24.71300
H  -4.30200 29.21600 25.84300
H  -2.48500 30.61200 30.23000
H  -4.16600 31.65500 33.86300
H  -5.62700 30.75000 33.29200
H  -5.45700 32.41500 32.93700

