158

Mg 26.11500 0.89800 29.21600
C  28.14900 0.77700 32.05800
C  23.32900 1.37000 31.39000
C  24.05400 1.07200 26.59000
C  28.73200 -0.04000 27.30500
N  25.83400 1.09000 31.48600
C  26.85200 1.14100 32.41000
C  26.19500 1.55100 33.78700
C  24.58000 1.50200 33.52700
C  24.60700 1.31700 31.99000
C  23.76500 0.47800 34.34800
C  26.73000 2.86000 34.28400
C  27.75400 2.78200 35.44000
H  27.57300 3.74100 36.60000
N  23.99800 1.28800 28.99600
C  23.06000 1.36600 29.98700
C  21.77800 1.42100 29.37300
C  21.92200 1.46900 27.94700
C  23.36800 1.27300 27.75900
C  20.48100 1.42000 30.13200
C  20.97200 1.72300 26.83300
O  21.28100 1.74000 25.61800
C  19.51400 2.04800 27.06600
N  26.37900 0.71100 27.20600
C  25.40000 0.78900 26.27100
C  26.01700 0.60400 24.87000
C  27.49800 0.21000 25.10500
C  27.56100 0.32300 26.64600
C  25.24900 -0.44500 24.05000
C  28.57100 1.07300 24.41400
C  28.54500 1.07600 22.87200
N  28.02400 0.33700 29.53500
C  29.04700 0.04500 28.66500
C  30.23300 -0.26400 29.36500
C  29.93600 0.00100 30.76500
C  28.62500 0.49500 30.77700
C  31.54100 -0.74800 28.79300
C  30.46100 0.06000 32.11200
O  31.56000 -0.31500 32.50500
C  29.38700 0.60100 32.95200
C  29.25100 -0.37800 34.04800
O  28.65500 -1.43800 34.06700
O  29.87500 0.16800 35.17900
C  29.61700 -0.48300 36.44800
H  22.48200 1.60000 32.04000
H  23.41400 1.11000 25.70700
H  29.59600 -0.32000 26.70000
H  26.46000 0.75000 34.47800
H  24.06900 2.46000 33.61500
H  24.38400 0.16000 35.18700
H  23.57900 -0.39800 33.72700
H  22.85600 0.98200 34.67700
H  25.98800 3.60300 34.57800
H  27.32800 3.23700 33.45400
H  28.75200 2.97100 35.04500
H  27.82900 1.76100 35.81400
H  20.63300 0.92800 31.09300
H  19.73700 0.81900 29.60900
H  20.32900 2.48900 30.27500
H  19.04300 1.16500 27.49900
H  19.02300 2.31200 26.12900
H  19.44200 2.82200 27.83000
H  25.93000 1.58800 24.40900
H  27.61900 -0.85500 24.90400
H  24.64300 0.15100 23.36800
H  24.63200 -1.06000 24.70500
H  25.83400 -1.05700 23.36300
H  29.55800 0.74200 24.73700
H  28.32800 2.05500 24.82000
H  29.54700 0.98700 22.45100
H  28.05400 1.93600 22.41700
H  27.88700 0.27200 22.54200
H  32.34800 -0.34700 29.40600
H  31.62100 -0.44600 27.74900
H  31.58600 -1.82200 28.97800
H  29.65500 1.53100 33.45300
H  29.57200 -1.56700 36.33500
H  28.75900 0.00200 36.91300
H  30.52600 -0.37100 37.03900
Mg -5.31500 25.85400 26.10300
C  -4.10200 27.48300 28.89100
C  -7.03600 23.68900 28.03100
C  -6.00200 24.10600 23.29400
C  -3.25600 27.76600 24.10100
N  -5.35500 25.51900 28.21000
C  -4.91400 26.42900 29.14700
C  -5.70500 26.16500 30.52600
C  -6.38400 24.81900 30.25200
C  -6.21000 24.62600 28.72800
C  -5.93600 23.51100 31.04400
C  -6.67700 27.32900 31.02600
C  -7.12900 27.29100 32.47300
H  -6.49300 26.26200 33.46500
N  -6.53800 24.18800 25.67100
C  -7.23100 23.49000 26.62600
C  -8.01500 22.57200 25.97700
C  -7.72400 22.60000 24.55900
C  -6.69800 23.68100 24.43900
C  -9.01600 21.64900 26.64800
C  -8.41700 21.90100 23.42100
O  -8.12700 22.12000 22.22800
C  -9.52400 20.90900 23.73200
N  -4.79700 26.07300 23.95200
C  -5.08300 25.08700 23.05200
C  -4.36100 25.35600 21.70100
C  -3.65400 26.67900 21.97900
C  -3.86000 26.83000 23.45700
C  -3.54000 24.15800 21.11800
C  -4.21600 27.86600 21.07900
C  -3.13300 28.81000 20.44600
N  -4.04600 27.47300 26.36000
C  -3.28000 28.15000 25.43400
C  -2.41600 29.00700 26.17300
C  -2.72500 28.93800 27.53600
C  -3.73500 27.90900 27.58900
C  -1.41200 29.93000 25.52800
C  -2.36800 29.27800 28.88600
O  -1.40900 29.93900 29.36300
C  -3.39400 28.48000 29.81400
C  -2.61600 27.82500 30.97500
O  -1.73600 26.98500 30.93800
O  -3.14600 28.26600 32.16600
C  -2.42700 27.85300 33.39800
H  -7.61400 22.95700 28.59900
H  -6.19100 23.58300 22.35400
H  -2.50400 28.18300 23.42800
H  -4.92700 25.95500 31.26000
H  -7.43800 24.95800 30.49100
H  -5.06600 23.75700 31.65200
H  -5.82000 22.63200 30.41000
H  -6.74200 23.19600 31.70800
H  -7.60700 27.41500 30.46400
H  -6.10000 28.25300 30.98700
H  -8.21800 27.25200 32.47000
H  -7.04600 28.32500 32.80700
H  -10.00700 21.78400 26.21400
H  -9.04800 21.90300 27.70800
H  -8.74000 20.62200 26.41000
H  -10.35500 21.56100 24.00300
H  -9.16700 20.25400 24.52600
H  -9.73600 20.25500 22.88600
H  -5.25400 25.42100 21.07900
H  -2.60200 26.55800 21.72100
H  -3.43500 23.34700 21.83800
H  -2.57500 24.51800 20.76100
H  -3.99000 23.61900 20.28400
H  -4.97900 28.34400 21.69200
H  -4.67800 27.35900 20.23200
H  -3.31000 28.77400 19.37100
H  -2.10800 28.48400 20.62400
H  -3.34500 29.85700 20.66100
H  -1.03500 30.56500 26.33000
H  -1.94000 30.52400 24.78200
H  -0.55400 29.46200 25.04600
H  -4.00700 29.24600 30.28800
H  -2.03100 28.74000 33.89300
H  -1.61900 27.13700 33.24400
H  -3.15200 27.43400 34.09500

