158

Mg 35.09800 2.85500 29.51100
C  33.00100 3.92600 32.12900
C  37.74300 3.04400 31.69500
C  37.32000 2.59400 26.92600
C  32.48600 3.39700 27.23000
N  35.23900 3.42700 31.70100
C  34.26400 3.72300 32.58800
C  34.81300 3.78500 34.02500
C  36.41700 3.71300 33.80300
C  36.47900 3.31300 32.34900
C  37.15300 5.06400 34.10400
C  34.32000 2.52000 34.86900
C  34.39400 2.54600 36.45000
H  35.15900 3.64400 37.04900
N  37.21400 2.58500 29.39400
C  38.04400 2.61700 30.39500
C  39.34200 2.18200 29.95600
C  39.34900 2.11600 28.54400
C  37.93900 2.39600 28.19200
C  40.52400 2.19100 30.93400
C  40.45500 1.86300 27.54700
O  40.15000 1.71900 26.39500
C  41.98700 1.63100 27.97800
N  34.91500 3.09500 27.37800
C  35.98900 2.93800 26.46400
C  35.46000 2.74200 25.04700
C  33.95700 3.00900 25.17900
C  33.73500 3.15300 26.67000
C  36.12000 3.45500 23.79100
C  32.94900 1.98300 24.51500
C  33.05100 0.53900 25.24600
N  33.18400 3.42400 29.60400
C  32.24300 3.62300 28.56500
C  31.00600 4.05400 29.16600
C  31.26100 4.06600 30.57600
C  32.61200 3.80000 30.79000
C  29.74200 4.37500 28.45700
C  30.59100 4.26800 31.86500
O  29.46600 4.44400 32.17300
C  31.73500 4.19200 32.88900
C  31.76000 5.45800 33.70000
O  32.27100 6.47500 33.32000
O  31.17000 5.26500 34.92700
C  31.20500 6.38400 35.93200
H  38.59100 2.97900 32.38000
H  37.96400 2.35100 26.07800
H  31.62500 3.36400 26.55900
H  34.48900 4.68200 34.55200
H  36.86700 2.88500 34.35000
H  37.76300 5.38000 33.25800
H  37.87900 4.93600 34.90600
H  36.50700 5.89600 34.38300
H  34.88200 1.65800 34.50700
H  33.28000 2.33400 34.60100
H  34.71200 1.57000 36.81700
H  33.39100 2.70800 36.84400
H  40.89700 3.16900 31.23700
H  41.33200 1.59000 30.51700
H  40.32600 1.54200 31.78700
H  42.58300 1.29000 27.13200
H  42.09200 0.88100 28.76200
H  42.40200 2.57700 28.32800
H  35.47500 1.65800 24.93400
H  33.71300 3.99000 24.76900
H  36.19700 2.73300 22.97800
H  37.15400 3.72900 24.00100
H  35.46400 4.31100 23.63300
H  33.19600 1.76400 23.47600
H  31.92000 2.32400 24.62400
H  33.38600 -0.15100 24.47200
H  32.11900 0.23800 25.72400
H  33.89300 0.49200 25.93600
H  29.33500 3.50300 27.94500
H  29.97100 5.12800 27.70300
H  28.96800 4.78500 29.10500
H  31.44900 3.44200 33.62600
H  31.22700 6.04400 36.96800
H  30.35800 7.04900 35.76500
H  32.07200 7.03700 35.84300
Mg 27.27200 50.55200 26.62500
C  25.01500 51.80200 29.13500
C  29.49200 50.02100 29.42200
C  29.46000 49.77900 24.51300
C  24.90100 51.50700 24.30200
N  27.35400 51.12800 28.98800
C  26.20400 51.27500 29.72200
C  26.42600 51.17300 31.24500
C  27.98300 50.84400 31.32800
C  28.32200 50.72800 29.82800
C  28.86600 51.81200 32.22500
C  25.57200 50.05400 31.92400
C  24.62100 50.61800 32.98000
H  24.47300 49.75400 34.30200
N  29.21400 49.96200 26.93000
C  29.94000 49.71500 28.10800
C  31.22200 49.23500 27.71100
C  31.32500 49.20700 26.26300
C  29.95600 49.67000 25.84200
C  32.43800 49.00200 28.70600
C  32.58800 48.75400 25.34700
O  32.53500 48.88700 24.12100
C  33.89500 48.30200 25.92600
N  27.20000 50.70300 24.68100
C  28.26400 50.33500 23.99000
C  27.85000 50.01800 22.53000
C  26.41600 50.57700 22.35500
C  26.14200 51.06500 23.84100
C  28.76600 50.59400 21.49900
C  25.30400 49.63200 21.82900
C  24.44000 50.08700 20.66600
N  25.40000 51.44400 26.64600
C  24.55700 51.74800 25.60200
C  23.22700 52.13100 26.12800
C  23.41700 52.19700 27.48800
C  24.71800 51.78800 27.78100
C  22.08400 52.61200 25.23900
C  22.71700 52.55100 28.68900
O  21.58800 52.86800 28.90800
C  23.72800 52.24300 29.89800
C  23.91600 53.41600 30.83800
O  24.59800 54.41000 30.59300
O  23.15300 53.19200 31.93600
C  23.24100 54.24900 32.89700
H  30.07700 49.66000 30.27100
H  30.16600 49.35000 23.79900
H  24.21700 51.72300 23.47800
H  26.12700 52.19000 31.49800
H  28.10700 49.86000 31.78000
H  28.30200 52.70000 32.51100
H  29.84100 52.03600 31.79200
H  29.05800 51.31300 33.17500
H  26.20200 49.26200 32.32900
H  25.11800 49.52700 31.08500
H  23.62100 50.55400 32.55000
H  24.86800 51.64200 33.26100
H  32.37800 49.56100 29.64000
H  33.35800 49.31100 28.21000
H  32.32600 47.96100 29.00900
H  34.43000 47.56600 25.32700
H  33.64800 47.69100 26.79400
H  34.57400 49.12300 26.15400
H  27.85000 48.93500 22.40700
H  26.48800 51.46400 21.72500
H  29.63500 50.87000 22.09600
H  28.43700 51.53600 21.05900
H  29.08100 49.84100 20.77700
H  24.67100 49.37500 22.67800
H  25.70600 48.66300 21.53200
H  23.40000 50.12200 20.99200
H  24.50100 49.37000 19.84800
H  24.86100 51.00600 20.25900
H  22.12300 52.40300 24.17000
H  22.09800 53.69600 25.34400
H  21.11800 52.29800 25.63600
H  23.35200 51.42100 30.50600
H  23.24600 55.27700 32.53600
H  23.90000 54.06000 33.74400
H  22.32400 54.18000 33.48300

