158

Mg 26.95200 49.63100 26.32500
C  24.84600 50.69600 28.87800
C  29.04000 48.33500 28.71700
C  28.96200 48.80000 23.86700
C  24.78700 51.40800 24.07000
N  26.90300 49.57400 28.56000
C  25.93000 49.95500 29.38600
C  26.11000 49.40900 30.85000
C  27.58200 48.87900 30.80200
C  27.93400 48.94200 29.28000
C  28.63900 49.55500 31.69200
C  24.94000 48.53700 31.40200
C  24.38900 49.04000 32.84200
H  25.42600 49.57400 33.86100
N  28.70700 48.69200 26.28000
C  29.42800 48.18900 27.34700
C  30.57800 47.51000 26.85700
C  30.66400 47.79600 25.45000
C  29.42100 48.44200 25.11900
C  31.57200 46.80900 27.79700
C  31.69900 47.43000 24.34700
O  31.67300 47.84300 23.19300
C  32.91700 46.57700 24.68500
N  26.92900 50.26400 24.27400
C  27.89400 49.62300 23.46800
C  27.49600 49.77800 21.96200
C  26.23200 50.65100 22.00800
C  25.92400 50.75600 23.55000
C  28.67800 50.47500 21.25000
C  25.05700 50.19300 21.08700
C  24.89300 51.00900 19.75700
N  25.17500 50.86100 26.34100
C  24.42800 51.54800 25.40700
C  23.28200 52.17700 25.95200
C  23.42600 51.90400 27.33300
C  24.55700 51.06600 27.53000
C  22.29400 53.08000 25.31800
C  22.73200 52.06900 28.63300
O  21.71000 52.58900 29.02300
C  23.67200 51.27600 29.67300
C  24.15200 52.36200 30.54400
O  25.02400 53.21000 30.21900
O  23.40000 52.36300 31.69600
C  23.66300 53.32000 32.68700
H  29.66600 48.05700 29.56700
H  29.49200 48.38300 23.00800
H  24.06500 51.93000 23.43800
H  26.13300 50.21300 31.58600
H  27.51900 47.82200 31.06200
H  29.35200 48.79900 32.01900
H  28.26200 49.97000 32.62700
H  29.27100 50.28000 31.18000
H  25.18600 47.47900 31.48500
H  24.12100 48.56700 30.68300
H  23.76500 48.27600 33.30500
H  23.66200 49.83800 32.69200
H  31.38000 45.75000 27.62100
H  31.56900 46.86000 28.88600
H  32.58400 47.15500 27.58700
H  33.78500 47.15800 24.99500
H  33.18500 46.06500 23.76100
H  32.56400 45.95000 25.50400
H  27.31400 48.76500 21.60200
H  26.54400 51.67300 21.79600
H  29.13200 51.23000 21.89300
H  28.42200 50.93400 20.29500
H  29.33400 49.63800 21.01100
H  24.10400 50.15000 21.61300
H  25.41200 49.21500 20.76000
H  23.83000 51.13600 19.55300
H  25.31400 50.41600 18.94400
H  25.40700 51.96900 19.73100
H  21.60500 52.44400 24.76100
H  22.84700 53.64300 24.56700
H  21.79700 53.77600 25.99500
H  23.21800 50.53300 30.32800
H  24.04700 54.27900 32.34000
H  24.30900 52.86700 33.43800
H  22.77300 53.64800 33.22400
Mg 17.04900 52.06700 26.47700
C  19.08800 50.63100 28.89100
C  14.91300 53.06900 28.89400
C  15.09800 53.38000 24.09600
C  19.26700 50.84500 24.00500
N  17.06400 51.87900 28.67600
C  18.03300 51.32600 29.50700
C  17.61600 51.44200 31.00600
C  16.15200 51.96800 30.90100
C  16.03400 52.40300 29.41700
C  15.03300 51.01400 31.32800
C  18.70200 52.29700 31.76300
C  18.82500 52.10800 33.28100
H  17.69000 51.34000 33.96500
N  15.23000 53.12200 26.54700
C  14.49900 53.49900 27.65100
C  13.29800 54.17900 27.31900
C  13.37900 54.37600 25.87300
C  14.63200 53.61000 25.41400
C  12.26700 54.72900 28.17600
C  12.52700 55.22200 24.95200
O  12.76600 55.41700 23.75600
C  11.26500 55.93600 25.52300
N  17.27900 52.27600 24.32100
C  16.31600 52.84100 23.57200
C  16.49400 52.45700 22.12900
C  17.98200 51.82900 22.16400
C  18.19200 51.58700 23.60100
C  15.40400 51.50100 21.70300
C  19.09500 52.77300 21.74000
C  19.19000 54.18900 22.29000
N  18.85200 50.94700 26.34800
C  19.67300 50.54500 25.29200
C  20.72500 49.71900 25.85600
C  20.51600 49.65700 27.23800
C  19.40700 50.48500 27.51200
C  21.77100 49.17400 25.01000
C  20.97600 49.09800 28.48300
O  21.86300 48.31100 28.66400
C  20.07800 49.73700 29.64500
C  19.42400 48.58900 30.26900
O  18.57000 47.84100 29.76700
O  19.80200 48.51500 31.55400
C  19.04000 47.61200 32.39600
H  14.27800 53.37600 29.72800
H  14.39700 53.72400 23.33300
H  20.04800 50.58100 23.28900
H  17.64300 50.44700 31.45000
H  16.01700 52.87000 31.49700
H  14.08500 51.51800 31.51400
H  15.44300 50.47300 32.18100
H  14.85700 50.25900 30.56200
H  18.40200 53.32500 31.56200
H  19.63400 52.26600 31.19700
H  18.72900 53.11000 33.69900
H  19.79800 51.71400 33.57500
H  11.25900 54.51600 27.81800
H  12.40300 55.80900 28.22800
H  12.33400 54.30800 29.17900
H  11.45700 56.60300 26.36300
H  10.60800 55.14800 25.89000
H  10.74900 56.41300 24.69000
H  16.55200 53.34000 21.49200
H  18.03300 50.83600 21.71700
H  14.60000 51.50700 22.43900
H  15.89100 50.53500 21.56300
H  15.08200 51.73400 20.68800
H  19.09800 52.65300 20.65700
H  20.02200 52.27000 22.01600
H  20.07000 54.34700 22.91400
H  18.30000 54.57000 22.79000
H  19.27600 54.75900 21.36500
H  22.37300 48.49300 25.61000
H  22.35800 49.95200 24.52000
H  21.20000 48.72700 24.19600
H  20.68100 50.29300 30.36300
H  18.01900 47.53900 32.02100
H  18.95100 47.90200 33.44300
H  19.47800 46.62000 32.29300

