158

Mg 48.18000 35.40700 28.06800
C  46.12100 33.67300 30.21100
C  48.39800 37.91900 30.36900
C  49.85700 37.30500 25.67000
C  47.31800 33.15200 25.53200
N  47.56700 35.65400 30.14800
C  46.76300 34.77700 30.81900
C  46.92600 35.08900 32.33300
C  47.12400 36.58600 32.28400
C  47.76400 36.73800 30.90100
C  45.94500 37.46200 32.58600
C  48.20900 34.32300 32.80100
C  47.88300 33.69200 34.15700
H  47.18000 34.60500 35.18200
N  49.09100 37.27400 28.02200
C  49.14000 38.11600 29.16200
C  50.05800 39.23500 28.82900
C  50.50900 39.01200 27.46500
C  49.83000 37.80900 26.98800
C  50.26300 40.40400 29.82300
C  51.50900 39.87800 26.71500
O  51.67800 39.77600 25.51600
C  52.37400 40.90600 27.27600
N  48.40500 35.31800 25.93500
C  49.13900 36.18300 25.17300
C  49.38300 35.73200 23.72200
C  48.82800 34.30000 23.75700
C  48.13700 34.23300 25.15000
C  48.87600 36.63600 22.51100
C  49.92800 33.21000 23.62400
C  50.25700 32.76100 22.21900
N  46.96200 33.72600 27.92500
C  46.70800 32.98100 26.80400
C  45.71500 31.95800 27.17500
C  45.39000 32.26400 28.47800
C  46.14000 33.34800 28.89300
C  45.14800 30.83700 26.37000
C  44.61700 31.85600 29.58300
O  43.79200 30.97900 29.64000
C  45.00900 32.75900 30.82800
C  45.38000 32.03600 32.11900
O  46.25100 31.22600 32.30200
O  44.37000 32.34000 33.03400
C  44.35400 31.64400 34.32100
H  48.44400 38.75600 31.07000
H  50.43500 37.84600 24.91800
H  47.07000 32.32600 24.86200
H  46.05200 34.79800 32.91600
H  47.84400 36.92000 33.03100
H  45.64500 38.07100 31.73400
H  46.11100 38.10900 33.44800
H  45.06400 36.85600 32.79400
H  49.09100 34.95100 32.92400
H  48.41000 33.46300 32.16200
H  48.82800 33.24500 34.46500
H  47.22600 32.83100 34.03000
H  50.43600 41.31500 29.25000
H  51.16000 40.19100 30.40400
H  49.37400 40.59100 30.42600
H  53.33800 40.97400 26.77200
H  52.69100 40.85900 28.31800
H  51.86200 41.86700 27.25300
H  50.46900 35.65000 23.68000
H  47.99000 34.29100 23.06000
H  48.21600 37.33300 23.02700
H  48.21500 36.07300 21.85200
H  49.63100 37.21500 21.98100
H  49.63500 32.42000 24.31600
H  50.89400 33.49800 24.04000
H  51.29100 32.93200 21.92000
H  49.55300 33.20600 21.51600
H  50.07000 31.68800 22.16700
H  45.92400 30.37200 25.76100
H  44.42400 31.28600 25.68900
H  44.55800 30.01800 26.77900
H  44.18800 33.43700 31.05800
H  45.00800 30.77200 34.31900
H  43.32600 31.35000 34.53400
H  44.63000 32.32000 35.13000
Mg 10.01200 47.64300 26.26000
C  7.96500 47.95500 29.08900
C  12.60600 49.10600 28.11200
C  11.91800 47.44800 23.57000
C  7.08100 47.05000 24.35400
N  10.19300 48.42100 28.40900
C  9.28700 48.30700 29.38600
C  9.75100 48.91500 30.72500
C  11.21800 49.39400 30.31800
C  11.39900 48.98000 28.82300
C  11.52200 50.96100 30.56200
C  9.61500 48.12500 32.07500
C  10.35000 48.63200 33.34100
H  10.85800 47.49200 34.29300
N  11.98300 48.13900 25.84800
C  12.91400 48.63400 26.78300
C  14.21000 48.62100 26.14500
C  14.02900 48.07600 24.82700
C  12.65800 47.84500 24.66600
C  15.41300 49.11900 26.89300
C  15.09700 47.83000 23.80100
O  14.84700 47.32300 22.69800
C  16.47600 48.07400 24.19800
N  9.49100 47.40000 24.24200
C  10.47900 47.32700 23.31500
C  9.91100 46.66400 22.05300
C  8.41200 46.33500 22.44300
C  8.31800 46.95000 23.74000
C  10.08600 47.59900 20.85200
C  8.06100 44.82400 22.41500
C  8.69600 43.97600 23.55100
N  7.97400 47.49300 26.54000
C  6.86900 47.30200 25.70600
C  5.60500 47.26600 26.50400
C  6.07100 47.44200 27.82200
C  7.43200 47.60200 27.80200
C  4.16200 47.04000 26.15900
C  5.59700 47.40500 29.20800
O  4.41400 47.20400 29.57800
C  6.80600 47.66500 30.10200
C  7.01000 46.43500 30.91100
O  7.70300 45.47600 30.68300
O  6.26800 46.59000 32.05300
C  6.42400 45.60800 33.06400
H  13.40100 49.69200 28.57900
H  12.43600 47.25600 22.62800
H  6.15300 46.67100 23.92100
H  9.13100 49.80800 30.81000
H  12.01200 48.90100 30.88000
H  11.91200 51.42900 29.65800
H  12.27000 50.96400 31.35500
H  10.63400 51.48200 30.91900
H  9.85700 47.07900 31.88500
H  8.56300 48.17800 32.35500
H  9.66300 49.24000 33.93000
H  11.22900 49.12200 32.92200
H  15.23600 49.17300 27.96700
H  15.74800 50.07700 26.49600
H  16.18800 48.35200 26.90600
H  17.17800 47.83800 23.39800
H  16.62600 47.37900 25.02400
H  16.58900 49.13400 24.42300
H  10.59600 45.83500 21.87200
H  7.65600 46.71300 21.75500
H  9.85500 47.14900 19.88600
H  11.16000 47.76800 20.92500
H  9.52500 48.52000 21.01200
H  8.51000 44.51600 21.47000
H  6.98600 44.64400 22.39500
H  7.90000 43.51700 24.13700
H  9.35500 44.55100 24.20100
H  9.29500 43.12300 23.23400
H  3.66200 46.28400 26.76400
H  4.07000 46.79900 25.10000
H  3.55700 47.93800 26.28700
H  6.55900 48.54600 30.69300
H  7.47400 45.64600 33.35300
H  6.14000 44.68600 32.55600
H  5.78500 45.70100 33.94200

