158

Mg 0.81200 7.59700 25.18600
C  1.45700 9.70500 27.97200
C  1.22200 4.86600 27.19500
C  0.60500 5.56300 22.45300
C  0.88500 10.30100 23.18400
N  1.57700 7.36500 27.38900
C  1.54300 8.35200 28.32800
C  1.71700 7.62700 29.68600
C  1.81100 6.14000 29.40800
C  1.51800 6.08800 27.89400
C  3.15000 5.45600 29.81200
C  0.54200 7.98100 30.70800
C  0.84100 8.06400 32.18600
H  2.17100 7.60700 32.78300
N  0.76600 5.49500 24.93200
C  0.97000 4.57800 25.89600
C  0.82400 3.20400 25.30100
C  0.59300 3.42300 23.92400
C  0.65700 4.90500 23.65600
C  0.97000 1.89300 26.08100
C  0.48400 2.37000 22.82800
O  0.57900 2.60800 21.62200
C  0.13500 1.01400 23.25100
N  0.85700 7.87800 23.04100
C  0.64000 6.87800 22.11700
C  0.69200 7.49500 20.72700
C  0.72500 9.03400 20.97100
C  0.86400 9.10300 22.48400
C  1.89700 6.94300 19.89800
C  -0.50300 9.81100 20.30700
C  -1.84100 9.52900 21.01600
N  0.98700 9.62700 25.50100
C  1.00000 10.64700 24.52600
C  1.04600 11.93700 25.18900
C  1.33600 11.57400 26.57200
C  1.25500 10.20300 26.66700
C  1.16000 13.35100 24.70100
C  1.65800 12.05000 27.86800
O  1.83500 13.20400 28.28500
C  1.67000 10.96300 28.85200
C  3.00200 11.02400 29.57700
O  4.03900 10.59000 29.15600
O  2.80900 11.54600 30.84600
C  3.96200 11.46300 31.67000
H  1.45200 3.99000 27.80400
H  0.24600 4.95200 21.62100
H  0.81000 11.18400 22.54500
H  2.63600 7.98800 30.14800
H  1.05300 5.46100 29.79900
H  3.88100 6.21300 30.09800
H  3.56700 4.73500 29.10800
H  2.91300 4.95600 30.75100
H  -0.23200 7.22900 30.55200
H  0.03900 8.89900 30.40500
H  0.07400 7.45900 32.66800
H  0.73000 9.06200 32.60900
H  1.91100 1.44000 25.76900
H  0.14800 1.17900 26.02400
H  0.95900 2.04500 27.16000
H  0.97700 0.60900 23.81200
H  -0.09900 0.43900 22.35500
H  -0.79500 0.94900 23.81500
H  -0.22400 7.14500 20.25100
H  1.62000 9.49600 20.55500
H  2.57700 7.73600 19.58700
H  1.45500 6.40200 19.06200
H  2.41600 6.28500 20.59500
H  -0.48800 9.45900 19.27600
H  -0.37900 10.89000 20.40600
H  -2.39700 8.78100 20.45100
H  -2.50800 10.37500 21.17900
H  -1.50100 9.11400 21.96500
H  0.58800 13.93400 25.42400
H  0.73900 13.47600 23.70400
H  2.08700 13.92400 24.74000
H  0.81600 11.08900 29.51700
H  4.98100 11.50600 31.28500
H  3.99800 10.54500 32.25700
H  3.86800 12.31500 32.34300
Mg 25.93600 51.64200 25.52900
C  23.75800 52.63500 28.02500
C  28.26700 50.80800 27.72900
C  28.12000 51.18500 22.92500
C  23.48300 52.70500 23.13900
N  25.94800 51.76000 27.75500
C  24.98300 52.19100 28.50800
C  25.38200 51.87400 30.00600
C  26.83700 51.28100 29.93600
C  27.06100 51.26600 28.39000
C  27.92600 52.01600 30.71700
C  24.43200 50.81300 30.69100
C  23.49900 51.23200 31.85500
H  23.32300 50.44000 33.12200
N  27.84800 50.99700 25.38100
C  28.67000 50.72000 26.39600
C  29.97200 50.30900 25.95000
C  29.94700 50.39800 24.55800
C  28.59000 50.87400 24.20100
C  31.10900 49.90800 26.89400
C  31.06300 50.18000 23.55600
O  30.88300 50.16800 22.37200
C  32.52100 49.86200 24.04900
N  25.82700 51.93300 23.30400
C  26.85100 51.48900 22.49200
C  26.43900 51.62000 20.99200
C  25.04100 52.28800 21.04100
C  24.68500 52.21400 22.55600
C  27.43800 52.32600 20.04300
C  23.88300 51.44300 20.18800
C  23.77500 52.07700 18.77800
N  24.04200 52.65900 25.47600
C  23.16100 52.86500 24.51100
C  21.92400 53.38500 25.06500
C  22.03600 53.17300 26.47900
C  23.37900 52.75900 26.63200
C  20.80500 53.93000 24.23900
C  21.40500 53.31500 27.77700
O  20.23100 53.52200 28.07700
C  22.48700 52.96400 28.83700
C  22.74600 54.15500 29.78000
O  23.57500 55.01300 29.56400
O  21.95000 54.10800 30.91700
C  22.38000 54.86900 32.10900
H  28.91200 50.36200 28.48900
H  28.73700 51.00900 22.04200
H  22.71100 53.10000 22.47600
H  25.40600 52.74100 30.66600
H  26.85800 50.27700 30.36200
H  28.36300 52.78600 30.08200
H  28.66700 51.29500 31.06200
H  27.53400 52.48100 31.62100
H  24.98600 49.99300 31.14800
H  23.73800 50.43400 29.94200
H  22.47500 51.30600 31.48800
H  23.82300 52.24000 32.11300
H  31.42000 48.89000 26.65900
H  30.78900 49.92700 27.93600
H  31.94700 50.60200 26.82300
H  32.68300 48.83000 24.36000
H  32.88900 50.59900 24.76300
H  33.11300 49.97900 23.14200
H  26.38700 50.60600 20.59600
H  25.11000 53.31600 20.68500
H  27.04300 53.29700 19.74500
H  27.52200 51.62400 19.21300
H  28.38900 52.57100 20.51600
H  22.92400 51.40700 20.70300
H  24.17600 50.41100 19.99400
H  24.23800 51.36600 18.09400
H  24.30000 53.03100 18.72600
H  22.72600 52.31800 18.60500
H  21.16500 54.33200 23.29200
H  20.35200 54.86300 24.57600
H  20.18400 53.13300 23.83100
H  22.03400 52.17600 29.43900
H  23.28000 54.36500 32.46100
H  21.52600 54.96000 32.78000
H  22.82100 55.85800 31.97700

