158

Mg 40.79100 9.64400 29.43000
C  42.80000 10.76600 32.18700
C  38.61300 8.23500 31.47900
C  39.16400 8.50500 26.69200
C  43.46600 10.54500 27.37900
N  40.87300 9.37200 31.64300
C  41.66900 10.01500 32.54800
C  41.01600 9.92400 33.93900
C  39.81400 8.90200 33.68600
C  39.70000 8.85300 32.15700
C  39.90400 7.52200 34.36500
C  40.48000 11.28900 34.54800
C  40.07500 11.30100 36.05800
H  40.99200 12.09300 37.07200
N  39.14700 8.51900 29.09800
C  38.27800 8.05600 30.12700
C  37.11700 7.44800 29.57900
C  37.25500 7.67600 28.20700
C  38.53000 8.21800 27.95200
C  36.05700 6.70800 30.46000
C  36.17300 7.40200 27.12900
O  36.35100 7.47200 25.86800
C  34.85100 7.08900 27.58600
N  41.31600 9.41400 27.42500
C  40.40500 9.07900 26.45400
C  41.05200 9.03300 25.04500
C  42.25700 10.03900 25.27300
C  42.41000 9.91300 26.80600
C  41.33400 7.59400 24.60100
C  42.07100 11.56100 24.80700
C  40.68200 12.21100 25.18500
N  42.62500 10.66400 29.67500
C  43.60500 10.99200 28.69500
C  44.70000 11.79800 29.33600
C  44.40700 11.61700 30.73900
C  43.19100 10.93300 30.86900
C  45.98100 12.24200 28.70800
C  44.90300 11.92400 32.09300
O  45.97100 12.47800 32.37600
C  43.81800 11.41600 33.09400
C  44.31900 10.61900 34.20900
O  44.78000 9.50800 34.06000
O  43.97400 11.22200 35.41900
C  44.26500 10.27600 36.54100
H  37.74200 7.99200 32.09000
H  38.58600 8.41600 25.77000
H  44.10300 11.02000 26.63100
H  41.78700 9.47200 34.56200
H  38.86700 9.28800 34.06100
H  39.94200 6.82100 33.53100
H  39.00200 7.27600 34.92600
H  40.77200 7.47300 35.02100
H  39.69300 11.79900 33.99200
H  41.39400 11.88000 34.48700
H  40.02000 10.29700 36.47900
H  39.10200 11.78700 35.99000
H  36.51300 6.30400 31.36400
H  35.66100 5.84500 29.92400
H  35.28500 7.41000 30.77300
H  34.63900 7.78500 28.39800
H  34.89000 6.09400 28.02800
H  34.15800 7.17200 26.74900
H  40.48100 9.51200 24.25000
H  43.18200 9.59400 24.90600
H  40.90300 6.91200 25.33300
H  42.42100 7.51400 24.59800
H  40.93900 7.30000 23.62800
H  42.45000 11.66100 23.79000
H  42.82500 12.12500 25.35600
H  40.38400 12.67800 24.24600
H  40.90800 13.01300 25.88700
H  39.95000 11.49000 25.55000
H  45.96100 13.24700 28.28600
H  46.24900 11.48000 27.97600
H  46.66900 12.12300 29.54400
H  43.43500 12.29800 33.60700
H  43.85000 10.61400 37.49000
H  45.33400 10.17300 36.72600
H  43.78000 9.32300 36.32700
Mg -4.36100 25.09800 25.49000
C  -3.15100 26.43500 28.48600
C  -6.52000 23.16700 27.36500
C  -5.18600 23.20800 22.72700
C  -2.06800 26.88700 23.73300
N  -4.67700 24.68900 27.67300
C  -4.17700 25.51000 28.66000
C  -4.85300 25.25900 29.98000
C  -5.66600 23.90700 29.70900
C  -5.60100 23.89000 28.15100
C  -4.92000 22.64400 30.25800
C  -5.86700 26.46300 30.40900
C  -5.94900 26.76800 31.88200
H  -5.22800 25.88600 32.90900
N  -5.66700 23.38600 25.10900
C  -6.54600 22.87300 26.00300
C  -7.41000 21.98800 25.30700
C  -6.91800 21.83100 23.96900
C  -5.86800 22.79500 23.88000
C  -8.56000 21.22800 26.11100
C  -7.40200 20.86800 22.86500
O  -6.92100 20.83800 21.75200
C  -8.44600 19.90600 23.09200
N  -3.72800 25.03800 23.59100
C  -4.24700 24.23500 22.63100
C  -3.68100 24.58400 21.27000
C  -2.77100 25.78700 21.58900
C  -2.85500 25.92100 23.08100
C  -2.96400 23.39300 20.58500
C  -3.22400 27.07000 20.91000
C  -2.73100 27.21300 19.41500
N  -2.90500 26.49700 25.98900
C  -2.00300 27.20600 25.08300
C  -1.11600 28.01400 25.91300
C  -1.51500 27.75800 27.23300
C  -2.66400 26.84200 27.21100
C  -0.04500 28.94700 25.40700
C  -1.25300 28.04900 28.67600
O  -0.40500 28.80700 29.16600
C  -2.28500 27.23000 29.52200
C  -1.53800 26.39900 30.54100
O  -1.28800 25.18400 30.39000
O  -1.26000 27.23100 31.56600
C  -0.58500 26.64000 32.77100
H  -7.18500 22.53300 27.95500
H  -5.50400 22.66400 21.83500
H  -1.50400 27.61200 23.14200
H  -4.06300 24.99700 30.68400
H  -6.67200 23.80500 30.11600
H  -4.08700 22.90500 30.91000
H  -4.57800 22.13600 29.35600
H  -5.65400 22.21100 30.93700
H  -6.86900 26.26700 30.02800
H  -5.57800 27.40100 29.93500
H  -6.97100 26.71800 32.25600
H  -5.63500 27.80700 31.98100
H  -7.98800 20.69300 26.86900
H  -9.26900 20.67400 25.49500
H  -9.18200 22.03300 26.50200
H  -8.87400 19.51200 22.17100
H  -9.18500 20.60200 23.48700
H  -8.27500 19.05200 23.74800
H  -4.46900 24.87300 20.57500
H  -1.73500 25.55600 21.34000
H  -3.20200 22.55900 21.24500
H  -1.87800 23.46500 20.64000
H  -3.21800 23.20000 19.54300
H  -2.85200 27.97100 21.39800
H  -4.29300 27.22800 20.76700
H  -3.52500 26.84000 18.76800
H  -1.79300 26.69200 19.22200
H  -2.59800 28.27200 19.19500
H  -0.60100 29.66600 24.80500
H  0.71700 28.38500 24.86700
H  0.52500 29.35300 26.24200
H  -2.88500 27.92000 30.11600
H  -0.36300 25.57900 32.65700
H  -1.29400 26.55700 33.59500
H  0.32100 27.17800 33.05100

