158

Mg 1.38000 7.67300 26.09900
C  2.08800 9.75100 28.85500
C  1.65300 4.97300 28.15900
C  0.88200 5.68800 23.43300
C  1.38400 10.48900 24.12300
N  1.65500 7.50600 28.32200
C  2.00900 8.42900 29.21300
C  2.15200 7.86600 30.61900
C  2.37500 6.35000 30.26900
C  1.86200 6.25600 28.79600
C  3.78200 5.72300 30.57000
C  0.80000 8.17700 31.31200
C  0.94700 8.68400 32.79100
H  2.02800 8.08900 33.64200
N  1.20500 5.54100 25.79100
C  1.39600 4.59000 26.80700
C  1.10300 3.26400 26.26800
C  0.85900 3.49200 24.90200
C  0.99200 4.95000 24.61700
C  0.93700 2.00300 27.01400
C  0.50000 2.41600 23.79300
O  0.29900 2.81800 22.65000
C  0.64700 0.93200 24.01300
N  1.08900 8.03000 24.18400
C  0.90300 7.05600 23.18000
C  0.79400 7.63300 21.78300
C  0.59800 9.14700 22.15600
C  1.20300 9.22400 23.52700
C  2.03900 7.38000 20.89800
C  -0.89200 9.65600 22.10200
C  -1.27700 10.90300 21.36800
N  1.61500 9.75400 26.38100
C  1.64200 10.71800 25.47700
C  1.91800 11.93800 26.14900
C  2.07800 11.63700 27.51300
C  1.91400 10.30200 27.57900
C  2.12400 13.34400 25.59600
C  2.46900 12.14800 28.83700
O  2.76300 13.28300 29.16500
C  2.35800 10.91900 29.81100
C  3.56500 10.74700 30.74500
O  4.51600 10.04000 30.53700
O  3.38600 11.42600 31.89500
C  4.40200 11.24700 32.91300
H  1.79800 4.20300 28.92000
H  0.59800 5.12900 22.53900
H  1.30600 11.34900 23.45500
H  2.99300 8.18900 31.23200
H  1.73900 5.85500 31.00200
H  4.64100 6.36400 30.77000
H  4.10900 5.29200 29.62400
H  3.69100 5.00800 31.38700
H  0.13800 7.33200 31.12000
H  0.42500 9.05600 30.78600
H  -0.01900 8.52800 33.27100
H  1.05100 9.76500 32.70600
H  -0.11500 1.83600 27.24400
H  1.39300 2.08800 28.00000
H  1.44600 1.18500 26.50300
H  0.54800 0.48900 23.02200
H  -0.18000 0.48400 24.56300
H  1.63900 0.80900 24.44700
H  -0.07300 7.21100 21.27600
H  1.19800 9.80700 21.52900
H  2.82500 8.13200 20.96700
H  1.81900 7.15600 19.85400
H  2.32600 6.34800 21.10000
H  -1.19400 9.92000 23.11500
H  -1.53600 8.83700 21.78000
H  -1.87300 11.59800 21.95900
H  -1.90000 10.70100 20.49700
H  -0.45000 11.54300 21.06000
H  2.97400 13.35300 24.91400
H  2.33100 14.01500 26.42900
H  1.18600 13.46700 25.05400
H  1.35400 10.96500 30.23400
H  4.87500 12.22800 32.95400
H  5.07600 10.41100 32.73200
H  3.93800 11.06500 33.88300
Mg 41.50200 41.35900 25.88200
C  40.64500 43.84700 28.33900
C  42.32100 39.27900 28.57400
C  42.36400 39.14500 23.66800
C  40.83100 43.68700 23.43700
N  41.45700 41.53600 28.08600
C  40.99700 42.55800 28.85600
C  40.83600 42.27600 30.38900
C  41.64500 40.90000 30.45000
C  41.78100 40.50900 28.95800
C  43.05300 40.90000 31.13700
C  39.35000 42.08800 30.77500
C  38.95000 42.88100 32.01500
H  38.76500 42.20800 33.43400
N  42.20800 39.42400 26.07300
C  42.50400 38.73400 27.26000
C  42.88700 37.38300 26.86300
C  42.92300 37.35900 25.47300
C  42.52300 38.65200 25.05400
C  43.23500 36.39100 27.93300
C  43.38900 36.26100 24.51700
O  43.29600 36.32000 23.30700
C  44.08700 35.04300 25.01100
N  41.75900 41.48800 23.88100
C  42.05100 40.36800 23.11000
C  41.89400 40.60600 21.62700
C  41.04300 41.94200 21.62900
C  41.24900 42.44100 23.04900
C  43.25100 40.68000 20.87300
C  39.58500 41.67500 21.20500
C  38.78700 40.88500 22.27000
N  40.96900 43.37700 25.85900
C  40.73000 44.19000 24.77200
C  40.47400 45.53000 25.16500
C  40.41300 45.45200 26.58900
C  40.66700 44.10100 26.91100
C  40.28700 46.75700 24.31500
C  40.16300 46.20000 27.84800
O  39.79900 47.35100 28.01900
C  40.37400 45.12600 29.00000
C  41.41400 45.60200 29.91400
O  42.63800 45.37700 29.84400
O  40.82500 46.21100 30.98500
C  41.64700 46.63200 32.08400
H  42.29700 38.77000 29.54000
H  42.55300 38.40700 22.88600
H  40.47800 44.41200 22.70100
H  41.28900 43.07400 30.97700
H  41.15200 40.09200 30.99000
H  43.32400 41.90900 31.44800
H  43.84900 40.55900 30.47500
H  43.06100 40.23600 32.00100
H  39.02100 41.05800 30.91400
H  38.79500 42.30600 29.86300
H  37.99300 43.39000 31.90400
H  39.67200 43.67200 32.21800
H  42.99800 36.64500 28.96600
H  44.28800 36.14000 28.06700
H  42.80100 35.40100 27.79200
H  45.05700 35.36500 25.39100
H  44.31200 34.40200 24.15900
H  43.48900 34.40300 25.65900
H  41.29300 39.81000 21.18600
H  41.53100 42.75100 21.08500
H  43.51700 41.72800 20.73400
H  43.16800 40.05700 19.98200
H  44.06100 40.25700 21.46900
H  39.58000 41.21900 20.21500
H  39.04600 42.61600 21.09500
H  38.00600 41.53200 22.66900
H  39.33400 40.48900 23.12700
H  38.29000 40.06600 21.75000
H  40.81400 47.57100 24.81200
H  39.27400 47.15500 24.25400
H  40.77400 46.60400 23.35200
H  39.43300 45.07800 29.54900
H  41.93100 47.68400 32.09000
H  42.57500 46.07700 32.22200
H  41.15400 46.37900 33.02300

