158

Mg -12.80700 17.22100 40.46900
C  -9.85400 15.38200 39.96700
C  -11.01500 20.06800 39.40600
C  -15.77300 18.89200 39.99900
C  -14.54900 14.18100 40.70800
N  -10.68000 17.66200 39.66500
C  -9.65900 16.72900 39.61500
C  -8.26700 17.33500 39.14200
C  -8.59600 18.83300 39.22000
C  -10.14400 18.89100 39.45100
C  -7.79900 19.45100 40.39400
C  -7.80600 16.82000 37.75400
C  -6.35000 16.44900 37.70800
H  -5.67500 16.56300 36.37200
N  -13.28300 19.24400 39.77900
C  -12.43700 20.24200 39.44900
C  -13.21200 21.46700 39.14900
C  -14.58400 21.16500 39.19500
C  -14.59900 19.70000 39.72200
C  -12.56800 22.73400 38.75000
C  -15.81100 22.02200 38.80400
O  -15.58700 23.16900 38.36000
C  -17.17800 21.55500 38.86600
N  -14.87700 16.65400 40.53400
C  -15.90100 17.51000 40.31500
C  -17.18800 16.86100 40.56200
C  -16.78600 15.32400 40.70200
C  -15.31300 15.35200 40.57300
C  -17.91400 17.43200 41.79400
C  -17.47300 14.36500 39.74600
C  -18.04500 13.07400 40.43400
N  -12.34300 15.20500 40.43900
C  -13.16100 14.07500 40.63700
C  -12.27200 12.90300 40.73300
C  -11.02400 13.37800 40.42700
C  -11.06000 14.82000 40.31600
C  -12.72500 11.49500 41.14400
C  -9.64700 12.95100 40.33000
O  -9.10200 11.87900 40.53800
C  -8.85100 14.27400 40.01700
C  -7.90000 14.43600 41.18500
O  -8.01100 14.37600 42.42000
O  -6.68600 14.38200 40.56500
C  -5.51500 14.20800 41.43900
H  -10.46200 21.00200 39.28400
H  -16.77700 19.27200 39.79600
H  -15.08000 13.28800 41.04500
H  -7.53700 16.98000 39.86900
H  -8.26700 19.25500 38.27000
H  -8.47100 19.68300 41.22000
H  -7.30300 20.30900 39.94100
H  -6.93100 18.86100 40.68900
H  -8.13600 17.50600 36.97400
H  -8.33700 15.90600 37.48900
H  -6.29900 15.41100 38.03800
H  -5.78000 17.09800 38.37200
H  -11.59100 22.82900 39.22300
H  -13.13100 23.64300 38.95900
H  -12.52300 22.75600 37.66100
H  -17.39300 21.17600 39.86600
H  -17.17300 20.73900 38.14400
H  -17.88100 22.31100 38.51600
H  -17.80200 16.97200 39.66800
H  -16.87700 14.88400 41.69500
H  -17.51200 18.33200 42.26000
H  -18.01300 16.66400 42.56100
H  -18.88900 17.75500 41.43000
H  -16.73500 13.87800 39.10900
H  -18.29000 14.78900 39.16200
H  -19.11400 13.22100 40.59000
H  -17.57900 12.87700 41.40000
H  -17.90800 12.21900 39.77100
H  -13.75000 11.22800 40.88600
H  -12.77500 11.52100 42.23200
H  -12.04700 10.71700 40.79300
H  -8.29500 14.19000 39.08300
H  -5.67200 13.44700 42.20300
H  -5.20500 15.18800 41.80300
H  -4.69800 13.74900 40.88200
Mg -6.13400 25.16400 25.42500
C  -4.79500 26.54900 28.25900
C  -8.11800 23.12800 27.31400
C  -7.03600 23.53300 22.54300
C  -4.01300 27.27700 23.44300
N  -6.17500 24.67100 27.52500
C  -5.66900 25.53000 28.51400
C  -6.38400 25.18500 29.90400
C  -7.22600 23.91600 29.55400
C  -7.18900 23.88800 28.08900
C  -6.65100 22.58100 30.18400
C  -7.19500 26.36200 30.45900
C  -6.93300 26.64600 32.01100
H  -6.40600 25.52400 32.88800
N  -7.51500 23.75700 24.98300
C  -8.24600 22.93500 25.87700
C  -9.26600 22.22000 25.11000
C  -8.92300 22.32000 23.69300
C  -7.71800 23.21800 23.73500
C  -10.42100 21.53500 25.80700
C  -9.54400 21.58600 22.47800
O  -9.10200 21.59600 21.34400
C  -10.82300 20.82300 22.50000
N  -5.60500 25.33600 23.23700
C  -6.11400 24.52500 22.24700
C  -5.44300 24.88900 20.93800
C  -4.50500 26.05000 21.22300
C  -4.75000 26.30700 22.68800
C  -4.72100 23.65400 20.32100
C  -4.75900 27.30800 20.29000
C  -3.62600 27.62700 19.36200
N  -4.64900 26.57600 25.73200
C  -3.97700 27.47300 24.89400
C  -3.20600 28.37500 25.68800
C  -3.53900 28.13600 26.99800
C  -4.35400 26.95900 26.97500
C  -2.34100 29.44700 25.10200
C  -3.23700 28.54000 28.35900
O  -2.50000 29.42600 28.79200
C  -4.08300 27.51500 29.20100
C  -3.01700 26.92400 30.04200
O  -2.15700 26.12700 29.66800
O  -3.13000 27.36700 31.30300
C  -2.13900 26.80200 32.19300
H  -8.98200 22.71400 27.83800
H  -7.34800 22.99000 21.64900
H  -3.50400 28.01900 22.82500
H  -5.56600 24.94500 30.58400
H  -8.26000 23.89300 29.89700
H  -6.04200 22.21500 29.35700
H  -7.34600 21.81100 30.51800
H  -6.10800 22.75800 31.11200
H  -8.23400 26.11200 30.24200
H  -7.15600 27.26400 29.84700
H  -7.83300 26.96300 32.53800
H  -6.12200 27.36200 32.14700
H  -11.10000 21.07900 25.08700
H  -11.01200 22.28800 26.32900
H  -10.13300 20.76500 26.52300
H  -10.78700 20.05000 23.26700
H  -11.03800 20.32900 21.55200
H  -11.64000 21.48100 22.79500
H  -6.24700 25.19200 20.26700
H  -3.45800 25.75800 21.14300
H  -5.28200 23.27700 19.46600
H  -4.56800 22.85200 21.04200
H  -3.74500 23.92200 19.91500
H  -5.10500 28.05500 21.00300
H  -5.51400 26.89700 19.62000
H  -3.27000 28.53400 19.85000
H  -4.08200 27.88500 18.40700
H  -2.89600 26.81900 19.40500
H  -2.85300 29.95900 24.28800
H  -1.34600 29.07700 24.85400
H  -2.14100 30.20300 25.86200
H  -4.70100 28.07200 29.90600
H  -1.17200 26.61600 31.72400
H  -2.51600 25.90700 32.68700
H  -1.98400 27.53400 32.98600

