158

Mg 1.15900 8.32700 25.08300
C  1.93500 10.35500 27.96400
C  1.32100 5.65100 27.17200
C  0.84700 6.41800 22.45300
C  1.50900 11.16700 23.10300
N  1.61300 8.11200 27.39900
C  1.75300 9.01300 28.32200
C  1.64900 8.36000 29.73700
C  1.67300 6.83300 29.40500
C  1.55700 6.80300 27.85300
C  2.91600 6.02600 29.96200
C  0.46500 8.79800 30.65200
C  0.77200 9.23000 32.03200
H  1.74600 8.48400 32.94400
N  1.07000 6.29100 24.79500
C  1.09400 5.36200 25.79300
C  0.92500 3.95400 25.28500
C  0.77500 4.19600 23.83900
C  0.91400 5.67300 23.61400
C  0.90400 2.70800 26.12800
C  0.54300 3.23300 22.80600
O  0.46300 3.58200 21.62400
C  0.37100 1.79400 23.14200
N  1.50400 8.65000 22.91500
C  1.04300 7.72000 22.10000
C  0.84400 8.22700 20.69200
C  1.13100 9.76600 20.86000
C  1.33600 9.89900 22.38300
C  1.75400 7.56800 19.51000
C  0.02800 10.67000 20.27500
C  -1.19000 11.12500 21.17500
N  1.53100 10.34500 25.34600
C  1.69900 11.36100 24.41100
C  2.04800 12.60600 25.14800
C  2.04300 12.24300 26.50100
C  1.80600 10.86300 26.54500
C  2.20800 14.03300 24.47700
C  2.20700 12.74900 27.83100
O  2.37000 13.93200 28.16900
C  2.10200 11.61100 28.89900
C  3.28100 11.66300 29.82400
O  4.37400 11.30900 29.35100
O  2.98000 11.97400 31.14900
C  4.06800 12.03000 32.09000
H  1.32100 4.75700 27.79800
H  0.62100 5.90300 21.51600
H  1.50700 11.99300 22.38900
H  2.60200 8.55800 30.22700
H  0.80100 6.30000 29.78300
H  2.56900 5.41000 30.79100
H  3.72400 6.61500 30.39500
H  3.29100 5.29400 29.24600
H  -0.25600 7.98100 30.67000
H  0.05100 9.67300 30.15100
H  -0.18300 9.29800 32.55300
H  1.03100 10.28500 31.94100
H  0.53400 1.77300 25.70800
H  0.27900 2.97300 26.98000
H  1.90200 2.54800 26.53500
H  1.20600 1.38300 23.70900
H  0.21300 1.04700 22.36500
H  -0.58500 1.71600 23.66000
H  -0.18000 8.05000 20.36100
H  2.08100 10.14700 20.48600
H  2.48600 6.87500 19.92600
H  2.27700 8.32100 18.92000
H  1.13500 7.06000 18.77100
H  -0.42000 10.13300 19.43900
H  0.43700 11.63300 19.96900
H  -1.04900 12.14500 21.53000
H  -1.17700 10.34400 21.93500
H  -2.16600 11.05700 20.69500
H  1.27700 14.59800 24.52300
H  2.32600 13.96100 23.39600
H  2.92200 14.71900 24.93300
H  1.18600 11.67000 29.48800
H  4.36300 13.06100 32.28500
H  4.84600 11.31700 31.81400
H  3.57600 11.71000 33.00800
Mg 26.35000 49.91700 26.10200
C  24.60200 51.53300 28.59500
C  28.93800 49.38800 28.45600
C  28.60300 49.15100 23.63200
C  24.10500 51.18500 23.76400
N  26.70600 50.39400 28.25100
C  25.77900 50.98300 29.08300
C  26.26200 50.88800 30.53800
C  27.75300 50.43100 30.44700
C  27.86900 50.01900 28.96400
C  28.76700 51.55500 30.88000
C  25.29500 49.90900 31.33100
C  25.05100 50.03500 32.86900
H  25.98600 50.90600 33.75100
N  28.40800 49.13500 26.03900
C  29.21600 49.00700 27.12600
C  30.47100 48.39600 26.66400
C  30.49300 48.43900 25.25000
C  29.10300 48.95900 24.92500
C  31.45900 47.66800 27.56900
C  31.59100 48.00000 24.22400
O  31.36400 48.00800 23.02800
C  33.00600 47.60900 24.70400
N  26.40000 50.16300 23.99600
C  27.40600 49.71900 23.14400
C  27.05200 49.82900 21.64200
C  25.62300 50.56200 21.74000
C  25.35600 50.58500 23.27100
C  28.14200 50.62000 20.88200
C  24.50400 49.91100 20.92500
C  24.00200 50.56600 19.60700
N  24.63200 51.11700 26.13900
C  23.82700 51.54900 25.11800
C  22.72900 52.23000 25.64200
C  22.95400 52.24200 27.02800
C  24.19700 51.66900 27.25400
C  21.63200 52.86200 24.93400
C  22.41700 52.69800 28.31300
O  21.42900 53.29400 28.62400
C  23.41600 52.08800 29.42500
C  23.78500 53.24900 30.25000
O  24.58900 54.11800 29.94500
O  23.06700 53.15600 31.49400
C  23.50100 53.90800 32.67200
H  29.70800 49.18000 29.20200
H  29.35000 49.01300 22.84800
H  23.42700 51.45600 22.95300
H  26.17200 51.85700 31.02900
H  27.82700 49.54600 31.07700
H  29.35400 51.82900 30.00400
H  29.55600 51.06600 31.45200
H  28.32200 52.41000 31.38900
H  25.56900 48.89600 31.03700
H  24.28600 50.08900 30.95800
H  25.03300 49.07800 33.39000
H  24.09600 50.54400 33.00400
H  32.34400 48.30300 27.55700
H  31.75400 46.73000 27.09800
H  31.05700 47.50000 28.56800
H  33.76000 47.40200 23.94400
H  32.96400 46.74700 25.36900
H  33.23700 48.39600 25.42200
H  26.92600 48.87600 21.12800
H  25.80200 51.59500 21.44200
H  28.74200 49.89300 20.33500
H  28.87300 51.12700 21.51200
H  27.62200 51.41200 20.34400
H  23.62800 49.89200 21.57300
H  24.81100 48.88100 20.74300
H  22.93600 50.35900 19.69900
H  24.39600 50.00700 18.75800
H  24.25800 51.60400 19.39100
H  21.78400 53.94100 24.94400
H  20.73900 52.68800 25.53500
H  21.55200 52.55700 23.89000
H  22.87100 51.36300 30.02900
H  24.28200 53.34300 33.18100
H  22.65000 54.03700 33.34100
H  23.86600 54.91100 32.45000

