158

Mg 42.25400 41.11100 26.41600
C  41.63800 43.50500 28.95100
C  42.96000 38.73900 28.58800
C  43.49400 39.29400 23.76300
C  41.76400 43.82600 24.02600
N  42.52100 41.23400 28.58600
C  41.99300 42.19600 29.46100
C  41.89300 41.68000 30.94700
C  42.30400 40.18100 30.67500
C  42.54500 40.00800 29.18600
C  43.42100 39.69100 31.66400
C  40.47300 41.89100 31.58000
C  40.21900 41.18800 32.93800
H  39.48400 42.02300 34.02400
N  43.03800 39.25100 26.23400
C  43.34800 38.38100 27.27600
C  43.84200 37.15100 26.77500
C  44.04500 37.30200 25.36200
C  43.53200 38.69600 25.05400
C  44.02200 35.90100 27.62700
C  44.57200 36.33700 24.28900
O  44.77800 36.56700 23.11800
C  44.72500 34.83500 24.64200
N  42.47800 41.48600 24.24100
C  43.03100 40.55000 23.34600
C  43.00600 40.95300 21.86100
C  42.15700 42.24900 21.94300
C  42.18800 42.62300 23.49700
C  44.41900 41.13800 21.16000
C  40.70700 42.11500 21.47700
C  39.70200 40.97800 21.96300
N  41.90300 43.29600 26.39200
C  41.61500 44.19800 25.41300
C  41.15600 45.43600 25.97800
C  41.18100 45.24700 27.33900
C  41.64700 43.91100 27.56100
C  40.77300 46.72000 25.36600
C  40.95500 45.84200 28.66800
O  40.55500 46.93800 28.93500
C  41.10600 44.73700 29.70400
C  42.04000 45.18400 30.79900
O  43.28300 45.26900 30.74200
O  41.29200 45.41700 31.85100
C  41.96100 45.52700 33.13300
H  43.21200 37.90700 29.24800
H  43.68700 38.64300 22.90800
H  41.53900 44.59600 23.28500
H  42.69000 42.19800 31.48200
H  41.42400 39.57100 30.88300
H  44.35200 39.70100 31.09600
H  43.08800 38.75400 32.11100
H  43.53900 40.41100 32.47400
H  39.81000 41.48500 30.81600
H  40.18200 42.91300 31.82200
H  41.20300 40.85100 33.26500
H  39.53500 40.34900 32.80900
H  43.40600 35.13700 27.15300
H  43.84300 36.01400 28.69600
H  45.01300 35.45300 27.55500
H  45.07500 34.32300 23.74600
H  43.82400 34.50200 25.15700
H  45.44700 34.81100 25.45800
H  42.43900 40.19200 21.32400
H  42.54800 43.07700 21.35300
H  44.51300 40.39300 20.37000
H  45.03600 40.75500 21.97400
H  44.80600 42.10200 20.83000
H  40.84200 41.98900 20.40300
H  40.37700 43.11100 21.77200
H  39.96100 40.42900 22.86900
H  39.42800 40.46700 21.04100
H  38.78600 41.47800 22.27800
H  39.84700 47.07600 25.81800
H  40.50900 46.48100 24.33500
H  41.56700 47.46100 25.45600
H  40.13300 44.63400 30.18300
H  42.35100 44.52500 33.31400
H  41.43100 45.87800 34.01800
H  42.76800 46.25800 33.18500
Mg 26.81000 50.46200 26.98100
C  24.62000 51.32100 29.69800
C  29.10100 49.48100 29.28000
C  28.83800 49.90900 24.39600
C  24.32100 51.66200 24.84700
N  26.83700 50.50300 29.23900
C  25.83600 50.78300 30.07800
C  26.37600 50.48800 31.54300
C  27.77300 49.91400 31.42800
C  27.91600 50.05100 29.89700
C  28.83900 50.52400 32.33200
C  25.36800 49.52300 32.29400
C  24.37900 50.10700 33.27900
H  24.17700 49.45500 34.70500
N  28.76800 49.74400 26.85900
C  29.48600 49.41600 27.91700
C  30.79600 48.99000 27.40400
C  30.72700 49.05300 25.97800
C  29.43500 49.59500 25.66300
C  31.91900 48.42700 28.32700
C  31.83700 48.79600 24.92900
O  31.65600 48.98600 23.72000
C  33.23500 48.20800 25.33900
N  26.70200 50.94800 24.94100
C  27.65500 50.56100 24.02700
C  27.23100 50.80200 22.49000
C  25.74400 51.20700 22.71700
C  25.55100 51.32900 24.22500
C  27.92500 51.98600 21.70600
C  24.67500 50.26500 22.03200
C  24.70700 48.75600 22.29700
N  24.94000 51.45100 27.14500
C  24.02900 51.80500 26.17900
C  22.83600 52.38000 26.75900
C  22.99300 52.21900 28.14900
C  24.26800 51.62200 28.31200
C  21.65000 53.09700 26.00800
C  22.44200 52.51000 29.41200
O  21.38800 53.10600 29.68000
C  23.41900 51.93300 30.50200
C  23.67400 53.10100 31.36800
O  24.43000 54.00100 31.22500
O  22.69200 53.13100 32.33800
C  22.78300 54.31600 33.27100
H  29.86400 49.13900 29.98200
H  29.43800 49.72700 23.50200
H  23.57800 51.96600 24.10600
H  26.63300 51.42800 32.03000
H  27.79200 48.84600 31.64500
H  28.91900 51.59000 32.11600
H  29.78600 50.01200 32.16600
H  28.55400 50.46400 33.38300
H  25.88400 48.87400 33.00200
H  24.87900 48.88700 31.55500
H  23.36200 49.89900 32.94300
H  24.49500 51.18700 33.37000
H  31.70500 48.65000 29.37300
H  32.89500 48.80200 28.01900
H  31.83700 47.37300 28.06000
H  33.84100 48.14300 24.43600
H  33.13900 47.27700 25.89800
H  33.79100 48.93500 25.93000
H  27.48500 49.81600 22.09900
H  25.48100 52.16200 22.26200
H  27.57900 52.94600 22.08800
H  27.64400 51.92200 20.65500
H  29.01400 52.01800 21.71500
H  24.90800 50.34500 20.97000
H  23.69200 50.73700 22.01500
H  23.71400 48.38500 22.54900
H  25.34300 48.53200 23.15300
H  24.94800 48.17100 21.40900
H  20.80300 52.93500 26.67500
H  21.49000 52.69000 25.01000
H  22.05600 54.10800 25.96600
H  22.85000 51.18900 31.05900
H  22.88300 55.22000 32.67100
H  23.62000 54.19000 33.95900
H  21.81700 54.34800 33.77500

