158

Mg 43.41500 4.29000 47.33600
C  41.26000 7.08200 47.40900
C  40.41600 2.37500 46.97500
C  45.30200 1.62800 46.65500
C  46.11000 6.35000 47.34300
N  41.08600 4.74000 46.88000
C  40.56000 5.92900 47.29800
C  39.05600 5.83900 47.49500
C  38.77000 4.26800 47.52000
C  40.17900 3.75800 47.09600
C  38.25300 3.69100 48.86000
C  38.13800 6.62600 46.37600
C  38.59000 6.40600 44.86000
H  38.81600 7.63600 43.99200
N  43.00500 2.32700 46.98200
C  41.69900 1.79500 46.93900
C  41.87100 0.40100 46.84700
C  43.22100 0.08400 46.57900
C  43.92600 1.36900 46.66300
C  40.67900 -0.57200 47.02700
C  43.78600 -1.27700 46.29800
O  43.03700 -2.24600 46.19900
C  45.16000 -1.53100 46.12700
N  45.43100 4.09000 47.06700
C  46.02900 2.81100 46.94000
C  47.52700 3.02800 46.90600
C  47.90500 4.57300 47.10900
C  46.40000 5.01400 47.19500
C  48.45800 2.05900 47.73800
C  48.75100 5.36300 46.06300
C  49.94000 4.67900 45.52200
N  43.69800 6.34500 47.31900
C  44.87900 7.06800 47.49600
C  44.60700 8.44200 47.67700
C  43.16800 8.47100 47.67000
C  42.68000 7.16900 47.36700
C  45.67700 9.53900 47.93900
C  42.04200 9.39400 47.88400
O  42.01800 10.59200 48.16600
C  40.76000 8.52800 47.70000
C  39.94100 8.54800 48.93900
O  40.21100 7.95800 50.01200
O  38.86300 9.39400 48.69300
C  37.82800 9.43800 49.84300
H  39.55300 1.71100 47.04900
H  46.05900 0.85500 46.50700
H  46.99400 6.98900 47.37200
H  38.87800 6.22800 48.49800
H  38.05800 4.08100 46.71600
H  37.59400 4.35200 49.42400
H  39.08400 3.33700 49.47100
H  37.70900 2.77500 48.62900
H  37.97200 7.65400 46.69600
H  37.16400 6.13800 46.35700
H  37.84600 5.76400 44.38600
H  39.50600 5.82200 44.77300
H  40.17100 -0.78200 46.08600
H  40.06000 -0.09800 47.78900
H  41.11900 -1.49700 47.40000
H  45.79300 -1.02100 46.85300
H  45.50200 -0.98900 45.24500
H  45.25700 -2.61100 46.02000
H  47.77500 2.71000 45.89300
H  48.41000 4.70000 48.06700
H  49.17500 1.57100 47.07800
H  47.82100 1.27600 48.15100
H  49.03500 2.55700 48.51700
H  48.96100 6.33300 46.51500
H  48.00400 5.52200 45.28500
H  49.70500 4.35900 44.50700
H  50.42600 3.86700 46.06300
H  50.68700 5.45800 45.37000
H  45.31700 10.56800 47.91300
H  46.46800 9.49200 47.19000
H  46.11700 9.21100 48.88000
H  40.20700 8.85200 46.81700
H  38.30300 9.98800 50.65500
H  37.67100 8.45300 50.28200
H  36.88100 9.80400 49.44400
Mg 7.42000 53.59500 41.78500
C  6.75300 50.02000 41.61900
C  10.67600 52.84100 40.92600
C  7.92200 56.85700 41.15700
C  4.04500 54.09000 42.23500
N  8.48600 51.68900 41.31200
C  8.08500 50.35000 41.36100
C  9.24700 49.45600 41.18900
C  10.54400 50.32900 41.23200
C  9.84500 51.71000 41.18000
C  11.45100 50.14600 42.44300
C  9.23200 48.41800 39.91500
C  9.37700 48.94200 38.47400
H  8.31300 48.56000 37.44700
N  8.99000 54.69600 40.96500
C  10.22500 54.24300 40.74500
C  11.10300 55.32800 40.39000
C  10.41100 56.50300 40.46300
C  9.02700 56.06300 40.92500
C  12.51300 55.15000 39.89900
C  10.99900 57.82000 40.15000
O  12.07800 58.00200 39.59700
C  10.11600 59.04200 40.24800
N  6.12700 55.19200 41.54300
C  6.62800 56.44800 41.53100
C  5.51700 57.47900 41.75600
C  4.27700 56.60500 41.91600
C  4.81700 55.21000 41.92200
C  5.78400 58.38800 42.99500
C  3.24200 56.83900 40.84000
C  1.77300 56.61900 41.30200
N  5.69800 52.33000 42.07200
C  4.38300 52.68800 42.21700
C  3.56200 51.45100 42.34000
C  4.47600 50.38900 42.15600
C  5.74300 50.99800 41.90300
C  2.10100 51.38500 42.59500
C  4.61900 48.93200 42.08400
O  3.78700 48.09000 42.23800
C  6.07200 48.63300 41.66500
C  5.89500 48.15700 40.32900
O  5.74100 48.81800 39.33100
O  5.85700 46.80000 40.45400
C  5.44500 46.02400 39.34700
H  11.75600 52.68300 40.96000
H  7.99300 57.94600 41.12700
H  3.02900 54.36400 42.52500
H  9.25100 48.81000 42.06700
H  11.11500 50.01700 40.35800
H  11.16000 49.29700 43.06100
H  11.41100 51.02300 43.09000
H  12.45000 50.01000 42.02900
H  8.71900 47.45600 39.90200
H  10.21100 47.97600 40.10300
H  10.32800 48.72000 37.98900
H  9.25900 50.02100 38.56900
H  12.68100 55.60600 38.92400
H  12.89500 54.13000 39.84200
H  13.26700 55.62600 40.52600
H  9.11500 58.97400 39.82000
H  10.49600 59.87500 39.65700
H  10.07400 59.44500 41.25900
H  5.55600 58.05500 40.83100
H  3.90400 56.73500 42.93200
H  6.55800 57.93400 43.61400
H  4.88800 58.56600 43.58900
H  6.18000 59.33600 42.63000
H  3.37000 56.06900 40.07900
H  3.11600 57.86200 40.48600
H  1.76700 56.57100 42.39100
H  1.33600 55.74000 40.82800
H  1.22000 57.44800 40.86000
H  1.83700 52.42700 42.77500
H  1.87900 50.81600 43.49700
H  1.52700 50.84200 41.84300
H  6.48800 47.88000 42.33400
H  6.33900 45.56900 38.92200
H  4.99500 46.62300 38.55500
H  4.73800 45.28800 39.73000

