158

Mg 41.61300 7.80300 30.22000
C  43.31900 8.70100 33.08600
C  39.34600 6.16600 32.12000
C  40.11400 6.56800 27.32700
C  44.13800 8.96100 28.30400
N  41.57800 7.18700 32.37900
C  42.25900 7.88900 33.34800
C  41.59800 7.57100 34.68200
C  40.63600 6.36300 34.33700
C  40.45200 6.61300 32.88400
C  41.16100 4.94200 34.68200
C  41.04100 8.75900 35.45100
C  41.17300 8.71700 36.98800
H  41.56600 10.01500 37.79900
N  39.96500 6.65900 29.82300
C  39.05400 6.14700 30.77500
C  37.86600 5.60400 30.09300
C  38.10300 5.73500 28.65600
C  39.38400 6.35100 28.58300
C  36.69900 4.96500 30.87100
C  37.12100 5.49900 27.45400
O  37.30500 5.93500 26.32700
C  35.74200 4.89000 27.74500
N  42.10500 7.59200 28.08800
C  41.32700 7.16900 27.09200
C  41.91500 7.44400 25.64500
C  42.96400 8.46700 26.06400
C  43.12400 8.31000 27.58500
C  42.48900 6.09100 25.11600
C  42.61900 9.94400 25.71400
C  41.25600 10.49500 26.20600
N  43.40800 8.68000 30.62400
C  44.31900 9.08100 29.72100
C  45.39100 9.87500 30.48800
C  44.90600 9.82300 31.76100
C  43.79400 8.96500 31.82600
C  46.56600 10.51800 29.90400
C  45.25800 10.20900 33.08600
O  46.11600 10.87100 33.52800
C  44.18500 9.57200 34.05800
C  44.77900 8.72700 35.08500
O  45.18800 7.61400 34.95200
O  44.80300 9.42600 36.22200
C  45.46000 8.86300 37.41900
H  38.49900 5.67400 32.60400
H  39.56100 6.37200 26.40600
H  44.70500 9.54200 27.57400
H  42.32000 6.99400 35.26000
H  39.69300 6.48100 34.87000
H  40.43700 4.42900 35.31400
H  42.10600 4.90000 35.22500
H  41.23700 4.34800 33.77200
H  39.99400 8.97100 35.23300
H  41.58100 9.66300 35.17000
H  41.81900 7.88500 37.26900
H  40.27700 8.29800 37.44500
H  36.84300 4.97900 31.95100
H  36.63500 3.92700 30.54700
H  35.80500 5.55000 30.65300
H  35.32500 4.67800 26.76100
H  35.16300 5.70800 28.17200
H  35.78400 3.99400 28.36400
H  41.13800 7.85700 25.00100
H  43.96900 8.23000 25.71700
H  41.87100 5.68400 24.31500
H  42.58500 5.31900 25.87900
H  43.48600 6.27500 24.71600
H  42.55200 10.03000 24.62900
H  43.35800 10.68500 26.02000
H  40.52000 10.53100 25.40200
H  41.45800 11.37500 26.81600
H  40.83100 9.68500 26.79800
H  46.36800 11.52700 29.54300
H  46.90700 9.95200 29.03700
H  47.35900 10.54700 30.65100
H  43.60000 10.45500 34.31500
H  44.74800 8.22400 37.94200
H  45.80100 9.68700 38.04500
H  46.36500 8.34100 37.11100
Mg 41.54200 40.65600 27.68500
C  40.87200 43.28800 29.84200
C  42.72200 38.71700 30.36300
C  42.31300 38.20200 25.50400
C  40.74000 42.70800 24.98900
N  41.78900 41.02500 29.80900
C  41.36600 42.16700 30.51600
C  41.40700 41.90500 32.01900
C  42.34000 40.61400 32.15800
C  42.29000 40.02700 30.66400
C  43.75900 40.82200 32.54900
C  39.93400 41.84100 32.57100
C  39.39600 42.88600 33.64800
H  38.97900 42.29200 35.00800
N  42.30900 38.74200 27.86500
C  42.73600 38.14600 29.07300
C  43.32200 36.83400 28.70900
C  43.06300 36.58000 27.31300
C  42.59900 37.89400 26.80400
C  43.90300 35.94900 29.75100
C  43.35700 35.35000 26.57800
O  42.99100 35.07600 25.40000
C  43.98000 34.15300 27.24400
N  41.48400 40.51300 25.55300
C  41.81700 39.33100 24.88700
C  41.60100 39.45400 23.31200
C  41.02600 40.82100 23.22100
C  41.05000 41.38400 24.65000
C  42.92100 39.23500 22.54000
C  39.62000 40.89100 22.55000
C  38.48000 40.33500 23.42500
N  41.00300 42.58400 27.39200
C  40.77200 43.33500 26.25500
C  40.40300 44.74000 26.58100
C  40.41900 44.72800 28.01700
C  40.79500 43.37000 28.44100
C  40.09200 45.77900 25.55000
C  40.23000 45.54400 29.17300
O  39.89300 46.72800 29.30500
C  40.47700 44.58700 30.42900
C  41.51800 45.21600 31.22000
O  42.70000 45.17000 30.93500
O  40.98400 45.69700 32.38600
C  41.99800 46.18700 33.34900
H  43.17500 38.15600 31.18300
H  42.52000 37.36300 24.83600
H  40.43900 43.39800 24.19800
H  41.85000 42.74700 32.55100
H  41.89300 39.79100 32.71700
H  44.04000 41.84900 32.31900
H  44.34400 40.07300 32.01500
H  43.90900 40.60300 33.60600
H  39.75600 40.86300 33.01800
H  39.34100 41.77700 31.65900
H  38.50900 43.38400 33.25800
H  40.18000 43.62800 33.79700
H  43.36900 35.04900 30.05700
H  44.35400 36.40200 30.63300
H  44.72700 35.38300 29.31600
H  43.38300 33.82700 28.09600
H  44.99800 34.41800 27.52900
H  44.03700 33.38100 26.47700
H  40.83800 38.71000 23.08100
H  41.66100 41.48500 22.63400
H  43.68900 39.86100 22.99400
H  42.76100 39.54300 21.50600
H  43.23900 38.19300 22.49200
H  39.69500 40.28500 21.64700
H  39.37200 41.92600 22.31900
H  37.69900 41.06000 23.65300
H  38.74200 39.78500 24.32800
H  37.98300 39.59400 22.79800
H  40.15900 46.78300 25.96800
H  39.06600 45.76700 25.18000
H  40.75500 45.59200 24.70500
H  39.58900 44.42800 31.04100
H  42.45100 45.34400 33.87200
H  41.64500 46.85700 34.13200
H  42.77900 46.78100 32.87500

