158

Mg 25.08200 1.49700 28.92400
C  27.05600 1.09600 31.82900
C  22.28500 1.70800 30.86100
C  23.41400 1.64300 26.10900
C  27.99000 0.63100 27.11100
N  24.74200 1.31500 31.12200
C  25.67600 1.32000 32.09100
C  24.99800 1.61400 33.46600
C  23.46800 1.59400 33.11600
C  23.43800 1.57100 31.60500
C  22.77600 0.33400 33.70700
C  25.43800 2.89800 34.18000
C  26.02100 2.70900 35.55300
H  25.84400 3.82800 36.58800
N  23.13800 1.55800 28.55300
C  22.10000 1.64000 29.44400
C  20.88200 1.63500 28.74000
C  21.15600 1.59200 27.38200
C  22.59300 1.54700 27.26400
C  19.57100 1.66100 29.46900
C  20.21100 1.47300 26.19900
O  20.59100 1.17400 25.11000
C  18.74300 1.68800 26.37400
N  25.67700 1.25500 26.93200
C  24.81600 1.51200 25.93600
C  25.53500 1.43800 24.58400
C  27.01900 1.34800 24.91600
C  26.89200 1.05400 26.41400
C  24.94500 0.33000 23.62600
C  27.86500 2.57600 24.62600
C  27.16700 3.95900 24.94500
N  27.16700 0.99200 29.32900
C  28.18800 0.67800 28.48500
C  29.37800 0.43200 29.26300
C  29.01600 0.67000 30.62700
C  27.65400 0.96800 30.56100
C  30.68200 -0.02800 28.66300
C  29.53400 0.76000 31.92500
O  30.65300 0.65100 32.41700
C  28.24100 1.10800 32.81200
C  28.13900 0.15600 33.94700
O  27.40700 -0.81300 34.00400
O  28.89500 0.51300 34.96200
C  28.77500 -0.10200 36.22700
H  21.42100 1.93400 31.49000
H  22.89000 1.78500 25.16200
H  28.80500 0.30000 26.46500
H  25.31100 0.76400 34.07200
H  22.94100 2.49700 33.42500
H  21.83800 0.51300 34.23300
H  23.51200 -0.24600 34.26200
H  22.53200 -0.44200 32.98100
H  24.59900 3.57200 34.35000
H  26.27000 3.36500 33.65200
H  27.09000 2.69800 35.33800
H  25.57400 1.79100 35.93400
H  18.84900 1.10400 28.87300
H  19.21700 2.68500 29.59200
H  19.62500 1.10900 30.40700
H  18.41100 1.58300 25.34100
H  18.52500 2.72600 26.62700
H  18.16100 1.10000 27.08300
H  25.33100 2.36700 24.05200
H  27.50300 0.51500 24.40600
H  24.75200 0.85000 22.68700
H  23.99600 -0.02300 24.02900
H  25.63300 -0.51400 23.62200
H  28.07100 2.57900 23.55500
H  28.89600 2.42300 24.94600
H  26.83900 4.33300 23.97500
H  27.84200 4.66800 25.42400
H  26.32200 3.81900 25.62000
H  30.92400 0.48000 27.72900
H  30.53700 -1.09100 28.47200
H  31.49900 0.13400 29.36600
H  28.42300 2.09900 33.22700
H  27.77300 0.09400 36.60800
H  29.43500 0.38600 36.94500
H  29.09100 -1.14500 36.26100
Mg -9.77100 38.71700 41.17500
C  -9.12700 35.28900 40.68500
C  -6.68600 39.44900 39.91100
C  -10.83300 41.90700 40.73000
C  -13.13700 37.82200 42.20500
N  -8.07700 37.46900 40.47400
C  -7.92000 36.05100 40.33000
C  -6.57500 35.58900 39.78500
C  -5.82000 36.98700 39.71000
C  -6.89200 38.00700 40.08800
C  -4.56000 37.14300 40.61500
C  -6.75600 34.85900 38.48900
C  -5.46700 34.12300 38.09700
H  -4.79300 34.59600 36.73200
N  -8.86100 40.36400 40.48700
C  -7.60700 40.51700 40.10000
C  -7.32500 41.87500 39.66000
C  -8.57100 42.57000 39.67400
C  -9.48500 41.59600 40.29900
C  -5.97200 42.22700 39.16100
C  -8.86800 43.95600 39.07900
O  -7.97400 44.77600 38.68000
C  -10.24900 44.56400 39.10500
N  -11.90100 39.66900 41.23300
C  -11.86100 41.05700 41.14500
C  -13.16900 41.58300 41.86300
C  -13.90000 40.32900 42.32700
C  -13.02300 39.19100 41.82500
C  -12.95800 42.65300 43.01200
C  -15.37800 40.12300 41.80100
C  -16.50300 39.79000 42.81900
N  -10.88300 37.00900 41.46700
C  -12.22800 36.80000 41.81400
C  -12.48800 35.37000 41.98700
C  -11.26000 34.76900 41.53900
C  -10.35600 35.82200 41.12000
C  -13.78700 34.71500 42.56800
C  -10.71700 33.49900 41.39600
O  -11.16700 32.41300 41.70200
C  -9.35300 33.78500 40.71400
C  -8.34000 32.94500 41.36500
O  -7.64000 32.07200 40.82000
O  -8.18000 33.34600 42.66900
C  -7.09200 32.65000 43.39000
H  -5.70800 39.56600 39.43900
H  -11.17100 42.94500 40.73800
H  -14.05700 37.58400 42.74300
H  -6.23500 34.90800 40.56500
H  -5.51400 37.16100 38.67800
H  -4.04700 36.24600 40.96300
H  -4.66600 37.80400 41.47500
H  -3.84800 37.63700 39.95400
H  -7.06400 35.49700 37.66100
H  -7.56500 34.13300 38.56600
H  -5.76100 33.09200 37.90200
H  -4.78500 34.11900 38.94700
H  -5.37900 41.87300 40.00400
H  -5.74600 43.29200 39.10900
H  -5.71200 41.77000 38.20600
H  -10.95700 43.88500 38.62900
H  -10.19700 45.50100 38.55000
H  -10.72100 44.83000 40.05000
H  -13.81100 42.13800 41.17900
H  -13.82100 40.31800 43.41400
H  -11.90700 42.76700 43.27600
H  -13.58500 42.51900 43.89300
H  -13.39500 43.55700 42.58600
H  -15.41100 39.32000 41.06500
H  -15.69600 40.99200 41.22600
H  -16.84000 38.77400 42.61400
H  -17.37800 40.43700 42.87900
H  -16.07500 39.82300 43.82100
H  -14.71800 34.80400 42.00800
H  -13.97500 35.08300 43.57600
H  -13.69400 33.62900 42.54800
H  -9.39300 33.38800 39.69900
H  -7.26800 31.57700 43.32000
H  -7.13500 32.97500 44.42900
H  -6.15500 32.91000 42.89700

