158

Mg 24.52000 -6.94000 46.63200
C  27.06200 -4.82300 45.46500
C  22.31500 -5.25100 44.54500
C  22.31000 -9.41600 47.15300
C  26.95700 -8.72000 48.41700
N  24.71300 -5.32600 45.12000
C  25.85900 -4.60100 44.79500
C  25.51200 -3.45900 43.88700
C  23.94400 -3.53400 43.61800
C  23.58900 -4.70600 44.50200
C  23.00600 -2.23400 43.83900
C  26.37200 -3.48900 42.54300
C  27.04400 -2.09700 42.28400
H  26.66800 -1.48900 40.95100
N  22.59300 -7.32200 45.95000
C  21.83800 -6.47800 45.11600
C  20.53400 -7.08600 44.86100
C  20.54900 -8.39000 45.54900
C  21.92200 -8.48700 46.29200
C  19.49200 -6.41000 43.99700
C  19.39700 -9.36000 45.55400
O  18.42100 -9.11600 44.80200
C  19.35400 -10.62600 46.33800
N  24.66200 -8.89700 47.53300
C  23.52400 -9.54400 47.86900
C  23.72500 -10.61700 48.93900
C  25.25600 -10.51600 49.21200
C  25.67400 -9.27400 48.42100
C  22.85200 -10.47900 50.17800
C  26.07700 -11.79800 48.94000
C  25.67700 -13.06600 49.66300
N  26.61000 -6.84700 46.97200
C  27.42700 -7.57700 47.75800
C  28.72300 -7.06000 47.74900
C  28.62900 -5.96900 46.88000
C  27.33800 -5.91400 46.38900
C  29.93000 -7.59600 48.59000
C  29.37900 -4.95000 46.23900
O  30.54400 -4.65800 46.37800
C  28.44600 -4.19600 45.24700
C  28.51800 -2.75500 45.43400
O  29.24700 -1.98800 44.88200
O  27.88000 -2.46600 46.52900
C  28.04300 -1.04600 46.94500
H  21.60600 -4.71000 43.91500
H  21.56500 -10.17200 47.40900
H  27.59600 -9.17600 49.17700
H  25.68600 -2.54900 44.46100
H  23.71800 -3.90300 42.61800
H  23.58600 -1.31900 43.71900
H  22.56600 -2.33100 44.83200
H  22.12200 -2.26500 43.20200
H  25.74200 -3.86000 41.73400
H  27.18500 -4.21500 42.54600
H  28.09600 -2.37500 42.21500
H  26.81200 -1.40100 43.09100
H  19.80200 -5.41600 43.67500
H  18.55600 -6.52200 44.54300
H  19.37500 -6.84600 43.00500
H  20.29100 -11.17900 46.28400
H  18.57800 -11.30200 45.98000
H  19.15200 -10.48600 47.40000
H  23.42700 -11.51600 48.39800
H  25.46000 -10.24600 50.24900
H  21.82600 -10.14600 50.02400
H  23.26700 -9.92400 51.01900
H  22.68100 -11.51900 50.45500
H  27.10900 -11.59800 49.22900
H  26.10700 -11.94500 47.86000
H  25.28000 -13.71800 48.88400
H  24.93300 -12.85800 50.43300
H  26.55500 -13.38500 50.22500
H  30.45700 -6.74200 49.01700
H  30.62600 -8.10600 47.92400
H  29.58500 -8.30700 49.34000
H  28.79600 -4.31100 44.22100
H  28.09900 -0.33300 46.12200
H  28.98300 -1.11800 47.49200
H  27.32700 -0.82400 47.73600
Mg 8.92400 48.86300 26.68500
C  6.44700 48.45600 29.17900
C  11.20100 49.52600 29.07800
C  10.99600 49.11000 24.22000
C  6.29900 48.12400 24.29200
N  8.81000 48.98200 28.92200
C  7.75500 48.78100 29.70900
C  8.06500 49.04200 31.21800
C  9.47000 49.64600 31.15400
C  9.91700 49.32200 29.64300
C  9.60800 51.19000 31.42300
C  7.89500 47.87900 32.20000
C  8.82700 47.85900 33.46100
H  8.40600 47.25700 34.84000
N  10.81200 49.23600 26.63100
C  11.63800 49.52600 27.72300
C  12.97200 49.60700 27.28500
C  13.00000 49.41600 25.87700
C  11.56500 49.26900 25.50500
C  14.16200 49.81400 28.16300
C  14.16600 49.42400 24.87200
O  14.04000 49.36000 23.66400
C  15.52600 49.43400 25.36500
N  8.63000 48.86600 24.57800
C  9.71200 48.91000 23.79500
C  9.39700 48.54000 22.29900
C  7.94500 48.04300 22.38200
C  7.58200 48.36900 23.83100
C  9.74100 49.47300 21.12400
C  7.77400 46.49900 22.12200
C  7.14300 46.05200 20.79000
N  6.77900 48.52000 26.66000
C  5.91000 48.13100 25.62700
C  4.60900 47.97100 26.20600
C  4.73800 48.09800 27.53300
C  6.06700 48.37300 27.81700
C  3.39600 47.50700 25.53200
C  4.05600 48.06700 28.75700
O  2.85300 48.01400 29.01900
C  5.09200 48.35300 29.90000
C  5.09400 47.24400 30.87300
O  5.65600 46.14000 30.75700
O  4.37300 47.66700 32.00100
C  4.29300 46.67100 33.11000
H  11.97600 49.60000 29.84400
H  11.64100 49.11400 23.33900
H  5.68800 47.81800 23.44000
H  7.30300 49.76500 31.51000
H  10.20500 49.11200 31.75600
H  8.64300 51.61900 31.69400
H  9.97300 51.69100 30.52600
H  10.32900 51.26300 32.23800
H  8.15700 46.99300 31.62300
H  6.84600 47.91400 32.49500
H  9.06000 48.88800 33.73300
H  9.78700 47.39500 33.23200
H  13.97900 49.93800 29.23000
H  14.78000 50.64900 27.83400
H  14.81900 48.96700 27.96100
H  15.79500 50.16900 26.12400
H  16.12700 49.77200 24.52000
H  15.81200 48.44300 25.71600
H  10.07900 47.69600 22.20100
H  7.21100 48.65800 21.86100
H  10.49500 48.94900 20.53800
H  10.02100 50.43700 21.55000
H  8.82600 49.66600 20.56400
H  7.26000 46.09400 22.99500
H  8.78100 46.12300 21.94300
H  6.06400 45.95100 20.90200
H  7.50600 45.06800 20.49300
H  7.36400 46.62800 19.89200
H  3.07300 46.63000 26.09300
H  3.73700 47.37900 24.50500
H  2.67200 48.31500 25.63400
H  4.82600 49.25500 30.45200
H  4.62600 47.18500 34.01100
H  4.97700 45.82400 33.04800
H  3.32100 46.19600 33.24200

