158

Mg 48.16100 34.54200 26.50300
C  45.94200 33.67900 29.22000
C  48.61400 37.63500 27.97500
C  49.62300 35.46900 23.71400
C  47.02000 31.60700 24.80700
N  47.29900 35.57400 28.42600
C  46.57100 34.94700 29.42000
C  46.36700 35.95500 30.58200
C  46.80100 37.33700 29.97300
C  47.61800 36.86900 28.70100
C  45.55700 38.20200 29.62900
C  47.35000 35.49400 31.81000
C  46.67500 35.61100 33.19400
H  46.09500 36.94300 33.68500
N  49.10700 36.26600 25.98800
C  49.34300 37.36000 26.79300
C  50.23700 38.23400 26.09500
C  50.56200 37.66300 24.81800
C  49.74500 36.36700 24.75600
C  50.66600 39.55800 26.72500
C  51.55400 38.15900 23.71800
O  51.72400 37.54000 22.65400
C  52.37200 39.46200 23.96100
N  48.03500 33.72400 24.47900
C  48.84200 34.31500 23.57300
C  49.10600 33.40300 22.28400
C  48.36900 32.12200 22.68700
C  47.76400 32.46100 24.03700
C  48.66100 34.05000 20.90700
C  49.35900 30.88700 22.93200
C  48.62400 29.49600 22.75100
N  46.78400 33.02700 26.86800
C  46.49200 31.92400 26.10900
C  45.51600 31.14400 26.77600
C  45.37800 31.69700 28.02100
C  46.11700 32.89900 28.04400
C  44.81500 29.89900 26.28500
C  44.67900 31.55200 29.34200
O  43.85400 30.70200 29.70500
C  44.99500 32.89900 30.18500
C  45.62000 32.49600 31.45500
O  46.76000 32.03800 31.51300
O  44.67100 32.60700 32.50000
C  45.07800 31.92400 33.70300
H  48.69500 38.64200 28.38900
H  50.17800 35.72200 22.80800
H  46.92700 30.57700 24.45800
H  45.34300 35.97600 30.95600
H  47.46100 37.89100 30.64100
H  45.38300 38.35200 28.56300
H  45.73400 39.20900 30.00600
H  44.67200 37.77700 30.10400
H  48.27100 36.07100 31.73200
H  47.66900 34.45500 31.72600
H  47.39800 35.21800 33.90800
H  45.86900 34.87700 33.20100
H  50.43500 40.37800 26.04500
H  51.72100 39.53200 26.99700
H  50.32800 39.68300 27.75300
H  51.60800 40.20900 24.17800
H  52.93200 39.65400 23.04600
H  53.09800 39.27600 24.75200
H  50.18000 33.25700 22.16800
H  47.62700 31.87300 21.92900
H  47.78200 33.69000 20.37100
H  49.56700 33.94700 20.30900
H  48.51000 35.12600 20.99800
H  49.73900 30.89400 23.95400
H  50.24300 30.99200 22.30400
H  47.62700 29.45600 22.31300
H  48.68800 28.88100 23.64800
H  49.15200 28.94600 21.97200
H  45.07900 29.66000 25.25500
H  43.76600 30.19500 26.30100
H  45.08700 29.09800 26.97300
H  44.03200 33.36700 30.38500
H  44.85100 32.45400 34.62800
H  46.12000 31.60700 33.65900
H  44.50500 31.01300 33.87500
Mg 36.37900 49.43100 26.20300
C  36.78900 47.12000 28.86700
C  35.52100 51.76400 28.33200
C  35.58600 51.25900 23.56700
C  36.90200 46.60200 23.96600
N  36.35000 49.44400 28.37000
C  36.46000 48.49100 29.21100
C  36.38200 49.01700 30.67600
C  35.52700 50.35700 30.46900
C  35.83300 50.55400 28.94900
C  34.05500 50.07600 30.59200
C  37.74400 49.36600 31.26800
C  37.89400 49.15900 32.73500
H  37.57700 50.32300 33.62800
N  35.75500 51.29900 25.97300
C  35.53800 52.13600 26.96800
C  35.11200 53.43100 26.46300
C  35.03500 53.32900 25.01000
C  35.51900 51.96300 24.79200
C  34.62500 54.63100 27.41200
C  34.56500 54.23200 23.97400
O  34.34200 53.83300 22.87200
C  34.27800 55.56600 24.38800
N  36.05000 48.86800 24.06400
C  35.85000 49.92700 23.21000
C  36.15000 49.55700 21.74100
C  36.74500 48.13700 21.90600
C  36.51300 47.77500 23.35200
C  34.88500 49.79300 20.75500
C  38.17000 47.94900 21.44900
C  38.34100 47.33300 20.04300
N  36.78600 47.31500 26.32100
C  36.95700 46.34700 25.32600
C  37.31400 45.13600 25.92800
C  37.21700 45.35600 27.32800
C  36.91700 46.69000 27.50600
C  37.62800 43.82400 25.25800
C  37.19500 44.73700 28.65000
O  37.40700 43.59100 28.98100
C  36.95400 45.91900 29.74700
C  35.63700 45.71100 30.45300
O  34.54600 45.60800 29.97200
O  35.92200 45.84300 31.78600
C  34.65700 46.03500 32.64400
H  35.23300 52.52900 29.05600
H  35.47700 51.75000 22.59800
H  37.20000 45.83200 23.25200
H  35.84900 48.35900 31.36300
H  35.77200 51.24500 31.05200
H  33.93500 49.30300 31.35000
H  33.57700 49.78100 29.65700
H  33.59800 50.98800 30.97600
H  38.18400 50.32500 30.99500
H  38.40800 48.63700 30.80300
H  38.89800 48.85300 33.02900
H  37.25700 48.34400 33.08000
H  34.31300 54.29600 28.40000
H  33.72700 55.15100 27.07900
H  35.49500 55.28600 27.47800
H  35.03000 55.93200 25.08600
H  33.26700 55.54600 24.79400
H  34.23200 56.16600 23.47800
H  36.89600 50.24000 21.33300
H  36.10700 47.50000 21.29400
H  34.05300 50.11700 21.38000
H  34.47800 48.89000 20.30000
H  35.12000 50.56400 20.02100
H  38.58700 47.21000 22.13300
H  38.66900 48.91600 21.51100
H  38.84000 46.36500 20.07300
H  38.91700 48.09600 19.51800
H  37.45100 47.25100 19.41900
H  38.04300 43.90000 24.25200
H  36.66800 43.31300 25.19100
H  38.37700 43.41300 25.93400
H  37.72100 45.98100 30.51900
H  34.84700 46.98300 33.14700
H  34.45600 45.27800 33.40300
H  33.71500 46.33000 32.18200

