158

Mg 48.24600 34.65600 27.14100
C  46.16200 33.70100 29.63100
C  49.26100 37.41300 28.88200
C  49.80100 35.67500 24.36500
C  47.10500 31.73200 25.21600
N  47.84200 35.39600 29.03200
C  46.99900 34.75700 29.92800
C  47.14700 35.28900 31.32100
C  47.70100 36.77500 31.04100
C  48.34600 36.56800 29.58800
C  46.57200 37.88400 31.01400
C  48.11200 34.37700 32.09600
C  48.49000 34.94700 33.43100
H  47.49900 35.85200 34.20300
N  49.38100 36.37000 26.70600
C  49.71400 37.36800 27.53800
C  50.51300 38.36900 26.80900
C  50.77200 37.84400 25.48900
C  49.98400 36.59100 25.43800
C  50.99700 39.60900 27.43000
C  51.60300 38.49800 24.34100
O  51.67300 38.03200 23.20500
C  52.42900 39.72500 24.62300
N  48.37900 33.82200 25.08000
C  49.14900 34.48500 24.17600
C  49.03700 33.74000 22.75000
C  48.46400 32.32200 23.14700
C  47.95700 32.58100 24.60000
C  48.25400 34.52000 21.70000
C  49.63400 31.18200 23.08100
C  49.26800 29.89400 22.34000
N  46.92100 33.02400 27.30500
C  46.56200 31.94300 26.50800
C  45.51800 31.12100 27.18700
C  45.27300 31.86400 28.33200
C  46.20700 32.91900 28.39900
C  44.82500 29.85300 26.63700
C  44.41700 31.96400 29.48300
O  43.42700 31.33200 29.82600
C  44.98300 33.05700 30.37100
C  45.49200 32.38500 31.61400
O  46.37100 31.52100 31.57200
O  44.67500 32.82300 32.61700
C  45.00800 32.14100 33.83800
H  49.63900 38.15100 29.59300
H  50.40900 35.85100 23.47500
H  46.74300 30.86200 24.66400
H  46.17900 35.36900 31.81600
H  48.58000 37.06500 31.61700
H  45.68900 37.28500 31.23900
H  46.54300 38.41600 30.06300
H  46.86400 38.63200 31.75000
H  48.99500 34.49100 31.46700
H  47.86100 33.31700 32.11500
H  49.37700 35.56700 33.29900
H  48.82400 34.13700 34.08000
H  52.08000 39.60000 27.55200
H  50.69500 39.74300 28.46900
H  50.60600 40.40400 26.79600
H  53.18900 39.46400 25.36000
H  51.92500 40.61700 24.99500
H  53.00700 39.87600 23.71100
H  50.06600 33.66600 22.39900
H  47.64700 32.04000 22.48400
H  47.86100 35.34600 22.29300
H  47.50000 33.92300 21.18700
H  48.99400 34.87600 20.98400
H  49.83100 30.90000 24.11500
H  50.61900 31.47800 22.72000
H  48.30000 29.95800 21.84200
H  49.32000 29.00000 22.96100
H  49.88400 29.67100 21.46900
H  45.51400 29.02500 26.46800
H  44.51900 30.30300 25.69300
H  43.89200 29.54300 27.11000
H  44.29600 33.83000 30.71500
H  45.16600 32.86500 34.63800
H  45.93200 31.56300 33.80700
H  44.18500 31.50800 34.17000
Mg -10.36400 39.14300 41.27400
C  -8.82700 36.03400 40.64300
C  -7.91700 40.66800 39.30400
C  -12.29600 41.91800 41.02500
C  -13.15800 37.25000 42.44700
N  -8.62900 38.43400 40.06000
C  -8.21400 37.12200 39.94400
C  -6.98300 37.05700 39.07900
C  -6.46600 38.57900 39.00500
C  -7.69000 39.30500 39.55200
C  -5.14500 38.83500 39.75500
C  -7.20700 36.42300 37.65800
C  -6.22200 35.41300 37.04400
H  -5.56200 35.73400 35.67900
N  -10.04400 41.03700 40.43600
C  -8.99300 41.51300 39.70200
C  -9.18700 42.88200 39.30100
C  -10.40000 43.33500 39.88100
C  -10.96500 42.09100 40.48800
C  -8.18100 43.68400 38.57500
C  -10.94300 44.72900 39.84800
O  -10.45200 45.57400 39.17600
C  -12.15100 45.07100 40.60100
N  -12.40300 39.52300 41.68500
C  -12.90300 40.79200 41.63200
C  -14.43300 40.79900 41.95300
C  -14.67600 39.34200 42.44300
C  -13.35800 38.57200 42.05700
C  -14.88400 41.90400 43.00400
C  -16.01300 38.72700 41.74300
C  -17.08500 37.99200 42.55500
N  -10.83700 37.10900 41.76400
C  -12.02700 36.53700 42.29100
C  -11.71600 35.11900 42.50200
C  -10.53500 34.90900 41.81200
C  -10.05800 36.09800 41.35900
C  -12.65700 34.24800 43.17900
C  -9.60000 33.87200 41.54100
O  -9.53600 32.70100 41.82900
C  -8.41900 34.55100 40.64000
C  -7.13300 34.18000 41.16200
O  -6.63600 33.08200 40.91100
O  -6.65800 35.16400 41.98500
C  -5.46900 34.71400 42.74000
H  -7.01500 41.09600 38.86200
H  -12.95100 42.78600 40.92600
H  -14.01000 36.67100 42.81100
H  -6.25900 36.51000 39.68300
H  -6.29900 38.78200 37.94700
H  -4.31200 38.23800 39.38400
H  -5.31200 38.63900 40.81400
H  -4.83600 39.86400 39.56900
H  -7.09000 37.18400 36.88700
H  -8.25500 36.12700 37.60300
H  -6.80900 34.49400 37.02300
H  -5.35900 35.34200 37.70500
H  -7.68900 44.27600 39.34700
H  -8.81100 44.28300 37.91800
H  -7.50100 43.10200 37.95300
H  -11.99500 44.70700 41.61600
H  -13.06400 44.68500 40.14700
H  -12.16800 46.15700 40.68800
H  -14.88500 40.92900 40.97000
H  -14.77800 39.19400 43.51800
H  -15.53600 42.61000 42.49000
H  -14.00900 42.41400 43.40700
H  -15.37400 41.45000 43.86500
H  -15.66300 38.17500 40.87000
H  -16.50000 39.53200 41.19300
H  -18.03700 38.49600 42.38900
H  -16.82700 37.83400 43.60300
H  -17.08500 36.99400 42.11700
H  -12.53600 33.22800 42.81400
H  -13.65300 34.60700 42.91800
H  -12.50200 34.32600 44.25500
H  -8.44100 34.14300 39.62900
H  -5.05800 35.51600 43.35300
H  -4.69100 34.56400 41.99200
H  -5.62600 33.82200 43.34600

