158

Mg 29.52700 57.90800 41.28300
C  26.76500 56.21800 40.01400
C  31.42300 55.37700 39.92800
C  32.14900 59.85800 41.73600
C  27.40600 60.46000 42.37800
N  29.13600 55.96000 40.06500
C  27.96500 55.62500 39.57900
C  28.04600 54.29200 38.83400
C  29.53300 53.81900 39.29000
C  30.07800 55.09400 39.76000
C  29.59100 52.67600 40.42000
C  27.93300 54.41400 37.24400
C  26.56600 53.99200 36.61600
H  26.00700 54.77300 35.40400
N  31.53500 57.61700 41.01400
C  32.10800 56.57800 40.36800
C  33.55100 56.75900 40.26700
C  33.79900 58.04200 40.91900
C  32.47500 58.59500 41.34800
C  34.43600 55.79400 39.65400
C  35.21100 58.67000 40.98900
O  36.19700 58.19200 40.42100
C  35.43400 59.89900 41.79000
N  29.78700 60.06300 41.82700
C  31.02100 60.57100 42.04300
C  30.97400 62.04900 42.59300
C  29.41700 62.14100 42.94100
C  28.78500 60.79800 42.39900
C  31.88600 62.36400 43.78600
C  28.71100 63.46800 42.49700
C  27.92200 64.28500 43.57900
N  27.47800 58.33900 41.27500
C  26.72100 59.36700 41.80600
C  25.33600 59.04500 41.67900
C  25.33400 57.88000 40.98300
C  26.63500 57.43100 40.74300
C  24.14300 59.74400 42.21200
C  24.43100 56.86900 40.38500
O  23.22300 56.80700 40.37200
C  25.27400 55.69000 39.82800
C  24.98500 54.45100 40.60500
O  25.12100 54.28500 41.81400
O  24.70300 53.43200 39.71200
C  24.61300 52.07700 40.23900
H  32.00300 54.57100 39.47400
H  33.09800 60.38400 41.85100
H  26.71500 61.18500 42.81400
H  27.35600 53.56400 39.26100
H  30.16200 53.51500 38.45300
H  29.86600 52.97300 41.43200
H  30.31000 51.95400 40.03400
H  28.60700 52.20900 40.46700
H  28.81400 53.99100 36.76300
H  27.97100 55.48200 37.03000
H  25.77400 53.91400 37.36100
H  26.69600 53.02000 36.14000
H  34.04100 55.18700 38.83900
H  34.79200 55.06800 40.38400
H  35.35400 56.31900 39.38800
H  35.10300 60.79400 41.26300
H  36.49900 60.03400 41.97900
H  34.99600 59.79400 42.78300
H  31.11200 62.73800 41.76100
H  29.34300 62.00800 44.02000
H  31.29400 62.70800 44.63300
H  32.67400 63.08600 43.57300
H  32.44100 61.45500 44.02000
H  27.97600 63.21200 41.73500
H  29.40900 64.16600 42.03600
H  28.04600 63.71400 44.50000
H  26.90500 64.40800 43.20700
H  28.40600 65.25700 43.67200
H  24.03300 60.77800 41.88400
H  24.28300 59.89600 43.28300
H  23.21200 59.22600 41.98200
H  25.05000 55.53100 38.77300
H  24.93700 51.92700 41.26900
H  25.11200 51.50600 39.45600
H  23.59100 51.72200 40.10800
Mg -4.34900 25.87200 26.16100
C  -3.36600 27.33900 28.98600
C  -6.23000 23.74200 28.04100
C  -5.33500 24.18300 23.38300
C  -2.38000 27.94800 24.20700
N  -4.86000 25.61400 28.25000
C  -4.38200 26.41400 29.20800
C  -4.91500 26.07100 30.55500
C  -5.72700 24.74300 30.32500
C  -5.62600 24.69200 28.78100
C  -5.29100 23.46500 31.05800
C  -5.76900 27.24200 31.19400
C  -5.83500 27.20300 32.75300
H  -5.40000 25.98100 33.56300
N  -5.74000 24.32900 25.78400
C  -6.41600 23.57800 26.68400
C  -7.47300 22.79800 26.12100
C  -7.17000 22.82700 24.68300
C  -6.02400 23.78500 24.50700
C  -8.50300 22.00800 26.89400
C  -7.84900 22.06900 23.50700
O  -7.59600 22.23700 22.31900
C  -8.96600 21.09800 23.68200
N  -3.74200 25.95900 24.09000
C  -4.34700 25.15500 23.13500
C  -3.68100 25.36800 21.78000
C  -3.00400 26.80600 21.95800
C  -3.09000 26.94600 23.50500
C  -2.79500 24.15600 21.28700
C  -3.67300 28.06500 21.28500
C  -2.89600 28.66700 20.13600
N  -3.06900 27.28400 26.49400
C  -2.25700 28.05900 25.58600
C  -1.34000 28.82800 26.41900
C  -1.77800 28.71700 27.76400
C  -2.83800 27.73900 27.69500
C  -0.18400 29.70600 25.99000
C  -1.56400 29.11600 29.09100
O  -0.76700 29.94900 29.58900
C  -2.50100 28.20700 29.94400
C  -1.60200 27.41500 30.76300
O  -0.65800 26.76800 30.39700
O  -1.81800 27.73500 32.02600
C  -1.23700 27.04700 33.17300
H  -6.90800 23.15200 28.66100
H  -5.74200 23.65700 22.51700
H  -1.73000 28.64900 23.67900
H  -4.03000 25.73700 31.09700
H  -6.78300 24.72100 30.59700
H  -6.11600 23.00900 31.60600
H  -4.55900 23.83400 31.77600
H  -4.87900 22.68200 30.42200
H  -6.73300 27.04300 30.72400
H  -5.31200 28.18100 30.88100
H  -6.84600 27.55200 32.96200
H  -5.34400 28.12600 33.06300
H  -8.16900 21.67800 27.87800
H  -8.66000 21.10400 26.30600
H  -9.44400 22.55700 26.93600
H  -9.61300 20.93700 22.82000
H  -9.66800 21.46000 24.43300
H  -8.48100 20.14900 23.91500
H  -4.51900 25.50600 21.09700
H  -1.93700 26.71500 21.75500
H  -1.90800 24.60000 20.83600
H  -3.41600 23.60200 20.58400
H  -2.51000 23.55000 22.14600
H  -3.91000 28.88000 21.96900
H  -4.62300 27.85200 20.79300
H  -2.05800 28.00800 19.90600
H  -2.53100 29.68100 20.29700
H  -3.59000 28.62800 19.29700
H  -0.44900 30.76200 25.94800
H  0.21600 29.22100 25.10000
H  0.59300 29.60300 26.74700
H  -3.14900 28.85800 30.53100
H  -0.26200 27.47200 33.40900
H  -1.03900 25.98500 33.03200
H  -1.82900 27.25700 34.06400

