158

Mg 8.46100 4.50500 27.99800
C  9.77000 2.89300 30.74000
C  6.61500 6.45200 30.12700
C  7.05100 5.90700 25.27400
C  10.15600 2.24500 25.92200
N  8.12600 4.55300 30.25000
C  8.87500 3.91500 31.18400
C  8.58900 4.41500 32.61900
C  7.41400 5.51400 32.34100
C  7.37200 5.51900 30.77400
C  6.09400 5.15400 33.08300
C  9.88000 5.07000 33.25800
C  9.54200 5.77000 34.55700
H  10.37400 5.24700 35.81400
N  6.98700 5.94700 27.79100
C  6.40900 6.67300 28.79200
C  5.41800 7.61100 28.20200
C  5.65900 7.56700 26.76500
C  6.61000 6.46200 26.53900
C  4.53800 8.55500 29.06000
C  4.90900 8.27600 25.67300
O  5.12300 8.13900 24.47700
C  3.68600 9.10100 25.98800
N  8.43900 3.99200 25.89400
C  7.85100 4.80900 24.97200
C  8.20700 4.37500 23.52700
C  9.33900 3.35400 23.71700
C  9.31400 3.09500 25.26500
C  7.02000 3.98400 22.64000
C  10.69600 3.82100 23.23400
C  11.66200 2.61400 22.85900
N  9.71100 2.92300 28.24000
C  10.31600 2.06100 27.33800
C  11.08600 1.05400 27.97700
C  10.96700 1.35200 29.40300
C  10.12900 2.55300 29.43300
C  11.85900 -0.01100 27.27100
C  11.33900 0.99500 30.62300
O  12.17800 0.14100 30.96600
C  10.64000 1.95200 31.57300
C  9.88000 1.15800 32.60300
O  8.92300 0.42000 32.41000
O  10.45900 1.48900 33.82800
C  9.82600 0.98800 35.04000
H  6.19500 7.18300 30.82200
H  6.68000 6.37100 24.35700
H  10.74800 1.67600 25.20300
H  8.34300 3.55500 33.24200
H  7.73300 6.53500 32.54800
H  5.34400 4.92800 32.32400
H  5.85400 6.10300 33.56100
H  6.20800 4.31100 33.76500
H  10.37500 5.74600 32.56200
H  10.51100 4.19800 33.43100
H  8.48900 5.67200 34.81900
H  9.58300 6.85800 34.51900
H  4.79000 8.68700 30.11200
H  3.52000 8.17600 28.97000
H  4.60500 9.51000 28.53900
H  2.90200 8.55200 26.51000
H  3.27100 9.57500 25.09900
H  3.94600 9.94200 26.63100
H  8.58900 5.31000 23.11700
H  9.00200 2.41300 23.28200
H  6.17400 4.12800 23.31200
H  7.10700 2.89800 22.68400
H  6.95900 4.27900 21.59300
H  11.26900 4.41000 23.95000
H  10.63500 4.51000 22.39200
H  11.72900 2.74300 21.77900
H  11.27500 1.62400 23.09900
H  12.65900 2.80500 23.25600
H  12.78700 0.45800 26.94600
H  11.26600 -0.38300 26.43500
H  12.11900 -0.79600 27.98100
H  11.40600 2.49600 32.12500
H  10.63400 0.82300 35.75300
H  9.15800 0.12700 34.99400
H  9.21800 1.80800 35.42400
Mg 16.33400 52.32000 26.49500
C  17.99300 50.96000 29.17400
C  13.71400 53.20800 28.51000
C  14.76500 53.52100 23.77500
C  18.69200 50.83100 24.34200
N  15.86600 51.95600 28.61000
C  16.83900 51.62000 29.53300
C  16.37800 51.99400 30.96400
C  14.90300 52.52000 30.75800
C  14.77900 52.54900 29.22900
C  13.71200 51.59100 31.26800
C  17.31900 53.05800 31.62000
C  17.33900 53.18200 33.20400
H  16.43000 52.31000 34.03500
N  14.51500 53.28100 26.23800
C  13.55700 53.50700 27.13800
C  12.39500 54.17100 26.49300
C  12.77000 54.37200 25.10500
C  14.04000 53.74100 24.97700
C  11.22600 54.56200 27.31300
C  12.03800 55.03900 24.02200
O  12.46800 55.20400 22.86600
C  10.82800 55.67000 24.33300
N  16.64100 52.15400 24.42000
C  15.82000 52.80000 23.48700
C  16.33700 52.60200 22.04300
C  17.66200 51.76400 22.27400
C  17.65600 51.55700 23.77000
C  15.34900 52.02500 20.94100
C  18.93400 52.61700 21.84500
C  20.05400 51.87100 21.20000
N  18.03800 51.12400 26.65900
C  18.93400 50.64900 25.73300
C  20.06100 49.98900 26.33100
C  19.72900 50.14000 27.69200
C  18.46900 50.77900 27.85800
C  21.17700 49.19900 25.70100
C  20.12000 49.80200 29.08500
O  21.12900 49.27400 29.52600
C  19.04700 50.33900 30.01700
C  18.46200 49.39000 31.04500
O  17.64800 48.50200 30.88000
O  18.95200 49.65700 32.31500
C  18.50200 48.71900 33.35700
H  13.04500 53.63400 29.26000
H  14.31200 53.80500 22.82300
H  19.39200 50.35600 23.65300
H  16.37900 51.12400 31.62000
H  14.77600 53.47400 31.27000
H  14.13800 50.69000 31.70900
H  13.06200 51.32100 30.43600
H  13.12600 52.08700 32.04200
H  17.05800 54.00000 31.13900
H  18.32700 52.77600 31.31600
H  17.17800 54.24500 33.37900
H  18.35800 52.87700 33.44400
H  11.09700 55.63400 27.16300
H  11.31200 54.39400 28.38700
H  10.29300 54.08600 27.01200
H  10.25700 54.91300 24.87000
H  10.34700 55.96400 23.40000
H  11.07200 56.58400 24.87400
H  16.54000 53.60800 21.67400
H  17.66300 50.80600 21.75500
H  14.54500 51.48900 21.44400
H  15.96500 51.52500 20.19300
H  14.92600 52.86500 20.38900
H  19.32000 53.14700 22.71600
H  18.62200 53.41200 21.16900
H  20.12900 52.11500 20.14000
H  19.89000 50.79700 21.29700
H  20.94500 52.23500 21.71100
H  21.15100 49.31500 24.61800
H  21.04200 48.15900 25.99800
H  22.16000 49.56100 26.00300
H  19.53600 51.16000 30.54300
H  19.25800 48.77300 34.14100
H  18.60100 47.69300 33.00300
H  17.48200 48.84700 33.72000

