158

Mg 8.86000 3.33300 27.91200
C  9.91600 1.62100 30.92800
C  7.25800 5.45900 29.76300
C  7.24400 4.28100 25.08300
C  10.23000 0.64000 26.09700
N  8.38700 3.23800 30.04800
C  9.11500 2.77400 31.14300
C  8.90400 3.57400 32.40200
C  7.72500 4.49500 32.00900
C  7.76300 4.40000 30.48100
C  6.34700 4.31200 32.63600
C  10.26900 4.31300 32.86100
C  10.13800 4.85000 34.30300
H  10.99400 4.08500 35.30500
N  7.41600 4.70900 27.50500
C  6.96500 5.59200 28.41800
C  6.15200 6.58000 27.72000
C  6.14500 6.32000 26.28500
C  6.95100 5.06200 26.21400
C  5.44700 7.69000 28.50700
C  5.38900 7.06200 25.19700
O  5.51000 6.68500 24.00500
C  4.67900 8.33100 25.55000
N  8.82900 2.67100 25.88700
C  8.10500 3.22500 24.89400
C  8.46200 2.70500 23.55200
C  9.51700 1.64400 23.88100
C  9.48800 1.59800 25.39000
C  7.21300 2.17600 22.77200
C  10.94700 1.90700 23.33000
C  11.31000 1.08500 22.09300
N  9.97300 1.47500 28.31400
C  10.42700 0.51000 27.45900
C  11.02800 -0.55200 28.29400
C  10.85900 -0.19400 29.63800
C  10.16100 1.05500 29.63100
C  11.78400 -1.69700 27.71300
C  11.16200 -0.47700 31.03800
O  11.83500 -1.31200 31.52300
C  10.63800 0.64800 31.86400
C  9.60700 0.01700 32.75100
O  8.47100 -0.21700 32.37500
O  10.14400 -0.46300 33.85300
C  9.38500 -1.20600 34.82400
H  7.04500 6.37500 30.31800
H  6.69400 4.65700 24.21800
H  10.62600 -0.18200 25.49700
H  8.57300 2.85500 33.15200
H  8.08600 5.50900 32.18100
H  5.67100 3.84900 31.91700
H  6.00800 5.31700 32.88900
H  6.38600 3.74200 33.56400
H  10.40400 5.19000 32.22900
H  11.16600 3.72100 32.68000
H  9.09200 4.98000 34.58100
H  10.57000 5.85000 34.32400
H  5.91000 8.66600 28.35900
H  5.47000 7.57500 29.59000
H  4.36900 7.62900 28.35600
H  3.84100 8.20500 26.23600
H  4.27100 8.83600 24.67500
H  5.41100 9.00700 25.99300
H  8.94200 3.46100 22.93100
H  9.09300 0.65600 23.70200
H  7.10300 1.14200 22.44500
H  7.19300 2.67800 21.80400
H  6.31400 2.57200 23.24300
H  11.75000 1.70900 24.03900
H  10.92200 2.89800 22.87800
H  11.33700 1.60400 21.13500
H  10.52700 0.32700 22.11200
H  12.29200 0.62300 22.19600
H  11.37100 -1.79300 26.70800
H  11.54100 -2.57100 28.31700
H  12.81800 -1.35600 27.66800
H  11.38700 1.01800 32.56500
H  10.16800 -1.82800 35.25800
H  8.63900 -1.77700 34.27100
H  8.94800 -0.47700 35.50700
Mg 26.33100 50.35300 25.46700
C  24.11800 51.64400 28.11800
C  28.32800 49.25000 28.08900
C  28.44400 49.57300 23.16300
C  24.25800 52.05400 23.17200
N  26.25300 50.45500 27.89300
C  25.24100 50.95900 28.69900
C  25.58000 50.79700 30.18500
C  26.88800 50.00800 30.16400
C  27.15900 49.85200 28.61600
C  28.08900 50.64800 30.87900
C  24.44100 50.19900 31.04700
C  24.72100 49.56400 32.43200
H  24.36900 50.32400 33.69100
N  28.05800 49.47700 25.54500
C  28.75600 49.06700 26.66100
C  30.07400 48.63000 26.27600
C  30.13000 48.69000 24.86200
C  28.89600 49.27400 24.47400
C  31.21400 48.30100 27.25800
C  31.26400 48.38400 23.84700
O  31.14900 48.56200 22.61900
C  32.56400 47.94400 24.45100
N  26.39800 50.81300 23.34900
C  27.34000 50.26000 22.59500
C  26.98600 50.45300 21.07400
C  25.53000 51.10400 21.10200
C  25.39400 51.42700 22.60400
C  28.03600 51.43600 20.35000
C  24.37100 50.18300 20.52200
C  23.92400 50.62100 19.17000
N  24.54100 51.58200 25.56600
C  23.85100 52.20600 24.55500
C  22.66800 52.88300 25.14800
C  22.77500 52.68300 26.48400
C  23.92700 51.87500 26.78200
C  21.65900 53.72000 24.34600
C  22.10000 52.95900 27.78400
O  21.03700 53.55900 28.04500
C  23.01400 52.32900 28.82000
C  23.44900 53.32100 29.78500
O  24.54600 53.86200 29.95100
O  22.40600 53.46000 30.73000
C  22.65600 54.01800 32.04900
H  28.85900 48.66100 28.84000
H  29.05300 49.15000 22.36100
H  23.56600 52.39500 22.39900
H  25.75200 51.75400 30.67900
H  26.68700 48.99600 30.51500
H  28.56900 49.91300 31.52500
H  27.71300 51.48900 31.46200
H  28.93000 51.02200 30.29400
H  23.92100 49.46000 30.43700
H  23.77200 51.03500 31.24700
H  25.79200 49.38000 32.52400
H  24.26400 48.58200 32.30900
H  31.71800 47.37600 26.97800
H  30.89400 47.99900 28.25600
H  31.96100 49.08800 27.34900
H  32.63000 46.99200 24.97800
H  32.94600 48.74700 25.08200
H  33.15900 47.78100 23.55200
H  27.17800 49.47300 20.63700
H  25.45300 52.10500 20.67800
H  28.71400 51.68200 21.16800
H  27.56000 52.29500 19.87900
H  28.61100 50.84900 19.63300
H  23.52900 50.13100 21.21300
H  24.74500 49.16400 20.42100
H  24.66400 50.45000 18.38800
H  23.64500 51.66900 19.07100
H  23.02400 50.05100 18.94200
H  21.79900 53.65000 23.26700
H  21.55900 54.76900 24.62400
H  20.71100 53.20700 24.50700
H  22.40300 51.65900 29.42500
H  23.51300 54.69100 32.01100
H  23.03600 53.23600 32.70600
H  21.74700 54.43200 32.48500

