158

Mg 8.63000 4.39700 27.40500
C  9.88000 2.97800 30.33300
C  6.71800 6.51700 29.46200
C  7.14200 5.76400 24.65700
C  10.40900 2.26200 25.41100
N  8.25000 4.64300 29.66300
C  8.99700 4.02700 30.62400
C  8.61800 4.63000 31.98200
C  7.62000 5.80200 31.70100
C  7.43700 5.63500 30.15600
C  6.39900 5.77200 32.57900
C  9.82300 4.97700 32.84800
C  9.56300 5.81100 34.10100
H  10.22500 5.22300 35.37700
N  7.12000 5.83000 27.11800
C  6.49300 6.61100 28.05900
C  5.64400 7.58900 27.42700
C  5.70100 7.43200 26.05300
C  6.67700 6.32200 25.84800
C  4.86300 8.62400 28.19400
C  5.06400 8.11400 24.93200
O  5.08100 7.76600 23.78500
C  4.27500 9.32200 25.10300
N  8.64700 3.97200 25.33400
C  7.97900 4.67400 24.38300
C  8.32000 4.25400 22.98800
C  9.41200 3.10900 23.25100
C  9.58200 3.11400 24.76500
C  7.09900 3.85400 22.22600
C  10.78200 3.41700 22.49800
C  11.46900 2.18500 21.86900
N  9.86500 2.89000 27.70200
C  10.55300 2.10700 26.79900
C  11.26100 1.10800 27.54500
C  11.00300 1.35700 28.94100
C  10.22700 2.49400 28.99700
C  12.15800 0.02600 27.13300
C  11.32900 0.99300 30.30300
O  12.05800 0.08500 30.67700
C  10.50000 2.00700 31.31300
C  9.59100 1.20300 32.25200
O  8.91000 0.21700 31.98800
O  9.94100 1.63500 33.53400
C  9.49000 0.64000 34.61700
H  6.24500 7.34700 29.99100
H  6.85400 6.30500 23.75300
H  10.91300 1.49000 24.82600
H  8.02200 3.84000 32.44000
H  8.12600 6.75700 31.84300
H  5.64000 5.27500 31.97500
H  6.06800 6.80000 32.72600
H  6.46800 5.39500 33.59900
H  10.24100 5.66700 32.11500
H  10.47800 4.14500 33.10800
H  8.50800 5.75300 34.37000
H  9.88200 6.82900 33.87400
H  5.31100 9.58800 27.95400
H  4.73300 8.54300 29.27300
H  3.86700 8.71900 27.76300
H  3.20400 9.19500 25.25800
H  4.43400 9.77700 24.12500
H  4.67600 10.01900 25.83800
H  8.93900 5.06800 22.61100
H  9.08000 2.09700 23.01700
H  7.07100 2.81100 21.91000
H  6.91600 4.56400 21.42000
H  6.20600 3.96400 22.84200
H  11.47200 3.91000 23.18300
H  10.54700 4.09900 21.68100
H  11.73000 2.43800 20.84200
H  10.84400 1.29200 21.89800
H  12.49700 2.08900 22.21900
H  11.49500 -0.80700 26.90100
H  12.90600 -0.22000 27.88700
H  12.63100 0.39400 26.22300
H  11.27700 2.43900 31.94500
H  8.48800 0.22900 34.50000
H  9.39900 1.19400 35.55100
H  10.18000 -0.19100 34.76700
Mg 35.31000 48.51200 25.77800
C  35.76600 46.53700 28.70600
C  34.43200 51.12600 27.63700
C  34.69400 50.09700 22.87800
C  36.22800 45.64700 23.98500
N  35.15800 48.76300 27.92000
C  35.50200 47.88200 28.97900
C  35.48600 48.60300 30.31400
C  34.71600 50.01100 29.91500
C  34.79500 50.00300 28.39500
C  33.29200 50.04400 30.44900
C  36.90600 48.78600 31.06100
C  36.88200 48.57500 32.65600
H  35.54900 48.77400 33.38300
N  34.66100 50.35600 25.32400
C  34.40800 51.37100 26.25200
C  34.14000 52.64300 25.58200
C  34.23800 52.32500 24.17800
C  34.58900 50.88600 24.09000
C  33.86800 53.99900 26.42100
C  34.05300 53.25900 22.95800
O  34.20600 52.92600 21.78800
C  33.74400 54.64900 23.26600
N  35.09300 47.87800 23.76500
C  34.87500 48.69600 22.69200
C  34.95800 48.00300 21.31800
C  35.45600 46.55800 21.71700
C  35.60000 46.66600 23.22700
C  33.61600 48.02400 20.57100
C  36.82600 46.12500 21.15000
C  38.05200 46.97900 21.60000
N  35.85700 46.49500 26.17000
C  36.27000 45.44200 25.34000
C  36.69900 44.29100 26.11500
C  36.38400 44.64900 27.42200
C  35.93600 46.00200 27.40400
C  37.38100 43.02200 25.54000
C  36.42900 44.12600 28.77300
O  36.73700 43.04600 29.23600
C  36.04000 45.33200 29.62400
C  34.88600 44.97100 30.57000
O  33.74200 44.71700 30.25800
O  35.37800 44.91100 31.82900
C  34.34300 44.52300 32.83900
H  34.35400 51.99600 28.29300
H  34.61300 50.56200 21.89300
H  36.74600 44.85800 23.43600
H  34.79200 48.10700 30.99300
H  35.38900 50.81000 30.22600
H  32.92500 51.06800 30.37000
H  33.35900 49.85300 31.52000
H  32.76500 49.25300 29.91500
H  37.36000 49.74000 30.79100
H  37.56900 48.05900 30.59300
H  37.34300 49.31700 33.30900
H  37.24000 47.59800 32.97700
H  32.91000 54.50900 26.31700
H  34.70000 54.60700 26.06700
H  34.22400 53.86900 27.44300
H  34.55700 55.11600 23.82200
H  32.83900 54.57600 23.86900
H  33.53000 55.33100 22.44300
H  35.73100 48.51900 20.74800
H  34.74300 45.76200 21.50000
H  32.86700 48.48500 21.21400
H  33.28700 47.02800 20.27200
H  33.75600 48.63600 19.68000
H  36.74400 46.15800 20.06400
H  37.06500 45.09800 21.42400
H  38.45000 46.52100 22.50600
H  37.71600 47.98700 21.84500
H  38.76600 47.02700 20.77800
H  37.70700 43.06700 24.50100
H  36.82700 42.12000 25.80000
H  38.28800 42.89900 26.13200
H  36.95500 45.58200 30.16100
H  34.01800 43.49200 32.69700
H  33.45800 45.14000 32.68200
H  34.70000 44.59800 33.86700

