158

Mg 35.70800 0.34600 30.20900
C  33.49300 1.78100 32.39800
C  38.10800 0.57100 32.82700
C  38.25700 -0.63500 28.08000
C  33.69700 0.86300 27.42600
N  35.74000 1.06100 32.31000
C  34.64500 1.49700 33.03800
C  34.92600 1.61000 34.49900
C  36.59800 1.67400 34.48900
C  36.87000 1.01000 33.13500
C  37.32000 3.09900 34.69000
C  34.36700 0.45500 35.32300
C  33.38500 0.83700 36.41400
H  33.59200 2.13800 37.22400
N  37.85800 -0.16000 30.47800
C  38.58100 0.00500 31.59800
C  39.97500 -0.42500 31.34800
C  39.94200 -0.98400 30.02200
C  38.66000 -0.53900 29.44100
C  41.06700 -0.45100 32.37300
C  40.98900 -1.72800 29.17700
O  40.79900 -2.13800 28.00600
C  42.26400 -2.09200 29.87300
N  36.08300 0.51100 27.97100
C  37.12400 -0.11400 27.41100
C  36.95800 -0.28700 25.89100
C  35.40300 0.10000 25.63600
C  35.03200 0.48400 27.11500
C  37.87200 0.52100 25.06000
C  34.47000 -0.97600 25.15700
C  33.43800 -0.52500 24.06500
N  33.95800 1.14000 29.87100
C  33.19200 1.20100 28.74700
C  31.85500 1.71800 29.06300
C  31.93600 1.93900 30.48200
C  33.23200 1.58600 30.94400
C  30.77200 1.87200 28.12100
C  31.26000 2.46400 31.61900
O  30.16600 2.95100 31.71500
C  32.20300 2.35000 32.88000
C  32.30400 3.61800 33.58000
O  33.05800 4.54400 33.27400
O  31.39400 3.76400 34.47800
C  31.35500 5.02800 35.29200
H  38.89600 0.56100 33.58200
H  38.81800 -1.23700 27.36100
H  32.97000 0.76700 26.61700
H  34.39900 2.49500 34.85600
H  36.99000 1.02900 35.27600
H  37.93500 3.51000 33.89000
H  37.85300 3.03000 35.63800
H  36.52500 3.81500 34.90100
H  35.13100 -0.09100 35.87600
H  33.63900 -0.09300 34.72400
H  33.47400 0.07600 37.19000
H  32.35900 0.81700 36.04800
H  41.26900 -1.52100 32.41000
H  40.66400 -0.21400 33.35800
H  41.96100 0.14200 32.18000
H  42.71100 -1.12200 30.08800
H  42.84900 -2.49200 29.04400
H  42.02600 -2.65600 30.77400
H  37.04600 -1.31100 25.52900
H  35.36600 0.98400 24.99900
H  38.82600 -0.00800 25.05300
H  37.92900 1.55500 25.40000
H  37.47400 0.49300 24.04600
H  34.04000 -1.41300 26.05700
H  35.02100 -1.82700 24.75800
H  32.46800 -0.74200 24.51200
H  33.52700 -1.17500 23.19400
H  33.29700 0.54300 23.90000
H  30.73500 0.88000 27.67200
H  31.06600 2.67500 27.44500
H  29.83400 2.06900 28.64100
H  31.74600 1.72500 33.64800
H  30.66300 5.85400 35.12900
H  32.34100 5.48300 35.38900
H  31.04600 4.66400 36.27100
Mg 28.86100 58.21600 41.02700
C  26.14900 56.24300 40.19700
C  30.96700 55.85400 39.37200
C  31.44500 60.42400 41.18100
C  26.70600 60.75100 42.24700
N  28.62000 56.29800 40.02800
C  27.39100 55.69700 39.77600
C  27.54600 54.49100 38.80400
C  29.09400 54.18600 38.94400
C  29.61800 55.56700 39.53200
C  29.46400 53.04600 39.87700
C  27.18700 54.98100 37.40400
C  26.10900 54.19800 36.52800
H  26.26100 54.19300 34.97500
N  31.04000 58.09100 40.50100
C  31.66700 57.08200 39.82500
C  33.02600 57.47200 39.63900
C  33.27600 58.75800 40.32400
C  31.89000 59.17100 40.70200
C  34.10300 56.52200 39.08000
C  34.60800 59.49500 40.53100
O  35.63400 59.10100 40.06100
C  34.74500 60.78500 41.36300
N  29.01200 60.31400 41.67100
C  30.20000 60.96300 41.74800
C  29.94200 62.43600 42.09900
C  28.67600 62.30200 42.99100
C  28.03100 61.07800 42.26800
C  31.13900 63.14100 42.82000
C  27.73500 63.62700 43.01000
C  27.31100 64.14900 44.36200
N  26.86500 58.50400 41.17000
C  26.16000 59.54300 41.70700
C  24.79800 59.14700 41.79300
C  24.71100 57.91300 41.08900
C  25.98600 57.59900 40.71700
C  23.68000 59.87100 42.56500
C  23.82400 56.81800 40.71200
O  22.64300 56.68300 40.90900
C  24.74200 55.71200 40.05400
C  24.51200 54.40500 40.72100
O  24.40700 54.25900 41.94000
O  24.43400 53.34600 39.83300
C  24.29400 51.93800 40.29800
H  31.56500 55.13900 38.80300
H  32.15000 61.24400 41.03100
H  25.99300 61.39400 42.76700
H  27.01700 53.56200 39.01800
H  29.59300 54.08700 37.98000
H  30.11300 53.50800 40.62100
H  30.16000 52.34900 39.40900
H  28.61500 52.56000 40.35800
H  28.06600 55.02800 36.76100
H  26.80000 55.99900 37.39900
H  25.05100 54.35000 36.74300
H  26.17600 53.16100 36.85500
H  34.98800 56.94800 38.60700
H  33.60000 55.88100 38.35600
H  34.40500 55.92000 39.93600
H  35.74200 61.02900 41.72900
H  34.04800 60.78600 42.20100
H  34.56300 61.63100 40.70000
H  29.75100 62.99800 41.18500
H  28.94700 62.05600 44.01800
H  31.58200 63.99300 42.30300
H  31.83400 62.33500 43.05500
H  30.71200 63.54600 43.73700
H  26.85400 63.45700 42.39200
H  28.28600 64.39100 42.46100
H  27.83500 63.55200 45.10900
H  26.23300 64.06400 44.50000
H  27.63800 65.15800 44.61100
H  24.09600 60.52800 43.32900
H  22.89200 59.23000 42.96000
H  23.15100 60.48500 41.83600
H  24.52300 55.63300 38.98900
H  23.65000 51.30000 39.69300
H  24.02800 51.81500 41.34800
H  25.33600 51.64700 40.15900

