158

Mg 3.54600 -0.05600 44.43100
C  6.91900 0.12800 43.96700
C  3.21400 2.72800 42.25300
C  0.16700 -0.62700 43.96200
C  3.81500 -2.97100 46.17000
N  4.95000 1.20000 43.18200
C  6.31900 1.09300 43.14200
C  6.98600 2.09200 42.25300
C  5.76300 3.07600 42.03400
C  4.54200 2.29900 42.54800
C  5.87600 4.47100 42.80000
C  7.64500 1.44400 40.96900
C  8.29700 2.45100 39.99500
H  7.62200 2.72700 38.73800
N  1.93300 1.03900 43.44600
C  2.01200 2.13200 42.62800
C  0.69300 2.48800 42.03800
C  -0.18800 1.53100 42.50200
C  0.63300 0.61800 43.38700
C  0.47800 3.71500 41.20400
C  -1.65700 1.45000 42.18600
O  -2.18900 2.23600 41.41000
C  -2.57800 0.33800 42.74000
N  2.17200 -1.59500 44.98900
C  0.81800 -1.52200 44.71700
C  0.16900 -2.86600 45.18300
C  1.25900 -3.55500 45.96200
C  2.51600 -2.68000 45.70900
C  -1.14200 -2.61000 46.10400
C  1.58500 -5.07000 45.66700
C  0.37400 -5.91500 45.22300
N  5.00400 -1.18100 45.05800
C  4.98900 -2.34800 45.81700
C  6.37200 -2.70200 46.06000
C  7.14700 -1.71300 45.41600
C  6.27000 -0.83600 44.76100
C  6.76700 -3.89700 46.83100
C  8.50300 -1.23900 45.07500
O  9.59400 -1.66600 45.43600
C  8.43400 -0.07400 44.11800
C  9.02300 1.13500 44.84200
O  8.73400 1.56300 45.91600
O  9.86200 1.66500 43.91600
C  10.31000 3.00000 44.29500
H  3.29200 3.67300 41.71100
H  -0.88400 -0.91100 43.87500
H  3.86300 -3.83600 46.83500
H  7.81000 2.55700 42.79500
H  5.64800 3.31800 40.97800
H  6.69600 4.51200 43.51700
H  4.96300 4.65600 43.36500
H  6.05000 5.24900 42.05600
H  6.84400 0.86200 40.51200
H  8.51000 0.83200 41.22300
H  9.34000 2.20400 39.79700
H  8.32700 3.44500 40.44100
H  1.03800 3.59400 40.27700
H  0.97400 4.62700 41.53600
H  -0.53500 3.94500 40.87500
H  -3.60500 0.36800 42.37600
H  -2.63200 0.38600 43.82800
H  -2.24300 -0.67100 42.50000
H  -0.07100 -3.36100 44.24200
H  1.08000 -3.51200 47.03600
H  -1.84500 -3.35000 45.72100
H  -1.49000 -1.58100 46.18600
H  -0.95800 -2.92800 47.13100
H  2.04200 -5.54100 46.53700
H  2.35300 -5.05700 44.89400
H  0.61000 -6.53800 44.36100
H  -0.57400 -5.39300 45.09600
H  0.22300 -6.66300 46.00200
H  7.69200 -3.78900 47.39700
H  6.99300 -4.78300 46.23700
H  5.99100 -4.25600 47.50700
H  8.94800 -0.44600 43.23100
H  10.57400 3.47600 43.35100
H  11.16100 3.11400 44.96700
H  9.58600 3.68500 44.73800
Mg 47.74300 45.22700 43.17200
C  44.27500 44.93900 43.18400
C  47.90700 41.78200 43.02600
C  51.00400 45.49200 42.48000
C  47.33900 48.73100 42.73300
N  46.25100 43.58100 42.90800
C  44.86600 43.69700 43.10800
C  44.23200 42.26700 43.19000
C  45.45900 41.34400 43.47900
C  46.59600 42.28000 43.11800
C  45.57900 40.90000 44.94700
C  43.46500 41.85000 41.91500
C  43.47200 42.79500 40.71700
H  42.84800 42.36800 39.35800
N  49.20200 43.85900 42.70400
C  49.08800 42.51000 42.76800
C  50.40500 41.90500 42.47900
C  51.35000 42.92000 42.30100
C  50.53500 44.17600 42.48900
C  50.55000 40.41000 42.26500
C  52.87000 42.74800 41.90300
O  53.36500 41.64000 41.96300
C  53.70200 43.94200 41.58200
N  48.94300 46.84100 42.49800
C  50.26600 46.65000 42.47500
C  50.95200 47.98600 42.71000
C  49.83500 49.06900 42.55100
C  48.58700 48.18200 42.61400
C  51.70200 48.08100 44.10200
C  49.97400 49.80700 41.17300
C  49.74000 51.31000 41.29400
N  46.24600 46.60800 43.02100
C  46.20300 47.99600 42.92700
C  44.81000 48.44500 43.01900
C  44.05800 47.27000 43.05100
C  44.92200 46.20900 43.12600
C  44.41500 49.86400 43.05400
C  42.67900 46.79700 43.22400
O  41.63200 47.44000 43.20300
C  42.77900 45.28600 43.25200
C  42.21800 44.88400 44.53900
O  42.59100 45.26500 45.62100
O  41.20200 43.90500 44.37800
C  40.59600 43.47200 45.59800
H  48.02700 40.73100 43.29700
H  52.07700 45.69000 42.43900
H  47.21900 49.79600 42.52600
H  43.63900 42.22400 44.10400
H  45.45500 40.53400 42.75000
H  44.69900 40.29100 45.15700
H  45.54000 41.74900 45.62900
H  46.59000 40.49600 45.00300
H  42.42800 41.73600 42.22900
H  43.90300 40.90900 41.58100
H  44.47100 43.10700 40.41100
H  42.90200 43.67500 41.01300
H  50.65200 40.34200 41.18200
H  49.77400 39.73300 42.62300
H  51.53200 40.04900 42.57000
H  53.23900 44.43100 40.72500
H  54.73200 43.61200 41.44400
H  53.66100 44.56100 42.47900
H  51.69600 48.05500 41.91600
H  49.83000 49.77200 43.38400
H  51.51300 48.90300 44.79300
H  52.72100 48.09800 43.71700
H  51.59700 47.12500 44.61500
H  49.22300 49.36900 40.51500
H  50.96200 49.72200 40.71900
H  48.79000 51.48100 40.78700
H  50.51700 51.77000 40.68400
H  49.68600 51.53700 42.35900
H  45.06700 50.41800 43.72900
H  43.40100 50.03300 43.41600
H  44.54200 50.23900 42.03800
H  42.19700 44.96500 42.38900
H  40.04200 44.32500 45.98900
H  41.26100 43.13500 46.39400
H  40.01600 42.60800 45.27200

