158

Mg 7.88900 3.20500 27.84500
C  9.41300 1.62300 30.64400
C  6.31900 5.38900 30.17300
C  6.33400 4.76800 25.28400
C  8.95000 0.63200 25.85200
N  7.85200 3.44000 30.15400
C  8.61300 2.70500 31.01500
C  8.41200 3.26200 32.49800
C  7.36300 4.37600 32.32700
C  7.12600 4.40100 30.81600
C  6.06200 4.27900 33.13100
C  9.77800 3.71100 33.14300
C  9.92200 3.49800 34.69000
H  10.49700 4.61200 35.55300
N  6.58800 4.84300 27.75800
C  6.13100 5.59100 28.79500
C  5.38200 6.68400 28.22100
C  5.23200 6.46200 26.83000
C  6.02900 5.25600 26.59000
C  4.84000 7.78700 29.11000
C  4.65000 7.35900 25.72600
O  4.72200 7.11500 24.52100
C  4.01900 8.61600 26.07100
N  7.53500 2.64600 25.90400
C  7.07500 3.50800 24.96900
C  7.38200 3.20100 23.48600
C  8.02200 1.72500 23.75200
C  8.23600 1.65300 25.25400
C  6.05100 3.31100 22.67100
C  9.32500 1.60900 22.89800
C  10.55200 2.43400 23.39100
N  8.92000 1.42400 28.14100
C  9.18400 0.41100 27.29800
C  9.87400 -0.65500 27.99500
C  10.07400 -0.11200 29.27200
C  9.40800 1.05800 29.30900
C  10.57300 -1.83600 27.51700
C  10.75000 -0.36100 30.52700
O  11.48800 -1.25100 30.89700
C  10.25900 0.71700 31.43600
C  9.47600 0.13700 32.52000
O  8.49400 -0.55800 32.34300
O  10.15300 0.32400 33.73200
C  9.35300 -0.18400 34.86700
H  5.85900 6.13500 30.82400
H  6.06100 5.48100 24.50300
H  9.29400 -0.22900 25.27500
H  7.96300 2.44100 33.05800
H  7.79700 5.31700 32.66900
H  5.23900 3.86700 32.54600
H  5.77200 5.28100 33.44700
H  6.11700 3.64300 34.01500
H  9.89000 4.77300 32.92800
H  10.53400 3.10000 32.65000
H  10.64800 2.70300 34.86300
H  8.94800 3.24500 35.11000
H  5.40600 7.96800 30.02400
H  3.77200 7.67000 29.29700
H  4.90600 8.72700 28.56200
H  3.32000 8.44600 26.89000
H  3.54900 8.81800 25.10800
H  4.82400 9.29500 26.35400
H  8.11700 3.84700 23.00700
H  7.37800 0.88000 23.50800
H  5.16600 3.50300 23.27800
H  5.94400 2.34700 22.17500
H  6.04100 4.03200 21.85400
H  9.10100 1.95400 21.88900
H  9.54300 0.54200 22.84300
H  11.13200 1.80500 24.06700
H  10.25100 3.33800 23.92000
H  11.10900 2.78100 22.52000
H  11.59000 -1.69200 27.15300
H  9.97100 -2.36400 26.77800
H  10.67300 -2.56400 28.32200
H  11.13800 1.20800 31.85300
H  9.24600 -1.26800 34.91200
H  8.35700 0.23700 34.99900
H  9.80800 0.09500 35.81700
Mg 30.71700 58.00800 39.94500
C  27.79300 56.14800 39.03300
C  32.55500 55.24400 39.09600
C  33.39400 59.89100 40.18100
C  28.53000 60.80500 40.39200
N  30.17200 55.99200 38.99400
C  28.95900 55.37300 38.88800
C  29.13100 53.97000 38.22200
C  30.54100 53.67900 38.87300
C  31.14000 55.10000 38.99900
C  30.37500 52.89400 40.19900
C  29.06200 54.02400 36.63700
C  27.91800 53.24200 35.87100
H  27.03000 54.10300 34.93100
N  32.66400 57.61700 39.74000
C  33.25500 56.45500 39.36700
C  34.71400 56.58700 39.39300
C  35.01100 57.98300 39.60700
C  33.65100 58.54900 39.89900
C  35.64200 55.49800 38.90600
C  36.38300 58.71100 39.56100
O  37.33400 58.09600 39.13300
C  36.61600 60.14500 39.94100
N  30.93200 60.13800 40.07200
C  32.19000 60.62900 40.38200
C  32.08200 62.09900 40.77800
C  30.49600 62.31200 40.77300
C  29.90700 61.00800 40.41600
C  32.77500 62.29600 42.16300
C  30.05500 63.48900 39.82000
C  29.51500 64.71100 40.55500
N  28.58100 58.49000 39.85800
C  27.86500 59.62500 40.03200
C  26.46900 59.39300 39.78900
C  26.35500 57.97600 39.45100
C  27.65500 57.51900 39.43300
C  25.39000 60.34700 39.89800
C  25.43700 56.85200 39.23800
O  24.24000 56.71300 39.34900
C  26.36400 55.60800 38.88400
C  26.05100 54.52000 39.72400
O  26.32400 54.44600 40.89900
O  25.31400 53.56000 38.98700
C  24.79500 52.37200 39.77600
H  33.16700 54.34900 38.96600
H  34.21700 60.55600 40.45400
H  27.82800 61.61500 40.60100
H  28.35000 53.39200 38.71600
H  31.16200 53.02700 38.26000
H  29.48700 52.27000 40.29200
H  30.56200 53.48900 41.09300
H  31.27700 52.28200 40.19300
H  30.05200 53.71000 36.30500
H  28.95300 55.08400 36.40900
H  27.18200 52.93600 36.61500
H  28.42100 52.45300 35.31200
H  35.06500 54.83600 38.26000
H  36.19100 54.90100 39.63300
H  36.41900 56.03000 38.35700
H  36.27400 60.80100 39.14100
H  37.69800 60.27900 39.94500
H  36.22900 60.33700 40.94200
H  32.63200 62.58400 39.97100
H  30.14700 62.33400 41.80600
H  32.10800 62.63000 42.95800
H  33.50500 63.03700 41.83900
H  33.26500 61.36400 42.44700
H  29.22600 63.18900 39.17900
H  30.95400 63.83600 39.31100
H  28.44900 64.65300 40.77400
H  29.71800 65.55300 39.89300
H  29.98600 64.82500 41.53100
H  24.58100 59.71200 40.25700
H  25.16500 60.76600 38.91700
H  25.77700 61.01000 40.67200
H  26.21700 55.32500 37.84200
H  23.73900 52.64100 39.80400
H  25.24400 52.32400 40.76800
H  24.94000 51.45800 39.20000

