158

Mg 45.51700 3.68700 47.48800
C  43.21800 6.16600 46.88200
C  43.02700 1.32900 47.01900
C  47.92100 1.32400 46.98000
C  48.05200 6.04900 47.19700
N  43.43400 3.76500 46.83700
C  42.62300 4.92100 46.67300
C  41.17600 4.64000 46.53500
C  41.12400 3.04500 46.81000
C  42.60100 2.65000 46.94900
C  40.14800 2.58000 47.96700
C  40.60700 5.01300 45.15100
C  39.54900 6.10100 45.13400
H  39.67000 7.18800 44.05500
N  45.53200 1.71300 47.22900
C  44.35100 0.93100 47.06500
C  44.80800 -0.46100 47.10900
C  46.19500 -0.48300 47.00700
C  46.60200 0.89200 47.09700
C  43.85500 -1.61600 47.03700
C  46.97300 -1.80000 46.73200
O  46.38500 -2.86600 46.74100
C  48.47700 -1.86100 46.36300
N  47.74200 3.69300 47.10500
C  48.47200 2.58600 46.91100
C  49.93500 2.88300 46.58900
C  50.06400 4.39800 46.85000
C  48.54500 4.74700 47.03600
C  51.05900 1.98800 47.27900
C  50.80000 5.15500 45.74500
C  52.33400 5.22500 45.79300
N  45.67800 5.71000 47.31300
C  46.77700 6.53900 47.40800
C  46.35400 7.94600 47.36200
C  44.89500 7.81700 47.12800
C  44.60100 6.46800 47.15000
C  47.18900 9.08600 47.49000
C  43.65000 8.56500 47.01100
O  43.49400 9.77400 47.13500
C  42.54600 7.53800 46.73200
C  41.56400 7.76100 47.74400
O  41.64100 7.39800 48.94800
O  40.47900 8.36900 47.20000
C  39.34800 8.63500 48.10200
H  42.30900 0.50700 46.99500
H  48.58300 0.47100 47.14300
H  48.90100 6.73100 47.12500
H  40.68000 5.27600 47.26800
H  40.87700 2.57200 45.85900
H  39.62200 1.73000 47.53200
H  39.47400 3.43000 48.06200
H  40.65600 2.29600 48.88900
H  40.15500 4.11500 44.73100
H  41.44700 5.32300 44.53000
H  39.40100 6.50800 46.13400
H  38.64900 5.51000 44.96300
H  42.80900 -1.31200 47.07000
H  44.09900 -2.36100 47.79500
H  44.00300 -2.07200 46.05800
H  48.69700 -2.78600 45.82900
H  48.98200 -1.76600 47.32400
H  48.72800 -1.03100 45.70200
H  50.02100 2.75800 45.51000
H  50.47600 4.52800 47.85100
H  51.67700 1.40500 46.59700
H  50.67900 1.28900 48.02300
H  51.79500 2.60900 47.78800
H  50.54700 6.21500 45.76000
H  50.50700 4.78000 44.76500
H  52.80400 4.51800 45.11000
H  52.73100 4.96400 46.77400
H  52.68300 6.21000 45.48300
H  46.68900 9.90400 46.97300
H  48.14300 8.87700 47.00500
H  47.36300 9.37800 48.52500
H  42.20500 7.77300 45.72300
H  38.78000 9.43700 47.63000
H  39.59500 8.85800 49.14000
H  38.69900 7.76200 48.02800
Mg 6.93400 55.18800 40.33800
C  6.07700 51.78400 40.26200
C  10.19500 54.44900 39.63100
C  7.57800 58.46100 39.65700
C  3.48300 55.96600 40.46400
N  7.94000 53.37200 39.89600
C  7.40300 52.10500 39.91200
C  8.55100 51.07200 39.70300
C  9.78700 51.91300 39.93500
C  9.32500 53.36800 39.90800
C  10.67300 51.59500 41.20000
C  8.48600 50.40100 38.27900
C  8.14400 51.35900 37.08500
H  6.78200 51.10300 36.35000
N  8.61100 56.32000 39.83900
C  9.86000 55.81900 39.55000
C  10.75400 56.84100 39.16400
C  10.01200 58.04900 39.09800
C  8.67100 57.65100 39.60800
C  12.19700 56.60700 38.90900
C  10.63600 59.40100 38.69400
O  11.72300 59.55600 38.13700
C  9.86900 60.77700 38.88200
N  5.70100 56.96100 40.01700
C  6.16400 58.23500 39.85900
C  5.01000 59.21200 39.56000
C  3.80000 58.37300 39.80700
C  4.34400 57.00700 40.06100
C  5.02800 60.49800 40.51600
C  2.85200 58.35900 38.58100
C  1.64300 59.37600 38.56000
N  5.11500 54.15200 40.47300
C  3.77200 54.57300 40.68900
C  2.96600 53.44100 40.93500
C  3.84100 52.24500 40.79500
C  5.13700 52.73700 40.51400
C  1.51900 53.47200 41.37700
C  3.97900 50.85000 40.88400
O  3.13500 49.99100 41.22100
C  5.40400 50.44400 40.64300
C  5.49300 49.40600 39.51900
O  5.15800 49.54500 38.39000
O  5.94300 48.19000 40.09600
C  5.80700 46.98800 39.32500
H  11.20600 54.20200 39.30000
H  7.75000 59.49700 39.35700
H  2.41900 56.20000 40.37900
H  8.33500 50.30100 40.44300
H  10.43200 51.72100 39.07700
H  10.12000 50.87400 41.80200
H  10.88900 52.46900 41.81300
H  11.63900 51.14000 40.98100
H  7.77900 49.58200 38.41300
H  9.42000 49.89800 38.02800
H  8.91400 51.21900 36.32600
H  8.20700 52.40200 37.39400
H  12.33800 56.88800 37.86600
H  12.55500 55.60100 39.12900
H  12.87500 57.28900 39.42200
H  10.53100 61.61700 38.67300
H  9.43400 60.86700 39.87700
H  9.04600 60.87900 38.17500
H  5.09300 59.49600 38.51200
H  3.30700 58.71700 40.71600
H  4.04300 60.67300 40.94600
H  5.36400 61.41500 40.03100
H  5.72200 60.48100 41.35600
H  2.31000 57.41300 38.58800
H  3.40200 58.50400 37.65100
H  1.95700 60.22300 37.95100
H  1.32100 59.78100 39.52000
H  0.89000 58.85800 37.96600
H  1.08600 52.47200 41.40700
H  1.04100 54.20400 40.72700
H  1.58600 53.69900 42.44100
H  5.82300 50.04700 41.56700
H  6.41400 46.84700 38.43100
H  4.73900 46.85100 39.15500
H  6.15200 46.18600 39.97800

