158

Mg -1.09700 18.05600 27.02300
C  -1.99100 16.04900 29.72000
C  -1.99800 20.80800 29.00400
C  -0.92100 20.05500 24.27200
C  -1.18400 15.28000 24.89900
N  -1.90100 18.29400 29.08000
C  -2.13200 17.39600 30.01400
C  -2.34900 17.92500 31.44100
C  -2.57500 19.44200 31.08600
C  -2.06200 19.53500 29.64100
C  -4.04100 19.99800 31.12800
C  -1.20900 17.67000 32.47800
C  -1.71800 16.98300 33.74900
H  -0.67300 16.86700 34.92200
N  -1.38100 20.18400 26.69700
C  -1.71300 21.10300 27.64300
C  -1.65800 22.43600 27.03700
C  -1.33700 22.26800 25.61200
C  -1.18300 20.80200 25.44100
C  -2.05300 23.76200 27.86100
C  -1.24700 23.36400 24.52600
O  -0.88200 23.09400 23.37600
C  -1.42000 24.83900 24.82800
N  -1.26300 17.72400 24.89000
C  -0.90700 18.66300 23.96300
C  -0.62300 18.14300 22.59400
C  -0.56000 16.57900 22.83100
C  -1.09400 16.49300 24.26900
C  -1.57100 18.68600 21.50800
C  0.81600 16.03400 22.65500
C  1.95300 16.46300 23.61700
N  -1.36700 16.02300 27.17700
C  -1.35300 15.03500 26.27500
C  -1.57100 13.74700 27.05600
C  -1.80100 14.15000 28.32000
C  -1.65100 15.47200 28.40800
C  -1.87900 12.44700 26.46900
C  -2.14900 13.58100 29.67200
O  -2.42600 12.44900 29.98300
C  -2.19700 14.81800 30.65400
C  -1.07900 14.54600 31.52400
O  0.06400 14.94000 31.28200
O  -1.44600 13.67200 32.54700
C  -0.41500 13.38100 33.55000
H  -2.15000 21.67400 29.65000
H  -0.67100 20.68300 23.41500
H  -0.92100 14.38600 24.33100
H  -3.26700 17.50800 31.85600
H  -1.98000 20.02800 31.78700
H  -4.06700 20.62000 32.02300
H  -4.67200 19.12600 31.30200
H  -4.33900 20.54600 30.23500
H  -0.77100 18.59700 32.84900
H  -0.41200 17.04800 32.07100
H  -2.13800 16.00500 33.51200
H  -2.57700 17.56500 34.08300
H  -1.33100 24.26300 28.50600
H  -2.93500 23.53100 28.45800
H  -2.31900 24.63200 27.26000
H  -2.50100 24.98000 24.83900
H  -0.96700 25.45500 24.05200
H  -0.82800 25.08400 25.71000
H  0.36500 18.53000 22.34300
H  -1.27000 15.99000 22.25100
H  -1.07200 19.22900 20.70600
H  -2.28800 19.38100 21.94500
H  -2.07500 17.81100 21.09800
H  1.01600 16.25200 21.60600
H  0.71600 14.95200 22.75000
H  2.42300 15.57900 24.04900
H  1.47000 17.07900 24.37600
H  2.78100 17.03200 23.19400
H  -1.87000 12.42100 25.37900
H  -2.92800 12.24700 26.68600
H  -1.32600 11.68200 27.01400
H  -3.13800 14.77000 31.20300
H  -0.65200 12.34100 33.77700
H  -0.63500 14.05400 34.37800
H  0.62500 13.46100 33.23500
Mg 5.57800 54.15600 40.87900
C  5.74900 50.65600 40.97900
C  8.71100 54.18600 39.52300
C  5.19100 57.40600 40.55900
C  2.30400 53.86500 42.17500
N  7.05800 52.57000 40.28000
C  6.96000 51.20400 40.47700
C  8.17100 50.49500 39.90400
C  9.25100 51.67600 39.80000
C  8.26700 52.87600 39.80400
C  10.20100 51.71600 41.09600
C  7.95000 49.71300 38.57100
C  7.04800 50.25600 37.39400
H  6.35100 49.22800 36.46900
N  6.68000 55.56200 40.10200
C  7.96300 55.39200 39.61000
C  8.62200 56.61500 39.36500
C  7.66300 57.68900 39.59300
C  6.44300 56.96900 40.14300
C  10.06400 56.86200 38.88600
C  7.82200 59.20700 39.27500
O  8.82500 59.64000 38.77700
C  6.76100 60.27800 39.44800
N  3.84700 55.48700 41.20500
C  3.98200 56.76500 41.00200
C  2.75300 57.53000 41.58600
C  1.71700 56.35200 41.87500
C  2.68400 55.16700 41.84600
C  2.89700 58.47500 42.80800
C  0.45700 56.36400 40.99600
C  -0.84700 56.48200 41.80200
N  4.31200 52.63300 41.40800
C  3.00200 52.61800 41.95200
C  2.57200 51.30000 42.27800
C  3.67600 50.57200 41.90100
C  4.66600 51.35400 41.38600
C  1.34600 50.84600 43.04800
C  4.17400 49.20300 41.97600
O  3.58500 48.20300 42.40200
C  5.49100 49.15800 41.35700
C  5.42200 48.24900 40.30100
O  4.82200 48.44000 39.24000
O  6.14500 47.19400 40.59300
C  6.15900 46.12400 39.61600
H  9.72400 54.24300 39.12100
H  5.12000 58.49300 40.48500
H  1.28900 53.69000 42.53800
H  8.57300 49.75400 40.59400
H  9.90800 51.64600 38.93100
H  10.25700 50.77600 41.64500
H  9.83800 52.51600 41.74200
H  11.23000 51.92300 40.80400
H  7.74900 48.65400 38.73300
H  8.89600 49.66500 38.03100
H  7.66700 50.95400 36.83000
H  6.26600 50.83400 37.88600
H  10.15700 56.98000 37.80600
H  10.82800 56.20200 39.29600
H  10.22000 57.85900 39.29800
H  5.86500 59.83300 39.01500
H  7.21800 61.14400 38.97000
H  6.61400 60.46200 40.51200
H  2.39800 58.19200 40.79600
H  1.29500 56.48300 42.87100
H  2.07400 59.18100 42.69900
H  3.87400 58.93200 42.96600
H  2.50400 58.01700 43.71600
H  0.44900 55.42400 40.44500
H  0.61500 57.16900 40.27900
H  -0.76900 56.86400 42.82000
H  -1.25500 55.47200 41.76800
H  -1.48400 57.04400 41.11900
H  0.54100 51.57400 43.14500
H  1.64400 50.74100 44.09100
H  0.90200 49.95200 42.61000
H  6.26700 48.87700 42.07000
H  5.17200 45.65900 39.62200
H  6.93800 45.39600 39.84300
H  6.42800 46.40300 38.59800

