158

Mg 1.06800 8.16200 27.24800
C  1.20200 10.58200 29.83400
C  1.45100 5.74100 29.76200
C  1.36200 5.66700 24.94200
C  1.28000 10.52800 24.92100
N  1.27700 8.18200 29.52500
C  1.10200 9.26000 30.35000
C  1.10900 8.89000 31.84300
C  1.30300 7.37300 31.79300
C  1.31200 7.04200 30.28500
C  2.62700 6.86100 32.56000
C  -0.14600 9.46800 32.56400
C  -0.02200 9.89000 34.08400
H  -0.66900 8.86800 35.03500
N  1.18000 5.99100 27.27100
C  1.33900 5.26300 28.42900
C  1.35400 3.85700 28.06800
C  1.17600 3.80200 26.65700
C  1.19700 5.18300 26.21000
C  1.53700 2.65700 28.99800
C  1.06600 2.58900 25.76800
O  0.84400 2.65800 24.55300
C  1.02900 1.23100 26.37200
N  1.26500 8.12200 25.26400
C  1.38500 7.00900 24.48300
C  1.43700 7.35300 22.98400
C  1.48000 8.91000 22.96700
C  1.28800 9.19900 24.47300
C  2.53800 6.70200 22.06900
C  0.31100 9.64300 22.18000
C  0.76100 10.56300 21.02300
N  1.18500 10.20500 27.30200
C  1.25100 11.04700 26.25200
C  1.41200 12.39500 26.79200
C  1.48600 12.30000 28.18400
C  1.27800 10.92400 28.43300
C  1.71600 13.59600 25.98200
C  1.70400 13.04800 29.44900
O  1.96300 14.23800 29.64700
C  1.42900 11.91000 30.58800
C  2.65800 11.84300 31.49900
O  3.71500 11.30000 31.28800
O  2.17100 12.42100 32.61700
C  3.11400 12.30800 33.75600
H  1.59300 4.96400 30.51700
H  1.23400 4.84300 24.23700
H  1.27500 11.41200 24.28000
H  1.98800 9.25000 32.37700
H  0.45000 6.88600 32.26500
H  3.19200 7.60700 33.11800
H  3.32500 6.37200 31.88100
H  2.29900 6.02100 33.17300
H  -0.97300 8.75800 32.56700
H  -0.59100 10.26700 31.97100
H  -0.39400 10.87000 34.38200
H  1.04400 9.93700 34.30900
H  2.23900 1.92500 28.59800
H  0.52700 2.32300 29.23600
H  2.04900 2.95000 29.91500
H  0.41000 1.06500 27.25400
H  2.05600 1.06400 26.69600
H  0.91100 0.41000 25.66500
H  0.49900 7.02900 22.53100
H  2.40800 9.30300 22.55100
H  3.39800 6.24400 22.55700
H  2.95300 7.43500 21.37700
H  2.04100 5.93600 21.47300
H  -0.35000 10.09200 22.92100
H  -0.39800 8.91200 21.79100
H  1.81400 10.84100 20.98000
H  0.14700 11.46200 20.97400
H  0.68100 10.10900 20.03500
H  2.53500 13.30200 25.32600
H  1.94700 14.46400 26.59900
H  0.80900 13.79900 25.41300
H  0.53600 12.15700 31.16300
H  3.98000 11.66300 33.61200
H  2.54200 11.85600 34.56600
H  3.19300 13.34300 34.08800
Mg 35.52300 48.65200 25.24900
C  35.74800 46.79800 28.26500
C  34.28300 51.39300 27.03300
C  34.81600 49.99500 22.34600
C  36.37700 45.58400 23.53100
N  34.92400 48.96500 27.33700
C  35.18500 48.10800 28.37600
C  35.16200 48.83100 29.66000
C  34.44100 50.15200 29.29400
C  34.54600 50.20000 27.83900
C  32.97300 50.46900 29.89100
C  36.54500 49.01400 30.36800
C  36.64000 48.61700 31.85500
H  35.44500 48.97300 32.76400
N  34.78300 50.50400 24.69000
C  34.38500 51.57400 25.59300
C  34.07700 52.73400 24.83000
C  34.20700 52.32700 23.46200
C  34.57700 50.85300 23.43800
C  33.70500 54.12000 25.49700
C  33.97000 53.12100 22.17700
O  34.18700 52.63200 21.07900
C  33.48800 54.52700 22.24500
N  35.47200 47.85200 23.20400
C  35.17400 48.62400 22.21400
C  35.39100 47.92000 20.80100
C  35.93900 46.55800 21.16700
C  35.99600 46.72100 22.71700
C  34.03400 47.86900 19.96800
C  37.23200 46.08100 20.47400
C  38.52500 46.82700 20.74500
N  36.02200 46.60800 25.74800
C  36.37000 45.56400 24.93800
C  36.75800 44.35300 25.78600
C  36.59700 44.80200 27.08300
C  36.09100 46.16600 26.99600
C  37.27900 43.00900 25.39100
C  36.70500 44.48400 28.48400
O  36.99700 43.43900 29.09900
C  36.24700 45.75900 29.30100
C  35.14800 45.40000 30.20000
O  33.97000 45.17300 29.92400
O  35.58800 45.23700 31.50900
C  34.65000 44.65000 32.46200
H  33.85900 52.29200 27.48600
H  34.76600 50.40200 21.33400
H  36.67600 44.73800 22.90800
H  34.49500 48.33500 30.36500
H  34.98100 51.04100 29.61900
H  32.21700 50.60100 29.11700
H  32.97300 51.30000 30.59700
H  32.78300 49.54400 30.43500
H  36.84400 50.06000 30.30000
H  37.37400 48.46300 29.92400
H  37.58900 48.86700 32.33000
H  36.60600 47.52800 31.89400
H  33.84000 55.03500 24.92000
H  34.28800 54.23800 26.41100
H  32.66000 54.16700 25.80300
H  32.65900 54.69800 22.93100
H  33.19700 54.88400 21.25700
H  34.32800 55.08800 22.65400
H  36.12400 48.51000 20.25100
H  35.26900 45.71500 20.99400
H  33.99000 46.94700 19.38800
H  33.92700 48.64300 19.20800
H  33.16700 47.94300 20.62500
H  37.03700 46.11100 19.40200
H  37.37700 45.04700 20.78400
H  39.32100 46.22500 21.18400
H  38.39500 47.65100 21.44700
H  39.06200 47.26800 19.90500
H  37.52400 42.92200 24.33200
H  36.51600 42.23500 25.47100
H  38.12300 42.78700 26.04300
H  37.06600 46.04100 29.96300
H  34.17200 43.78500 32.00200
H  33.75700 45.22400 32.71000
H  35.21800 44.46100 33.37300

