158

Mg 0.78500 42.57200 26.62900
C  2.72800 42.87200 29.60900
C  -1.76200 41.42400 28.68900
C  -0.81500 41.57500 23.89600
C  3.51000 43.58800 24.80800
N  0.55400 42.31700 28.88500
C  1.40500 42.54500 29.91800
C  0.83600 42.34300 31.34000
C  -0.51600 41.62700 30.94600
C  -0.59900 41.79800 29.43400
C  -0.68400 40.09500 31.48400
C  0.57300 43.66700 32.14400
C  1.01800 43.73700 33.62400
H  0.64400 42.52200 34.48600
N  -0.98800 41.71000 26.27500
C  -1.97700 41.37800 27.27300
C  -3.12100 40.87000 26.63400
C  -2.86700 40.87000 25.22300
C  -1.46200 41.33300 25.06200
C  -4.27100 40.39800 27.46500
C  -3.85800 40.47700 24.09100
O  -3.56800 40.39800 22.88300
C  -5.24600 40.19000 24.44300
N  1.32500 42.57700 24.65700
C  0.50100 42.11900 23.70100
C  1.20400 42.25500 22.27900
C  2.46500 43.08000 22.57900
C  2.43800 43.16600 24.03000
C  1.54600 40.92400 21.59000
C  2.49700 44.56300 21.98600
C  1.46200 45.57800 22.47300
N  2.74400 43.14400 27.10100
C  3.71400 43.49600 26.23100
C  4.93000 43.76400 26.98900
C  4.61100 43.51300 28.36900
C  3.30500 43.13700 28.32100
C  6.21400 44.14600 26.31800
C  5.10800 43.43400 29.67200
O  6.27300 43.53900 30.06700
C  3.83500 43.11900 30.57900
C  4.22200 41.84400 31.22900
O  4.59300 40.88100 30.60500
O  4.02200 41.89500 32.62300
C  4.24800 40.65900 33.42500
H  -2.68600 41.24900 29.24300
H  -1.25700 41.32200 22.93000
H  4.33700 44.05200 24.26700
H  1.48900 41.76600 31.99400
H  -1.34400 42.17400 31.39600
H  -1.02300 39.35900 30.75500
H  -1.24900 39.98600 32.40900
H  0.31800 39.71500 31.68600
H  -0.44700 44.01900 31.99000
H  1.20100 44.38700 31.61900
H  0.59700 44.55600 34.20700
H  2.10500 43.73300 33.55500
H  -3.98900 39.58100 28.12900
H  -5.19000 40.23700 26.90300
H  -4.56900 41.21400 28.12300
H  -5.85900 39.99200 23.56400
H  -5.73400 41.00700 24.97600
H  -5.35400 39.29300 25.05300
H  0.53500 42.84100 21.64900
H  3.39100 42.51900 22.45400
H  2.08400 40.36200 22.35400
H  2.11700 41.18700 20.70000
H  0.62400 40.43300 21.27800
H  2.46700 44.57000 20.89600
H  3.49200 44.90400 22.27400
H  0.77900 45.96600 21.71700
H  2.06200 46.36000 22.93800
H  0.84200 45.19500 23.28400
H  6.06100 44.50000 25.29900
H  6.78200 43.21800 26.38400
H  6.72200 44.86400 26.96300
H  3.65800 43.86900 31.35000
H  5.20500 40.58900 33.94100
H  4.18800 39.74600 32.83200
H  3.39900 40.55300 34.09900
Mg -5.24000 24.93000 25.62900
C  -3.99800 26.18600 28.50000
C  -7.13200 22.65900 27.55700
C  -6.42300 23.49100 22.78900
C  -2.96600 26.81100 23.82300
N  -5.47200 24.41700 27.81000
C  -4.84200 25.14300 28.82600
C  -5.31000 24.66900 30.20500
C  -6.11300 23.38000 29.81500
C  -6.22100 23.42200 28.31500
C  -5.38400 21.99000 30.21200
C  -6.17300 25.75600 30.97200
C  -5.96400 25.88100 32.58500
H  -5.21400 24.78700 33.22300
N  -6.50600 23.33600 25.21200
C  -7.27000 22.60700 26.14200
C  -8.30400 21.81500 25.48100
C  -7.93600 21.83500 24.11200
C  -6.87900 22.89200 23.98900
C  -9.43600 21.21700 26.17300
C  -8.48000 21.07600 22.99600
O  -7.89600 21.07800 21.90700
C  -9.59600 19.96100 23.14800
N  -4.61000 24.97100 23.52700
C  -5.42100 24.40200 22.58600
C  -5.00300 24.87600 21.24700
C  -3.97900 26.09000 21.49400
C  -3.76100 25.92300 23.04600
C  -4.31500 23.77700 20.45300
C  -4.67200 27.45300 21.11300
C  -3.86500 28.29400 20.10900
N  -3.72800 26.20600 26.02900
C  -2.97100 27.00000 25.20000
C  -2.11600 27.83100 25.96600
C  -2.52700 27.56700 27.26400
C  -3.56800 26.58900 27.23800
C  -1.01500 28.81200 25.48700
C  -2.29400 27.90200 28.67600
O  -1.53100 28.73200 29.17200
C  -3.21100 27.06600 29.50900
C  -2.32400 26.18200 30.28500
O  -1.69800 25.22600 29.84900
O  -2.25800 26.59900 31.58900
C  -1.28000 25.91900 32.43900
H  -7.86600 22.04800 28.08700
H  -6.78700 23.08100 21.84400
H  -2.39500 27.53600 23.24000
H  -4.39500 24.42800 30.74700
H  -7.04200 23.40600 30.38500
H  -5.48400 21.29300 29.38000
H  -5.71800 21.45500 31.10100
H  -4.30600 22.15000 30.21300
H  -7.19400 25.66500 30.60200
H  -5.90100 26.72100 30.54500
H  -6.91100 25.80000 33.11900
H  -5.57800 26.84900 32.90400
H  -9.32500 20.13300 26.19300
H  -10.33900 21.37500 25.58500
H  -9.65700 21.55400 27.18600
H  -9.78700 19.39800 22.23400
H  -10.45800 20.41600 23.63500
H  -9.14700 19.37300 23.94800
H  -5.93800 24.98500 20.69700
H  -3.06600 25.96400 20.91200
H  -4.39700 24.06300 19.40400
H  -4.84400 22.83000 20.56300
H  -3.28500 23.63600 20.78100
H  -4.94800 28.04800 21.98300
H  -5.59200 27.23300 20.57100
H  -3.58200 29.20800 20.63100
H  -4.42600 28.49400 19.19600
H  -2.86500 27.94900 19.84800
H  -1.43800 29.81300 25.40200
H  -0.65500 28.52500 24.49900
H  -0.15900 28.81200 26.16200
H  -3.87100 27.62400 30.17400
H  -1.75400 25.13400 33.02800
H  -0.93300 26.65100 33.16800
H  -0.37400 25.58200 31.93600

