158

Mg 1.96200 -1.94600 44.53200
C  5.09800 -0.67600 44.03100
C  0.64300 0.49700 42.56100
C  -1.04700 -3.53600 44.73200
C  3.37400 -4.69000 46.19200
N  2.83700 -0.29600 43.40600
C  4.13100 0.07200 43.32600
C  4.33500 1.23400 42.43300
C  2.87200 1.67600 42.13700
C  2.02900 0.52800 42.67100
C  2.46500 3.05600 42.69500
C  5.10400 0.95200 41.08800
C  6.07300 2.12400 40.58800
H  5.77900 2.89000 39.34900
N  0.04100 -1.59700 43.61300
C  -0.32000 -0.47200 42.96300
C  -1.81400 -0.49300 42.76900
C  -2.27800 -1.77400 43.21200
C  -1.08100 -2.35200 43.88800
C  -2.62200 0.65600 41.97800
C  -3.63500 -2.41800 43.05100
O  -4.58500 -1.80100 42.55800
C  -3.88300 -3.86400 43.36500
N  1.25500 -3.97600 45.21000
C  -0.04200 -4.25400 45.35600
C  -0.26800 -5.65000 45.90600
C  1.15100 -5.98100 46.47400
C  1.99800 -4.83000 45.94000
C  -1.38400 -5.66300 46.91900
C  1.73100 -7.35500 46.08900
C  2.54400 -8.04500 47.23900
N  3.84000 -2.58300 45.07000
C  4.25000 -3.73100 45.76100
C  5.69800 -3.65200 45.90100
C  6.03700 -2.50400 45.21300
C  4.92700 -1.85300 44.79700
C  6.37800 -4.67800 46.59100
C  7.12900 -1.63300 44.81900
O  8.34800 -1.76800 45.01200
C  6.59100 -0.49500 43.98900
C  7.09200 0.80400 44.58900
O  6.97200 1.14300 45.74200
O  7.59700 1.55000 43.64200
C  8.18900 2.84700 43.98900
H  0.20700 1.35500 42.04400
H  -2.02200 -3.98400 44.93300
H  3.69600 -5.51300 46.83400
H  4.77600 2.05800 42.99400
H  2.66100 1.80200 41.07500
H  2.30200 3.75800 41.87700
H  3.23900 3.45400 43.35100
H  1.51700 2.86400 43.19800
H  4.35300 0.88200 40.30100
H  5.63100 0.00000 41.15200
H  7.05000 1.70000 40.35300
H  6.17200 2.91800 41.32800
H  -3.34000 1.06900 42.68600
H  -3.02500 0.28400 41.03600
H  -2.02700 1.53200 41.72100
H  -2.96500 -4.36700 43.06100
H  -4.70200 -4.27100 42.77200
H  -4.12600 -4.05400 44.41100
H  -0.57400 -6.33200 45.11300
H  1.10100 -5.87200 47.55800
H  -2.12200 -6.41700 46.64500
H  -1.94900 -4.73800 47.03700
H  -1.08400 -5.91000 47.93700
H  2.30100 -7.29900 45.16100
H  0.88000 -7.98400 45.82700
H  3.55100 -8.38700 47.00100
H  1.95700 -8.91700 47.52900
H  2.54200 -7.37000 48.09500
H  6.68500 -5.39400 45.82800
H  5.73400 -5.06300 47.38200
H  7.31100 -4.36600 47.05900
H  6.98800 -0.60700 42.98000
H  9.10100 2.96300 43.40300
H  8.47400 3.01100 45.02800
H  7.57100 3.69000 43.67800
Mg 40.19700 9.92500 29.83300
C  42.10800 11.07200 32.60600
C  37.85800 8.83100 32.12700
C  38.56200 8.74300 27.28100
C  42.79200 10.84300 27.77000
N  39.93000 10.03400 32.07100
C  40.80700 10.60700 32.99200
C  40.27000 10.60800 34.46500
C  39.11700 9.48700 34.29300
C  38.93000 9.43800 32.71200
C  39.47400 8.15600 34.81200
C  39.80200 11.97700 34.93400
C  39.70100 12.09100 36.51800
H  40.72600 12.98600 37.20100
N  38.42500 8.99900 29.75700
C  37.59800 8.59100 30.77800
C  36.43000 7.92600 30.24500
C  36.54400 7.87600 28.80800
C  37.92700 8.51800 28.55300
C  35.25500 7.41600 31.08800
C  35.61800 7.34500 27.79600
O  35.84900 7.29200 26.58900
C  34.27400 6.97900 28.12100
N  40.69800 9.79600 27.81900
C  39.78300 9.31000 26.91700
C  40.24300 9.34600 25.44300
C  41.52800 10.20400 25.57600
C  41.68300 10.28100 27.09500
C  40.34100 8.03900 24.67000
C  41.47800 11.61800 24.83500
C  40.57900 12.71500 25.44000
N  42.07700 10.68700 30.07800
C  43.03300 11.01500 29.13100
C  44.20800 11.61000 29.73200
C  43.89400 11.57800 31.13500
C  42.54900 11.07600 31.28400
C  45.40300 12.21300 29.10900
C  44.40500 11.89800 32.47600
O  45.45000 12.35300 32.83100
C  43.19600 11.65600 33.53200
C  43.69000 10.63500 34.53300
O  44.39700 9.69300 34.27600
O  43.52100 11.22400 35.75200
C  44.13500 10.59400 36.86700
H  37.12800 8.31800 32.75700
H  37.95900 8.29700 26.48700
H  43.50200 11.28600 27.06800
H  41.15000 10.22900 34.98500
H  38.18500 9.79300 34.76900
H  38.93200 7.94000 35.73300
H  40.49100 8.14800 35.20400
H  39.22500 7.37200 34.09800
H  38.79700 12.13200 34.54200
H  40.43400 12.72500 34.45400
H  39.85800 11.11100 36.96800
H  38.74100 12.52900 36.79100
H  34.93800 6.42900 30.75100
H  34.37300 8.04300 30.96200
H  35.51100 7.24700 32.13400
H  33.80400 7.86700 28.54400
H  34.26900 6.06300 28.71100
H  33.70400 6.69200 27.23700
H  39.53100 9.94300 24.87400
H  42.36900 9.63100 25.18600
H  39.58900 7.31000 24.97000
H  41.36400 7.67800 24.77800
H  40.23200 8.16600 23.59200
H  40.92900 11.45100 23.90900
H  42.45400 11.97600 24.50500
H  40.07200 12.39100 26.34800
H  39.83700 13.09600 24.73700
H  41.27900 13.49600 25.73600
H  46.31800 11.68400 29.37700
H  45.34500 13.23900 29.47000
H  45.18900 12.26700 28.04100
H  43.06700 12.60100 34.05900
H  44.19500 9.51200 36.75000
H  43.71200 11.04800 37.76300
H  45.17700 10.91300 36.84000

