158

Mg 8.63300 47.59200 27.52100
C  7.06900 47.44900 30.60300
C  11.62000 48.12100 29.01500
C  10.08700 48.37000 24.44900
C  5.56200 47.83200 26.05600
N  9.21700 47.97400 29.61600
C  8.46900 47.67200 30.70700
C  9.30900 47.64900 32.02300
C  10.66600 48.10500 31.41200
C  10.54300 48.02600 29.90300
C  11.08700 49.52400 31.85300
C  9.43200 46.19700 32.70200
C  8.99500 45.96000 34.13100
H  10.01900 45.31500 35.07100
N  10.56900 48.01100 26.80800
C  11.68400 48.16800 27.61100
C  12.88900 48.42600 26.75700
C  12.45300 48.53200 25.45900
C  11.00200 48.25500 25.48800
C  14.24200 48.69400 27.35200
C  13.25000 48.96900 24.16500
O  12.76500 48.78900 23.04100
C  14.67000 49.45500 24.29000
N  7.94400 47.94600 25.50300
C  8.69300 48.26100 24.40600
C  7.85800 48.65600 23.15700
C  6.47600 48.29800 23.74900
C  6.63400 47.85100 25.17300
C  7.88100 50.18100 22.72000
C  5.82900 47.12500 22.90300
C  5.65000 47.45500 21.44300
N  6.64500 47.39400 28.10400
C  5.49000 47.56200 27.44000
C  4.25100 47.47000 28.24300
C  4.85500 47.41400 29.55700
C  6.27500 47.36500 29.42100
C  2.83700 47.45400 27.88800
C  4.59600 47.29200 30.98400
O  3.53900 47.18900 31.60600
C  6.02900 47.30100 31.77200
C  6.09700 46.06300 32.45900
O  6.40000 45.00900 31.95700
O  5.56700 46.09600 33.73400
C  5.15900 44.82000 34.31500
H  12.59500 48.10700 29.50700
H  10.48200 48.73500 23.49900
H  4.57100 47.95700 25.61500
H  8.89800 48.38900 32.71000
H  11.56900 47.57300 31.71200
H  10.79000 50.25300 31.09900
H  12.15600 49.60100 32.05100
H  10.59500 49.63100 32.82000
H  10.47300 45.88200 32.63600
H  8.90300 45.47200 32.08300
H  8.16500 45.25400 34.15600
H  8.77200 46.87700 34.67600
H  14.96400 47.97000 26.97600
H  14.37100 48.51000 28.41900
H  14.58600 49.70100 27.11600
H  14.61200 50.47600 24.66700
H  15.06200 49.54400 23.27700
H  15.35000 48.91000 24.94400
H  8.26400 47.96500 22.41800
H  5.83500 49.16600 23.59300
H  7.77300 50.41700 21.66100
H  8.88100 50.44500 23.06600
H  7.16600 50.83500 23.21700
H  4.85500 46.96100 23.36300
H  6.43000 46.22000 22.99500
H  5.94600 46.62200 20.80600
H  6.14700 48.39900 21.21700
H  4.58400 47.64500 21.32300
H  2.24400 47.27800 28.78600
H  2.60600 46.84500 27.01400
H  2.51700 48.48500 27.73900
H  6.09700 48.11900 32.49000
H  6.01400 44.15200 34.20600
H  4.32000 44.39100 33.76700
H  5.04000 44.95200 35.39000
Mg -0.08100 43.58500 26.20600
C  2.13500 43.41100 28.98700
C  -2.53600 42.55100 28.41700
C  -2.17100 43.56000 23.64300
C  2.57900 44.20300 24.12100
N  -0.09400 42.95400 28.56600
C  0.87900 43.08600 29.47200
C  0.31900 42.94200 30.90400
C  -1.16100 42.46700 30.59900
C  -1.32200 42.76700 29.09300
C  -1.55000 41.00100 31.02400
C  0.40600 44.24700 31.75200
C  0.84500 44.19600 33.24500
H  0.73000 42.91300 33.99600
N  -2.07200 43.12000 26.04700
C  -2.91900 42.77500 27.09600
C  -4.32600 42.67100 26.59400
C  -4.26200 43.07100 25.20100
C  -2.80900 43.33700 24.94100
C  -5.48400 42.21800 27.45100
C  -5.35100 43.17300 24.13300
O  -5.10400 43.43800 22.99000
C  -6.78200 42.87500 24.50500
N  0.19100 43.80700 24.10800
C  -0.84400 43.86700 23.24800
C  -0.40100 44.26300 21.87000
C  1.09200 44.64300 22.13000
C  1.30300 44.23900 23.52700
C  -0.56400 43.08600 20.93100
C  1.44600 46.13700 21.75800
C  1.31600 47.10800 22.98600
N  1.94200 43.66600 26.47000
C  2.89200 43.89000 25.48800
C  4.26800 43.81800 26.13200
C  4.02900 43.67300 27.53100
C  2.56100 43.61300 27.66400
C  5.49200 44.01200 25.32700
C  4.63600 43.47400 28.84400
O  5.77200 43.52100 29.21800
C  3.39300 43.43700 29.77600
C  3.57200 42.24300 30.54100
O  3.28400 41.10900 30.25600
O  4.08800 42.53600 31.77000
C  4.36200 41.36700 32.65700
H  -3.30300 42.21300 29.11700
H  -2.81200 43.62900 22.76200
H  3.36800 44.27600 23.36900
H  0.98300 42.20800 31.36100
H  -1.91100 43.10400 31.06800
H  -2.47200 41.02400 31.60500
H  -0.78900 40.40900 31.53300
H  -1.73000 40.38900 30.14000
H  -0.57600 44.72100 31.74800
H  1.03100 45.00700 31.28500
H  0.12900 44.82700 33.77200
H  1.82200 44.66500 33.35600
H  -6.44000 42.41700 26.96600
H  -5.48100 42.90300 28.29900
H  -5.44800 41.27200 27.99100
H  -7.45800 43.01100 23.66100
H  -7.10500 43.50100 25.33700
H  -6.89600 41.83500 24.80800
H  -1.02300 45.12200 21.61700
H  1.77800 43.98900 21.59200
H  -0.56000 43.38300 19.88300
H  -1.54100 42.64800 21.13600
H  0.14400 42.26800 21.06700
H  0.77700 46.35700 20.92600
H  2.45700 46.28300 21.37700
H  0.92100 48.05900 22.62900
H  2.37300 47.24900 23.21000
H  0.72000 46.73300 23.81900
H  5.46500 44.79700 24.57100
H  5.70400 43.08300 24.79700
H  6.27700 44.31200 26.02100
H  3.51200 44.23100 30.51300
H  4.86800 40.58800 32.08700
H  3.44200 40.97700 33.09300
H  4.91600 41.65000 33.55200

