158

Mg 16.62300 -2.73000 27.25800
C  15.92600 -0.61400 30.04600
C  18.14400 -4.88000 29.37900
C  17.41800 -4.54700 24.58900
C  15.38800 -0.23700 25.21900
N  17.18400 -2.56300 29.49600
C  16.61900 -1.72100 30.45700
C  17.00200 -2.17700 31.84900
C  17.91500 -3.46700 31.58700
C  17.79000 -3.67100 30.02800
C  19.40900 -3.34600 31.97500
C  15.79400 -2.45700 32.77500
C  15.83300 -1.80000 34.20500
H  17.21800 -1.68300 34.91300
N  17.59500 -4.55000 27.02500
C  18.21400 -5.24500 28.02500
C  18.57100 -6.55400 27.49200
C  18.27500 -6.46600 26.11700
C  17.66600 -5.18100 25.85300
C  18.98900 -7.65900 28.45200
C  18.36700 -7.51200 24.97000
O  17.93900 -7.40500 23.85300
C  18.95100 -8.85000 25.24400
N  16.78200 -2.25100 25.20200
C  17.08000 -3.19500 24.32700
C  16.95200 -2.69800 22.87100
C  15.91700 -1.50100 23.06200
C  16.05500 -1.25400 24.58600
C  18.36600 -2.20600 22.40000
C  14.49400 -1.87700 22.54700
C  13.53300 -2.23800 23.70100
N  15.70500 -0.81300 27.50200
C  15.17600 0.02000 26.59700
C  14.56300 1.15200 27.16800
C  14.80900 0.89200 28.63100
C  15.53300 -0.27500 28.70900
C  13.92000 2.24300 26.43600
C  14.64300 1.46100 29.93200
O  14.21600 2.50100 30.46500
C  15.32400 0.43500 30.95600
C  16.38600 1.10100 31.77500
O  17.59200 1.21000 31.57300
O  15.75800 1.66800 32.84600
C  16.49500 2.60700 33.79700
H  18.57300 -5.71400 29.93900
H  17.53600 -5.05600 23.63000
H  14.92200 0.46800 24.52700
H  17.56000 -1.38100 32.34200
H  17.51200 -4.35700 32.07100
H  19.62400 -2.56100 32.70000
H  20.01200 -3.35000 31.06800
H  19.76100 -4.23800 32.49500
H  15.80400 -3.53800 32.91400
H  14.87000 -2.31300 32.21500
H  15.11200 -2.37600 34.78500
H  15.42200 -0.79500 34.11700
H  18.24800 -7.79000 29.24100
H  19.93900 -7.42000 28.93000
H  18.97600 -8.58400 27.87500
H  19.85000 -8.68500 25.83700
H  19.21100 -9.45100 24.37300
H  18.28800 -9.40100 25.91100
H  16.54600 -3.42700 22.17000
H  16.26900 -0.63000 22.50800
H  18.46300 -1.13200 22.24300
H  18.59600 -2.70400 21.45800
H  19.02100 -2.53300 23.20800
H  14.51200 -2.57700 21.71100
H  14.01800 -1.02500 22.06300
H  13.09000 -1.28800 24.00200
H  13.98200 -2.70700 24.57600
H  12.73400 -2.88600 23.34200
H  14.63000 2.85600 25.88100
H  13.44600 2.89600 27.17000
H  13.16800 1.71600 25.84900
H  14.62700 -0.00600 31.66900
H  15.67000 3.20400 34.18400
H  17.33100 3.17300 33.38600
H  16.90300 1.97300 34.58400
Mg 35.73500 1.25100 30.25400
C  33.48800 2.19100 32.74600
C  38.24100 1.10500 32.52600
C  37.83500 0.43600 27.67600
C  33.07100 1.48900 27.85200
N  35.82900 1.77200 32.38200
C  34.78600 2.02000 33.27200
C  35.31200 2.12900 34.71400
C  36.86800 2.00200 34.56600
C  37.01000 1.56700 33.07200
C  37.66000 3.26300 34.90200
C  34.72500 0.96900 35.56500
C  34.16300 1.25800 37.00800
H  34.45900 2.55500 37.59700
N  37.84400 1.05200 30.07800
C  38.65900 0.84600 31.14000
C  39.89700 0.28700 30.70500
C  39.88700 0.31000 29.29500
C  38.46400 0.63700 28.91400
C  41.01500 -0.02700 31.73200
C  40.93200 -0.05000 28.36400
O  40.77700 0.01100 27.15800
C  42.32500 -0.41600 28.90500
N  35.54400 1.10500 28.09100
C  36.59100 0.68300 27.24600
C  36.15000 0.41800 25.85100
C  34.55300 0.63400 25.95400
C  34.28600 0.95600 27.41300
C  36.73000 1.39800 24.85400
C  33.71900 -0.62400 25.50800
C  33.08600 -0.59000 24.10300
N  33.71000 1.80300 30.20200
C  32.84300 1.95200 29.18400
C  31.56700 2.37600 29.78400
C  31.75900 2.48700 31.14100
C  33.08200 2.14000 31.36000
C  30.28700 2.57200 29.02500
C  31.17000 2.87300 32.37500
O  30.02500 3.17500 32.64200
C  32.19400 2.71500 33.48900
C  32.37400 4.07600 34.00900
O  33.30900 4.83900 33.72900
O  31.32700 4.31300 34.92500
C  31.29000 5.69700 35.34900
H  38.88800 0.95700 33.39400
H  38.48600 0.27200 26.81400
H  32.28500 1.46300 27.09400
H  35.09800 3.08700 35.18900
H  37.26600 1.16000 35.13100
H  37.01000 4.06400 35.25700
H  38.21700 3.59700 34.02600
H  38.41600 2.89700 35.59600
H  35.49000 0.21500 35.75000
H  33.90100 0.44300 35.08200
H  34.51800 0.43300 37.62700
H  33.09300 1.12800 36.84700
H  41.97900 0.45100 31.55600
H  41.14100 -1.09900 31.88600
H  40.79200 0.35900 32.72700
H  42.15000 -1.32000 29.48900
H  42.58600 0.44500 29.52000
H  43.09100 -0.52700 28.13800
H  36.30800 -0.62700 25.58400
H  34.25600 1.43100 25.27200
H  37.53300 0.77500 24.46100
H  37.07700 2.33100 25.29900
H  36.03800 1.48200 24.01600
H  32.95500 -0.88700 26.24000
H  34.28900 -1.55000 25.43100
H  33.33700 0.35800 23.62600
H  32.01600 -0.74700 24.24000
H  33.49500 -1.41400 23.51800
H  30.03600 3.61800 29.20700
H  29.64000 1.77700 29.39300
H  30.46200 2.33700 27.97500
H  31.66600 2.11700 34.23200
H  30.31900 5.89300 35.80400
H  31.33700 6.28300 34.43100
H  32.14700 6.05000 35.92300

