158

Mg 42.93400 4.49600 47.89900
C  40.99300 7.42300 48.01100
C  40.08000 2.56700 47.73100
C  44.80800 1.86200 47.07600
C  45.79200 6.56500 47.63000
N  40.83300 5.03300 47.64900
C  40.25300 6.29500 47.81000
C  38.75000 6.22200 47.91700
C  38.57300 4.70700 48.16400
C  39.89700 4.02600 47.71500
C  38.36100 4.37800 49.63400
C  37.99300 6.72000 46.66100
C  38.73500 6.62400 45.26900
H  38.98900 7.67500 44.28300
N  42.47500 2.51600 47.49000
C  41.32000 1.89800 47.60600
C  41.42600 0.45100 47.43200
C  42.82200 0.19900 47.23500
C  43.44100 1.57900 47.25000
C  40.22900 -0.42000 47.46400
C  43.41700 -1.14800 47.10000
O  42.69600 -2.14100 47.16700
C  44.92700 -1.39400 46.85100
N  45.01600 4.29000 47.42100
C  45.49900 3.07100 47.04500
C  46.99600 3.11000 46.93200
C  47.37000 4.59500 47.23400
C  45.99500 5.21300 47.43100
C  47.70100 2.07900 47.85300
C  48.28500 5.25700 46.13700
C  49.60700 5.81400 46.60000
N  43.38500 6.54600 47.92100
C  44.62100 7.24900 47.86000
C  44.30800 8.69100 47.95600
C  42.94500 8.76000 47.97100
C  42.42900 7.49000 47.98200
C  45.41700 9.78200 47.99900
C  41.89500 9.74000 48.17300
O  41.92200 10.97300 48.32900
C  40.58500 8.86900 48.11100
C  39.78100 9.10500 49.28900
O  40.09900 8.71700 50.40600
O  38.75600 9.94400 48.98100
C  37.94900 10.32700 50.15100
H  39.19800 1.93400 47.85100
H  45.47100 1.02200 46.85700
H  46.69200 7.18200 47.58000
H  38.54400 6.94400 48.70600
H  37.75200 4.17300 47.68400
H  37.76200 5.14000 50.13300
H  39.31100 4.27300 50.15800
H  37.70600 3.50800 49.68700
H  37.85300 7.79700 46.75600
H  37.00200 6.27300 46.73200
H  38.18400 5.82000 44.78200
H  39.77400 6.30100 45.33200
H  39.48300 -0.15600 46.71400
H  39.65100 -0.32100 48.38300
H  40.38100 -1.48600 47.29700
H  45.59300 -1.05500 47.64400
H  45.21700 -0.83500 45.96100
H  44.93300 -2.46000 46.62000
H  47.25900 2.78400 45.92500
H  47.81100 4.72500 48.22200
H  47.03000 1.45900 48.44700
H  48.37600 2.70500 48.43700
H  48.29700 1.38200 47.26300
H  47.70200 6.09100 45.74600
H  48.41500 4.51600 45.34800
H  49.61700 6.81000 46.15700
H  50.49600 5.38900 46.13400
H  49.66800 5.88200 47.68700
H  46.42500 9.38200 47.88500
H  45.34000 10.35900 48.92000
H  45.33000 10.40500 47.10900
H  39.99200 9.08800 47.22400
H  36.89600 10.04900 50.12200
H  37.82100 11.40700 50.22200
H  38.30800 10.01800 51.13300
Mg -1.91600 33.31900 25.84300
C  -3.36200 31.80700 28.62300
C  -0.15900 35.37900 27.87100
C  -0.82700 35.03200 23.11900
C  -4.09300 31.45100 23.82800
N  -1.90000 33.60000 27.97200
C  -2.48800 32.85100 28.96400
C  -1.97400 33.30300 30.32600
C  -1.19200 34.59600 30.04700
C  -1.13400 34.59200 28.51700
C  -1.98900 35.91300 30.41600
C  -1.14900 32.23400 31.19200
C  -0.97700 32.57300 32.70600
H  -1.29700 31.52000 33.74600
N  -0.57200 34.91800 25.50800
C  0.12900 35.49100 26.47300
C  1.17700 36.32800 25.84400
C  0.98400 36.39800 24.46300
C  -0.18500 35.44800 24.27900
C  2.21800 37.02900 26.74100
C  1.68300 37.08200 23.35100
O  1.51400 36.89400 22.16900
C  2.71800 37.98600 23.74600
N  -2.24300 33.15100 23.75600
C  -1.83200 34.15200 22.85600
C  -2.59500 34.09100 21.49700
C  -3.59200 32.89200 21.79600
C  -3.28700 32.42700 23.22500
C  -3.22300 35.47800 21.12300
C  -3.37900 31.80000 20.72500
C  -2.38700 30.63600 21.00900
N  -3.38100 31.95900 26.06000
C  -4.13300 31.24500 25.14700
C  -5.00100 30.30400 25.86400
C  -4.75000 30.51400 27.21800
C  -3.75800 31.49400 27.26600
C  -5.83800 29.35700 25.23300
C  -4.97000 30.05200 28.57900
O  -5.71000 29.17800 28.96000
C  -4.08900 30.87200 29.54400
C  -4.97100 31.67200 30.47900
O  -6.01200 32.25800 30.15600
O  -4.52000 31.50700 31.77600
C  -5.47300 31.82300 32.95400
H  0.54200 35.98500 28.44800
H  -0.57800 35.67500 22.27200
H  -4.77400 30.80700 23.26700
H  -2.80700 33.62900 30.95000
H  -0.24700 34.56300 30.59000
H  -2.97900 35.74500 29.99300
H  -1.67600 36.76300 29.80900
H  -2.01200 36.15300 31.47900
H  -0.16300 32.19800 30.73000
H  -1.60600 31.25000 31.08300
H  -1.73500 33.34200 32.85800
H  -0.01200 33.05400 32.86500
H  3.23400 37.17000 26.37300
H  2.50100 36.45500 27.62400
H  1.91600 38.02600 27.06000
H  2.21400 38.57800 24.51000
H  2.82400 38.66600 22.90100
H  3.66400 37.49200 23.96600
H  -1.86600 33.76200 20.75600
H  -4.62800 33.20700 21.67200
H  -4.27300 35.29300 20.89800
H  -2.77700 35.87600 20.21200
H  -3.21500 36.14500 21.98500
H  -3.08300 32.23700 19.77200
H  -4.32800 31.26800 20.64700
H  -1.97000 30.21000 20.09700
H  -2.77900 29.78100 21.56000
H  -1.62800 31.07800 21.65400
H  -5.27900 28.68400 24.58200
H  -6.62600 29.92900 24.74300
H  -6.25700 28.82600 26.08800
H  -3.27200 30.30200 29.98700
H  -5.77600 32.87000 32.96500
H  -5.05300 31.49100 33.90300
H  -6.37200 31.24100 32.74800

