158

Mg 25.03700 -8.35900 46.61500
C  27.22100 -5.77300 45.53000
C  22.74600 -7.11800 44.47000
C  23.25500 -11.12700 47.09000
C  27.86300 -9.78300 48.38200
N  25.08000 -6.66000 45.13900
C  26.04300 -5.67600 44.83900
C  25.50800 -4.63200 43.82100
C  24.12000 -5.18700 43.44300
C  23.96100 -6.39700 44.42300
C  23.01500 -4.10500 43.58900
C  26.51800 -4.54600 42.61000
C  26.77300 -3.17100 42.01500
H  27.11200 -3.15000 40.53900
N  23.21100 -8.97200 46.04900
C  22.37900 -8.32300 45.16400
C  21.08300 -9.01100 45.04500
C  21.26100 -10.17000 45.83000
C  22.62300 -10.10700 46.37600
C  19.84900 -8.47900 44.23800
C  20.26200 -11.28300 45.89100
O  19.24200 -11.25500 45.20100
C  20.39400 -12.45700 46.84300
N  25.58200 -10.26500 47.39900
C  24.57700 -11.19800 47.61300
C  25.10000 -12.42200 48.40900
C  26.51900 -11.92000 48.89100
C  26.69300 -10.55800 48.21600
C  24.06600 -12.93100 49.54600
C  27.66600 -12.98300 48.82500
C  28.59600 -12.97500 50.05700
N  27.10700 -7.92500 46.91800
C  28.08300 -8.56700 47.64800
C  29.32100 -7.78100 47.60600
C  28.95400 -6.59800 46.93700
C  27.67600 -6.85300 46.37600
C  30.48200 -8.05600 48.44200
C  29.37600 -5.24300 46.52100
O  30.44900 -4.67600 46.69800
C  28.31200 -4.67700 45.55500
C  27.70700 -3.48000 46.09400
O  27.47500 -3.42200 47.28300
O  27.49600 -2.53200 45.15200
C  27.01800 -1.23900 45.62100
H  21.97600 -6.82400 43.75400
H  22.73900 -12.03400 47.41200
H  28.74700 -10.24900 48.82200
H  25.38500 -3.72600 44.41400
H  24.20700 -5.60900 42.44200
H  23.43600 -3.17100 43.21800
H  22.80000 -4.10200 44.65700
H  22.07600 -4.20100 43.04300
H  26.27200 -5.10500 41.70700
H  27.40200 -4.99900 43.05600
H  27.66500 -2.78200 42.50600
H  25.88500 -2.58200 42.24500
H  19.89700 -7.39200 44.16600
H  18.98700 -8.78000 44.83300
H  19.87100 -8.91600 43.24000
H  20.80400 -12.04000 47.76300
H  21.09700 -13.19000 46.45000
H  19.46100 -12.98800 47.03200
H  25.35100 -13.23800 47.73200
H  26.41700 -11.63300 49.93800
H  23.19600 -12.28100 49.64300
H  24.62600 -13.11700 50.46200
H  23.71400 -13.87700 49.13400
H  28.29300 -12.83800 47.94500
H  27.19500 -13.96600 48.81300
H  28.50900 -13.99500 50.43100
H  28.14900 -12.34100 50.82200
H  29.65000 -12.76500 49.87200
H  30.78800 -9.09500 48.32400
H  30.11200 -7.90400 49.45600
H  31.20700 -7.35100 48.03600
H  28.74500 -4.53100 44.56600
H  27.71100 -0.58800 45.08900
H  27.06200 -1.04900 46.69300
H  25.98300 -0.96100 45.42200
Mg 47.60900 44.77700 44.01600
C  44.11300 44.66700 43.75500
C  47.59100 41.37600 43.13700
C  50.75800 45.06300 43.56300
C  47.21400 48.41300 44.33200
N  46.05800 43.29800 43.36200
C  44.78900 43.49300 43.33100
C  44.03300 42.33700 42.61500
C  45.04800 41.22900 42.82000
C  46.35700 42.01100 43.16000
C  44.73600 40.20200 43.88700
C  43.78300 42.66000 41.15400
C  42.32900 42.53100 40.66500
H  42.11300 41.68800 39.35000
N  48.95900 43.40200 43.54000
C  48.78700 42.03800 43.18400
C  50.13600 41.51300 42.83900
C  51.05500 42.50400 43.20100
C  50.28400 43.70200 43.43100
C  50.42000 40.06800 42.48200
C  52.57800 42.30800 43.36400
O  53.08000 41.22900 43.04200
C  53.40300 43.47800 43.90700
N  48.82000 46.53900 43.87900
C  50.12000 46.30000 43.86900
C  50.94900 47.59000 44.01500
C  49.83500 48.68200 44.31700
C  48.51300 47.84700 44.11400
C  52.06200 47.48200 45.12200
C  49.86100 49.80800 43.27000
C  49.26600 51.16000 43.73400
N  45.95900 46.30600 44.08300
C  45.97800 47.68600 44.33400
C  44.61200 48.14800 44.32400
C  43.81000 47.02800 44.07500
C  44.69800 45.92200 43.96600
C  44.25300 49.58100 44.59500
C  42.41000 46.55500 43.86100
O  41.28000 47.05200 43.91900
C  42.59200 44.97800 43.63600
C  41.79900 44.14100 44.60900
O  40.84800 43.35100 44.26500
O  42.20900 44.30500 45.89800
C  41.51300 43.66100 46.96500
H  47.63000 40.31500 42.88200
H  51.82400 45.19300 43.36800
H  47.12100 49.49000 44.48700
H  43.14500 42.05900 43.18300
H  45.16500 40.64800 41.90500
H  44.04800 40.54800 44.65900
H  45.67300 39.88100 44.34300
H  44.27700 39.38700 43.32700
H  44.41500 42.08400 40.47800
H  44.05300 43.69900 40.96700
H  41.85200 43.50700 40.56500
H  41.78000 41.87800 41.34300
H  49.71900 39.69000 41.73800
H  50.41400 39.43900 43.37100
H  51.40000 40.01800 42.00600
H  53.49200 44.17900 43.07700
H  54.37200 43.04200 44.15200
H  53.06500 43.89700 44.85400
H  51.46400 47.72700 43.06400
H  49.68100 49.06600 45.32600
H  52.22800 46.47800 45.51300
H  51.68500 48.16400 45.88400
H  53.01500 47.79800 44.69600
H  49.36700 49.45100 42.36600
H  50.89800 50.01900 43.00800
H  48.42700 51.50300 43.12800
H  49.97000 51.98700 43.65200
H  48.86700 51.12800 44.74800
H  44.33500 49.71100 45.67400
H  43.33500 49.93400 44.12400
H  45.11400 50.04400 44.11300
H  42.22200 44.64600 42.66600
H  42.35200 43.35600 47.59000
H  40.86800 42.82700 46.68800
H  41.03400 44.37600 47.63300

