158

Mg 24.46000 -7.51100 46.11400
C  26.90200 -5.12700 45.05900
C  22.11400 -5.99100 44.13600
C  22.41400 -10.02300 46.78000
C  27.13300 -9.26100 47.63100
N  24.54200 -5.79400 44.81600
C  25.61100 -4.91800 44.60100
C  25.22900 -3.79000 43.59100
C  23.62900 -3.99600 43.41200
C  23.42800 -5.35500 44.27200
C  22.76100 -2.82600 43.91400
C  25.92800 -3.86300 42.30900
C  26.48100 -2.53000 41.76500
H  25.52000 -1.89500 40.73900
N  22.38000 -7.86300 45.68600
C  21.63500 -7.17000 44.82000
C  20.33900 -7.77500 44.78700
C  20.34200 -8.95300 45.59200
C  21.72600 -8.98700 46.11100
C  19.14800 -7.06300 44.16300
C  19.16600 -9.87900 45.83500
O  18.20000 -9.71200 45.07400
C  19.22300 -10.98900 46.77800
N  24.81100 -9.31600 46.97800
C  23.75400 -10.15700 47.12700
C  24.14100 -11.47100 47.89200
C  25.64200 -11.24700 48.23900
C  25.87700 -9.90000 47.52600
C  23.26000 -11.94000 49.13700
C  26.74000 -12.31000 48.08600
C  27.49300 -12.85700 49.31600
N  26.56500 -7.34000 46.28100
C  27.53700 -8.10900 46.97100
C  28.85400 -7.48900 46.88000
C  28.67600 -6.32800 46.11400
C  27.26900 -6.28900 45.77300
C  30.01500 -7.93000 47.67700
C  29.32000 -5.04900 45.63900
O  30.43100 -4.64300 45.87500
C  28.21900 -4.34100 44.79800
C  28.23100 -2.96600 45.05300
O  28.91500 -2.19800 44.35400
O  27.49000 -2.57500 46.13800
C  27.50700 -1.19300 46.45100
H  21.35700 -5.51400 43.51000
H  21.72100 -10.80100 47.10500
H  28.05000 -9.68300 48.04800
H  25.43600 -2.80200 44.00200
H  23.30800 -4.14000 42.38000
H  23.32100 -2.04600 44.42900
H  21.93300 -3.11800 44.56100
H  22.19800 -2.19600 43.22500
H  25.17300 -4.21100 41.60500
H  26.76900 -4.55700 42.31300
H  27.48000 -2.79100 41.41600
H  26.71100 -1.80500 42.54500
H  19.30600 -6.00500 43.95800
H  18.21900 -7.30100 44.68200
H  19.00600 -7.44800 43.15400
H  19.49500 -10.51900 47.72300
H  20.03000 -11.63100 46.42600
H  18.31200 -11.58100 46.86300
H  23.90200 -12.25100 47.16900
H  25.69100 -11.00200 49.30000
H  22.92300 -12.94800 48.89700
H  22.48100 -11.20700 49.34700
H  23.90900 -11.99100 50.01000
H  27.39500 -11.98500 47.27800
H  26.27600 -13.15500 47.57700
H  27.03900 -13.84800 49.33700
H  27.14000 -12.21700 50.12400
H  28.57100 -12.84200 49.15400
H  29.75400 -8.47200 48.58700
H  30.75200 -7.14800 47.85900
H  30.58300 -8.68300 47.13100
H  28.44500 -4.58500 43.76000
H  27.07000 -1.18700 47.44900
H  27.04900 -0.59400 45.66400
H  28.50400 -0.78800 46.62700
Mg 46.39900 34.53100 27.93300
C  44.26700 32.66600 30.19100
C  46.37500 36.98900 30.40600
C  47.91500 36.52500 25.75000
C  45.94600 32.09200 25.53100
N  45.59100 34.74600 30.07700
C  44.75600 33.82900 30.72300
C  44.63300 34.33600 32.17800
C  45.01600 35.85500 32.22700
C  45.72400 35.89700 30.84400
C  43.80800 36.77000 32.31200
C  45.42400 33.37200 33.12600
C  46.30100 33.87000 34.29200
H  45.70600 34.81300 35.36200
N  47.17400 36.47400 28.15300
C  47.11500 37.30400 29.21600
C  47.88100 38.49300 28.88200
C  48.32700 38.38900 27.50000
C  47.79200 37.08600 27.06600
C  47.85600 39.68600 29.81800
C  49.15500 39.30800 26.62800
O  49.50100 39.10700 25.43200
C  49.68300 40.65000 27.24200
N  46.62900 34.40400 25.88200
C  47.41500 35.37800 25.20100
C  47.74100 34.86000 23.78200
C  47.22500 33.37900 23.80500
C  46.48600 33.28700 25.06700
C  46.94600 35.69600 22.73700
C  48.41800 32.41900 23.75600
C  48.36900 31.24700 22.77100
N  45.33400 32.75700 27.89300
C  45.26300 31.88900 26.78600
C  44.56200 30.69400 27.27100
C  44.05500 31.03100 28.55500
C  44.52500 32.26900 28.89100
C  44.45000 29.31900 26.58200
C  43.25000 30.52200 29.59800
O  42.61600 29.45400 29.64900
C  43.17000 31.62500 30.67700
C  43.32100 31.11100 32.04500
O  44.11200 30.27600 32.45700
O  42.31700 31.67800 32.87000
C  42.17600 31.14500 34.23700
H  46.37100 37.85500 31.07100
H  48.50900 37.03600 24.98900
H  45.82700 31.25700 24.83700
H  43.59100 34.20200 32.46600
H  45.72300 36.16800 32.99600
H  43.84200 37.17300 33.32400
H  42.87500 36.22300 32.17400
H  43.78400 37.64200 31.65900
H  46.12200 32.80400 32.51100
H  44.67400 32.72300 33.57800
H  47.08400 34.43700 33.78900
H  46.77000 32.96000 34.66800
H  47.55200 40.62600 29.35900
H  48.85400 39.94900 30.16900
H  47.19900 39.68900 30.68700
H  50.38300 41.13000 26.55800
H  50.15900 40.35200 28.17600
H  48.87900 41.36100 27.43400
H  48.80500 35.02700 23.61600
H  46.53000 33.15600 22.99600
H  47.50000 36.62200 22.58100
H  46.06800 36.00900 23.30200
H  46.77600 35.06500 21.86500
H  48.49600 31.93300 24.72800
H  49.34900 32.98600 23.76900
H  47.47500 31.29300 22.14900
H  48.48200 30.26400 23.22900
H  49.24900 31.45000 22.16100
H  43.81300 28.60400 27.10300
H  45.40000 28.80900 26.41700
H  43.95000 29.49500 25.62900
H  42.17300 32.03300 30.51200
H  42.71800 30.21800 34.42000
H  41.19800 31.04800 34.70900
H  42.66100 31.94200 34.80000

