158

Mg 0.54800 7.53000 25.26700
C  0.99600 9.40600 28.21000
C  1.19100 4.75600 27.21500
C  0.38300 5.74400 22.54300
C  0.74300 10.53100 23.43100
N  1.02600 7.15100 27.54200
C  0.96200 8.05500 28.52300
C  1.03800 7.36000 29.91300
C  1.29600 5.87700 29.55300
C  1.17000 5.93100 28.02300
C  2.63700 5.22500 30.05500
C  -0.24700 7.69200 30.71000
C  -0.14800 7.55100 32.25200
H  1.17700 7.01000 32.82700
N  0.37600 5.49700 24.96500
C  0.79500 4.57700 25.85100
C  0.51200 3.31900 25.17700
C  0.26600 3.59200 23.77500
C  0.37900 4.99400 23.69400
C  0.60300 1.97400 25.90400
C  -0.11900 2.62600 22.58500
O  -0.23500 2.96500 21.44300
C  -0.53700 1.20300 22.99300
N  0.72500 8.07200 23.22900
C  0.40700 7.14200 22.38400
C  0.32800 7.76300 20.98900
C  -0.01900 9.27000 21.38500
C  0.46200 9.32500 22.77800
C  1.49400 7.63900 20.03600
C  -1.47800 9.65300 21.26900
C  -1.82700 11.10000 20.70600
N  0.87800 9.61200 25.72000
C  0.98900 10.66400 24.85600
C  1.33800 11.87300 25.62600
C  1.40100 11.38500 26.95500
C  1.04300 10.05000 26.93600
C  1.35500 13.26100 25.07900
C  1.59600 11.83000 28.29800
O  1.93600 12.90700 28.72900
C  1.21400 10.59000 29.21900
C  2.44900 10.44200 30.16100
O  3.51700 9.85400 29.78800
O  2.24100 11.08300 31.32600
C  3.46800 11.03400 32.14300
H  1.45100 3.86100 27.78500
H  0.18000 5.26300 21.58400
H  0.81100 11.42000 22.80100
H  1.88900 7.85500 30.38200
H  0.52600 5.19400 29.91000
H  3.24900 5.99300 30.52700
H  3.21800 4.83900 29.21700
H  2.40500 4.32400 30.62400
H  -0.97300 6.96100 30.35600
H  -0.62400 8.67500 30.42500
H  -0.89200 6.83000 32.59200
H  -0.30000 8.47200 32.81300
H  1.09100 2.01900 26.87700
H  1.04800 1.20300 25.27500
H  -0.41900 1.65600 26.10900
H  0.34800 0.60400 23.20600
H  -0.95400 0.80300 22.06900
H  -1.28800 1.30500 23.77600
H  -0.51800 7.30000 20.48100
H  0.52500 9.86900 20.65400
H  2.26000 7.12900 20.62000
H  2.02700 8.56900 19.83900
H  1.18300 7.16000 19.10800
H  -2.03200 9.59100 22.20500
H  -1.98200 8.92100 20.63800
H  -2.17500 10.96200 19.68200
H  -0.95000 11.73500 20.83200
H  -2.66000 11.42200 21.33000
H  0.56000 13.26300 24.33300
H  2.31900 13.43000 24.59900
H  1.33900 13.92500 25.94300
H  0.29600 10.82100 29.76000
H  3.38000 11.73400 32.97300
H  4.36000 11.25600 31.55800
H  3.49400 10.02700 32.55900
Mg -11.18300 16.38400 41.24400
C  -8.15200 14.69000 40.97400
C  -9.62500 19.21400 40.09300
C  -14.19300 17.62700 40.42700
C  -12.70600 13.45300 42.16700
N  -9.16100 16.80000 40.38100
C  -8.10400 15.97200 40.46000
C  -6.79500 16.70100 39.96600
C  -7.20100 18.12900 40.02400
C  -8.75100 18.09700 40.14100
C  -6.50000 18.99900 41.13900
C  -6.36400 16.09400 38.60900
C  -5.02200 16.55700 38.07700
H  -5.01100 17.17300 36.71100
N  -11.80900 18.26800 40.52800
C  -11.04400 19.37600 40.25900
C  -11.84200 20.51300 40.07100
C  -13.17500 20.04900 40.05600
C  -13.12600 18.59300 40.32700
C  -11.23700 21.91700 39.96500
C  -14.41100 20.90700 39.83400
O  -14.21000 22.11700 39.67400
C  -15.89600 20.39000 39.82900
N  -13.09300 15.56700 41.09600
C  -14.17300 16.33100 40.84400
C  -15.49600 15.49700 40.89800
C  -15.02600 14.31200 41.79200
C  -13.52200 14.45000 41.75100
C  -16.77500 16.29700 41.33700
C  -15.54800 12.89800 41.40400
C  -15.98200 12.07000 42.60900
N  -10.53900 14.45700 41.66000
C  -11.25700 13.38200 42.05600
C  -10.33700 12.30700 42.33700
C  -9.05700 12.82100 41.97200
C  -9.25700 14.09400 41.42400
C  -10.59400 10.92600 42.84800
C  -7.64600 12.47700 41.95200
O  -7.03900 11.51800 42.27600
C  -7.04900 13.70600 41.18800
C  -6.04800 14.27800 42.12800
O  -6.35100 14.79500 43.17700
O  -4.78400 14.23400 41.60700
C  -3.76600 14.37100 42.63700
H  -9.02600 20.09400 39.85000
H  -15.16100 17.99400 40.08000
H  -13.29000 12.64700 42.61500
H  -6.04700 16.51000 40.73500
H  -6.92300 18.47000 39.02700
H  -5.95400 18.31300 41.78700
H  -7.32300 19.52600 41.62100
H  -5.72600 19.68000 40.78700
H  -7.18800 16.28800 37.92200
H  -6.30000 15.01400 38.73900
H  -4.43900 15.63700 38.03800
H  -4.55200 17.25500 38.77100
H  -11.26900 22.32400 38.95500
H  -10.21800 22.02800 40.33500
H  -11.69700 22.76400 40.47600
H  -16.54500 21.22300 39.56100
H  -16.13200 19.89800 40.77200
H  -15.96900 19.64800 39.03400
H  -15.75900 15.07600 39.92700
H  -15.35900 14.62200 42.78200
H  -17.45000 16.60700 40.53900
H  -16.51800 17.20700 41.88000
H  -17.36800 15.63100 41.96500
H  -14.81200 12.35400 40.81200
H  -16.47800 12.99400 40.84400
H  -15.53000 11.10700 42.37300
H  -16.99300 11.67100 42.68600
H  -15.69800 12.47900 43.57900
H  -11.52500 10.88800 43.41400
H  -9.74600 10.52600 43.40400
H  -10.80800 10.22800 42.03800
H  -6.56900 13.40600 40.25600
H  -2.89900 13.80300 42.30000
H  -3.92400 13.91900 43.61600
H  -3.47200 15.37900 42.92900

