158

Mg 7.26600 2.33700 27.86000
C  8.70700 1.19300 30.79500
C  5.02700 4.24900 29.78200
C  5.83400 3.35600 25.01000
C  9.24500 0.10900 25.92600
N  6.96000 2.73500 30.03100
C  7.75900 2.16800 31.07800
C  7.27600 2.65600 32.48200
C  6.14200 3.76500 32.04500
C  5.94800 3.53100 30.54800
C  4.84200 3.91800 32.86400
C  8.41800 3.29000 33.37700
C  7.99500 4.10000 34.58200
H  8.59300 3.70600 35.90400
N  5.70800 3.71600 27.39600
C  4.85800 4.34500 28.39100
C  3.95000 5.13500 27.64900
C  4.23400 5.01900 26.23000
C  5.28100 3.94700 26.13800
C  3.08200 6.18700 28.35000
C  3.61700 5.87200 25.10900
O  4.08100 5.81900 23.98900
C  2.54500 6.81200 25.32200
N  7.28200 1.60100 25.78700
C  6.73100 2.29500 24.83000
C  7.14300 1.74500 23.44400
C  8.46000 1.02600 23.77800
C  8.38500 0.91500 25.25400
C  6.07100 0.80200 22.81700
C  9.82700 1.58200 23.21600
C  10.61000 2.64400 23.98900
N  8.59500 0.88300 28.21800
C  9.35400 0.02000 27.33700
C  10.27800 -0.64200 28.14300
C  10.09300 -0.22500 29.49000
C  8.99200 0.64500 29.52300
C  11.24200 -1.72900 27.64900
C  10.51700 -0.47900 30.87400
O  11.36700 -1.28900 31.20700
C  9.62000 0.48000 31.81400
C  8.78600 -0.33100 32.81200
O  7.74600 -0.89900 32.46400
O  9.22000 -0.29600 34.10400
C  8.26100 -0.67300 35.19000
H  4.43900 4.83800 30.48800
H  5.50000 3.71500 24.03400
H  9.99300 -0.35300 25.27900
H  6.83400 1.79000 32.97400
H  6.62400 4.73600 32.15300
H  4.86900 4.84000 33.44500
H  4.79900 3.04800 33.52100
H  3.92500 3.76800 32.29400
H  8.90200 4.07700 32.79900
H  9.12700 2.56700 33.78000
H  6.93100 4.01500 34.80500
H  8.08200 5.16500 34.36700
H  3.51200 7.18700 28.30400
H  3.06100 6.03800 29.43000
H  2.06300 6.16500 27.96500
H  1.73200 6.44100 25.94600
H  2.08900 6.91900 24.33700
H  2.97900 7.72300 25.73200
H  7.44200 2.56600 22.79300
H  8.47800 0.03000 23.33600
H  5.27800 0.65200 23.55000
H  6.59300 -0.11900 22.55900
H  5.77200 1.29100 21.89000
H  9.70400 1.94500 22.19500
H  10.48800 0.71500 23.21200
H  10.07400 2.99900 24.87000
H  10.82600 3.42300 23.25800
H  11.51700 2.24800 24.44700
H  11.57200 -1.64500 26.61300
H  10.89900 -2.75400 27.78700
H  12.14000 -1.58700 28.25100
H  10.27400 1.17000 32.34900
H  7.91700 -1.70600 35.13600
H  7.39800 -0.07200 34.90200
H  8.58800 -0.24800 36.13900
Mg 45.69200 5.26600 47.33500
C  43.43300 7.88700 46.47700
C  42.95800 3.05900 46.91200
C  47.73100 2.64900 47.21200
C  48.28300 7.55300 47.45400
N  43.45900 5.45300 46.40900
C  42.82300 6.67500 46.23600
C  41.35100 6.46400 45.88500
C  41.17500 4.91400 46.26800
C  42.57700 4.41600 46.59200
C  40.27800 4.62700 47.41800
C  40.99400 6.78300 44.32800
C  39.97800 7.86000 44.02600
H  40.39000 8.83300 42.90900
N  45.43400 3.14900 47.09200
C  44.19800 2.45900 47.03900
C  44.49100 1.07200 46.92700
C  45.86600 0.81200 46.90600
C  46.43900 2.23900 47.00800
C  43.33700 0.06700 46.89600
C  46.51100 -0.60600 46.71900
O  45.80500 -1.58500 46.54200
C  48.01300 -0.69100 46.64200
N  47.72900 5.17100 47.22200
C  48.30000 3.95900 47.37200
C  49.87200 4.09700 47.52200
C  50.05400 5.65900 47.77300
C  48.59900 6.17100 47.49300
C  50.51200 3.24600 48.67700
C  51.08400 6.33700 46.83400
C  51.93700 7.62100 47.30800
N  45.86500 7.30000 47.14200
C  47.00900 8.12200 47.14400
C  46.56500 9.50200 47.00800
C  45.20300 9.43900 46.82200
C  44.78500 8.08400 46.80900
C  47.52500 10.59900 46.98500
C  44.03800 10.25900 46.62000
O  43.94500 11.47600 46.58000
C  42.86000 9.33400 46.28200
C  41.72500 9.55900 47.24000
O  41.48900 8.97300 48.29500
O  40.88000 10.44800 46.69400
C  39.56000 10.67100 47.45100
H  42.09800 2.39200 46.99300
H  48.45500 1.83300 47.26300
H  49.10900 8.21000 47.73100
H  40.81100 7.10800 46.57900
H  40.83300 4.32100 45.41900
H  40.49300 3.65800 47.87000
H  39.22400 4.78400 47.19000
H  40.42800 5.31100 48.25400
H  40.49500 5.91000 43.90700
H  41.92200 6.99500 43.79800
H  39.99800 8.47000 44.92900
H  39.04200 7.36400 43.77000
H  43.53400 -0.79700 47.53000
H  43.27700 -0.35700 45.89400
H  42.30500 0.38200 47.05300
H  48.54200 -0.39200 47.54700
H  48.32400 0.00100 45.85900
H  48.21900 -1.73900 46.42400
H  50.37700 3.95600 46.56700
H  50.32300 5.87700 48.80700
H  51.34600 2.64100 48.32200
H  49.72100 2.67700 49.16700
H  50.92300 3.71800 49.57000
H  50.60300 6.63700 45.90400
H  51.78300 5.51500 46.68100
H  52.79800 7.23900 47.85600
H  51.41600 8.18500 48.08100
H  52.08500 8.33200 46.49400
H  48.01500 10.77600 47.94300
H  46.90200 11.37600 46.54300
H  48.18900 10.15600 46.24200
H  42.52000 9.46600 45.25500
H  39.68400 11.33700 48.30500
H  39.07800 9.77100 47.83500
H  38.86300 11.08600 46.72300

