158

Mg 8.34400 2.35900 27.66800
C  9.84800 1.16900 30.59000
C  6.40000 4.38600 29.64400
C  6.84300 3.29200 24.83000
C  10.09900 -0.11700 25.82900
N  7.98600 2.52500 29.87100
C  8.82000 2.04100 30.85400
C  8.48200 2.68500 32.20300
C  7.25700 3.62900 31.86800
C  7.08200 3.44300 30.40600
C  5.89900 3.41300 32.57700
C  9.73000 3.47000 32.80000
C  9.62100 4.28300 34.11100
H  10.49700 3.71400 35.27600
N  6.83100 3.60300 27.23900
C  6.20500 4.43400 28.22600
C  5.24000 5.32900 27.47800
C  5.43000 5.08400 26.08600
C  6.35000 3.93200 26.03100
C  4.32700 6.37400 28.14200
C  4.76100 5.88900 24.84800
O  4.87700 5.48800 23.68400
C  3.80100 7.09200 25.03600
N  8.29100 1.53500 25.64800
C  7.73800 2.21100 24.64400
C  8.22600 1.74700 23.22100
C  9.26000 0.72100 23.62700
C  9.21000 0.66100 25.17200
C  7.03400 1.42500 22.25100
C  10.74900 0.98000 23.16700
C  11.37400 -0.09900 22.18400
N  9.71800 0.82900 28.07800
C  10.32200 -0.04800 27.23500
C  11.31300 -0.80000 27.99900
C  11.17000 -0.35800 29.27200
C  10.15900 0.63700 29.34100
C  12.23200 -1.86000 27.48600
C  11.69300 -0.45000 30.63600
O  12.57000 -1.18500 31.15200
C  10.85900 0.52700 31.46200
C  10.27400 -0.21700 32.61600
O  9.60400 -1.21400 32.59700
O  10.71000 0.32700 33.78700
C  10.27200 -0.28500 35.03000
H  5.99100 5.19700 30.24900
H  6.48100 3.55800 23.83500
H  10.91400 -0.66000 25.34700
H  8.12600 1.88400 32.85100
H  7.42000 4.68600 32.08100
H  5.27400 2.71300 32.02100
H  5.33100 4.32000 32.78200
H  6.09800 2.95000 33.54300
H  10.09300 4.12100 32.00400
H  10.60300 2.82100 32.87000
H  8.58800 4.19500 34.44600
H  9.89600 5.31600 33.89900
H  3.36300 6.12400 27.69800
H  4.48200 7.41100 27.84500
H  4.17900 6.29000 29.21900
H  2.80000 6.83700 25.38200
H  3.82900 7.68400 24.12100
H  4.30600 7.72600 25.76500
H  8.80000 2.63600 22.95700
H  9.02800 -0.31900 23.39900
H  6.04200 1.51600 22.69200
H  7.12700 0.40400 21.88000
H  7.22100 2.14700 21.45500
H  11.36700 1.15500 24.04800
H  10.72500 1.96200 22.69300
H  12.16800 -0.64400 22.69400
H  11.68500 0.38500 21.25800
H  10.56300 -0.82600 22.13800
H  13.04000 -1.90800 28.21600
H  12.59400 -1.66000 26.47700
H  11.65100 -2.78100 27.48400
H  11.55700 1.24500 31.89100
H  10.22500 0.56400 35.71200
H  11.03000 -0.97200 35.40600
H  9.36600 -0.88500 34.94200
Mg 5.07900 52.42400 42.14900
C  5.04900 48.89300 41.85400
C  7.52700 52.39200 39.74500
C  4.62500 55.80500 41.85000
C  2.30000 52.18800 44.15200
N  5.97400 50.86300 40.80000
C  5.83500 49.47300 40.84800
C  6.69400 48.82600 39.75000
C  7.74800 49.90300 39.51700
C  7.04000 51.12600 40.03900
C  9.15900 49.71200 40.13600
C  5.82000 48.30500 38.53700
C  5.91500 46.79500 38.01200
H  6.38400 46.50800 36.53900
N  6.02000 53.95700 41.00600
C  7.03600 53.70600 40.10800
C  7.56100 55.03900 39.73100
C  6.86800 56.01700 40.46000
C  5.82400 55.29000 41.15700
C  8.63500 55.16300 38.69100
C  7.20500 57.44000 40.50000
O  8.21500 57.83400 39.88400
C  6.42800 58.43900 41.36500
N  3.75200 53.74700 42.89400
C  3.71300 55.06800 42.63100
C  2.39000 55.72800 43.11800
C  1.45100 54.49700 43.41900
C  2.54400 53.40700 43.52600
C  2.50900 56.60600 44.43600
C  0.43400 54.25800 42.24700
C  -0.51100 55.45700 41.94700
N  4.00000 50.94500 43.02400
C  2.99200 50.99200 43.96300
C  2.69600 49.65000 44.40200
C  3.49400 48.78000 43.59700
C  4.23700 49.59900 42.77000
C  1.71800 49.27600 45.46400
C  3.85200 47.39400 43.36300
O  3.52800 46.33800 43.82800
C  4.88900 47.47100 42.19500
C  4.61600 46.53600 41.15800
O  3.66200 46.64200 40.37100
O  5.44100 45.45600 41.29100
C  5.03300 44.30700 40.48100
H  8.41400 52.49000 39.11600
H  4.42700 56.87800 41.81900
H  1.33100 52.17400 44.65400
H  7.03000 47.95200 40.30700
H  7.89400 50.02600 38.44400
H  9.90000 49.83900 39.34700
H  9.27300 48.72500 40.58400
H  9.40400 50.55100 40.78900
H  6.08600 48.95600 37.70400
H  4.80700 48.64400 38.75600
H  4.91700 46.40200 38.20500
H  6.64200 46.35600 38.69500
H  8.58100 54.37100 37.94500
H  9.62600 55.06000 39.13200
H  8.65200 56.18100 38.29900
H  6.91400 59.41500 41.36800
H  6.48000 57.88700 42.30300
H  5.49800 58.64400 40.83400
H  2.08400 56.44200 42.35300
H  0.84800 54.70400 44.30400
H  3.39900 57.23300 44.40200
H  2.58000 55.99200 45.33400
H  1.73500 57.36900 44.51700
H  -0.19400 53.39500 42.46600
H  0.91100 53.92400 41.32600
H  0.01200 56.34800 41.59900
H  -1.14100 55.72700 42.79500
H  -1.20300 55.21400 41.14100
H  0.72900 49.37100 45.01600
H  1.80500 50.00200 46.27200
H  1.84000 48.28000 45.88900
H  5.86800 47.22000 42.60500
H  5.79700 43.53700 40.58600
H  5.12800 44.59200 39.43400
H  3.99800 44.05300 40.71000

