158

Mg 17.37900 -0.58900 26.64200
C  16.09100 1.16800 29.37100
C  19.14500 -2.53600 28.85000
C  18.57600 -2.44300 24.04300
C  15.64900 1.40100 24.49800
N  17.71700 -0.52400 28.91400
C  17.03600 0.19200 29.81600
C  17.39100 -0.23000 31.23400
C  18.49400 -1.33200 31.09100
C  18.40300 -1.51600 29.55300
C  20.02000 -0.97500 31.44700
C  16.23600 -0.60100 32.13000
C  16.59500 -0.95600 33.58600
H  17.86900 -0.29700 34.20000
N  18.72900 -2.27500 26.44400
C  19.36800 -2.87900 27.51400
C  20.07400 -3.95800 27.01700
C  19.90800 -3.97800 25.54100
C  19.04600 -2.91400 25.29300
C  20.72200 -5.01100 27.80500
C  20.53000 -4.98100 24.49100
O  20.21800 -5.00200 23.33500
C  21.45600 -5.97200 25.05200
N  17.33900 -0.39600 24.55500
C  17.86700 -1.29800 23.72200
C  17.48700 -0.97600 22.23200
C  16.38100 0.20900 22.40100
C  16.50400 0.42800 23.87700
C  18.68900 -0.46800 21.37700
C  14.92500 -0.06200 22.06700
C  14.46700 -1.48900 22.35100
N  16.26500 0.97000 26.82300
C  15.51000 1.64600 25.84900
C  14.52800 2.50500 26.48000
C  14.80300 2.36700 27.90200
C  15.80200 1.41000 27.99700
C  13.49400 3.31400 25.78200
C  14.42700 2.94100 29.18900
O  13.64100 3.85400 29.43100
C  15.27300 2.10600 30.24200
C  16.15700 3.03300 31.01700
O  16.81600 3.95400 30.53300
O  15.82200 2.93700 32.32600
C  16.42200 4.04100 33.15100
H  19.81500 -3.08800 29.51200
H  18.86000 -2.96000 23.12400
H  15.12700 1.91600 23.68900
H  17.76700 0.69300 31.67500
H  18.16700 -2.27700 31.52300
H  20.18100 0.04600 31.79200
H  20.57900 -1.08100 30.51700
H  20.42500 -1.56500 32.27000
H  15.87200 -1.58600 31.83700
H  15.43600 0.13800 32.09900
H  16.66200 -2.03000 33.76000
H  15.73300 -0.59600 34.14700
H  20.29500 -5.97400 27.52700
H  20.60000 -4.92000 28.88400
H  21.80700 -5.04400 27.70200
H  21.81600 -6.66400 24.29000
H  20.92100 -6.65300 25.71500
H  22.37800 -5.51600 25.41200
H  17.04400 -1.86200 21.77800
H  16.70300 1.02100 21.75000
H  18.80700 0.60300 21.21400
H  18.70600 -1.06300 20.46400
H  19.59800 -0.66900 21.94400
H  14.84700 0.02000 20.98300
H  14.22400 0.63600 22.52400
H  13.73000 -1.30400 23.13200
H  15.21700 -2.14300 22.79600
H  13.91800 -1.77400 21.45400
H  13.22000 2.70100 24.92200
H  13.99900 4.21800 25.44200
H  12.55400 3.63600 26.22800
H  14.48300 1.66800 30.85100
H  16.24400 3.88200 34.21500
H  15.96600 5.02100 33.01200
H  17.51100 4.07500 33.10600
Mg 0.79100 42.79400 26.79000
C  2.90600 42.69400 29.61600
C  -1.83200 42.12900 29.09700
C  -1.24700 42.45100 24.21100
C  3.47900 43.37400 24.84000
N  0.62200 42.50700 29.07100
C  1.60800 42.66500 30.05300
C  1.09500 42.60900 31.48100
C  -0.39200 42.22600 31.22300
C  -0.55400 42.27200 29.64600
C  -0.95500 40.90300 31.82300
C  1.41200 43.88900 32.20300
C  1.36400 43.77200 33.74400
H  1.03800 42.49600 34.53000
N  -1.23400 42.19000 26.62000
C  -2.14800 42.13700 27.66800
C  -3.45100 41.86400 27.13700
C  -3.33400 41.90900 25.66100
C  -1.91800 42.18600 25.43500
C  -4.75300 41.72400 27.96000
C  -4.37800 41.64600 24.56100
O  -4.10000 41.44400 23.34400
C  -5.89600 41.39800 24.94600
N  1.07500 42.82900 24.76600
C  0.03700 42.79800 23.85800
C  0.58200 42.88200 22.38200
C  2.14100 43.21300 22.61800
C  2.25300 43.12500 24.14000
C  0.26100 41.61300 21.53900
C  2.70600 44.51200 21.94700
C  2.37800 45.91200 22.64900
N  2.74800 43.05000 27.10400
C  3.74500 43.25900 26.21900
C  5.05000 43.30200 26.87400
C  4.77100 42.97900 28.19000
C  3.36700 42.83600 28.27100
C  6.32500 43.67600 26.23200
C  5.39800 42.82300 29.49100
O  6.58200 42.87200 29.80100
C  4.15900 42.67600 30.52800
C  4.24300 41.46600 31.40600
O  4.12600 40.32000 31.01200
O  4.57400 41.83900 32.68400
C  4.79700 40.68500 33.52700
H  -2.65300 42.05500 29.81400
H  -1.96400 42.62900 23.40600
H  4.33800 43.67200 24.23600
H  1.44300 41.70600 31.98300
H  -0.96000 43.09100 31.56700
H  -1.30100 40.29700 30.98600
H  -1.82700 41.20700 32.40300
H  -0.22600 40.33500 32.40100
H  0.58700 44.56200 31.97200
H  2.36400 44.29000 31.85600
H  0.91600 44.67000 34.17000
H  2.39600 44.07100 33.93200
H  -5.43400 40.97100 27.56300
H  -5.14400 42.73900 28.04000
H  -4.46700 41.40700 28.96300
H  -5.96900 40.39400 25.36500
H  -6.42300 41.41700 23.99300
H  -6.42500 42.17000 25.50500
H  0.11500 43.70800 21.84600
H  2.60000 42.34600 22.14200
H  -0.14400 40.79700 22.13700
H  1.22700 41.37300 21.09300
H  -0.61300 41.79500 20.91500
H  2.32200 44.56800 20.92800
H  3.75500 44.21600 21.97200
H  3.37300 46.24700 22.94100
H  1.81300 45.73600 23.56400
H  1.81800 46.58200 21.99600
H  6.24400 44.55900 25.59900
H  6.73800 42.84300 25.66400
H  6.89900 43.95300 27.11700
H  4.08800 43.50700 31.23000
H  5.81200 40.32300 33.36300
H  4.07500 39.87200 33.44700
H  4.89200 41.02800 34.55800

