158

Mg 44.32900 4.24800 47.16300
C  42.52000 7.37600 47.27200
C  41.48000 2.60200 46.87600
C  46.13300 1.58100 46.15500
C  47.20000 6.30100 46.84700
N  42.26400 4.95300 46.98500
C  41.73000 6.24200 47.25100
C  40.24200 6.13100 47.43800
C  39.91900 4.62100 47.29400
C  41.29500 4.00100 47.16400
C  39.08000 3.96900 48.41500
C  39.58100 6.95400 46.30100
C  40.20500 7.25600 44.89100
H  39.38900 6.99800 43.58500
N  43.83900 2.29100 46.67100
C  42.63000 1.82200 46.68900
C  42.64100 0.39500 46.31800
C  44.00200 0.08400 45.99700
C  44.72500 1.34800 46.26100
C  41.37900 -0.37600 46.15900
C  44.56400 -1.23000 45.41700
O  43.82000 -2.16700 45.12600
C  46.08500 -1.48100 45.16200
N  46.27600 3.99300 46.61800
C  46.84500 2.81100 46.31700
C  48.35400 2.81300 46.46900
C  48.72700 4.24500 46.83000
C  47.32300 4.90400 46.77500
C  49.04800 1.70400 47.45600
C  49.76000 4.93100 45.91100
C  51.07300 5.39700 46.56900
N  44.84500 6.45600 47.04400
C  46.03100 7.05000 46.98800
C  45.81300 8.44700 47.11100
C  44.42900 8.69900 47.29100
C  43.89600 7.40800 47.20400
C  46.92400 9.49900 47.19400
C  43.36300 9.63200 47.67000
O  43.28600 10.82500 47.89700
C  42.08300 8.78800 47.68500
C  41.61100 8.70400 49.13900
O  42.06100 7.96500 49.99400
O  40.51400 9.53500 49.25600
C  39.79400 9.41900 50.54100
H  40.56700 2.00200 46.87000
H  46.80300 0.77200 45.85600
H  48.09900 6.91800 46.91800
H  40.02900 6.53400 48.42900
H  39.28000 4.44300 46.42900
H  38.21500 4.62400 48.52200
H  39.73300 3.78900 49.26800
H  38.61300 3.03300 48.10900
H  39.28200 7.89600 46.76000
H  38.63400 6.46400 46.07400
H  41.10100 6.64400 44.79000
H  40.57700 8.27600 44.98600
H  41.27400 -1.19400 46.87200
H  41.60100 -0.93000 45.24600
H  40.45900 0.16100 45.93000
H  46.87000 -1.33700 45.90500
H  46.20600 -1.00300 44.19000
H  46.00900 -2.55200 44.97500
H  48.68300 2.72300 45.43300
H  49.02300 4.22800 47.87900
H  48.37700 0.93200 47.83400
H  49.46500 2.24600 48.30500
H  49.91900 1.24500 46.98700
H  49.38300 5.83600 45.43400
H  50.11900 4.21100 45.17500
H  51.90600 4.70100 46.47400
H  50.99600 5.72900 47.60400
H  51.43400 6.33600 46.15100
H  47.00100 9.66100 48.26900
H  46.60600 10.42100 46.70800
H  47.83100 9.12800 46.71600
H  41.25700 9.07100 47.03200
H  38.95300 10.10200 50.42300
H  40.24400 9.83900 51.44100
H  39.40800 8.43100 50.78900
Mg 34.80300 2.22400 29.94100
C  32.64900 3.31200 32.50300
C  37.45100 2.55900 32.03500
C  36.86800 1.66200 27.26900
C  32.20900 3.05800 27.64200
N  35.02400 3.01400 31.99700
C  33.99100 3.12000 32.89700
C  34.56000 3.15000 34.39800
C  36.11400 3.07500 34.21200
C  36.22300 2.92600 32.66400
C  36.93300 4.27700 34.75600
C  34.01100 1.92300 35.25700
C  33.83900 2.07300 36.72500
H  34.34600 3.33400 37.33000
N  36.85200 1.97600 29.69500
C  37.78100 2.17500 30.73800
C  39.07900 1.95800 30.17800
C  38.97500 1.65200 28.81200
C  37.51300 1.73200 28.54500
C  40.34300 2.10700 31.01200
C  40.03500 1.44000 27.81700
O  39.82500 1.12100 26.62700
C  41.46200 1.48300 28.29400
N  34.53300 2.23000 27.84500
C  35.57800 1.86900 26.94000
C  35.12900 1.85600 25.46200
C  33.55500 2.24000 25.64500
C  33.40000 2.50000 27.14900
C  35.88200 2.87300 24.57800
C  32.58700 1.09700 25.15000
C  32.61000 -0.17800 26.02400
N  32.76300 2.94900 29.99900
C  31.89200 3.22300 28.97800
C  30.55300 3.49300 29.50600
C  30.81100 3.47100 30.92000
C  32.15700 3.26300 31.16900
C  29.29800 3.67700 28.72700
C  30.23300 3.73100 32.25600
O  29.08100 4.03500 32.61500
C  31.30200 3.46900 33.32800
C  31.30500 4.66900 34.25000
O  31.81000 5.74500 34.03000
O  30.68600 4.29200 35.47500
C  30.46200 5.49300 36.32400
H  38.32400 2.66500 32.68300
H  37.46100 1.39500 26.39200
H  31.35900 3.08400 26.95700
H  34.28500 4.06600 34.92000
H  36.43400 2.11200 34.60800
H  36.30100 5.11200 35.05600
H  37.58900 4.59200 33.94500
H  37.60000 4.00700 35.57500
H  34.62800 1.03000 35.16100
H  33.05600 1.59100 34.85000
H  34.27300 1.18900 37.19200
H  32.75200 2.03000 36.77900
H  40.82900 3.00200 30.62400
H  40.95200 1.22400 30.82000
H  40.12000 2.27700 32.06600
H  41.70500 2.41900 28.79700
H  42.06100 1.43000 27.38500
H  41.60000 0.66100 28.99600
H  35.32900 0.82100 25.18500
H  33.18200 3.11000 25.10500
H  35.14800 3.24500 23.86300
H  36.61700 2.55300 23.84000
H  36.23300 3.69900 25.19700
H  32.70600 0.79900 24.10900
H  31.57700 1.44400 25.37200
H  31.58600 -0.54100 26.11400
H  32.95800 0.00100 27.04100
H  33.25000 -0.94300 25.58500
H  29.41100 2.80300 28.08500
H  29.16700 4.55600 28.09700
H  28.43000 3.48000 29.35700
H  31.01000 2.56900 33.86900
H  29.64300 6.04600 35.86500
H  31.42100 6.00000 36.43700
H  30.15500 5.17400 37.32000

