158

Mg -1.09700 18.05600 27.02300
C  -1.99100 16.04900 29.72000
C  -1.99800 20.80800 29.00400
C  -0.92100 20.05500 24.27200
C  -1.18400 15.28000 24.89900
N  -1.90100 18.29400 29.08000
C  -2.13200 17.39600 30.01400
C  -2.34900 17.92500 31.44100
C  -2.57500 19.44200 31.08600
C  -2.06200 19.53500 29.64100
C  -4.04100 19.99800 31.12800
C  -1.20900 17.67000 32.47800
C  -1.71800 16.98300 33.74900
H  -0.67300 16.86700 34.92200
N  -1.38100 20.18400 26.69700
C  -1.71300 21.10300 27.64300
C  -1.65800 22.43600 27.03700
C  -1.33700 22.26800 25.61200
C  -1.18300 20.80200 25.44100
C  -2.05300 23.76200 27.86100
C  -1.24700 23.36400 24.52600
O  -0.88200 23.09400 23.37600
C  -1.42000 24.83900 24.82800
N  -1.26300 17.72400 24.89000
C  -0.90700 18.66300 23.96300
C  -0.62300 18.14300 22.59400
C  -0.56000 16.57900 22.83100
C  -1.09400 16.49300 24.26900
C  -1.57100 18.68600 21.50800
C  0.81600 16.03400 22.65500
C  1.95300 16.46300 23.61700
N  -1.36700 16.02300 27.17700
C  -1.35300 15.03500 26.27500
C  -1.57100 13.74700 27.05600
C  -1.80100 14.15000 28.32000
C  -1.65100 15.47200 28.40800
C  -1.87900 12.44700 26.46900
C  -2.14900 13.58100 29.67200
O  -2.42600 12.44900 29.98300
C  -2.19700 14.81800 30.65400
C  -1.07900 14.54600 31.52400
O  0.06400 14.94000 31.28200
O  -1.44600 13.67200 32.54700
C  -0.41500 13.38100 33.55000
H  -2.15000 21.67400 29.65000
H  -0.67100 20.68300 23.41500
H  -0.92100 14.38600 24.33100
H  -3.26700 17.50800 31.85600
H  -1.98000 20.02800 31.78700
H  -4.06700 20.62000 32.02300
H  -4.67200 19.12600 31.30200
H  -4.33900 20.54600 30.23500
H  -0.77100 18.59700 32.84900
H  -0.41200 17.04800 32.07100
H  -2.13800 16.00500 33.51200
H  -2.57700 17.56500 34.08300
H  -1.33100 24.26300 28.50600
H  -2.93500 23.53100 28.45800
H  -2.31900 24.63200 27.26000
H  -2.50100 24.98000 24.83900
H  -0.96700 25.45500 24.05200
H  -0.82800 25.08400 25.71000
H  0.36500 18.53000 22.34300
H  -1.27000 15.99000 22.25100
H  -1.07200 19.22900 20.70600
H  -2.28800 19.38100 21.94500
H  -2.07500 17.81100 21.09800
H  1.01600 16.25200 21.60600
H  0.71600 14.95200 22.75000
H  2.42300 15.57900 24.04900
H  1.47000 17.07900 24.37600
H  2.78100 17.03200 23.19400
H  -1.87000 12.42100 25.37900
H  -2.92800 12.24700 26.68600
H  -1.32600 11.68200 27.01400
H  -3.13800 14.77000 31.20300
H  -0.65200 12.34100 33.77700
H  -0.63500 14.05400 34.37800
H  0.62500 13.46100 33.23500
Mg 10.07500 47.83200 26.40600
C  7.95500 48.05600 29.21400
C  12.57700 49.27100 28.25300
C  11.89100 47.50200 23.76900
C  7.09800 47.00000 24.53000
N  10.29900 48.47600 28.47100
C  9.30400 48.41000 29.50000
C  9.86100 48.91600 30.86700
C  11.12600 49.66400 30.38500
C  11.38100 49.12100 28.93700
C  11.13600 51.18800 30.58600
C  10.09200 47.83400 31.87900
C  9.44400 48.05300 33.25700
H  9.46300 46.94100 34.35900
N  11.99200 48.24700 26.07800
C  12.89300 48.83300 26.90800
C  14.22700 48.88100 26.32500
C  14.10600 48.32300 25.07800
C  12.59800 47.99500 24.90000
C  15.46000 49.43300 27.14600
C  15.11800 48.13300 23.92900
O  14.84600 47.45400 22.95400
C  16.50000 48.80200 23.89200
N  9.53700 47.35900 24.34100
C  10.54500 47.27600 23.44500
C  10.04300 47.01200 21.99000
C  8.50200 46.65200 22.28600
C  8.30000 47.00100 23.75800
C  10.20400 48.23200 21.06500
C  8.13800 45.18700 21.98000
C  8.69300 44.12100 22.95200
N  8.01200 47.62500 26.75800
C  6.93100 47.31500 25.94900
C  5.65100 47.30300 26.68000
C  6.05500 47.49900 27.98200
C  7.45800 47.71100 27.96200
C  4.20800 47.13200 26.19400
C  5.55300 47.69900 29.29100
O  4.40600 47.86300 29.67800
C  6.85200 47.89400 30.14000
C  6.96800 46.58100 30.93700
O  7.42800 45.52500 30.44800
O  6.45100 46.68800 32.20600
C  6.00100 45.48200 32.86400
H  13.27400 49.78200 28.92000
H  12.48000 47.29100 22.87500
H  6.15400 46.69300 24.07600
H  9.08800 49.64900 31.09700
H  11.97900 49.38800 31.00600
H  10.12000 51.58200 30.56100
H  11.86600 51.70900 29.96600
H  11.46500 51.46000 31.58900
H  11.16500 47.75300 32.05500
H  9.82300 46.86800 31.45100
H  8.46900 48.53900 33.27500
H  10.10600 48.80100 33.69400
H  15.23400 49.39200 28.21200
H  15.54000 50.48600 26.87800
H  16.30000 48.80200 26.85500
H  16.33700 49.87900 23.90900
H  17.06500 48.46300 23.02400
H  17.08200 48.58900 24.78900
H  10.58500 46.14600 21.61000
H  7.83900 47.25000 21.66000
H  9.26100 48.49900 20.58900
H  11.03100 48.10800 20.36600
H  10.34200 49.03100 21.79400
H  8.59500 45.06500 20.99800
H  7.06700 45.03700 21.83900
H  9.26500 44.52800 23.78600
H  9.39600 43.46900 22.43400
H  7.91800 43.46400 23.34600
H  3.81400 46.42300 26.92300
H  4.12200 46.81900 25.15400
H  3.70300 48.07800 26.38600
H  6.60300 48.66000 30.87500
H  6.25600 45.36100 33.91700
H  6.29200 44.60600 32.28300
H  4.91800 45.40900 32.77200

