158

Mg 47.47200 24.88700 27.85100
C  47.89100 27.31400 30.34900
C  46.87100 22.59100 30.29200
C  46.81700 22.74300 25.43200
C  48.11500 27.54500 25.44400
N  47.13000 25.02200 30.02500
C  47.40900 26.08600 30.81600
C  47.07600 25.74800 32.30200
C  46.88000 24.17900 32.28000
C  47.03900 23.87100 30.71900
C  47.83100 23.20900 33.11200
C  45.95400 26.67600 32.92400
C  45.28500 26.26200 34.18500
H  45.39900 27.18300 35.40100
N  46.97400 22.87500 27.88400
C  46.83200 22.11600 28.99300
C  46.49000 20.72400 28.48400
C  46.36100 20.76000 27.03500
C  46.66500 22.17600 26.70400
C  46.09300 19.54800 29.41800
C  45.90500 19.61800 26.09700
O  45.95100 19.77200 24.89200
C  45.63800 18.13300 26.65800
N  47.44600 25.09200 25.74900
C  47.20200 24.00900 24.98300
C  47.32700 24.42100 23.45100
C  47.55200 25.99500 23.49600
C  47.69900 26.27000 24.99500
C  48.43200 23.66400 22.70400
C  46.40800 26.87700 22.89100
C  46.20200 26.61300 21.42200
N  48.07100 26.93900 27.86900
C  48.37700 27.83600 26.80100
C  48.57900 29.18600 27.36400
C  48.49900 28.96800 28.80300
C  48.18100 27.62100 29.00500
C  48.92800 30.41400 26.51000
C  48.51400 29.63700 30.05300
O  48.82600 30.79100 30.32600
C  48.08300 28.65300 31.14300
C  48.94700 28.62500 32.33100
O  50.06900 28.17100 32.38100
O  48.24800 29.16700 33.36100
C  48.96900 29.03900 34.63100
H  46.67800 21.81300 31.03300
H  46.47000 21.99000 24.72100
H  48.17700 28.34200 24.70000
H  47.95800 25.85700 32.93500
H  45.83300 23.91800 32.43200
H  48.40500 22.55100 32.45900
H  47.14500 22.67100 33.76600
H  48.39800 23.83200 33.80400
H  45.10700 26.80800 32.25100
H  46.46600 27.60000 33.19200
H  45.69500 25.26700 34.35500
H  44.22900 26.15800 33.93900
H  46.84500 18.76200 29.34900
H  45.11100 19.14900 29.16700
H  46.06300 19.80400 30.47700
H  44.57500 18.12800 26.90000
H  46.31600 17.85000 27.46300
H  45.89400 17.54800 25.77400
H  46.40100 24.27200 22.89600
H  48.47500 26.36500 23.04900
H  49.10800 24.37000 22.22000
H  48.01700 23.09500 21.87200
H  49.02000 23.02900 23.36700
H  46.65000 27.91600 23.11600
H  45.38400 26.79700 23.25500
H  45.37800 25.93400 21.20700
H  47.14500 26.22500 21.03600
H  45.99100 27.55500 20.91500
H  47.99300 30.95100 26.34400
H  49.17700 30.19800 25.47100
H  49.59200 31.06500 27.07900
H  47.15200 29.09300 31.50200
H  48.41200 29.74200 35.25100
H  49.89100 29.61400 34.53500
H  49.04700 28.09500 35.17000
Mg -11.12000 17.14700 41.04600
C  -7.65800 16.69000 40.71800
C  -10.57300 20.46800 39.94900
C  -14.37600 17.63200 40.49700
C  -11.46800 13.68500 41.09400
N  -9.26800 18.38500 40.40000
C  -7.99900 17.99200 40.45800
C  -6.97400 19.14600 40.28700
C  -7.99700 20.40000 40.45500
C  -9.35900 19.76500 40.20100
C  -7.89800 21.23800 41.73200
C  -6.37000 19.22400 38.90400
C  -4.88600 18.89000 38.83200
H  -4.37300 18.06800 37.71300
N  -12.32200 18.86900 40.53600
C  -11.90200 20.03800 39.95200
C  -13.00800 20.84700 39.56400
C  -14.16700 20.14200 40.03600
C  -13.66600 18.80300 40.42300
C  -13.00700 22.28600 39.05000
C  -15.63300 20.60700 39.81200
O  -15.93600 21.66900 39.23400
C  -16.77200 19.81200 40.26400
N  -12.64600 15.78500 40.77000
C  -13.93100 16.29700 40.73300
C  -14.97700 15.18400 40.65700
C  -14.01200 13.85600 40.82600
C  -12.64200 14.43300 40.93400
C  -16.05400 15.31400 41.73800
C  -14.05500 12.74300 39.64200
C  -14.72200 11.41700 39.98800
N  -9.89500 15.39800 41.03200
C  -10.17800 14.08300 41.24300
C  -8.90200 13.38900 41.39800
C  -7.83900 14.31200 41.19500
C  -8.54800 15.60200 40.94300
C  -8.67400 11.97700 41.72100
C  -6.41500 14.54600 41.15400
O  -5.50300 13.74300 41.29100
C  -6.26900 16.09000 40.94800
C  -5.52600 16.54400 42.03500
O  -4.42900 17.13600 41.91000
O  -6.14000 16.39900 43.21000
C  -5.46200 16.88600 44.40900
H  -10.40900 21.52900 39.75200
H  -15.41400 17.67500 40.16000
H  -11.56400 12.60100 41.18500
H  -6.32200 19.09800 41.15800
H  -7.75800 21.08600 39.64300
H  -7.08700 20.87200 42.36200
H  -8.83800 21.11500 42.27100
H  -7.82000 22.29200 41.46800
H  -6.51500 20.17200 38.38700
H  -6.89800 18.48600 38.30000
H  -4.63200 18.49700 39.81600
H  -4.31700 19.81400 38.72800
H  -13.83800 22.26800 38.34600
H  -12.03700 22.37300 38.56000
H  -13.23100 22.97600 39.86300
H  -17.09500 19.11900 39.48700
H  -17.57500 20.52400 40.45300
H  -16.65000 19.29600 41.21600
H  -15.44700 15.12700 39.67500
H  -14.34400 13.28200 41.69100
H  -16.91000 15.31100 41.06200
H  -16.12100 16.23500 42.31700
H  -16.29100 14.55100 42.48000
H  -13.09300 12.47600 39.20500
H  -14.66600 13.19500 38.86000
H  -15.56600 11.37500 39.29900
H  -15.10400 11.34100 41.00600
H  -14.13400 10.54900 39.69300
H  -8.62000 11.79100 42.79400
H  -7.80600 11.53800 41.22900
H  -9.59400 11.46100 41.44500
H  -5.61500 16.34300 40.11300
H  -5.90600 17.84400 44.68000
H  -4.38200 17.03200 44.38300
H  -5.68300 16.16000 45.19100

