158

Mg -0.03400 7.47300 25.83700
C  1.12200 9.37700 28.64600
C  -0.20000 4.82500 27.91600
C  -0.95700 5.65700 23.17300
C  0.20500 10.27000 23.91800
N  0.65700 7.07100 27.94400
C  0.98400 8.01000 28.91400
C  0.82700 7.43200 30.32300
C  0.69300 5.89200 30.08900
C  0.38100 5.87300 28.55000
C  1.85700 4.91800 30.35900
C  -0.45200 8.04100 30.99300
C  -0.54700 8.09200 32.55500
H  0.65800 7.96800 33.37900
N  -0.42000 5.50100 25.61000
C  -0.45400 4.55800 26.52100
C  -0.85200 3.28500 25.89100
C  -1.11900 3.56400 24.53900
C  -0.88200 4.96000 24.38400
C  -0.74400 1.94000 26.53700
C  -1.43100 2.61500 23.34600
O  -1.79300 3.00600 22.23400
C  -1.61100 1.11600 23.62600
N  -0.26800 7.93100 23.82500
C  -0.66300 7.03900 22.97000
C  -0.83800 7.55300 21.57100
C  -0.48100 9.07700 21.74300
C  -0.12800 9.14600 23.16900
C  -0.09200 6.73300 20.50500
C  -1.57300 10.04800 21.34000
C  -2.82100 10.03900 22.11600
N  0.50600 9.43100 26.15800
C  0.60200 10.47700 25.24900
C  1.02100 11.69600 25.86400
C  1.16400 11.37500 27.20600
C  0.93600 9.90400 27.33900
C  1.28600 13.03600 25.13200
C  1.52900 11.89800 28.54700
O  1.83700 12.96900 29.03100
C  1.29900 10.61000 29.58100
C  2.42000 10.62600 30.47100
O  3.51900 10.10300 30.27100
O  2.02700 11.38100 31.56200
C  2.96300 11.63600 32.66100
H  -0.44700 3.90600 28.45200
H  -1.49000 5.23300 22.31900
H  0.15200 11.12200 23.23700
H  1.63700 7.71800 30.99400
H  -0.16400 5.48700 30.62600
H  2.41600 4.72000 29.44500
H  1.51000 3.97600 30.78500
H  2.46700 5.40200 31.12200
H  -1.27700 7.47000 30.56600
H  -0.60200 9.03800 30.57900
H  -1.31300 7.41900 32.93900
H  -0.87100 9.12900 32.65300
H  0.06100 1.37800 26.06200
H  -1.69100 1.40200 26.48800
H  -0.59800 2.02500 27.61400
H  -2.18200 1.05600 24.55300
H  -0.68600 0.55200 23.73900
H  -2.17000 0.72200 22.77700
H  -1.90200 7.46000 21.34800
H  0.48700 9.27400 21.28300
H  0.75300 6.26400 21.01000
H  0.39400 7.30400 19.71300
H  -0.81600 6.07200 20.02800
H  -1.91500 9.92200 20.31200
H  -1.19900 11.07100 21.29900
H  -3.77500 10.04000 21.59000
H  -2.80400 10.88700 22.80100
H  -2.86600 9.18000 22.78500
H  1.22700 12.79400 24.07100
H  2.31200 13.34100 25.33900
H  0.62500 13.84400 25.44500
H  0.42600 10.93500 30.14500
H  3.31100 12.66500 32.57000
H  3.73300 10.86600 32.68900
H  2.41500 11.63800 33.60400
Mg 42.40400 42.19100 26.93900
C  41.55000 44.54200 29.53600
C  43.59100 40.04500 29.53000
C  43.81000 40.27800 24.69200
C  41.58200 44.63000 24.65400
N  42.55900 42.28500 29.36500
C  42.03800 43.29000 30.12100
C  42.00800 42.86700 31.64700
C  42.82600 41.51700 31.55300
C  42.98200 41.21800 30.06700
C  44.30300 41.38900 32.14000
C  40.58100 42.78300 32.13900
C  40.20200 43.33500 33.52600
H  41.23300 43.58600 34.59900
N  43.43300 40.31900 27.03600
C  43.75700 39.59600 28.17800
C  44.36000 38.33500 27.83200
C  44.30200 38.30800 26.40700
C  43.83600 39.66800 25.98300
C  44.96500 37.40700 28.82300
C  44.62900 37.25600 25.45300
O  44.37500 37.36600 24.23100
C  44.95900 35.85000 26.01300
N  42.64500 42.34900 25.01700
C  43.25800 41.44700 24.24200
C  43.18700 41.82500 22.75800
C  42.36000 43.12300 22.73400
C  42.19500 43.42800 24.20900
C  44.60500 41.94400 22.12900
C  41.08400 43.09900 21.90300
C  39.80100 42.57300 22.52100
N  41.84400 44.21100 26.96700
C  41.48900 45.08300 25.96400
C  41.02000 46.33300 26.50800
C  41.00100 46.14200 27.92200
C  41.55800 44.89700 28.16900
C  40.55500 47.61800 25.67500
C  40.55600 46.78800 29.20000
O  39.95000 47.86300 29.39000
C  40.98400 45.72200 30.30900
C  42.00400 46.41000 31.13300
O  43.15900 46.69800 30.75300
O  41.52800 46.52000 32.40900
C  42.37100 47.26300 33.31800
H  43.74500 39.31600 30.32900
H  44.26100 39.67600 23.90100
H  41.21800 45.30100 23.87400
H  42.59100 43.61700 32.18200
H  42.28100 40.64000 31.90400
H  44.44600 42.11400 32.94100
H  45.10900 41.56700 31.43000
H  44.47800 40.37900 32.51100
H  40.24800 41.74700 32.20000
H  40.01800 43.24600 31.32800
H  39.46200 42.64200 33.92600
H  39.69200 44.28500 33.36500
H  45.22300 37.71900 29.83500
H  45.83200 37.03500 28.27600
H  44.23300 36.64600 29.09100
H  44.71500 35.20500 25.16900
H  44.33700 35.47300 26.82500
H  46.00400 35.75100 26.30600
H  42.66000 41.00100 22.27900
H  42.92000 44.00700 22.42900
H  44.60300 41.48900 21.13800
H  45.37500 41.44400 22.71500
H  44.87900 42.99100 21.99900
H  41.37500 42.43900 21.08600
H  40.89200 44.09100 21.49600
H  39.10500 42.32000 21.72000
H  39.27200 43.35100 23.07000
H  40.03200 41.74700 23.19300
H  39.63800 48.03100 26.09600
H  40.48600 47.37800 24.61400
H  41.39600 48.27900 25.88200
H  40.09400 45.57500 30.92000
H  41.70600 47.89300 33.90900
H  42.96000 48.08800 32.91600
H  42.95800 46.59700 33.94900

