158

Mg 24.14600 -4.64300 45.99700
C  26.10700 -2.18400 44.64500
C  21.58500 -3.78200 43.95700
C  22.58500 -7.48600 46.85300
C  27.19600 -5.94500 47.57200
N  23.92700 -3.17700 44.62400
C  24.85300 -2.33300 44.12600
C  24.18400 -1.36200 43.11400
C  22.63800 -1.60700 43.20300
C  22.72800 -2.96000 43.91500
C  21.79200 -0.49100 43.88600
C  24.78600 -1.67600 41.70600
C  25.32100 -0.55400 40.82100
H  25.08700 -0.76200 39.32900
N  22.26200 -5.47300 45.53300
C  21.33100 -4.91900 44.66600
C  20.23800 -5.79200 44.50900
C  20.38800 -6.89900 45.41700
C  21.80800 -6.73100 45.95100
C  19.07800 -5.48500 43.64200
C  19.38600 -8.04600 45.74400
O  18.37000 -8.18900 45.10300
C  19.67700 -9.04800 46.76600
N  24.89500 -6.52200 46.94500
C  23.92500 -7.34200 47.41000
C  24.51900 -8.52100 48.21700
C  26.01800 -8.07500 48.38000
C  26.08400 -6.71500 47.62900
C  23.77000 -8.81500 49.54300
C  27.14100 -9.08000 47.81900
C  28.49100 -9.18300 48.64400
N  26.25900 -4.16200 46.20400
C  27.28900 -4.72400 46.88600
C  28.42400 -3.87600 46.73300
C  28.03800 -2.91700 45.83600
C  26.70000 -3.06800 45.55500
C  29.73400 -4.24700 47.31800
C  28.55500 -1.86600 44.92800
O  29.63700 -1.39900 44.79600
C  27.25500 -1.34300 44.16300
C  27.17000 0.17500 44.55600
O  26.47100 0.71400 45.43800
O  28.16600 0.82700 43.87200
C  28.39200 2.22700 44.15600
H  20.79400 -3.43700 43.28800
H  22.24200 -8.51800 46.95500
H  28.10600 -6.19700 48.12000
H  24.26000 -0.30000 43.34900
H  22.16400 -1.77700 42.23600
H  20.88700 -0.22000 43.34200
H  22.35100 0.43200 44.04000
H  21.62100 -0.88700 44.88600
H  23.96000 -2.21200 41.24100
H  25.57800 -2.42400 41.74000
H  26.36500 -0.52200 41.13300
H  24.68200 0.28200 41.10600
H  18.71200 -6.43200 43.24600
H  19.46700 -4.98200 42.75700
H  18.38400 -4.75700 44.06100
H  20.27900 -9.81800 46.28300
H  18.72100 -9.51900 46.99400
H  20.07000 -8.60100 47.67900
H  24.45100 -9.44900 47.64900
H  26.33500 -7.66900 49.34000
H  24.01700 -9.72400 50.09200
H  22.72400 -8.61300 49.31300
H  24.21100 -8.04400 50.17500
H  27.24600 -8.73100 46.79200
H  26.72700 -10.06700 47.61300
H  28.56700 -10.25100 48.84900
H  28.51200 -8.55800 49.53600
H  29.36900 -8.88400 48.07200
H  29.71500 -4.06700 48.39200
H  30.43800 -3.65400 46.73400
H  30.05200 -5.28000 47.17300
H  27.48900 -1.32000 43.09900
H  29.46000 2.28100 44.36700
H  27.79800 2.62900 44.97600
H  28.26000 2.68500 43.17500
Mg 10.43300 47.42200 26.29100
C  8.63700 47.62200 29.19100
C  13.11800 49.03300 27.96200
C  12.19700 47.34300 23.51400
C  7.48300 46.89000 24.43600
N  10.77000 48.27700 28.32800
C  9.89800 48.14500 29.34100
C  10.42200 48.80700 30.66500
C  11.73300 49.56800 30.19400
C  11.91200 48.95400 28.75900
C  11.54800 51.06600 30.01500
C  10.63000 47.70500 31.81100
C  10.12800 47.95100 33.21800
H  9.79700 46.77100 34.08000
N  12.40300 47.91600 25.85100
C  13.35800 48.57400 26.62900
C  14.60700 48.54900 25.83800
C  14.44000 47.90900 24.60900
C  12.96200 47.77600 24.57600
C  15.80500 49.16100 26.42100
C  15.42800 47.51700 23.50300
O  15.16500 47.15500 22.32100
C  16.86800 47.51400 23.97400
N  9.90900 47.31800 24.20200
C  10.80100 47.10300 23.26600
C  10.31100 46.74600 21.86900
C  8.79600 46.58500 22.21100
C  8.68500 46.89700 23.73200
C  10.54300 47.73000 20.66000
C  8.19900 45.21900 21.93300
C  8.84200 44.02200 22.64400
N  8.45600 47.18300 26.69700
C  7.36300 46.97600 25.87500
C  6.18600 46.99300 26.74400
C  6.55400 47.25400 28.03000
C  7.97700 47.26700 27.92000
C  4.83400 46.91500 26.12900
C  6.11800 47.48800 29.38900
O  5.03900 47.54800 29.92200
C  7.50000 47.60400 30.19600
C  7.56600 46.38400 30.96900
O  8.16800 45.35600 30.64000
O  6.83800 46.62800 32.10400
C  6.56100 45.38300 32.88500
H  13.99500 49.54800 28.36100
H  12.76900 47.02500 22.64100
H  6.62500 46.57200 23.84000
H  9.64100 49.44500 31.07800
H  12.55200 49.32500 30.87200
H  10.51300 51.31200 30.25200
H  11.59800 51.41600 28.98400
H  12.26100 51.55600 30.67800
H  11.69800 47.52300 31.92400
H  10.23200 46.78200 31.39000
H  9.28200 48.63900 33.23000
H  10.91500 48.54900 33.67600
H  16.58200 48.40000 26.49300
H  15.78900 49.47300 27.46500
H  16.16500 50.03100 25.87200
H  16.87100 46.90100 24.87500
H  17.20700 48.48100 24.34400
H  17.53200 47.12000 23.20400
H  10.65700 45.74600 21.60600
H  8.14600 47.21400 21.60300
H  11.16300 47.19900 19.93800
H  11.08400 48.63300 20.94300
H  9.57400 47.92900 20.20200
H  8.14000 45.09000 20.85200
H  7.16600 45.18500 22.27900
H  9.70100 44.23800 23.27900
H  9.20200 43.45700 21.78400
H  8.08100 43.40100 23.11800
H  4.68600 45.87900 25.82500
H  4.60700 47.68700 25.39300
H  4.17400 47.17100 26.95800
H  7.38600 48.44100 30.88600
H  6.83100 45.52300 33.93200
H  7.03900 44.44700 32.59500
H  5.51300 45.13500 32.71700

