158

Mg 8.70300 3.22200 28.29300
C  10.28000 1.86200 31.16700
C  6.60000 4.91700 30.29600
C  7.44300 4.45400 25.48000
C  10.35600 0.74800 26.48400
N  8.43600 3.30900 30.47200
C  9.21900 2.77000 31.43900
C  8.74800 3.21200 32.81500
C  7.44000 3.98900 32.58800
C  7.44700 4.07800 31.02200
C  6.21600 3.35000 33.19200
C  9.90600 4.08900 33.50500
C  9.46000 4.90400 34.71800
H  10.18800 4.61800 35.97400
N  7.34800 4.68700 27.90900
C  6.59000 5.28100 28.85300
C  5.62900 6.15200 28.18900
C  5.99900 6.19700 26.82500
C  6.99900 5.10900 26.65900
C  4.59500 6.93400 28.92600
C  5.48200 7.02100 25.68900
O  5.85200 6.98000 24.53800
C  4.44000 8.05900 26.05700
N  8.97100 2.80700 26.23000
C  8.32600 3.39500 25.23500
C  8.51400 2.61100 23.92600
C  9.73800 1.65700 24.28300
C  9.74700 1.76400 25.79000
C  7.25500 1.84600 23.45500
C  11.04600 2.15000 23.53100
C  11.88400 3.14100 24.35300
N  10.07800 1.65900 28.69800
C  10.63500 0.69900 27.85800
C  11.57400 -0.08600 28.56500
C  11.50000 0.35300 29.85400
C  10.54900 1.40800 29.87600
C  12.36200 -1.22700 27.93700
C  11.94800 0.11900 31.18800
O  12.78100 -0.64300 31.66700
C  11.13500 1.13600 32.04500
C  10.46000 0.32700 33.10500
O  9.63000 -0.52400 32.83000
O  10.95700 0.55400 34.37300
C  10.12600 0.07000 35.48600
H  5.83900 5.38400 30.92500
H  7.07200 4.99500 24.60700
H  10.87300 0.05800 25.81400
H  8.51400 2.34500 33.43200
H  7.48500 4.97800 33.04500
H  6.36400 2.27400 33.28300
H  5.49000 3.44700 32.38500
H  5.87000 3.91900 34.05400
H  10.26800 4.72400 32.69600
H  10.75100 3.44600 33.75000
H  8.40200 4.74100 34.92500
H  9.65800 5.94100 34.44600
H  4.71000 8.01300 29.02900
H  4.35700 6.38600 29.83700
H  3.77000 6.76700 28.23300
H  3.49100 7.52400 26.05700
H  4.45900 8.88100 25.34100
H  4.87400 8.47500 26.96600
H  8.83500 3.31500 23.15800
H  9.48000 0.63700 23.99700
H  6.44900 2.02400 24.16700
H  7.33600 0.77600 23.26300
H  6.91500 2.31600 22.53300
H  10.93400 2.55600 22.52600
H  11.67200 1.25800 23.52000
H  11.59200 3.49600 25.34200
H  12.05700 4.10600 23.87700
H  12.91600 2.81100 24.47300
H  12.38000 -1.13900 26.85100
H  11.91300 -2.17500 28.23100
H  13.38100 -1.01700 28.26300
H  11.94300 1.77300 32.40400
H  9.05600 0.19600 35.32000
H  10.33300 0.53800 36.44800
H  10.25500 -1.01100 35.52700
Mg 40.55000 8.83500 29.77700
C  42.25000 10.34700 32.57600
C  38.23700 7.67500 32.10900
C  38.90000 7.55800 27.23300
C  43.05400 9.96400 27.78100
N  40.38100 8.92500 32.14100
C  41.10900 9.61900 33.00800
C  40.53900 9.50800 34.40900
C  39.21900 8.66300 34.26700
C  39.26400 8.40700 32.72500
C  39.29600 7.46800 35.22800
C  40.36200 10.89200 35.15400
C  39.37400 10.82400 36.38600
H  39.60900 11.84800 37.57800
N  38.80600 7.79200 29.76000
C  37.96200 7.41300 30.73700
C  36.88000 6.74800 30.12700
C  36.98700 6.72000 28.68800
C  38.27000 7.32000 28.50000
C  35.82200 6.07300 31.08000
C  36.04000 6.29100 27.55700
O  36.31400 6.38500 26.38100
C  34.73100 5.82400 27.99700
N  41.04800 8.58600 27.92500
C  40.17800 8.02800 26.98700
C  40.82700 7.95000 25.62300
C  42.12100 8.69600 25.77400
C  42.09400 9.16800 27.28600
C  40.89300 6.58800 24.92400
C  42.34400 9.82000 24.60900
C  41.58100 11.04900 24.85300
N  42.28200 9.91300 30.03100
C  43.13200 10.37300 29.13500
C  44.14800 11.24200 29.73300
C  43.79200 11.29100 31.10100
C  42.70300 10.47800 31.22400
C  45.26600 11.83700 29.03100
C  44.21200 11.72400 32.37800
O  45.19200 12.39500 32.69400
C  43.11100 11.15700 33.33900
C  43.76100 10.50400 34.55200
O  44.33300 9.42900 34.54900
O  43.71600 11.40000 35.59700
C  44.33100 10.86900 36.75600
H  37.47400 7.30000 32.79300
H  38.47600 7.06300 26.35600
H  43.87700 10.09900 27.07500
H  41.26300 8.86500 34.91000
H  38.34600 9.22300 34.60500
H  39.99500 7.57500 36.05700
H  39.65900 6.57400 34.71900
H  38.34500 7.31600 35.73700
H  40.11400 11.76500 34.55100
H  41.32400 11.14500 35.59900
H  39.29700 9.81800 36.80000
H  38.47700 11.13000 35.84800
H  35.37900 5.18000 30.63800
H  35.00400 6.77100 31.25700
H  36.30200 5.65400 31.96400
H  34.69900 4.85600 28.49700
H  34.06700 5.87200 27.13400
H  34.35600 6.57300 28.69400
H  40.28000 8.59300 24.93400
H  43.00700 8.06300 25.72300
H  40.11000 6.45500 24.17800
H  40.75500 5.76900 25.63100
H  41.83500 6.33600 24.43800
H  41.92100 9.53500 23.64500
H  43.39800 10.00600 24.40400
H  41.01800 11.55100 24.06600
H  42.24100 11.83100 25.22800
H  40.74100 10.80600 25.50300
H  45.14700 11.80000 27.94800
H  46.11300 11.16700 29.17800
H  45.44800 12.79500 29.51800
H  42.58000 12.03500 33.70600
H  44.61400 9.81700 36.72200
H  43.65300 10.95400 37.60500
H  45.16900 11.48000 37.09100

