158

Mg 48.90000 45.14800 42.91600
C  45.45200 45.49000 41.91400
C  48.62300 41.82800 42.07600
C  52.12000 45.11400 42.81900
C  48.71300 48.59200 43.56500
N  47.31300 43.95500 41.83300
C  46.00900 44.25400 41.62500
C  45.20900 43.07500 41.21000
C  46.06300 41.95800 41.83400
C  47.43900 42.58100 41.93300
C  45.51000 41.41000 43.13100
C  44.93500 42.95300 39.68400
C  45.60500 43.97800 38.74600
H  45.21300 43.91400 37.29800
N  50.24600 43.59900 42.58700
C  49.94200 42.29500 42.29000
C  51.11800 41.56000 42.53900
C  52.16900 42.46100 42.63700
C  51.55700 43.79400 42.67000
C  51.22900 40.06900 42.45200
C  53.63500 42.03000 42.85400
O  54.01300 40.90200 42.65600
C  54.71200 43.07200 43.22400
N  50.21500 46.68100 42.95600
C  51.56000 46.39200 43.04800
C  52.36900 47.77000 43.22800
C  51.23600 48.73200 43.63900
C  49.96500 47.96900 43.41500
C  53.45200 47.59000 44.31600
C  51.22800 50.18400 42.99400
C  51.45700 51.30800 43.92100
N  47.35700 46.71300 42.98200
C  47.51300 48.08100 43.25000
C  46.19500 48.72800 43.15600
C  45.40300 47.73500 42.61100
C  46.11900 46.55300 42.49400
C  45.92400 50.22400 43.21800
C  44.06500 47.49500 42.07700
O  43.13700 48.25200 41.93500
C  44.11800 46.03800 41.51800
C  42.94100 45.33400 42.12600
O  42.13000 44.78100 41.38300
O  42.74400 45.50300 43.46300
C  41.46300 44.88700 43.88500
H  48.41500 40.76300 41.95400
H  53.20600 45.21800 42.87500
H  48.66600 49.59900 43.98400
H  44.22700 43.01200 41.68000
H  46.13300 41.09800 41.16800
H  45.22900 40.36700 42.98700
H  44.66200 41.93900 43.56700
H  46.29300 41.47600 43.88700
H  43.87900 43.17500 39.53400
H  45.14000 41.92900 39.37000
H  46.69400 44.01600 38.74800
H  45.33100 44.95600 39.14200
H  51.80100 39.81300 41.56000
H  50.26900 39.60000 42.23700
H  51.68200 39.77200 43.39900
H  55.58500 42.49900 43.53700
H  54.17300 43.60700 44.00600
H  54.94700 43.73200 42.38900
H  52.68500 47.99700 42.21000
H  51.30400 48.88500 44.71600
H  53.73400 48.51200 44.82500
H  54.40300 47.26300 43.89500
H  53.15600 46.81400 45.02100
H  50.21700 50.26700 42.59700
H  51.81900 50.17700 42.07900
H  51.70700 52.19500 43.34000
H  52.28200 51.08000 44.59700
H  50.63700 51.54500 44.59800
H  46.54900 50.85500 42.58500
H  45.91800 50.53800 44.26200
H  44.90300 50.40900 42.88400
H  43.98400 45.96200 40.43900
H  40.66800 45.20600 43.21100
H  41.17300 45.22600 44.87900
H  41.63500 43.81100 43.90300
Mg 9.82500 47.52500 25.67800
C  7.97900 47.91700 28.58700
C  12.63200 48.56800 27.21000
C  11.44400 47.48900 22.65900
C  6.87200 46.95000 23.93200
N  10.25600 48.12800 27.69800
C  9.33000 48.29500 28.73600
C  10.07900 48.76700 29.93300
C  11.41100 49.29200 29.37100
C  11.44900 48.68300 27.95900
C  11.46300 50.84300 29.33400
C  10.32900 47.64700 31.04400
C  9.72500 48.11500 32.43800
H  9.57500 47.09100 33.55500
N  11.74500 47.84800 25.09900
C  12.84800 48.20800 25.87200
C  14.14800 48.07600 25.13100
C  13.78400 47.67200 23.81900
C  12.21500 47.64800 23.81900
C  15.52600 48.16700 25.81700
C  14.69900 47.30300 22.65200
O  14.20100 46.93500 21.51500
C  16.18900 47.44900 22.68800
N  9.26300 47.26600 23.62600
C  10.09600 47.27100 22.53000
C  9.41400 46.90300 21.23800
C  7.96100 46.48900 21.71300
C  8.04500 46.87200 23.20900
C  9.44300 48.09400 20.24400
C  7.66700 44.93100 21.54100
C  8.59700 44.02000 22.32400
N  7.84800 47.42500 26.08800
C  6.77200 47.24400 25.30200
C  5.54200 47.15500 26.04500
C  6.00800 47.38200 27.41200
C  7.37500 47.58000 27.33800
C  4.20400 46.75300 25.59200
C  5.56600 47.44300 28.79600
O  4.45400 47.26200 29.29800
C  6.78500 47.81300 29.59000
C  6.99200 46.71200 30.57200
O  7.80700 45.77000 30.43600
O  6.20100 46.92000 31.70000
C  6.36900 45.87700 32.75700
H  13.47900 48.95400 27.78200
H  12.00200 47.49100 21.72100
H  5.98400 46.74300 23.33200
H  9.58800 49.61600 30.41000
H  12.20800 48.94500 30.02900
H  11.62000 51.17800 28.30900
H  12.34500 51.23900 29.83700
H  10.55800 51.34100 29.68100
H  11.40000 47.45500 31.10800
H  10.01800 46.67000 30.67500
H  8.79800 48.61000 32.14600
H  10.31800 48.93200 32.84800
H  15.65800 47.52000 26.68400
H  15.65200 49.17600 26.20900
H  16.37900 47.86000 25.21100
H  16.53800 47.46100 21.65500
H  16.55900 46.58000 23.23000
H  16.47900 48.41700 23.09600
H  9.85900 46.04000 20.74400
H  7.16600 47.09600 21.27900
H  10.12100 48.90800 20.50200
H  8.54700 48.66300 19.99500
H  9.69400 47.58400 19.31300
H  7.70500 44.69400 20.47800
H  6.65800 44.81600 21.93700
H  8.94000 44.56300 23.20500
H  9.42000 43.59400 21.75100
H  7.94900 43.26800 22.77200
H  3.53300 46.90600 26.43700
H  4.20900 45.75400 25.15600
H  4.00100 47.38700 24.72900
H  6.48400 48.71900 30.11600
H  5.67100 45.08400 32.49000
H  6.23700 46.44100 33.68100
H  7.40700 45.55000 32.71000

