158

Mg -1.33900 18.18200 27.58800
C  -1.96500 15.88700 30.22400
C  -2.35400 20.62400 29.77600
C  -1.24700 20.31800 25.08400
C  -1.36000 15.48000 25.34400
N  -1.77100 18.20200 29.88000
C  -1.95400 17.20600 30.71500
C  -2.28800 17.69500 32.19200
C  -2.52300 19.19500 31.98000
C  -2.23000 19.37900 30.44000
C  -3.97400 19.76600 32.25900
C  -1.13200 17.37300 33.17400
C  -1.59900 16.88900 34.49000
H  -0.69300 16.99400 35.66400
N  -1.50100 20.18400 27.50200
C  -1.96600 20.99800 28.50200
C  -2.07300 22.40600 28.01900
C  -1.69000 22.38000 26.58300
C  -1.41800 20.91300 26.34300
C  -2.64400 23.41300 28.89800
C  -1.60700 23.47400 25.64800
O  -1.31900 23.40900 24.46100
C  -1.72700 24.87800 26.24200
N  -1.41000 17.92000 25.45000
C  -1.18600 19.00400 24.59900
C  -1.05400 18.51400 23.15300
C  -0.75600 16.95200 23.39900
C  -1.20400 16.76800 24.85900
C  -2.24100 18.80100 22.20800
C  0.68700 16.41400 23.25600
C  1.64900 16.99700 24.29100
N  -1.63400 16.10400 27.69800
C  -1.56300 15.15800 26.67200
C  -1.93200 13.89000 27.31800
C  -2.04100 14.09900 28.66500
C  -1.83000 15.45900 28.88900
C  -1.84000 12.58300 26.64200
C  -2.19500 13.36500 29.89700
O  -2.24200 12.16300 30.10900
C  -2.10900 14.54900 30.95100
C  -0.96800 14.25800 31.83000
O  0.22700 14.28400 31.49200
O  -1.48200 13.92400 33.14100
C  -0.44700 13.33000 34.02600
H  -2.89300 21.31200 30.43100
H  -1.09500 20.97300 24.22400
H  -1.37500 14.62600 24.66400
H  -3.19600 17.16500 32.47900
H  -1.85300 19.90000 32.47200
H  -4.62200 19.68600 31.38600
H  -4.04300 20.84600 32.38800
H  -4.52100 19.38300 33.12100
H  -0.66800 18.29800 33.51900
H  -0.30300 16.79800 32.76000
H  -1.89000 15.84200 34.40300
H  -2.42400 17.56100 34.72600
H  -2.46000 23.27600 29.96400
H  -3.72900 23.31200 28.92600
H  -2.31300 24.41800 28.63700
H  -2.75400 25.11600 26.51700
H  -1.26900 25.55800 25.52300
H  -1.08200 24.95900 27.11600
H  -0.13900 18.81100 22.64100
H  -1.28700 16.23300 22.77600
H  -3.13100 18.21300 22.43500
H  -1.96700 18.64800 21.16400
H  -2.55700 19.83200 22.36800
H  1.04900 16.68600 22.26500
H  0.59600 15.33100 23.33000
H  1.37400 16.85400 25.33600
H  1.70100 18.08200 24.19200
H  2.65300 16.63600 24.07100
H  -0.89700 12.12100 26.93400
H  -1.96500 12.60300 25.56000
H  -2.67600 11.94300 26.92400
H  -3.04800 14.55900 31.50400
H  0.32000 12.75500 33.50700
H  -0.94000 12.78700 34.83200
H  0.20700 14.05400 34.51200
Mg 17.50000 -0.69600 27.71000
C  16.49100 1.45700 30.26500
C  19.66600 -2.21000 29.75800
C  18.84400 -2.00100 24.92500
C  15.46200 1.41600 25.48700
N  18.02500 -0.31200 29.70300
C  17.45900 0.53400 30.63400
C  17.91000 0.17200 32.06600
C  19.10600 -0.73200 31.84500
C  18.89700 -1.10000 30.37600
C  20.49000 -0.03100 32.16200
C  16.76700 -0.33600 32.98700
C  16.71000 0.30800 34.36500
H  17.85400 1.02600 35.05600
N  19.01800 -1.91000 27.39700
C  19.72200 -2.51400 28.37800
C  20.62700 -3.43800 27.76400
C  20.35200 -3.56100 26.36400
C  19.34100 -2.48600 26.14800
C  21.63700 -4.14700 28.61200
C  20.88500 -4.60800 25.38000
O  20.61200 -4.61900 24.22100
C  21.72100 -5.85100 25.79400
N  17.06500 -0.39900 25.53800
C  17.94400 -0.98600 24.62200
C  17.61400 -0.58600 23.20000
C  16.41800 0.38000 23.36000
C  16.21500 0.42000 24.89200
C  18.76900 0.11000 22.51100
C  15.23000 -0.06600 22.58900
C  14.22700 -1.06700 23.15600
N  16.03600 0.95200 27.88100
C  15.42700 1.71100 26.92000
C  14.74800 2.85600 27.52700
C  15.10200 2.77200 28.89800
C  15.88800 1.63300 29.05100
C  13.90700 3.91500 26.78700
C  14.98200 3.42200 30.18100
O  14.41300 4.46000 30.47700
C  15.74000 2.39800 31.16500
C  16.48900 3.24600 31.99200
O  17.63200 3.68200 31.74300
O  15.91700 3.40900 33.15600
C  16.42600 4.54100 33.92300
H  20.35100 -2.74300 30.42100
H  19.34300 -2.32300 24.00800
H  15.00600 2.19800 24.87800
H  18.33100 1.03800 32.57700
H  19.02400 -1.55500 32.55600
H  20.98400 -0.70200 32.86500
H  20.40500 0.91300 32.69900
H  21.13000 0.06600 31.28500
H  17.04200 -1.37300 33.18400
H  15.75100 -0.30100 32.59300
H  16.32900 -0.53300 34.94300
H  15.86500 0.99300 34.29500
H  21.26000 -5.08000 29.03100
H  22.00300 -3.57600 29.46500
H  22.54400 -4.28600 28.02400
H  22.76500 -5.56600 25.93100
H  21.64400 -6.45000 24.88600
H  21.29000 -6.29800 26.68900
H  17.23700 -1.44200 22.63900
H  16.65100 1.42300 23.14400
H  19.58700 0.15800 23.22900
H  18.56600 1.13000 22.18400
H  19.08400 -0.46700 21.64100
H  15.49700 -0.41400 21.59100
H  14.71300 0.86800 22.36700
H  13.24000 -0.62400 23.28700
H  14.50700 -1.49700 24.11800
H  14.02800 -1.88600 22.46500
H  13.00100 3.89600 27.39200
H  13.70700 3.65100 25.74800
H  14.39000 4.89000 26.85100
H  14.99100 1.84600 31.73300
H  16.63500 5.40300 33.28900
H  17.33900 4.13600 34.35900
H  15.63000 4.67700 34.65500

