158

Mg 0.48400 8.17700 26.67400
C  1.17900 10.16500 29.60000
C  0.17300 5.50900 28.86300
C  0.13600 6.33200 24.12900
C  0.76900 11.01600 24.82500
N  0.55200 7.89100 29.04600
C  0.74600 8.85200 29.98300
C  0.49600 8.37400 31.39400
C  0.44400 6.82900 31.07900
C  0.31800 6.66100 29.57400
C  1.58900 6.03200 31.77400
C  -0.76900 9.00000 32.05800
C  -0.73000 9.27000 33.56900
H  0.45400 8.75100 34.43200
N  0.10800 6.12900 26.57100
C  0.13900 5.15200 27.51600
C  -0.14800 3.81400 26.82400
C  -0.07000 4.07300 25.36900
C  0.08300 5.54000 25.31000
C  -0.44700 2.57700 27.68500
C  -0.21400 3.14200 24.22400
O  -0.12300 3.49400 23.05300
C  -0.63800 1.72600 24.37100
N  0.21400 8.62800 24.73300
C  0.36400 7.64200 23.81900
C  0.60200 8.20500 22.37000
C  0.30000 9.74100 22.61200
C  0.46700 9.83900 24.15300
C  2.02000 7.88000 21.80400
C  -1.11000 10.04200 22.11600
C  -1.52400 11.49600 22.14700
N  0.96300 10.15700 27.04600
C  1.02900 11.22000 26.18100
C  1.57000 12.40400 26.83700
C  1.63000 12.06100 28.17500
C  1.21600 10.66700 28.25300
C  1.93800 13.72800 26.20900
C  2.04100 12.50700 29.48900
O  2.59600 13.51800 29.78300
C  1.63900 11.29800 30.52800
C  2.93000 10.98200 31.30300
O  3.91600 10.39100 30.84000
O  2.75700 11.50400 32.51000
C  3.98100 11.70400 33.34000
H  0.03600 4.69400 29.57700
H  0.22200 5.73400 23.21900
H  0.94700 11.94600 24.28100
H  1.35600 8.59400 32.02700
H  -0.48200 6.46200 31.52400
H  1.12400 5.24700 32.37000
H  2.17600 6.67300 32.43200
H  2.23100 5.58000 31.01700
H  -1.63400 8.35300 31.91700
H  -1.07200 9.90500 31.53100
H  -1.63400 8.78700 33.94100
H  -0.82600 10.34000 33.75200
H  -0.09800 2.67300 28.71300
H  0.12500 1.81800 27.15100
H  -1.50500 2.33300 27.59000
H  -1.55700 1.64500 23.79000
H  -0.75300 1.45900 25.42100
H  0.13900 1.05300 24.00700
H  -0.14100 7.74200 21.72200
H  1.07400 10.33000 22.11900
H  1.76700 7.04300 21.15400
H  2.68800 7.57000 22.60700
H  2.48200 8.74200 21.32300
H  -1.78800 9.38400 22.66000
H  -1.29800 9.64900 21.11700
H  -1.96800 11.85500 21.21800
H  -0.65900 12.13600 22.31900
H  -2.09800 11.73300 23.04300
H  1.06100 14.06700 25.65900
H  2.67300 13.48800 25.44000
H  2.21400 14.44400 26.98300
H  0.84500 11.61100 31.20600
H  4.79500 11.83200 32.62800
H  4.22500 11.03200 34.16300
H  3.90300 12.72900 33.70300
Mg 42.28200 41.63000 26.35400
C  41.39400 43.97300 28.74500
C  43.52400 39.61200 28.98400
C  43.11000 39.30800 24.03900
C  41.53200 43.86100 23.84600
N  42.52900 41.78100 28.57500
C  41.87700 42.78000 29.30400
C  41.82500 42.48100 30.80700
C  42.69900 41.19400 30.80500
C  42.99800 40.82400 29.39300
C  44.05800 41.34300 31.60100
C  40.26500 42.32500 31.39400
C  40.15800 42.69800 32.91400
H  39.68000 41.73100 33.91000
N  43.12400 39.68700 26.46500
C  43.59600 39.10000 27.62500
C  44.11300 37.77000 27.22000
C  43.88900 37.60100 25.86500
C  43.37200 38.90800 25.39500
C  44.80700 36.88600 28.23500
C  44.02800 36.33000 24.99600
O  43.94500 36.38900 23.74300
C  44.51600 35.03400 25.63500
N  42.36000 41.59400 24.28300
C  42.65300 40.50800 23.54900
C  42.46900 40.72600 22.07900
C  41.96500 42.18700 22.04700
C  41.87300 42.61300 23.47000
C  43.80700 40.45900 21.38300
C  40.77200 42.49700 21.09800
C  41.12700 42.44400 19.59000
N  41.63700 43.56000 26.24300
C  41.35600 44.33600 25.14400
C  40.84100 45.59700 25.57300
C  40.81200 45.56800 27.04100
C  41.31300 44.25700 27.36300
C  40.35300 46.71200 24.66000
C  40.42400 46.23000 28.23400
O  39.89000 47.32600 28.41700
C  40.81800 45.20300 29.40700
C  41.58100 45.79300 30.58000
O  42.81400 45.77800 30.75700
O  40.64600 46.31400 31.46000
C  41.18700 46.80100 32.73200
H  43.65000 38.85600 29.76200
H  43.27700 38.52700 23.29400
H  41.22800 44.53300 23.04000
H  42.26100 43.25900 31.43400
H  42.08200 40.45800 31.32000
H  44.20600 42.28400 32.13200
H  44.87800 41.26100 30.88700
H  44.29800 40.61400 32.37500
H  39.84900 41.34100 31.17700
H  39.67700 42.92800 30.70200
H  39.33400 43.41000 32.97000
H  41.03500 43.15600 33.37100
H  45.34300 36.01400 27.85900
H  44.04100 36.40500 28.84200
H  45.55300 37.51100 28.72600
H  44.06300 34.33500 24.93200
H  43.98800 34.92900 26.58300
H  45.59700 34.95000 25.74000
H  41.68100 40.03400 21.78300
H  42.67700 42.84200 21.54400
H  43.58400 39.74000 20.59500
H  44.55900 39.98900 22.01800
H  44.17800 41.36800 20.91100
H  40.44000 43.52000 21.27200
H  39.98100 41.79200 21.35400
H  42.21400 42.36900 19.54700
H  40.75900 43.35200 19.11400
H  40.71400 41.59500 19.04600
H  39.37700 46.92500 25.09600
H  40.22300 46.36600 23.63400
H  41.04900 47.55000 24.65800
H  39.86000 45.03400 29.89800
H  42.03300 47.45100 32.50700
H  41.64400 46.10300 33.43400
H  40.43000 47.48400 33.11800

