158

Mg 0.31600 8.27700 25.65100
C  1.17100 10.05000 28.67400
C  0.27600 5.40900 27.50400
C  0.42400 6.42100 22.81300
C  1.15700 11.08300 23.87700
N  0.94700 7.75600 27.85600
C  0.98200 8.68200 28.88200
C  0.86800 7.91000 30.24300
C  0.61600 6.37900 29.87100
C  0.58900 6.54600 28.29500
C  1.76000 5.39900 30.29400
C  -0.17600 8.56900 31.15500
C  0.09400 8.61600 32.70400
H  1.28500 7.95300 33.35300
N  0.18100 6.16900 25.23900
C  0.22700 5.15400 26.11900
C  0.01400 3.88200 25.46400
C  0.01000 4.19100 24.03000
C  0.23600 5.66200 23.96000
C  -0.00900 2.57500 26.26400
C  -0.04300 3.21100 22.79200
O  0.09500 3.57800 21.61000
C  -0.29800 1.71600 23.12500
N  0.73300 8.76400 23.62800
C  0.66700 7.82400 22.62600
C  0.74500 8.50100 21.25400
C  0.74900 9.94700 21.62800
C  0.78600 9.97100 23.13800
C  1.84500 8.00200 20.27700
C  -0.30900 10.82700 20.97200
C  -1.67500 10.98300 21.68300
N  0.84900 10.24900 26.20800
C  1.22500 11.20700 25.30700
C  1.70300 12.36800 26.05300
C  1.64100 11.95500 27.39000
C  1.21000 10.62500 27.39500
C  2.11200 13.65100 25.33900
C  1.98300 12.36600 28.72400
O  2.38400 13.39400 29.16900
C  1.60500 11.08600 29.63200
C  2.81100 10.77400 30.53500
O  3.69100 9.99300 30.32400
O  2.80100 11.62900 31.68000
C  3.87100 11.48700 32.62500
H  -0.05200 4.57100 28.12300
H  0.24400 5.78900 21.94000
H  1.39800 11.91900 23.21700
H  1.83500 8.02100 30.73200
H  -0.38000 6.00600 30.11200
H  2.49900 5.90500 30.91500
H  2.18600 4.88500 29.43200
H  1.33300 4.64500 30.95500
H  -1.04500 7.95200 30.92600
H  -0.36800 9.57500 30.78100
H  -0.83500 8.22600 33.12100
H  0.16500 9.67400 32.95300
H  -1.03600 2.31800 26.52800
H  0.50000 2.76500 27.20900
H  0.44800 1.72100 25.76400
H  0.62800 1.34400 23.56300
H  -0.35100 1.15400 22.19200
H  -1.20600 1.50400 23.69000
H  -0.21700 8.28700 20.79000
H  1.67600 10.46500 21.38100
H  2.60600 7.51500 20.88700
H  2.31100 8.87400 19.81700
H  1.67500 7.30700 19.45500
H  -0.44700 10.50100 19.94100
H  0.19500 11.78100 20.81500
H  -1.73200 10.22600 22.46600
H  -2.52000 11.09300 21.00400
H  -1.55100 11.98600 22.09200
H  3.18500 13.79400 25.21700
H  1.85100 14.44200 26.04100
H  1.51100 13.72300 24.43300
H  0.74900 11.49600 30.16800
H  4.77500 11.24300 32.06600
H  3.68400 10.62000 33.25800
H  4.10500 12.39800 33.17500
Mg -4.81500 25.34200 26.03300
C  -3.62900 26.72000 28.87800
C  -6.53300 22.99700 27.90200
C  -5.47900 23.64300 23.18600
C  -2.90000 27.57500 24.14600
N  -4.98600 24.90100 28.13800
C  -4.48300 25.64800 29.16500
C  -5.12800 25.39800 30.46500
C  -5.90300 24.05000 30.17900
C  -5.75500 23.86000 28.68000
C  -5.28200 22.92200 31.02000
C  -6.08300 26.51000 30.93300
C  -6.06100 26.66400 32.47000
H  -5.33200 25.70000 33.44600
N  -5.96600 23.63700 25.61100
C  -6.65100 22.82800 26.49900
C  -7.35300 21.74700 25.74600
C  -6.96700 21.89700 24.35400
C  -6.04100 23.09800 24.39900
C  -8.33100 20.83500 26.54200
C  -7.42600 21.03700 23.16000
O  -6.99700 21.19000 22.04000
C  -8.18100 19.79500 23.47000
N  -4.26700 25.58400 23.98500
C  -4.70400 24.78200 22.95000
C  -4.33100 25.28300 21.48200
C  -3.54000 26.64200 21.85800
C  -3.59500 26.66400 23.38600
C  -3.46700 24.26600 20.72500
C  -3.95300 27.93400 21.07400
C  -3.06100 28.54200 20.03000
N  -3.36900 26.70200 26.39400
C  -2.74000 27.59000 25.55300
C  -1.97600 28.58100 26.30100
C  -2.18000 28.19600 27.66400
C  -3.13700 27.08700 27.62700
C  -1.19300 29.83900 25.80400
C  -1.82700 28.52700 29.08300
O  -1.03400 29.27900 29.56700
C  -2.82000 27.56700 29.87600
C  -1.92800 26.82900 30.75700
O  -1.19500 25.92500 30.37500
O  -1.88900 27.38000 32.09000
C  -1.08900 26.58500 32.95600
H  -6.97300 22.18600 28.48700
H  -5.73800 23.05400 22.30300
H  -2.26600 28.38100 23.77000
H  -4.27400 25.39600 31.14300
H  -6.93900 24.23700 30.46100
H  -4.68600 22.23100 30.42400
H  -6.08000 22.24800 31.33000
H  -4.69000 23.20900 31.89000
H  -7.07400 26.43200 30.48400
H  -5.66700 27.45400 30.58100
H  -7.07500 26.77800 32.85400
H  -5.59700 27.64500 32.56800
H  -7.65100 20.06400 26.90500
H  -9.16500 20.35700 26.02900
H  -8.68700 21.40900 27.39700
H  -9.18000 19.97200 23.86900
H  -7.65900 19.12700 24.15500
H  -8.35300 19.28200 22.52400
H  -5.22900 25.41200 20.87800
H  -2.47500 26.43300 21.75600
H  -3.79600 23.89200 19.75500
H  -3.53200 23.28800 21.20300
H  -2.48700 24.72300 20.59100
H  -4.28100 28.75400 21.71200
H  -4.91400 27.73900 20.59900
H  -3.78800 28.74900 19.24600
H  -2.16900 28.01900 19.68500
H  -2.77600 29.51700 20.42500
H  -0.11100 29.70700 25.78400
H  -1.42600 30.66800 26.47200
H  -1.53400 30.10100 24.80200
H  -3.51800 28.14600 30.48100
H  -1.25800 25.51000 32.88400
H  -1.04000 26.96700 33.97500
H  -0.09900 26.65800 32.50700

