158

Mg 28.51100 58.80900 42.54400
C  25.87200 56.89200 41.03400
C  30.73500 56.99500 40.83600
C  30.72700 61.06900 43.39800
C  25.89000 60.99600 43.63300
N  28.23100 57.11500 41.12800
C  27.17000 56.50700 40.61000
C  27.52100 55.39500 39.59000
C  29.09800 55.35100 39.74100
C  29.39300 56.59800 40.64800
C  29.63300 54.07200 40.38100
C  26.99500 55.64200 38.14300
C  26.47400 54.48400 37.35900
H  27.08600 54.29500 35.98900
N  30.49300 58.98400 42.17100
C  31.29100 58.13600 41.45700
C  32.63900 58.55200 41.47100
C  32.65500 59.71800 42.23400
C  31.24600 59.96400 42.69300
C  33.77200 57.83300 40.77200
C  33.84700 60.53000 42.61800
O  34.94200 60.12500 42.30400
C  33.81300 61.70000 43.49200
N  28.31500 60.68500 43.57400
C  29.40200 61.36100 43.92200
C  29.04000 62.69800 44.57800
C  27.54800 62.66200 44.49600
C  27.17800 61.29600 43.90600
C  29.57600 62.75700 46.04400
C  26.99200 63.94500 43.78400
C  25.80100 64.61900 44.48000
N  26.31100 58.87100 42.58800
C  25.39200 59.78800 43.09300
C  24.05600 59.40900 42.94900
C  24.20200 58.30300 42.11300
C  25.56500 57.96400 41.91900
C  22.84400 60.10000 43.34800
C  23.36500 57.34800 41.46700
O  22.12300 57.18600 41.55800
C  24.48800 56.38200 40.70900
C  24.23600 54.96500 41.19600
O  24.07200 54.52100 42.32000
O  24.35200 54.15700 40.04100
C  24.47900 52.67900 40.22100
H  31.47100 56.29200 40.43900
H  31.48300 61.79200 43.71100
H  25.11100 61.69000 43.95300
H  26.94900 54.52100 39.90400
H  29.51000 55.32800 38.73200
H  30.40400 53.67500 39.72000
H  28.90800 53.28300 40.57900
H  30.18400 54.22000 41.30900
H  27.85800 56.09000 37.65100
H  26.17800 56.35600 38.24300
H  25.38500 54.50300 37.30100
H  26.68200 53.51600 37.81500
H  33.30900 56.96000 40.31000
H  34.69400 57.67400 41.33000
H  34.13900 58.44100 39.94500
H  33.41400 62.59900 43.02300
H  34.86900 61.89100 43.68500
H  33.35000 61.51600 44.46200
H  29.62300 63.49500 44.11800
H  27.03400 62.69400 45.45700
H  29.53500 63.77000 46.44400
H  30.62300 62.46700 45.96200
H  29.07800 62.10000 46.75800
H  26.58400 63.55500 42.85100
H  27.78300 64.64600 43.51700
H  25.70900 65.70300 44.41800
H  25.76300 64.32000 45.52800
H  24.89400 64.13700 44.11300
H  22.97100 60.73600 44.22300
H  21.99200 59.43200 43.47200
H  22.58000 60.69800 42.47600
H  24.18900 56.54100 39.67300
H  23.44900 52.32100 40.22000
H  24.94400 52.45200 41.18000
H  24.86500 52.18800 39.32700
Mg 9.61700 48.52300 24.75300
C  7.52500 48.60500 27.65200
C  12.12100 49.88800 26.51600
C  11.45100 48.44300 22.04700
C  6.69700 47.47700 22.95400
N  9.70900 49.16300 26.95500
C  8.86300 49.03500 27.94200
C  9.45700 49.50000 29.27300
C  10.74300 50.24500 28.65600
C  10.89000 49.67400 27.28800
C  10.54100 51.76600 28.64100
C  9.76200 48.28000 30.13800
C  9.29100 48.55100 31.55600
H  9.46200 47.54900 32.72100
N  11.54700 48.99400 24.42300
C  12.42700 49.46700 25.26000
C  13.73200 49.51800 24.62600
C  13.57200 49.20900 23.27200
C  12.16900 48.87800 23.20800
C  14.96500 49.83900 25.42900
C  14.58500 48.99600 22.23000
O  14.31100 48.81600 21.05100
C  16.07000 49.02800 22.54400
N  9.08500 48.06100 22.77700
C  10.04400 48.06100 21.84400
C  9.58100 47.64100 20.45100
C  8.10800 47.17500 20.73300
C  7.93800 47.59500 22.24300
C  9.73400 48.87500 19.51600
C  7.83400 45.66100 20.50800
C  8.40700 44.70500 21.64400
N  7.49200 48.32300 25.15500
C  6.49700 47.94700 24.30700
C  5.28900 47.80800 24.99500
C  5.59700 47.93200 26.37700
C  6.97400 48.33300 26.41100
C  3.95900 47.42300 24.47400
C  5.13800 47.84300 27.68400
O  4.07700 47.47200 28.13400
C  6.35600 48.20200 28.60500
C  6.53800 47.02500 29.38200
O  7.05900 45.95400 29.00400
O  6.01300 47.24000 30.59200
C  6.13400 46.05600 31.49500
H  12.94600 50.37700 27.03900
H  12.08300 48.33000 21.16400
H  5.83000 47.00000 22.49000
H  8.70400 50.18200 29.66800
H  11.54700 49.96900 29.33800
H  10.90000 52.12400 27.67600
H  11.05400 52.15400 29.52000
H  9.50100 52.07100 28.76100
H  10.83300 48.08300 30.09600
H  9.28900 47.35400 29.81200
H  8.21700 48.67800 31.42000
H  9.72300 49.45900 31.97600
H  14.80700 49.86100 26.50800
H  15.44400 50.80400 25.26600
H  15.73000 49.08300 25.24800
H  16.35200 48.20000 23.19500
H  16.01200 50.00200 23.02900
H  16.51800 49.10000 21.55300
H  10.16200 46.77800 20.12400
H  7.36900 47.75300 20.17900
H  10.38900 48.58400 18.69500
H  10.15300 49.76000 19.99600
H  8.76200 49.19900 19.14300
H  8.29500 45.52600 19.52900
H  6.77000 45.45800 20.38700
H  9.13300 45.20300 22.28800
H  8.92000 43.80500 21.30700
H  7.55300 44.33700 22.21200
H  3.33200 47.39900 25.36600
H  3.88000 46.36800 24.21200
H  3.69200 48.04000 23.61700
H  6.08300 49.05500 29.22700
H  7.20600 45.99200 31.68200
H  5.81900 45.08900 31.10000
H  5.69000 46.21900 32.47700

