158

Mg 6.50100 54.22500 41.17700
C  5.94700 50.81800 41.21400
C  9.88000 53.59600 40.30300
C  7.02800 57.53700 40.76500
C  3.19700 54.70400 41.92700
N  7.66800 52.34600 40.65800
C  7.29900 51.08500 40.83200
C  8.47300 50.08700 40.47200
C  9.73300 51.00100 40.59500
C  9.06100 52.45600 40.55600
C  10.52800 50.79900 41.93400
C  8.32500 49.43800 39.03200
C  8.54700 50.08700 37.68500
H  7.58900 49.73700 36.49200
N  8.19400 55.43700 40.57100
C  9.47800 55.01300 40.28500
C  10.34900 56.08700 40.10300
C  9.56400 57.28600 40.19800
C  8.17300 56.83200 40.46800
C  11.88200 55.90700 40.06300
C  10.12500 58.73300 40.09900
O  11.32100 58.94800 39.84400
C  9.22200 59.86900 40.42300
N  5.21300 55.84600 41.14000
C  5.69700 57.18000 41.04900
C  4.57000 58.17400 41.33900
C  3.40300 57.22800 41.83400
C  3.94000 55.81000 41.56200
C  4.83400 59.26300 42.41100
C  2.09500 57.52900 41.18000
C  0.82200 57.59300 42.11400
N  4.83400 53.03800 41.52600
C  3.63600 53.36300 42.01700
C  2.81400 52.19200 42.33200
C  3.73700 51.13800 42.01800
C  4.92500 51.73800 41.52000
C  1.50200 52.12200 42.95600
C  3.91200 49.71700 42.04100
O  3.14600 48.89600 42.43700
C  5.32200 49.43100 41.41700
C  5.05300 48.79200 40.10300
O  4.52700 49.35200 39.15900
O  5.31600 47.44000 40.18800
C  4.78000 46.62900 39.09100
H  10.93100 53.29900 40.27900
H  7.17900 58.59900 40.96800
H  2.15400 54.89200 42.19100
H  8.41500 49.27100 41.19300
H  10.44500 51.01900 39.76900
H  10.34000 51.73900 42.45300
H  11.60100 50.65800 41.80700
H  10.17700 49.87700 42.39700
H  7.29200 49.09400 39.01200
H  8.98300 48.56900 39.05400
H  9.49200 49.70500 37.29800
H  8.75800 51.13000 37.92300
H  12.33600 56.18800 41.01300
H  12.47200 56.40100 39.29100
H  12.22800 54.87600 39.98800
H  8.30400 59.91700 39.83900
H  9.75700 60.79800 40.22500
H  9.04400 59.97300 41.49400
H  4.31500 58.65600 40.39500
H  3.48700 57.26200 42.92000
H  5.67900 59.04100 43.06300
H  3.91800 59.45800 42.97000
H  5.04000 60.18700 41.86900
H  1.90600 56.72000 40.47500
H  2.21000 58.47100 40.64500
H  0.93300 56.95400 42.99000
H  -0.04900 57.29800 41.52900
H  0.71500 58.63900 42.40500
H  1.03700 51.14100 43.05000
H  0.68200 52.63000 42.44700
H  1.64200 52.58400 43.93300
H  5.83700 48.72100 42.06400
H  3.82500 46.14700 39.30100
H  5.42600 45.79900 38.80400
H  4.70800 47.24100 38.19200
Mg 16.76900 52.79300 26.66200
C  18.53800 51.41700 29.27800
C  14.31300 53.67000 28.81100
C  15.00700 53.92500 24.02300
C  19.11600 51.40100 24.42800
N  16.36800 52.36900 28.77900
C  17.29900 51.96600 29.71600
C  16.85200 52.26000 31.15600
C  15.29600 52.47900 30.94500
C  15.30400 52.81200 29.42300
C  14.37800 51.24200 31.28200
C  17.65500 53.47200 31.76700
C  17.66400 53.44300 33.27100
H  16.65000 52.52300 34.05100
N  14.93500 53.76200 26.44000
C  14.08300 54.08700 27.50800
C  12.97200 54.85300 26.95600
C  13.02100 54.74400 25.53600
C  14.34000 54.07000 25.26300
C  11.90300 55.33400 27.87100
C  11.99200 55.21600 24.58400
O  12.12600 54.97600 23.35300
C  10.77400 55.77400 25.13500
N  17.04300 52.67100 24.55000
C  16.23200 53.32200 23.68100
C  16.72500 53.06600 22.22400
C  18.15000 52.55000 22.39500
C  18.10700 52.13900 23.81800
C  15.70200 52.26700 21.38000
C  19.38200 53.50700 22.05900
C  20.48100 52.83000 21.18200
N  18.46500 51.63900 26.77900
C  19.32500 51.10900 25.80600
C  20.39000 50.47700 26.42200
C  20.16200 50.60900 27.78800
C  18.95600 51.25900 27.98200
C  21.53300 49.83600 25.70400
C  20.68600 50.23200 29.08100
O  21.73500 49.70400 29.43600
C  19.63300 50.78800 30.11900
C  19.17700 49.70200 31.07200
O  18.74700 48.59300 30.78400
O  19.38800 50.08600 32.39800
C  19.20700 49.00700 33.33800
H  13.41400 53.97900 29.34800
H  14.36800 54.36100 23.25200
H  19.95000 51.03500 23.82500
H  16.89500 51.34500 31.74600
H  15.06500 53.33100 31.58400
H  13.92500 50.99800 30.32100
H  13.68800 51.44100 32.10100
H  14.92900 50.32600 31.49400
H  17.24100 54.38600 31.34100
H  18.71100 53.46800 31.49600
H  17.43500 54.43600 33.65700
H  18.61400 53.21000 33.75300
H  12.41400 55.66500 28.77400
H  11.21800 54.55000 28.19400
H  11.30800 56.15400 27.46800
H  10.08300 55.90500 24.30300
H  10.97300 56.75400 25.56900
H  10.27900 55.15100 25.87900
H  16.80200 54.04400 21.74900
H  18.23900 51.68600 21.73600
H  16.20400 51.31900 21.18900
H  15.47400 52.77000 20.44000
H  14.78200 52.17700 21.95900
H  19.85300 53.92300 22.94900
H  19.01100 54.28800 21.39300
H  20.72300 53.42400 20.30100
H  20.15800 51.84600 20.84200
H  21.32900 52.76200 21.86400
H  21.07700 49.14800 24.99200
H  22.05500 49.26500 26.47200
H  22.05400 50.63100 25.17100
H  20.12900 51.53100 30.74300
H  18.22200 48.56300 33.19000
H  19.17200 49.35400 34.37100
H  20.04100 48.31000 33.26200

