158

Mg 1.41400 -0.56400 43.79600
C  4.92100 0.03200 43.12600
C  0.68400 2.53100 42.76500
C  -1.70000 -1.63900 43.59300
C  2.38300 -3.98500 44.41600
N  2.72600 0.93200 42.95900
C  4.05300 1.05700 42.83500
C  4.44000 2.48900 42.42800
C  3.14600 3.27200 42.55900
C  2.04000 2.19500 42.81600
C  3.10500 4.38700 43.64500
C  5.04700 2.50100 40.97200
C  6.21800 3.51300 40.65600
H  6.66600 3.71800 39.21700
N  -0.29900 0.30600 43.12500
C  -0.40400 1.64900 42.70400
C  -1.84500 1.91300 42.44800
C  -2.50600 0.67000 42.64800
C  -1.48000 -0.37200 43.13400
C  -2.37300 3.28200 42.11200
C  -4.04900 0.58100 42.51400
O  -4.66600 1.64000 42.30600
C  -4.71900 -0.75500 42.74400
N  0.50600 -2.65200 43.58200
C  -0.84000 -2.67800 43.83800
C  -1.27700 -3.98400 44.41400
C  0.02600 -4.78900 44.44200
C  1.08700 -3.74100 44.18000
C  -2.04200 -3.91200 45.86100
C  -0.03100 -6.08600 43.52000
C  0.22700 -7.44000 44.13700
N  3.18600 -1.74400 43.91000
C  3.45300 -3.02700 44.28700
C  4.87900 -3.20000 44.51200
C  5.45700 -2.03600 43.95300
C  4.46600 -1.21300 43.60500
C  5.55200 -4.44100 45.05000
C  6.72000 -1.44700 43.64900
O  7.80800 -1.93500 43.70800
C  6.44800 -0.03200 43.05900
C  7.14500 0.96900 43.96300
O  6.67400 1.32200 45.03300
O  8.26600 1.52000 43.37800
C  8.71700 2.70900 44.16000
H  0.54200 3.59900 42.58200
H  -2.73500 -1.91600 43.80200
H  2.59200 -4.99900 44.76400
H  5.13700 2.90700 43.15400
H  2.97700 3.76700 41.60200
H  2.23100 4.28500 44.28800
H  2.92300 5.28500 43.05500
H  4.09300 4.31700 44.10100
H  4.34300 2.67100 40.15700
H  5.27400 1.46200 40.73400
H  6.99000 3.27200 41.38600
H  5.90900 4.43800 41.14400
H  -2.99400 3.11000 41.23300
H  -1.61500 3.93500 41.67900
H  -2.76100 3.80400 42.98700
H  -5.78500 -0.65500 42.53900
H  -4.69000 -1.14900 43.76000
H  -4.24900 -1.47600 42.07500
H  -2.01000 -4.44500 43.75100
H  0.32700 -5.08200 45.44800
H  -1.99200 -2.86300 46.15300
H  -1.49200 -4.50400 46.59300
H  -3.05900 -4.25500 45.67400
H  0.79600 -5.90300 42.83400
H  -0.90500 -6.09600 42.86800
H  -0.44300 -8.09600 43.58200
H  -0.04300 -7.49800 45.19200
H  1.26200 -7.77100 44.05800
H  5.43100 -5.36200 44.48000
H  5.09800 -4.80500 45.97200
H  6.56900 -4.32800 45.42500
H  6.89900 0.04300 42.07000
H  8.61000 2.54100 45.23100
H  8.26600 3.66300 43.88600
H  9.79900 2.65700 44.03400
Mg 24.80200 -7.95900 47.02700
C  27.16200 -5.60500 45.98300
C  22.59900 -6.60700 44.75200
C  22.66700 -10.46500 47.69200
C  27.31600 -9.52600 48.97000
N  24.97000 -6.40600 45.42900
C  25.99100 -5.55900 45.20700
C  25.61700 -4.50200 44.14000
C  24.10200 -4.64000 44.02200
C  23.81300 -5.98100 44.79300
C  23.20100 -3.45400 44.48300
C  26.44400 -4.72400 42.81000
C  27.16200 -3.51400 42.18900
H  26.44600 -2.59500 41.27800
N  22.82000 -8.38000 46.34500
C  22.10600 -7.69700 45.43100
C  20.84800 -8.36800 45.21300
C  20.85900 -9.57600 45.94500
C  22.14100 -9.51000 46.69000
C  19.81800 -7.91500 44.15100
C  19.80200 -10.55500 45.93600
O  18.68200 -10.23200 45.51000
C  19.88300 -11.95900 46.48100
N  24.95100 -9.69900 48.21800
C  23.92700 -10.53900 48.36500
C  24.37100 -11.84100 49.18400
C  25.89700 -11.52800 49.43800
C  26.09300 -10.15800 48.84600
C  23.52300 -11.94100 50.50900
C  26.84900 -12.60500 48.96700
C  26.67000 -12.92800 47.50100
N  26.73800 -7.53900 47.64900
C  27.64700 -8.29400 48.38100
C  28.88700 -7.56400 48.53200
C  28.66200 -6.49200 47.64400
C  27.40300 -6.51900 47.08500
C  30.14200 -7.89400 49.30600
C  29.34900 -5.37000 47.00700
O  30.52100 -4.94200 47.23500
C  28.38500 -4.71000 46.00700
C  28.16100 -3.31900 46.44500
O  27.76800 -2.98500 47.57700
O  28.30600 -2.45700 45.41100
C  28.06500 -1.05700 45.75700
H  21.90500 -6.16200 44.03600
H  21.97300 -11.29000 47.86400
H  28.11500 -9.97800 49.56100
H  25.83700 -3.47100 44.41800
H  23.71200 -4.70400 43.00600
H  22.61200 -3.03500 43.66600
H  23.71400 -2.57300 44.86900
H  22.59900 -3.78600 45.32900
H  25.69500 -5.01900 42.07500
H  27.15600 -5.53500 42.96700
H  27.97600 -3.91100 41.58400
H  27.60200 -2.92900 42.99700
H  20.12300 -7.24300 43.34900
H  19.01800 -7.41300 44.69600
H  19.48100 -8.74800 43.53400
H  19.68900 -11.82900 47.54600
H  20.85100 -12.30700 46.12100
H  19.13200 -12.65300 46.10500
H  24.37000 -12.79300 48.65400
H  26.12400 -11.52900 50.50400
H  23.96400 -11.49700 51.40100
H  23.47100 -13.02100 50.64700
H  22.54100 -11.47300 50.43800
H  26.55300 -13.51600 49.48700
H  27.88900 -12.38200 49.20500
H  27.65400 -13.16700 47.09700
H  26.14800 -12.08600 47.04700
H  26.07900 -13.81400 47.27100
H  30.41500 -8.94900 49.30100
H  29.95300 -7.69000 50.36000
H  30.93300 -7.20800 49.00400
H  28.79500 -4.64700 44.99900
H  27.01700 -0.81400 45.92800
H  28.23100 -0.38100 44.91800
H  28.49400 -0.71500 46.69900

