158

Mg 3.03800 -2.29000 45.20700
C  6.37900 -1.66300 44.75400
C  2.22300 0.01000 42.91400
C  -0.01900 -3.48500 45.30200
C  4.06400 -4.99300 47.34400
N  4.19700 -0.93000 43.92500
C  5.54400 -0.83300 43.96200
C  5.95700 0.42400 43.06900
C  4.54500 1.07700 42.82600
C  3.61000 0.02900 43.24100
C  4.26200 2.39900 43.60200
C  6.82100 -0.04500 41.83000
C  8.18200 0.63100 41.61900
H  8.45500 1.09000 40.16800
N  1.35400 -1.86200 44.13000
C  1.21800 -0.87400 43.28200
C  -0.14800 -0.80100 42.84700
C  -0.87700 -1.75200 43.57600
C  0.18700 -2.37700 44.42700
C  -0.68100 0.25900 42.01600
C  -2.38100 -2.08800 43.46800
O  -3.02700 -1.59800 42.53300
C  -3.19200 -3.10300 44.27700
N  2.19900 -4.00400 46.14400
C  0.88100 -4.23800 46.07600
C  0.43800 -5.58300 46.69600
C  1.72500 -5.94900 47.40500
C  2.75600 -4.93900 46.97800
C  -0.89200 -5.60300 47.49200
C  2.06600 -7.47200 47.25000
C  1.95800 -8.35500 48.46100
N  4.84300 -3.17600 45.97200
C  5.13700 -4.27100 46.80700
C  6.59000 -4.43300 46.96300
C  7.09500 -3.33900 46.25700
C  5.98800 -2.69200 45.62700
C  7.31500 -5.43700 47.76500
C  8.35400 -2.66600 45.89700
O  9.46100 -2.91000 46.31500
C  7.95800 -1.50000 44.98100
C  8.11900 -0.26400 45.75400
O  7.76700 -0.11100 46.92400
O  8.69200 0.71400 44.98000
C  8.98800 1.97500 45.64600
H  2.03900 0.79600 42.17900
H  -1.01400 -3.93300 45.33000
H  4.40100 -5.87100 47.90000
H  6.46300 1.09500 43.76300
H  4.37000 1.19600 41.75700
H  5.28100 2.68700 43.86300
H  3.64800 2.13600 44.46400
H  3.79900 3.13400 42.94400
H  6.18200 0.13100 40.96400
H  6.98000 -1.11400 41.96900
H  8.99400 -0.00200 41.97600
H  8.15600 1.55500 42.19600
H  -0.69500 -0.12100 40.99400
H  -0.24000 1.25300 42.08500
H  -1.68100 0.47500 42.39300
H  -3.15600 -2.93200 45.35300
H  -2.80200 -4.09700 44.05700
H  -4.24300 -3.05900 43.99300
H  0.38900 -6.12300 45.75100
H  1.55300 -5.72400 48.45800
H  -1.42400 -6.54200 47.33900
H  -1.48200 -4.70200 47.32400
H  -0.61100 -5.64100 48.54400
H  3.07100 -7.56900 46.84000
H  1.39400 -8.07000 46.63400
H  2.84200 -8.37100 49.09900
H  1.71300 -9.35900 48.11400
H  1.18200 -7.88800 49.06700
H  8.38900 -5.27600 47.86000
H  6.96600 -6.41800 47.44200
H  6.89500 -5.35500 48.76800
H  8.52200 -1.51100 44.04900
H  8.07400 2.55500 45.76800
H  9.78800 2.41400 45.05000
H  9.47800 1.85500 46.61200
Mg 30.16100 57.98300 40.62000
C  27.31600 56.17800 39.75500
C  32.05600 55.17600 39.98600
C  33.02400 59.98500 40.73900
C  28.20800 60.83800 40.86000
N  29.77600 55.98300 39.85900
C  28.48700 55.46600 39.73800
C  28.55300 53.97800 39.36200
C  30.00400 53.59800 39.82600
C  30.70100 55.02400 39.90300
C  30.10000 52.72500 41.09500
C  28.17100 53.65000 37.88800
C  28.51300 54.73300 36.79400
H  28.39400 54.46100 35.20900
N  32.33700 57.60500 40.38500
C  32.88500 56.36000 40.07500
C  34.30000 56.52800 39.88400
C  34.59400 57.90800 40.17900
C  33.29200 58.58100 40.46800
C  35.19700 55.37600 39.60100
C  35.94700 58.59900 40.09400
O  36.83700 57.89800 39.62900
C  36.18100 60.08300 40.28700
N  30.60000 60.16600 40.69800
C  31.84400 60.72000 40.91800
C  31.73300 62.16600 41.33500
C  30.19900 62.33200 41.48000
C  29.56300 61.09800 40.90200
C  32.58600 62.72300 42.47900
C  29.54400 63.59500 40.79200
C  28.77500 64.62100 41.62400
N  28.18100 58.52100 40.39600
C  27.46100 59.68200 40.60900
C  26.07000 59.39800 40.39900
C  25.97800 58.03200 40.04400
C  27.25600 57.59400 40.07500
C  24.88500 60.28000 40.52500
C  25.04500 56.94100 39.64300
O  23.82500 57.00300 39.48300
C  25.91000 55.63200 39.46500
C  25.25600 54.61300 40.42500
O  25.09200 54.77500 41.63800
O  24.96500 53.52100 39.76300
C  24.72400 52.35900 40.60600
H  32.54800 54.20300 40.04000
H  33.93900 60.50200 41.03600
H  27.55000 61.68000 41.08700
H  27.82200 53.43100 39.95700
H  30.40600 52.84900 39.14300
H  30.78600 51.89300 40.93700
H  29.12400 52.44300 41.48800
H  30.46600 53.38400 41.88200
H  27.10600 53.46900 37.74700
H  28.64500 52.70100 37.63700
H  29.54300 55.02300 37.00000
H  27.95600 55.64100 37.02200
H  35.78700 55.35400 38.68500
H  34.55600 54.49900 39.50700
H  35.81400 55.09700 40.45500
H  36.07700 60.34700 41.33900
H  35.39200 60.52200 39.67700
H  37.12900 60.44500 39.88800
H  32.01700 62.67700 40.41500
H  29.97700 62.30200 42.54700
H  33.52100 62.17900 42.61900
H  31.98300 62.54300 43.36800
H  32.91900 63.73100 42.23300
H  28.84300 63.25200 40.03100
H  30.28600 64.02700 40.12100
H  27.88500 64.92500 41.07200
H  29.44900 65.44000 41.87600
H  28.45800 64.08000 42.51500
H  25.20600 61.31000 40.36900
H  24.54400 60.20500 41.55800
H  24.09700 59.96900 39.84000
H  25.74800 55.32000 38.43300
H  25.11500 51.47400 40.10400
H  23.64000 52.30600 40.50900
H  25.11600 52.35800 41.62300

