158

Mg 16.98000 51.80000 25.98000
C  19.17000 49.95700 28.21100
C  14.93400 52.27500 28.70000
C  14.86200 53.09400 23.94400
C  18.84900 50.36300 23.44400
N  17.11100 51.27700 28.17800
C  18.08400 50.58800 28.89100
C  17.88000 50.70800 30.38100
C  16.37400 51.02600 30.34400
C  16.09900 51.49900 28.96500
C  15.40500 49.91100 30.85400
C  18.82000 51.81000 31.03800
C  19.19300 51.53900 32.44000
H  18.14400 50.93700 33.31000
N  15.19300 52.71900 26.30600
C  14.48000 52.88300 27.49700
C  13.40000 53.81700 27.32400
C  13.34100 54.09500 25.85200
C  14.44300 53.29100 25.26600
C  12.57200 54.40600 28.48000
C  12.41500 54.98800 25.08500
O  12.64600 55.26900 23.92300
C  11.25400 55.69900 25.76200
N  16.74400 51.44400 23.86200
C  15.82300 52.29100 23.26400
C  16.24800 52.62300 21.82600
C  17.69500 52.02100 21.73800
C  17.84400 51.23200 23.11300
C  15.27400 51.93300 20.80700
C  18.87400 53.09500 21.59600
C  19.83900 52.92300 20.41500
N  18.65800 50.45800 25.80700
C  19.21200 49.89200 24.71200
C  20.28700 48.98400 25.07200
C  20.30700 49.05600 26.47000
C  19.30300 49.92200 26.84400
C  21.20200 48.14000 24.09900
C  21.03400 48.59100 27.63700
O  22.08200 47.92500 27.72200
C  20.32400 49.18200 28.84000
C  19.85700 48.16400 29.77900
O  19.17200 47.17000 29.53700
O  20.52300 48.40000 30.96100
C  20.32200 47.35800 32.03200
H  14.27200 52.44500 29.55200
H  14.38400 53.73900 23.20400
H  19.59200 50.10900 22.68400
H  18.05100 49.67300 30.68000
H  16.16100 51.93900 30.90000
H  14.84400 49.51500 30.00700
H  14.70600 50.39800 31.53400
H  15.96100 49.08200 31.29100
H  18.25700 52.74100 30.97500
H  19.75700 51.84200 30.48200
H  19.49400 52.51000 32.83400
H  20.03400 50.85300 32.34200
H  12.65500 53.82600 29.39900
H  11.52000 54.57300 28.25200
H  13.12100 55.33100 28.65800
H  10.75800 56.28500 24.98800
H  11.79400 56.28200 26.50800
H  10.59100 54.96400 26.21700
H  16.27200 53.70700 21.72300
H  17.73000 51.39700 20.84500
H  14.25500 52.03200 21.17900
H  15.54300 50.89400 20.61500
H  15.20700 52.45600 19.85300
H  19.28500 52.92100 22.59000
H  18.48400 54.11200 21.54200
H  19.53100 52.05200 19.83600
H  20.88300 52.83000 20.71100
H  19.80400 53.83400 19.81700
H  21.77300 47.31300 24.52200
H  22.01800 48.78500 23.77600
H  20.53100 47.79000 23.31500
H  20.97400 49.82600 29.43300
H  20.64700 46.40900 31.60800
H  19.30000 47.16200 32.35600
H  21.00600 47.68400 32.81600
Mg 0.69300 42.34300 25.54600
C  2.36700 42.54200 28.73700
C  -2.02700 41.10200 27.16600
C  -0.62000 41.74300 22.56300
C  3.79900 43.06400 24.04800
N  0.22600 42.00300 27.67900
C  1.01800 42.18500 28.80600
C  0.18100 41.93600 30.09700
C  -1.18700 41.34500 29.48500
C  -0.99500 41.48200 28.00100
C  -1.38100 39.88400 29.95000
C  -0.02200 43.22800 31.03300
C  0.34900 42.98500 32.50500
H  0.03400 41.66400 33.07400
N  -1.08600 41.46900 24.96700
C  -2.13800 41.10800 25.77000
C  -3.24300 40.72100 24.98400
C  -2.82600 40.95100 23.59600
C  -1.46700 41.32500 23.64100
C  -4.53000 40.10000 25.57900
C  -3.67200 40.94300 22.35000
O  -3.18000 41.14900 21.21000
C  -5.18000 40.78700 22.50700
N  1.45800 42.43400 23.60300
C  0.69900 42.24800 22.57300
C  1.51900 42.48400 21.26500
C  2.87400 42.98400 21.76000
C  2.70600 42.84600 23.25600
C  1.46300 41.29000 20.23900
C  3.27800 44.41100 21.42800
C  4.37800 44.57500 20.28500
N  2.58700 42.81100 26.20600
C  3.77600 43.08500 25.51000
C  4.92500 43.37200 26.39000
C  4.36400 43.14400 27.63400
C  3.00300 42.81600 27.49100
C  6.29600 43.86200 26.06200
C  4.63900 43.18500 29.06500
O  5.61000 43.57100 29.66400
C  3.39100 42.83100 29.85200
C  3.71700 41.64800 30.55600
O  4.09300 40.60100 30.01200
O  3.62100 41.86400 31.90100
C  4.21000 40.83200 32.75700
H  -2.90800 40.63000 27.60500
H  -1.03100 41.71100 21.55100
H  4.75000 43.26800 23.55100
H  0.65400 41.16100 30.70000
H  -1.92300 41.96000 30.00200
H  -2.46700 39.89500 30.04500
H  -0.86200 39.61400 30.87000
H  -1.21000 39.16400 29.14900
H  -1.07500 43.50600 31.08100
H  0.53400 44.14700 30.84500
H  -0.20500 43.70000 33.11400
H  1.39700 43.16100 32.74800
H  -4.24600 39.36300 26.33100
H  -5.00700 39.51100 24.79600
H  -5.21800 40.82000 26.02200
H  -5.61000 40.95700 21.52000
H  -5.61600 41.46000 23.24500
H  -5.44000 39.74200 22.67800
H  0.89100 43.25300 20.81600
H  3.63000 42.22900 21.54400
H  1.22600 40.30300 20.63700
H  2.42100 41.10700 19.75200
H  0.76700 41.47800 19.42200
H  3.70700 44.88000 22.31400
H  2.39400 44.98400 21.15000
H  3.91200 44.12600 19.40800
H  5.30900 44.11800 20.61900
H  4.55100 45.61800 20.02000
H  6.25400 44.42200 25.12800
H  6.88300 42.94500 26.01500
H  6.74600 44.52200 26.80400
H  3.10400 43.64900 30.51400
H  4.27500 39.89600 32.20200
H  3.53600 40.68200 33.60000
H  5.15400 41.23200 33.12800

