158

Mg 9.28400 48.34700 26.11900
C  7.18200 48.82600 28.86500
C  11.99500 49.18600 28.26400
C  11.50000 48.11300 23.55800
C  6.57300 48.07400 24.02200
N  9.58100 48.90200 28.26400
C  8.55000 48.84500 29.16800
C  9.14100 48.88000 30.63800
C  10.58000 49.37500 30.37800
C  10.73900 49.19400 28.85100
C  10.86500 50.81700 30.85400
C  9.12600 47.50100 31.38200
C  9.70200 47.52200 32.79700
H  8.80500 46.98800 33.99100
N  11.45500 48.76600 25.86800
C  12.34200 48.99800 26.89900
C  13.71300 48.75000 26.33200
C  13.56500 48.42800 24.97700
C  12.12800 48.51700 24.69700
C  14.93500 48.82300 27.21200
C  14.61900 48.00000 24.01300
O  14.46600 47.90400 22.76600
C  16.04100 47.66600 24.49900
N  9.02200 48.18300 24.10400
C  10.09900 47.84000 23.28600
C  9.63000 47.44500 21.81300
C  8.05000 47.61300 21.94700
C  7.85600 47.88900 23.48100
C  10.31200 48.06700 20.56100
C  7.24400 46.39700 21.43700
C  5.91900 46.46800 20.65500
N  7.28100 48.49000 26.36300
C  6.30300 48.28600 25.38600
C  4.95000 48.48300 26.04400
C  5.29400 48.65500 27.36700
C  6.66700 48.67000 27.51900
C  3.55300 48.35900 25.43000
C  4.72600 48.80900 28.70200
O  3.51900 48.84900 28.98500
C  5.88900 49.04200 29.67800
C  5.77600 48.05300 30.79300
O  5.74200 46.89300 30.69500
O  5.59300 48.75600 31.97700
C  5.40900 48.04100 33.24200
H  12.79200 49.25100 29.00900
H  12.13000 47.61100 22.82100
H  5.81600 48.02800 23.23600
H  8.50400 49.55400 31.21000
H  11.37800 48.79500 30.84100
H  11.51000 50.79100 31.73200
H  9.94500 51.31600 31.16000
H  11.35200 51.40400 30.07500
H  9.56400 46.70000 30.78500
H  8.13500 47.04700 31.38500
H  10.10400 48.52500 32.94300
H  10.50600 46.78700 32.76600
H  15.58000 47.95500 27.07700
H  14.78900 48.98100 28.28100
H  15.59100 49.63900 26.90800
H  16.42000 48.59900 24.91600
H  16.66200 47.42200 23.63700
H  15.99600 46.79900 25.15700
H  9.81100 46.37100 21.77100
H  7.71500 48.40900 21.28200
H  9.66700 48.88400 20.23700
H  10.48100 47.34100 19.76600
H  11.31100 48.47600 20.70900
H  6.89500 45.77500 22.26100
H  7.90900 45.79600 20.81600
H  5.14300 45.96900 21.23500
H  6.10100 46.20200 19.61300
H  5.67100 47.52900 20.67700
H  3.30800 47.31300 25.24700
H  3.37300 48.97400 24.54800
H  2.72700 48.53600 26.11900
H  6.07000 50.06500 30.00800
H  4.34900 48.05200 33.49700
H  5.95900 48.49600 34.06600
H  5.66900 46.98500 33.17400
Mg -0.27600 44.42200 26.91600
C  2.03300 44.23200 29.42200
C  -2.81300 44.22000 29.22700
C  -2.59600 44.15300 24.38600
C  2.11400 44.66600 24.41900
N  -0.36200 44.28700 29.02600
C  0.70500 44.15300 29.87500
C  0.28600 44.02500 31.34000
C  -1.22100 43.71300 31.21700
C  -1.49500 44.20800 29.76800
C  -1.66100 42.32100 31.60700
C  0.51800 45.36200 32.06500
C  0.98300 45.23900 33.56200
H  0.61500 43.96800 34.42900
N  -2.41600 44.31500 26.80400
C  -3.23500 44.31400 27.89100
C  -4.61300 44.15200 27.46800
C  -4.56300 44.05300 26.01800
C  -3.15400 44.19800 25.68300
C  -5.65800 43.91400 28.46300
C  -5.72600 43.72800 25.11700
O  -5.59600 43.78200 23.89100
C  -7.12500 43.30900 25.70600
N  -0.19600 44.42700 24.64300
C  -1.31100 44.23400 23.87300
C  -0.95200 44.16700 22.40500
C  0.51800 44.55700 22.38400
C  0.87300 44.51300 23.86000
C  -1.26300 42.82800 21.71000
C  0.78100 45.86100 21.66400
C  2.06300 45.85800 20.70800
N  1.72300 44.45700 26.93100
C  2.60200 44.58900 25.82500
C  3.94800 44.57900 26.31700
C  3.79200 44.46200 27.71000
C  2.38400 44.39100 27.99300
C  5.11500 44.80300 25.45200
C  4.44000 44.34300 29.01700
O  5.60700 44.33500 29.26400
C  3.27300 44.23100 30.14100
C  3.52700 43.01700 30.99200
O  3.24500 41.87200 30.65600
O  3.97700 43.42600 32.22800
C  4.46700 42.37900 33.11200
H  -3.53700 44.06600 30.03000
H  -3.28200 44.01800 23.54700
H  2.97100 44.77300 23.75000
H  0.84100 43.22100 31.82300
H  -1.75800 44.26000 31.99100
H  -0.93600 41.75000 32.18700
H  -1.95500 41.77400 30.71100
H  -2.55000 42.37300 32.23600
H  -0.37400 45.98300 32.14700
H  1.27900 45.99100 31.60300
H  0.71900 46.11500 34.15600
H  2.07300 45.25300 33.54700
H  -6.60100 44.38900 28.19500
H  -5.53300 44.46100 29.39700
H  -5.80400 42.86000 28.70100
H  -7.91800 43.20800 24.96500
H  -7.43100 44.11000 26.37800
H  -6.97100 42.39500 26.27900
H  -1.55100 44.94800 21.93700
H  1.15900 43.74300 22.04800
H  -1.53900 42.07800 22.45200
H  -0.39600 42.43700 21.17600
H  -2.04100 43.09400 20.99400
H  0.95900 46.63400 22.41100
H  -0.07100 46.17700 21.06200
H  2.80600 46.47200 21.21700
H  1.86400 46.31400 19.73900
H  2.34500 44.81600 20.55800
H  4.86200 45.52300 24.67400
H  5.44500 43.83300 25.08200
H  5.76800 45.39000 26.09700
H  3.36800 45.14300 30.73000
H  4.55900 41.44000 32.56600
H  3.77400 42.32100 33.95100
H  5.43000 42.69200 33.51500

