158

Mg -8.80400 40.45800 42.57900
C  -8.08200 36.97100 41.70700
C  -6.10200 41.35300 40.90000
C  -10.01500 43.52200 42.75300
C  -12.08600 39.16900 43.52000
N  -7.49700 39.28500 41.19400
C  -7.17700 37.91400 41.22400
C  -5.90100 37.61800 40.37900
C  -5.16900 39.02300 40.45900
C  -6.31900 39.96200 40.86000
C  -4.01700 39.20900 41.52500
C  -6.18300 37.03800 38.93900
C  -5.42700 35.76200 38.50900
H  -4.53400 35.81700 37.24700
N  -8.10700 42.27400 42.01600
C  -6.89800 42.41200 41.37500
C  -6.66400 43.82300 41.19100
C  -7.74800 44.53700 41.76000
C  -8.68000 43.47200 42.28900
C  -5.40800 44.26100 40.45400
C  -8.03000 46.04200 41.72400
O  -7.23400 46.77400 41.11500
C  -9.24200 46.62300 42.29700
N  -10.78200 41.16900 43.06100
C  -10.92100 42.51000 43.08100
C  -12.36500 42.90300 43.52400
C  -13.08200 41.50500 43.74500
C  -11.98100 40.54800 43.36800
C  -12.58900 43.85100 44.67700
C  -14.36100 41.25500 42.94100
C  -15.60900 40.58300 43.56500
N  -9.78900 38.48800 42.90900
C  -11.07100 38.19600 43.31200
C  -11.24800 36.75800 43.26300
C  -10.08400 36.26800 42.77500
C  -9.28200 37.33000 42.37800
C  -12.48700 36.08500 43.81100
C  -9.39300 35.03900 42.41200
O  -9.59000 33.84100 42.61900
C  -8.09000 35.53600 41.63500
C  -6.84000 35.00100 42.21800
O  -6.31100 35.37200 43.25500
O  -6.36400 33.98700 41.43700
C  -5.05700 33.50700 41.98900
H  -5.07000 41.60500 40.64800
H  -10.45600 44.49500 42.97900
H  -12.99100 38.70400 43.91600
H  -5.22100 36.93800 40.89200
H  -4.78000 39.18000 39.45300
H  -3.89800 38.31500 42.13800
H  -4.37000 39.89400 42.29600
H  -3.05900 39.49100 41.08700
H  -6.00400 37.86500 38.25100
H  -7.27200 37.01200 38.90100
H  -6.20100 35.03900 38.25200
H  -4.89900 35.35600 39.37100
H  -5.03500 45.13800 40.98300
H  -5.53700 44.65700 39.44700
H  -4.54400 43.60800 40.56900
H  -9.31700 47.71000 42.27000
H  -9.21500 46.26800 43.32700
H  -10.15000 46.34100 41.76300
H  -12.76400 43.37100 42.62400
H  -13.32600 41.39200 44.80100
H  -11.62000 44.24700 44.98000
H  -13.09000 43.39700 45.53200
H  -13.20000 44.71000 44.39600
H  -14.12700 40.76000 41.99900
H  -14.65800 42.20100 42.48700
H  -15.44200 40.47400 44.63700
H  -15.81300 39.60900 43.12100
H  -16.49400 41.21900 43.53200
H  -12.08300 35.11600 44.10300
H  -13.19800 36.05000 42.98500
H  -12.89400 36.59000 44.68700
H  -7.95500 35.13600 40.63000
H  -4.33200 34.30700 42.14400
H  -4.65300 32.94400 41.14700
H  -5.05700 32.83600 42.84700
Mg -8.68700 18.06500 43.64700
C  -5.19400 17.90000 43.99000
C  -8.58800 21.31000 43.24200
C  -12.02000 18.06000 42.77900
C  -8.72200 14.53800 43.77700
N  -6.96400 19.41100 43.44400
C  -5.65000 19.23100 43.85500
C  -4.82600 20.51100 43.79400
C  -6.07200 21.58000 43.91100
C  -7.31200 20.74200 43.52100
C  -6.11200 22.24400 45.38600
C  -4.05700 20.82100 42.43200
C  -4.08900 19.75600 41.31900
H  -4.44700 20.10300 39.84200
N  -10.07500 19.50400 43.06700
C  -9.80900 20.78700 42.97500
C  -10.92100 21.46700 42.41200
C  -11.99300 20.51100 42.21200
C  -11.40700 19.30100 42.57000
C  -10.98000 22.97200 42.34800
C  -13.42900 20.85500 41.73400
O  -13.82100 22.04800 41.60000
C  -14.37600 19.75400 41.46500
N  -10.09000 16.48500 43.21700
C  -11.44500 16.78400 43.12900
C  -12.30000 15.56700 43.38700
C  -11.19300 14.47900 43.53800
C  -9.88600 15.21500 43.61200
C  -13.31200 15.60100 44.58600
C  -11.17600 13.61400 42.25800
C  -12.21500 12.42700 42.28700
N  -7.27400 16.51000 43.89800
C  -7.41000 15.18500 43.87100
C  -6.07200 14.59500 43.90400
C  -5.15100 15.59500 43.94800
C  -5.96400 16.76200 43.96700
C  -5.94400 13.12500 43.73300
C  -3.78400 15.93200 43.94500
O  -2.77600 15.23200 43.99900
C  -3.73500 17.44300 44.19300
C  -3.33900 17.51100 45.62400
O  -2.25200 17.82700 46.12500
O  -4.42200 17.12400 46.45200
C  -4.30300 17.26600 47.92500
H  -8.46700 22.39400 43.27000
H  -13.11000 18.00700 42.76700
H  -8.76100 13.44700 43.80000
H  -4.15000 20.58900 44.64500
H  -5.83400 22.35400 43.18200
H  -7.14800 22.12000 45.70200
H  -5.87300 23.30100 45.26400
H  -5.52500 21.67800 46.10900
H  -3.05000 20.89500 42.84300
H  -4.36500 21.72300 41.90300
H  -4.95900 19.13100 41.52400
H  -3.19200 19.14200 41.39700
H  -10.83500 23.39800 41.35600
H  -10.15800 23.28300 42.99300
H  -11.91100 23.39700 42.72300
H  -14.72800 19.28300 42.38200
H  -14.01500 19.03600 40.72800
H  -15.22100 20.26500 41.00500
H  -12.89400 15.39600 42.49000
H  -11.27400 13.83000 44.41000
H  -14.33600 15.75500 44.24500
H  -12.91900 16.43800 45.16300
H  -13.33900 14.73600 45.24900
H  -10.13900 13.30800 42.11800
H  -11.51600 14.22400 41.42100
H  -12.98700 12.68200 43.01300
H  -11.64300 11.50100 42.34300
H  -12.59500 12.40200 41.26600
H  -6.55600 12.60400 44.47000
H  -4.90700 12.85300 43.93000
H  -6.19800 12.79100 42.72700
H  -3.04600 18.02900 43.58400
H  -3.36000 16.81600 48.23500
H  -5.20300 16.78100 48.30300
H  -4.31800 18.34100 48.10800

