158

Mg 17.80600 -2.33300 28.02700
C  16.74200 0.01400 30.54000
C  19.64700 -3.89200 30.60700
C  19.16800 -4.22700 25.69900
C  16.24100 -0.41100 25.59000
N  17.98300 -2.06700 30.34800
C  17.42000 -1.06300 31.06900
C  17.74600 -1.29000 32.55900
C  18.76500 -2.49700 32.55500
C  18.75100 -2.90500 31.06900
C  20.12600 -2.01900 33.06400
C  16.44500 -1.53300 33.47700
C  16.25800 -0.70600 34.70300
H  17.47200 0.00600 35.30700
N  19.15400 -3.84300 28.13000
C  19.69300 -4.44800 29.23600
C  20.48800 -5.55000 28.86200
C  20.37600 -5.65800 27.41900
C  19.50600 -4.53300 27.04000
C  21.32000 -6.44700 29.80500
C  21.10900 -6.58000 26.46600
O  21.09300 -6.48400 25.25600
C  22.00100 -7.65800 27.01100
N  17.86700 -2.14800 25.94900
C  18.43500 -3.11200 25.20500
C  18.33200 -2.79400 23.69000
C  17.32400 -1.61500 23.66700
C  17.06600 -1.40900 25.15700
C  19.68400 -2.51400 22.94100
C  16.03800 -1.87200 22.91000
C  15.54200 -0.93700 21.76800
N  16.73400 -0.59300 28.01200
C  16.17100 0.10200 26.91300
C  15.49700 1.29400 27.41600
C  15.70800 1.28900 28.76700
C  16.46300 0.19000 29.11400
C  14.73800 2.26100 26.63600
C  15.46600 2.00800 30.04100
O  14.80500 3.00600 30.31800
C  16.17700 1.19400 31.18300
C  17.06200 2.11400 31.86700
O  18.30000 2.03900 31.85200
O  16.41100 2.97900 32.76800
C  17.18500 3.90300 33.57600
H  20.20000 -4.33200 31.43900
H  19.49300 -4.85200 24.86500
H  15.67700 0.16600 24.85500
H  18.22200 -0.32800 32.74700
H  18.44900 -3.29900 33.22200
H  20.10000 -1.02000 33.50000
H  20.75200 -1.89100 32.18100
H  20.59700 -2.75500 33.71500
H  16.46800 -2.59600 33.72000
H  15.59300 -1.48100 32.80000
H  15.80700 -1.38500 35.42600
H  15.51800 0.04300 34.42300
H  22.35300 -6.50700 29.46400
H  20.98800 -7.48500 29.83300
H  21.37700 -6.04400 30.81600
H  21.50700 -8.19500 27.82100
H  22.85900 -7.08800 27.36600
H  22.32900 -8.39300 26.27600
H  17.93600 -3.72100 23.27500
H  17.91600 -0.72600 23.44600
H  20.37600 -2.25300 23.74200
H  19.64200 -1.72800 22.18800
H  20.10700 -3.43300 22.53400
H  15.23400 -2.06000 23.62200
H  16.17400 -2.85100 22.45000
H  15.76200 -1.32400 20.77300
H  16.20600 -0.07300 21.75200
H  14.54300 -0.50100 21.79100
H  14.54300 3.17900 27.19100
H  13.83100 1.81100 26.23400
H  15.37300 2.59900 25.81700
H  15.47900 0.83700 31.94100
H  16.78800 4.91500 33.49400
H  18.26000 3.89300 33.39700
H  17.08100 3.63100 34.62700
Mg -9.75100 40.12900 41.50900
C  -8.57800 36.85100 40.61800
C  -6.82600 41.38900 40.33700
C  -11.19600 43.09800 41.67400
C  -12.85500 38.69200 42.25700
N  -7.95300 39.20500 40.49400
C  -7.64800 37.85300 40.38400
C  -6.28400 37.71200 39.74100
C  -5.60100 39.07700 40.08000
C  -6.88000 39.96400 40.40100
C  -4.64100 39.08800 41.28700
C  -6.41600 37.41400 38.16800
C  -5.59900 36.32000 37.51300
H  -4.40700 36.81500 36.60700
N  -9.01100 41.97100 41.29300
C  -7.85200 42.30700 40.67700
C  -7.84700 43.75000 40.61800
C  -9.00000 44.27500 41.18600
C  -9.82800 43.10900 41.40900
C  -6.64500 44.43600 40.12000
C  -9.30100 45.74600 41.32400
O  -8.39300 46.55300 41.05200
C  -10.61600 46.24400 41.89000
N  -11.81900 40.80400 42.08800
C  -12.10800 42.12600 42.02900
C  -13.64300 42.31400 42.12000
C  -14.11100 40.92000 42.60500
C  -12.89300 40.06300 42.30700
C  -14.20000 43.46500 43.08100
C  -15.29800 40.41900 41.81500
C  -16.22800 39.42500 42.53200
N  -10.51000 38.17400 41.57200
C  -11.80900 37.77900 41.90300
C  -11.90100 36.34100 41.87900
C  -10.66200 35.95400 41.34300
C  -9.84200 37.12300 41.12100
C  -13.23900 35.59100 42.23900
C  -9.83700 34.80200 40.91600
O  -10.09600 33.58900 40.97500
C  -8.52100 35.35900 40.46400
C  -7.42300 34.75600 41.20100
O  -7.28600 34.87500 42.39600
O  -6.47800 34.14700 40.35500
C  -5.36700 33.70800 41.11800
H  -5.92700 41.84800 39.91900
H  -11.66200 44.08500 41.70500
H  -13.83900 38.31200 42.54000
H  -5.81700 36.92600 40.33300
H  -5.07200 39.44700 39.20300
H  -4.64400 38.10400 41.75500
H  -4.88300 39.77900 42.09400
H  -3.63000 39.26900 40.92000
H  -6.06000 38.34000 37.71500
H  -7.43700 37.23500 37.83100
H  -6.33600 35.71900 36.98000
H  -5.20100 35.74400 38.34800
H  -6.81500 44.62800 39.06100
H  -5.73500 43.85000 40.25100
H  -6.41600 45.38000 40.61600
H  -10.67100 45.94600 42.93700
H  -11.51100 46.00700 41.31400
H  -10.52000 47.32600 41.97400
H  -13.90500 42.57100 41.09400
H  -14.19400 40.89600 43.69200
H  -13.40000 43.82100 43.73100
H  -14.89800 43.02000 43.78900
H  -14.61600 44.31600 42.54100
H  -14.93300 39.90800 40.92400
H  -15.87200 41.25200 41.40900
H  -17.30200 39.58100 42.43200
H  -15.92100 39.38200 43.57700
H  -15.95100 38.50900 42.00900
H  -13.82600 35.31600 41.36300
H  -13.87800 36.20400 42.87400
H  -12.97900 34.63200 42.68600
H  -8.41900 35.10900 39.40800
H  -4.80900 34.50400 41.61200
H  -4.75700 33.07700 40.47200
H  -5.70700 32.97700 41.85100

