158

Mg 46.96300 16.79800 27.97700
C  44.98800 16.90200 30.87800
C  49.33800 18.73900 29.69200
C  48.88800 17.08800 25.15600
C  44.45400 15.26800 26.26100
N  47.19700 17.71800 30.07000
C  46.23300 17.60700 31.05200
C  46.79100 18.11100 32.39600
C  48.01300 19.02200 31.90600
C  48.20600 18.54400 30.46600
C  47.84700 20.54600 31.98700
C  47.21700 16.98400 33.39000
C  47.43000 17.40800 34.85500
H  46.87700 18.76100 35.37000
N  48.86400 17.67100 27.50900
C  49.62400 18.43200 28.35800
C  50.83700 18.88800 27.73200
C  50.74200 18.54400 26.34600
C  49.45800 17.73900 26.25700
C  51.95800 19.69200 28.47300
C  51.61800 18.86500 25.23300
O  51.33700 18.77000 24.07200
C  52.91900 19.45300 25.51600
N  46.72400 16.33000 26.06800
C  47.63200 16.48900 25.09100
C  47.04700 16.09300 23.68400
C  45.67500 15.42100 24.05200
C  45.65000 15.56200 25.59300
C  46.95700 17.19800 22.62300
C  45.41300 13.95800 23.55800
C  44.26600 13.79100 22.53100
N  45.08100 16.31100 28.39900
C  44.18700 15.58600 27.63300
C  42.99500 15.27700 28.37000
C  43.29900 15.65700 29.66900
C  44.57200 16.32400 29.65500
C  41.78300 14.55900 27.94600
C  42.87300 15.59200 31.04900
O  41.96500 14.94100 31.58000
C  43.93400 16.50400 31.87900
C  43.24000 17.69300 32.49600
O  42.66600 18.61900 31.89400
O  43.35000 17.63200 33.86300
C  42.55200 18.64000 34.63900
H  50.14500 19.25800 30.21200
H  49.39800 17.22700 24.20000
H  43.76000 14.65000 25.68700
H  46.10200 18.81600 32.86200
H  48.84000 18.67900 32.52800
H  46.86900 20.86200 32.35100
H  47.82300 21.05400 31.02300
H  48.44900 21.03900 32.75000
H  48.12200 16.60700 32.91500
H  46.52600 16.15000 33.51000
H  48.51900 17.42500 34.89800
H  46.99900 16.65700 35.51800
H  51.98200 19.76600 29.56000
H  51.65500 20.69500 28.17300
H  52.98300 19.54600 28.13300
H  52.78400 20.37700 26.07800
H  53.41900 19.54700 24.55200
H  53.50200 18.77300 26.13600
H  47.71700 15.30000 23.34900
H  44.83600 15.99200 23.65400
H  45.93600 17.57300 22.54400
H  47.36800 16.84700 21.67600
H  47.61700 18.00100 22.94900
H  45.27400 13.32100 24.43100
H  46.24700 13.56400 22.97700
H  43.87800 12.77800 22.43000
H  44.62100 14.03800 21.53000
H  43.49800 14.52900 22.76200
H  41.59600 14.97800 26.95700
H  41.01800 14.72500 28.70400
H  41.95200 13.48200 27.95300
H  44.31100 15.90700 32.71000
H  41.75300 18.99700 33.99000
H  43.10200 19.51400 34.98600
H  42.08600 18.13200 35.48400
Mg 1.18600 41.85300 25.29300
C  1.86500 42.11900 28.70400
C  -1.74900 40.31000 26.16400
C  0.77100 41.00200 22.03600
C  4.52500 42.59200 24.64700
N  0.16500 41.26000 27.21900
C  0.61900 41.59700 28.46700
C  -0.52800 41.47500 29.46300
C  -1.55700 40.63500 28.68600
C  -1.04100 40.72800 27.28500
C  -1.67300 39.14000 29.11000
C  -0.96800 42.88100 29.96700
C  -2.40400 42.81700 30.53400
H  -2.70000 41.81100 31.52800
N  -0.40700 40.92100 24.19200
C  -1.51900 40.34900 24.76500
C  -2.36100 39.94900 23.62100
C  -1.57500 40.04100 22.41900
C  -0.35500 40.67400 22.85100
C  -3.74400 39.36500 23.90000
C  -1.96500 39.66800 21.00600
O  -1.23500 39.86300 20.05900
C  -3.26400 39.08600 20.71800
N  2.45700 41.77700 23.65000
C  2.02700 41.40600 22.41700
C  3.12300 41.67700 21.28500
C  4.25300 42.35400 22.15100
C  3.70000 42.18600 23.59600
C  3.68400 40.41500 20.57500
C  4.50600 43.84100 21.64200
C  3.53300 44.88300 22.14800
N  2.86700 42.43500 26.41300
C  4.15800 42.70600 25.98900
C  4.92800 43.11100 27.18000
C  4.05000 42.90300 28.28000
C  2.85200 42.40300 27.72700
C  6.40600 43.47900 27.24600
C  3.89700 42.96300 29.76800
O  4.67500 43.26900 30.70600
C  2.46900 42.45200 30.06100
C  2.62400 41.30800 30.94400
O  3.34200 40.31700 30.66300
O  1.89800 41.42000 32.08600
C  1.82800 40.17100 32.86400
H  -2.71700 39.85800 26.38500
H  0.80000 40.76400 20.97100
H  5.55800 42.78700 24.35000
H  -0.30300 40.91000 30.36800
H  -2.57800 41.01600 28.69000
H  -0.77300 38.59100 28.83200
H  -2.54700 38.83800 28.53200
H  -1.90000 39.11500 30.17500
H  -0.92500 43.71700 29.26900
H  -0.44500 43.10700 30.89600
H  -3.16300 42.68200 29.76300
H  -2.58700 43.77100 31.02800
H  -4.56200 39.78200 23.31300
H  -4.02500 39.63000 24.91900
H  -3.70900 38.28000 23.80100
H  -3.50300 38.19500 21.29800
H  -3.35100 38.81400 19.66600
H  -4.00900 39.83400 20.98900
H  2.77800 42.42000 20.56700
H  5.17600 41.78000 22.06600
H  4.76000 40.49100 20.42000
H  3.22100 40.23800 19.60400
H  3.42400 39.57200 21.21500
H  4.50600 43.79600 20.55300
H  5.51900 44.03600 21.99400
H  2.76400 44.43500 22.77700
H  3.09400 45.29200 21.23900
H  4.04000 45.69500 22.66900
H  6.66800 43.81200 26.24100
H  6.97800 42.56500 27.40600
H  6.59500 44.21200 28.02900
H  1.87700 43.11000 30.69700
H  1.71600 39.30100 32.21600
H  0.89200 40.17100 33.42200
H  2.73600 40.08800 33.46100

