158

Mg -1.71100 17.58600 26.54800
C  -2.43700 15.10700 28.98100
C  -2.62900 19.87900 28.89000
C  -1.83700 19.92400 24.09800
C  -2.05500 15.05100 24.15100
N  -2.31300 17.54600 28.67200
C  -2.42400 16.41900 29.51500
C  -2.79100 16.75100 30.96100
C  -2.85500 18.36000 30.82900
C  -2.66600 18.61600 29.40900
C  -4.06000 19.12200 31.45800
C  -1.68200 16.27000 31.90800
C  -1.28400 17.12400 33.15900
H  -0.78100 16.43000 34.43700
N  -2.09500 19.68500 26.53900
C  -2.41000 20.42700 27.62100
C  -2.57600 21.74700 27.30000
C  -2.42600 21.78600 25.85900
C  -2.09900 20.43500 25.42100
C  -2.88400 22.86200 28.33800
C  -2.71000 22.98300 24.84100
O  -2.63400 22.76500 23.60600
C  -3.01800 24.28100 25.39500
N  -1.82100 17.52800 24.41900
C  -1.68900 18.63600 23.62400
C  -1.54800 18.14800 22.14600
C  -1.55600 16.61800 22.21300
C  -1.87200 16.36900 23.68100
C  -2.67000 18.66000 21.21500
C  -0.22000 15.85300 21.98400
C  -0.38400 14.55400 21.12600
N  -1.86100 15.49100 26.55100
C  -2.06600 14.60700 25.48800
C  -2.19000 13.21700 25.96700
C  -2.39500 13.40000 27.34800
C  -2.24900 14.78900 27.64200
C  -2.19700 12.03000 25.11900
C  -2.66400 12.65500 28.51600
O  -2.82800 11.46900 28.67800
C  -2.56400 13.78900 29.70000
C  -1.44000 13.39800 30.61300
O  -0.27200 13.65500 30.54300
O  -1.88000 12.46600 31.53500
C  -1.00100 12.16200 32.66800
H  -2.83700 20.59000 29.69200
H  -1.57500 20.65700 23.33200
H  -2.02400 14.31200 23.34700
H  -3.71400 16.31900 31.34800
H  -1.97500 18.78100 31.31700
H  -4.72900 18.31100 31.74500
H  -4.61400 19.87800 30.90100
H  -3.75500 19.58300 32.39800
H  -0.72400 16.16300 31.40000
H  -2.11600 15.34500 32.28800
H  -2.10300 17.74900 33.51500
H  -0.46500 17.77800 32.86000
H  -3.84200 23.33700 28.12500
H  -2.04400 23.55500 28.38800
H  -2.85300 22.44300 29.34300
H  -3.10800 24.98900 24.57200
H  -2.26000 24.56600 26.12400
H  -3.98000 24.32500 25.90600
H  -0.58700 18.55800 21.83800
H  -2.35500 16.20900 21.59400
H  -3.26000 19.47600 21.63200
H  -3.32900 17.83500 20.94600
H  -2.04700 19.01200 20.39300
H  0.24500 15.57900 22.93100
H  0.52600 16.45400 21.46500
H  -1.41200 14.19600 21.07100
H  0.29000 13.71700 21.30900
H  -0.18400 14.66900 20.06100
H  -3.25600 11.87000 24.91500
H  -1.74700 11.17000 25.61500
H  -1.62000 12.22300 24.21500
H  -3.40700 13.66000 30.37900
H  -0.22000 12.90500 32.83200
H  -0.55900 11.16700 32.63800
H  -1.61100 12.30500 33.56000
Mg 31.08500 58.37700 40.31800
C  28.15700 56.51600 39.14800
C  32.99800 55.65200 39.20700
C  33.67100 60.43300 40.56200
C  28.90700 61.11000 40.80800
N  30.62800 56.32700 39.19200
C  29.39800 55.79100 38.88500
C  29.60800 54.40900 38.18100
C  31.06300 54.02800 38.68800
C  31.62000 55.43300 39.05300
C  31.10200 53.10600 39.99700
C  29.40000 54.65700 36.67500
C  28.59600 53.50700 36.00900
H  28.29000 53.69400 34.50500
N  33.10600 58.08400 39.90800
C  33.70200 56.88700 39.48600
C  35.09300 57.22400 39.24500
C  35.35400 58.53400 39.66700
C  34.00000 59.09200 40.05700
C  36.03100 56.19700 38.77100
C  36.70400 59.21900 39.69100
O  37.71100 58.59900 39.39200
C  36.84200 60.67700 40.10700
N  31.23600 60.48700 40.66000
C  32.46500 61.02900 40.80700
C  32.35000 62.60000 41.18500
C  30.75900 62.76800 41.19700
C  30.23700 61.37800 40.92100
C  33.17100 63.14400 42.39000
C  30.22500 63.84800 40.11500
C  29.28500 64.90600 40.52000
N  28.97700 58.68300 40.24600
C  28.26300 59.88200 40.34400
C  26.86000 59.72200 40.15500
C  26.80300 58.38600 39.61200
C  28.08000 57.81000 39.70300
C  25.75300 60.67400 40.30700
C  25.88000 57.36200 39.09100
O  24.66400 57.38800 39.00100
C  26.68900 56.08300 38.89000
C  26.22200 55.01900 39.82900
O  26.96000 54.58800 40.69800
O  24.94600 54.71500 39.56800
C  24.31000 53.64600 40.36200
H  33.59700 54.80200 38.87100
H  34.45400 61.17200 40.74300
H  28.16700 61.91300 40.81100
H  29.01900 53.58900 38.59200
H  31.67000 53.57000 37.90700
H  30.16400 52.55900 40.09600
H  31.06500 53.74600 40.87900
H  32.04700 52.56600 39.93100
H  30.40500 54.81800 36.28700
H  28.85100 55.58600 36.52000
H  27.60400 53.42300 36.45300
H  29.08900 52.55100 36.18700
H  37.01400 56.37900 39.20600
H  36.14700 56.33000 37.69500
H  35.60200 55.21700 38.97800
H  36.16900 61.24000 39.46100
H  37.88000 61.01000 40.06900
H  36.57900 60.70600 41.16500
H  32.64100 63.22600 40.34100
H  30.45500 63.18500 42.15800
H  32.60200 63.55300 43.22400
H  34.10000 63.58200 42.02600
H  33.55700 62.21900 42.82100
H  29.83300 63.38400 39.21000
H  31.06100 64.48600 39.82900
H  29.67100 65.90800 40.33700
H  29.39100 64.92500 41.60500
H  28.25900 64.68400 40.22600
H  25.70800 61.17100 39.33800
H  25.89000 61.28800 41.19700
H  24.81600 60.13300 40.44100
H  26.49800 55.81700 37.85000
H  23.95800 52.84400 39.71300
H  23.46200 54.04900 40.91600
H  24.90300 53.18000 41.14900

