158

Mg 47.83700 15.99200 27.97100
C  45.54800 16.00800 30.76200
C  49.87800 18.17400 29.93300
C  49.92100 16.34200 25.37700
C  45.43600 14.60400 26.04900
N  47.67000 17.01300 30.12500
C  46.76600 16.65800 31.11900
C  47.19100 17.20500 32.49300
C  48.38900 18.15100 32.05000
C  48.76800 17.69300 30.66100
C  48.06900 19.74500 32.11300
C  47.59000 16.05500 33.35300
C  47.54200 16.53500 34.84300
H  48.85100 16.21600 35.70600
N  49.70800 16.97900 27.69800
C  50.36200 17.81700 28.60300
C  51.56400 18.31900 28.01800
C  51.63700 17.70700 26.72400
C  50.45700 16.92000 26.53500
C  52.47200 19.25600 28.69300
C  52.76100 17.86700 25.70200
O  52.83400 17.28200 24.65900
C  53.83700 18.97900 25.92000
N  47.69100 15.56000 25.99900
C  48.70600 15.75900 25.12400
C  48.36000 15.20400 23.69300
C  46.99200 14.59200 23.97700
C  46.63300 14.91200 25.42500
C  48.34500 16.20100 22.52300
C  46.91300 13.07600 23.70500
C  47.16600 12.65100 22.29000
N  45.89300 15.36200 28.26700
C  45.10100 14.74900 27.38100
C  43.91900 14.40500 28.06800
C  44.01900 14.88600 29.39900
C  45.26000 15.52500 29.41800
C  42.77600 13.60000 27.48300
C  43.32100 14.93500 30.72100
O  42.24600 14.58100 31.14400
C  44.38400 15.63200 31.66400
C  43.63400 16.80600 32.28700
O  43.48800 17.84600 31.76300
O  43.08700 16.44100 33.50400
C  42.08200 17.42700 34.05000
H  50.60700 18.69000 30.56100
H  50.50200 16.34000 24.45200
H  44.72400 14.12600 25.37200
H  46.45900 17.89300 32.91600
H  49.27000 17.94300 32.65700
H  48.78600 20.27800 32.73700
H  47.14400 20.00500 32.62800
H  48.10300 20.28700 31.16800
H  48.61300 15.84200 33.04200
H  46.98300 15.16000 33.21600
H  46.77200 15.95200 35.34900
H  47.19400 17.56500 34.92500
H  52.60900 20.21700 28.19700
H  53.46600 18.80800 28.70900
H  52.37000 19.37200 29.77200
H  54.56700 18.72500 26.68900
H  53.33900 19.87100 26.30200
H  54.25900 19.05000 24.91800
H  49.05100 14.39800 23.44400
H  46.19300 15.06200 23.40400
H  48.30600 17.14200 23.07100
H  47.45000 16.00500 21.93400
H  49.20800 16.07000 21.87000
H  45.89700 12.74800 23.92300
H  47.53000 12.52100 24.41200
H  47.25100 13.52800 21.64900
H  46.40700 12.00400 21.85100
H  48.08000 12.07000 22.16700
H  43.17600 13.01800 26.65300
H  41.98500 14.29800 27.21000
H  42.33300 12.85000 28.13900
H  44.62700 14.89400 32.42800
H  41.51800 17.96900 33.29100
H  42.60400 18.12100 34.70900
H  41.43500 16.80100 34.66400
Mg -1.58700 34.30200 26.45600
C  -3.13100 32.51600 29.24700
C  -0.19900 36.34600 28.61700
C  -0.66400 36.15400 23.81400
C  -3.65300 32.35100 24.41000
N  -1.45500 34.18500 28.68500
C  -2.19800 33.49100 29.59800
C  -1.81200 33.92800 31.00600
C  -1.19800 35.33400 30.81900
C  -0.85300 35.27000 29.27100
C  -2.01800 36.62200 31.34300
C  -0.97200 32.84800 31.77000
C  -1.48700 32.68300 33.16900
H  -0.41800 32.34400 34.23200
N  -0.56800 35.95600 26.24200
C  -0.00500 36.67000 27.24100
C  0.75600 37.79500 26.64500
C  0.62400 37.80600 25.22600
C  -0.23600 36.61800 25.03300
C  1.67700 38.66000 27.48400
C  1.17600 38.67500 24.08200
O  1.11400 38.36500 22.91200
C  1.88700 39.95900 24.42700
N  -1.93800 34.11200 24.36900
C  -1.52100 35.09900 23.53400
C  -2.15000 34.85300 22.16400
C  -2.85600 33.54100 22.30900
C  -2.79000 33.26700 23.79300
C  -2.97200 35.97700 21.47000
C  -2.25200 32.45700 21.34400
C  -0.94700 31.70500 21.84000
N  -3.19200 32.89200 26.70600
C  -3.87000 32.13900 25.74700
C  -4.81700 31.29100 26.34100
C  -4.55000 31.34800 27.71500
C  -3.58500 32.35500 27.89400
C  -5.79100 30.29500 25.78700
C  -4.88400 30.81800 29.00500
O  -5.71200 29.99800 29.35600
C  -3.99900 31.56200 30.07600
C  -4.95300 32.20000 31.02800
O  -5.77600 33.07300 30.80500
O  -4.58700 31.78000 32.25100
C  -5.37600 32.31900 33.36400
H  0.26400 37.12100 29.23000
H  -0.30500 36.66000 22.91500
H  -4.35200 31.92500 23.68700
H  -2.75300 34.00300 31.55000
H  -0.22600 35.30300 31.31100
H  -2.25100 37.13700 30.41100
H  -1.35700 37.13800 32.04000
H  -2.97800 36.40900 31.81300
H  0.07700 33.13200 31.68800
H  -1.35300 31.92600 31.33100
H  -2.36600 32.04900 33.28700
H  -1.91400 33.63100 33.49700
H  1.54800 38.30700 28.50800
H  1.29100 39.67900 27.51500
H  2.70600 38.67000 27.12400
H  1.46500 40.73100 23.78400
H  2.95800 39.88300 24.23700
H  1.70200 40.39900 25.40700
H  -1.25500 34.62100 21.58700
H  -3.90600 33.63900 22.03500
H  -2.40800 36.47600 20.68300
H  -3.15500 36.71100 22.25500
H  -3.92800 35.75200 20.99700
H  -2.03700 32.85700 20.35300
H  -3.01800 31.68500 21.26600
H  -1.11900 30.65400 22.07200
H  -0.42500 32.19300 22.66300
H  -0.20800 31.81700 21.04700
H  -5.59300 30.24600 24.71600
H  -6.83100 30.54200 26.00300
H  -5.64900 29.36800 26.34200
H  -3.32800 30.84500 30.55000
H  -6.30700 32.83800 33.13600
H  -4.61700 32.94600 33.83300
H  -5.57300 31.47000 34.01800

