158

Mg 24.81100 -3.85800 45.89800
C  27.01000 -1.50500 44.31600
C  22.43700 -2.73000 43.80900
C  23.19100 -6.52800 46.69700
C  27.57900 -4.91400 47.79700
N  24.78100 -2.48400 44.01400
C  25.72900 -1.49200 43.70000
C  25.25300 -0.58200 42.63300
C  23.67600 -0.80600 42.81600
C  23.64700 -2.11100 43.58700
C  22.89700 0.26100 43.59000
C  25.81700 -1.03500 41.33700
C  25.99000 0.11000 40.31400
H  26.10000 -0.21400 38.79600
N  23.00700 -4.56400 45.28900
C  22.15700 -3.92500 44.46100
C  20.92300 -4.68300 44.41200
C  21.13200 -5.89400 45.19800
C  22.47000 -5.68900 45.79800
C  19.71700 -4.11800 43.70700
C  20.16700 -6.97200 45.33600
O  19.03800 -6.87400 44.88900
C  20.46700 -8.22500 46.08800
N  25.41400 -5.54700 47.01300
C  24.48300 -6.49400 47.23100
C  25.04700 -7.58600 48.18200
C  26.30500 -6.89000 48.75000
C  26.50800 -5.75000 47.76200
C  24.12500 -8.27500 49.18800
C  27.49000 -7.88900 48.78800
C  28.45700 -7.75700 49.96300
N  26.96000 -3.36200 46.05100
C  27.90200 -3.85800 46.87500
C  29.10200 -3.10900 46.61800
C  28.83700 -2.14500 45.64800
C  27.52900 -2.39400 45.31500
C  30.38300 -3.31600 47.37400
C  29.30700 -1.02800 44.92800
O  30.35200 -0.40500 44.93200
C  28.24300 -0.62100 43.99300
C  27.98900 0.79900 44.20200
O  27.58400 1.22800 45.27100
O  28.37500 1.39600 43.01300
C  28.15400 2.86500 43.00000
H  21.55000 -2.32200 43.31900
H  22.70400 -7.46700 46.97100
H  28.31500 -5.12500 48.57500
H  25.58400 0.42600 42.88300
H  23.20000 -0.94200 41.84500
H  23.57700 1.06400 43.87400
H  22.44400 -0.18900 44.47400
H  22.12600 0.64500 42.92200
H  25.15000 -1.74500 40.84700
H  26.81000 -1.47500 41.42800
H  26.80500 0.69600 40.73700
H  25.06300 0.64200 40.53000
H  19.97200 -4.13100 42.64800
H  19.53000 -3.04600 43.76000
H  18.77800 -4.61200 43.96100
H  21.38000 -8.70600 45.73700
H  19.77400 -9.02600 45.83200
H  20.58300 -8.09800 47.16400
H  25.45100 -8.31400 47.48000
H  26.08600 -6.43700 49.71600
H  24.43100 -8.07100 50.21400
H  24.19100 -9.35500 49.05100
H  23.12200 -7.96100 48.90000
H  27.99800 -7.77000 47.83100
H  27.06600 -8.89300 48.80700
H  28.10700 -8.39600 50.77400
H  28.29500 -6.77600 50.41000
H  29.50400 -7.91700 49.70400
H  31.02800 -4.09900 46.97600
H  30.14500 -3.51100 48.41900
H  30.90300 -2.36400 47.48200
H  28.58300 -0.93900 43.00700
H  27.12800 3.19900 42.84800
H  28.73600 3.30600 42.19100
H  28.51900 3.26700 43.94500
Mg 46.25800 4.90500 48.54100
C  44.65700 7.95900 47.63900
C  43.41900 3.24000 47.78500
C  47.96800 2.13800 48.54500
C  49.18900 6.74900 49.07500
N  44.28800 5.52200 47.97000
C  43.86400 6.84200 47.63700
C  42.37900 6.81300 47.36600
C  41.96800 5.33100 47.56500
C  43.24800 4.62100 47.81300
C  40.89400 4.97700 48.65900
C  42.06200 7.47900 46.05100
C  40.70900 8.19100 46.09500
H  39.80400 7.60700 45.02200
N  45.76000 2.96300 48.24700
C  44.56900 2.46400 47.93400
C  44.58800 1.08300 47.98300
C  45.95100 0.70300 48.11400
C  46.64800 1.96200 48.27900
C  43.49600 0.17300 47.78100
C  46.48700 -0.71000 48.30100
O  45.74300 -1.68300 48.24200
C  47.94900 -1.03200 48.53700
N  48.40900 4.54000 48.44700
C  48.75200 3.25100 48.82800
C  50.11900 3.18500 49.50200
C  50.54700 4.61200 49.32400
C  49.30900 5.37200 49.00700
C  50.18500 2.58400 50.94500
C  51.77500 4.89600 48.33300
C  53.05900 5.61900 48.96200
N  46.84500 6.97100 48.37600
C  48.05000 7.56800 48.74900
C  47.95600 8.99000 48.57500
C  46.60700 9.24700 48.17600
C  45.96300 7.97500 48.04000
C  48.96300 10.09100 49.07000
C  45.60100 10.24400 47.79300
O  45.84600 11.43200 47.58400
C  44.25600 9.49600 47.49600
C  43.26600 9.82700 48.55600
O  43.31700 9.37700 49.71200
O  42.25700 10.57600 48.03100
C  41.21700 10.92400 48.95200
H  42.46600 2.73100 47.62600
H  48.44200 1.19600 48.82600
H  50.03000 7.36200 49.40300
H  41.90000 7.43200 48.12400
H  41.56900 4.87000 46.66200
H  40.62000 5.97200 49.01100
H  41.41400 4.38400 49.41200
H  40.03700 4.43800 48.25400
H  41.94100 6.67800 45.32200
H  42.80300 8.16900 45.64700
H  40.87500 9.26000 45.96100
H  40.24700 8.08600 47.07700
H  43.38900 -0.45400 48.66600
H  43.63700 -0.47700 46.91700
H  42.56500 0.72500 47.65400
H  48.66100 -0.79500 47.74700
H  47.95900 -2.12100 48.50900
H  48.28200 -0.68100 49.51400
H  50.73200 2.55200 48.86100
H  50.75200 5.00300 50.32000
H  50.03600 3.44200 51.60100
H  51.10600 2.08000 51.23700
H  49.34400 1.93700 51.19300
H  51.50800 5.44100 47.42800
H  52.08500 3.96700 47.85400
H  52.99500 6.66700 48.67100
H  54.04800 5.27800 48.65600
H  53.03800 5.43900 50.03700
H  49.58200 9.63500 49.84200
H  48.39100 10.91700 49.49100
H  49.52800 10.47200 48.21900
H  43.81400 9.76000 46.53600
H  41.03900 10.10700 49.65200
H  40.32900 11.09000 48.34200
H  41.41100 11.89600 49.40500

