158

Mg 8.89900 3.19600 27.42500
C  10.44000 1.59900 30.19900
C  7.52100 5.48300 29.61700
C  7.49300 4.66900 24.80500
C  10.39200 0.86600 25.27400
N  8.95800 3.47800 29.69400
C  9.69900 2.75400 30.61200
C  9.49900 3.24900 32.02500
C  8.51500 4.38700 31.78200
C  8.29700 4.50700 30.31300
C  7.15800 4.17800 32.50500
C  10.78500 3.67200 32.77300
C  10.68200 4.67100 33.94100
H  11.53000 4.31300 35.18400
N  7.64800 4.81800 27.24400
C  7.20700 5.67200 28.21300
C  6.35300 6.68400 27.67700
C  6.33800 6.39700 26.31300
C  7.18800 5.23100 26.06600
C  5.76100 7.79900 28.50500
C  5.67300 7.21800 25.25600
O  5.59100 6.80800 24.09300
C  4.95000 8.45900 25.48700
N  9.01500 2.79700 25.31200
C  8.24100 3.53300 24.49400
C  8.52800 3.04600 22.98400
C  9.58200 1.93500 23.10500
C  9.66800 1.85100 24.62700
C  7.30300 2.67100 22.20700
C  10.97100 2.30000 22.37600
C  11.91800 1.13900 22.14300
N  10.11500 1.53300 27.60900
C  10.64900 0.69800 26.65400
C  11.40800 -0.33400 27.32300
C  11.35700 0.02400 28.69000
C  10.58400 1.15300 28.81800
C  12.15400 -1.45500 26.69200
C  11.71600 -0.44400 30.04600
O  12.24000 -1.48500 30.41400
C  11.24600 0.60600 31.01600
C  10.54500 0.05800 32.16800
O  9.50100 -0.56600 32.11000
O  11.23000 0.27000 33.37400
C  10.58300 -0.21400 34.60700
H  7.15800 6.26500 30.28700
H  7.05200 5.11100 23.91000
H  10.93400 0.08200 24.74100
H  8.97000 2.43800 32.52600
H  8.94700 5.29900 32.19500
H  6.40500 3.94000 31.75300
H  6.77000 5.11600 32.90100
H  7.31000 3.41800 33.27100
H  11.27900 4.14200 31.92300
H  11.38900 2.84500 33.14500
H  9.65200 4.87900 34.23000
H  11.15900 5.54100 33.49000
H  6.31800 8.71200 28.29200
H  5.57200 7.68000 29.57100
H  4.77100 8.02600 28.11000
H  4.59100 8.83600 24.52900
H  5.62000 9.20100 25.92100
H  4.07100 8.34400 26.12100
H  9.00900 3.86800 22.45400
H  9.28300 0.98000 22.67200
H  7.30600 3.30800 21.32200
H  6.41700 2.65800 22.84200
H  7.50100 1.65500 21.86600
H  11.41700 2.93500 23.14200
H  10.72500 2.86000 21.47300
H  11.54700 0.12100 22.26200
H  12.76700 1.12600 22.82600
H  12.32500 1.21400 21.13400
H  11.48900 -2.07900 26.09500
H  12.66100 -2.16000 27.35000
H  12.86800 -1.09300 25.95200
H  12.06400 1.22100 31.38900
H  10.91400 0.55200 35.30800
H  10.98300 -1.15300 34.98900
H  9.49400 -0.19900 34.65000
Mg 54.40500 24.30000 45.99400
C  51.54200 26.26100 45.10800
C  52.67500 21.53200 45.08900
C  57.26300 22.71700 45.85400
C  56.10600 27.38300 46.60900
N  52.45100 23.96100 44.87000
C  51.43900 24.87300 44.72100
C  50.18300 24.20500 44.28100
C  50.43600 22.68800 44.65100
C  51.94000 22.71500 44.93200
C  49.60100 22.46900 45.94800
C  49.91200 24.46200 42.77900
C  48.40000 24.90700 42.48000
H  47.53100 23.90300 41.81600
N  54.95100 22.32300 45.56800
C  54.06900 21.33000 45.24600
C  54.78600 20.10700 45.07800
C  56.12400 20.44600 45.16700
C  56.18600 21.86700 45.52700
C  54.22200 18.74100 44.57900
C  57.32100 19.49900 45.08700
O  57.07600 18.32300 44.89600
C  58.77500 19.85600 45.24000
N  56.38400 24.94200 46.27500
C  57.43400 24.06400 46.22700
C  58.78300 24.68400 46.52800
C  58.45700 26.22000 46.69900
C  56.86700 26.19500 46.50300
C  59.49500 24.03200 47.76100
C  59.12900 27.24200 45.65000
C  59.53300 28.58600 46.30500
N  53.96000 26.39700 46.06600
C  54.73700 27.44200 46.37200
C  53.82800 28.64200 46.36600
C  52.62400 28.18800 45.98100
C  52.76900 26.80800 45.74900
C  54.14300 30.12000 46.54600
C  51.27300 28.60700 45.55300
O  50.77600 29.69100 45.54000
C  50.52000 27.38400 44.96000
C  50.16900 27.73200 43.60000
O  50.98600 28.00700 42.74400
O  48.80100 27.91700 43.55200
C  48.32400 28.56800 42.33400
H  52.11200 20.61900 44.88500
H  58.22900 22.25800 45.63100
H  56.70000 28.28800 46.74900
H  49.45200 24.78600 44.84300
H  50.25900 21.96400 43.85500
H  50.21300 22.14400 46.79000
H  48.84700 21.75900 45.60700
H  49.18200 23.40700 46.31200
H  49.87900 23.53400 42.20900
H  50.61200 25.18200 42.35500
H  48.46500 25.73700 41.77600
H  47.82700 25.23600 43.34600
H  54.12600 17.99400 45.36700
H  54.94300 18.35800 43.85700
H  53.27500 18.78800 44.04100
H  59.05300 20.49400 44.40100
H  59.33100 18.92800 45.10900
H  59.04400 20.24100 46.22300
H  59.53700 24.63500 45.74300
H  58.50000 26.35600 47.78000
H  58.93300 23.09900 47.80200
H  59.42000 24.55000 48.71700
H  60.50500 23.80200 47.42300
H  58.48200 27.41700 44.79100
H  60.00300 26.84500 45.13400
H  60.52000 28.98800 46.07500
H  59.38700 28.66900 47.38200
H  58.86800 29.37200 45.94700
H  53.70100 30.83800 45.85600
H  55.22900 30.21800 46.52400
H  54.04000 30.52400 47.55300
H  49.63100 27.15800 45.54800
H  47.24900 28.74400 42.31300
H  48.46700 28.08700 41.36700
H  48.79500 29.54700 42.25100

