158

Mg 54.62800 24.25500 44.63600
C  51.93200 26.25600 43.53600
C  52.91600 21.68200 43.04000
C  57.41600 22.42400 44.69500
C  56.32300 27.02700 45.64500
N  52.69900 23.95800 43.33500
C  51.75000 24.98200 43.11300
C  50.62400 24.48000 42.19700
C  50.66600 22.93900 42.72500
C  52.16100 22.81800 42.94000
C  49.89800 22.74400 44.01800
C  51.13700 24.70400 40.66700
C  50.14300 25.03200 39.61100
H  50.54800 25.53700 38.30300
N  55.10100 22.31500 43.99500
C  54.29000 21.36800 43.44000
C  54.94200 20.15800 43.38200
C  56.29700 20.33600 43.84100
C  56.28500 21.76300 44.20900
C  54.21700 18.78200 42.99600
C  57.35500 19.25700 44.00300
O  57.13900 18.20000 43.47200
C  58.73100 19.40100 44.71600
N  56.63700 24.67900 44.93400
C  57.61600 23.76900 44.88300
C  58.91500 24.36900 45.46300
C  58.59200 25.91100 45.66200
C  57.08000 25.85300 45.41700
C  59.38400 23.65000 46.78900
C  59.47200 26.89600 44.85800
C  59.01400 27.51400 43.52000
N  54.16900 26.11600 44.88600
C  54.90300 27.17800 45.40200
C  54.03300 28.43200 45.48400
C  52.89600 28.02600 44.69000
C  53.04900 26.70300 44.33900
C  54.36700 29.76300 46.07800
C  51.65400 28.55100 44.13900
O  51.18800 29.66700 44.27300
C  50.88900 27.40700 43.31600
C  50.57500 27.79000 41.98000
O  51.33200 28.09000 41.13900
O  49.19300 27.82300 41.92700
C  48.58100 28.26200 40.60700
H  52.35700 20.82400 42.66100
H  58.37000 21.90400 44.81000
H  56.92300 27.87200 45.98700
H  49.68700 24.95500 42.49000
H  50.09100 22.37600 41.99000
H  50.58800 22.17300 44.63900
H  48.95700 22.22900 43.82700
H  49.78200 23.72700 44.47500
H  51.55700 23.75300 40.33900
H  51.86900 25.51100 40.63200
H  49.36000 25.64800 40.05400
H  49.58700 24.11500 39.41600
H  54.47400 17.92400 43.61800
H  54.43500 18.52100 41.96100
H  53.14300 18.96000 43.05400
H  58.64200 19.77900 45.73400
H  59.38700 20.03300 44.11700
H  59.15400 18.40500 44.84900
H  59.66500 24.26800 44.67900
H  58.59400 26.14600 46.72600
H  58.99200 22.63400 46.75500
H  58.99100 24.12700 47.68700
H  60.47200 23.59300 46.81900
H  60.39200 26.35500 44.63700
H  59.72600 27.76600 45.46400
H  59.11100 28.59800 43.46100
H  57.94900 27.34300 43.36800
H  59.54000 27.19200 42.62200
H  53.85800 30.50400 45.46100
H  55.44200 29.94200 46.09000
H  53.86500 29.99600 47.01700
H  50.06200 27.03400 43.92000
H  48.29800 29.31100 40.68500
H  47.67600 27.66900 40.47300
H  49.21500 28.07600 39.74000
Mg -1.93500 34.78200 26.87900
C  -3.39500 32.77400 29.43500
C  -0.56400 36.61300 29.24300
C  -0.86000 36.88700 24.50400
C  -3.74000 33.02300 24.58500
N  -1.99700 34.67800 29.16200
C  -2.58500 33.81400 30.02100
C  -2.26300 34.04500 31.47600
C  -1.35900 35.33400 31.37900
C  -1.23800 35.54500 29.83900
C  -1.95300 36.67200 32.07700
C  -1.54000 32.87900 32.23200
C  -2.05700 32.55700 33.61700
H  -0.98900 32.43500 34.72000
N  -0.79400 36.58300 26.83900
C  -0.38100 37.19900 27.96000
C  0.48000 38.31400 27.57500
C  0.45200 38.35400 26.14100
C  -0.45900 37.22200 25.76900
C  1.15100 39.26900 28.61800
C  1.11500 39.20500 25.15100
O  1.05100 39.06400 23.92100
C  2.11100 40.21300 25.74400
N  -2.38100 34.96900 24.90900
C  -1.81200 35.92800 24.10600
C  -2.10800 35.78300 22.62700
C  -2.64200 34.30900 22.66700
C  -2.93200 34.06400 24.12700
C  -3.11700 36.85300 22.06000
C  -1.63400 33.26400 22.18900
C  -1.33400 33.18300 20.69900
N  -3.32700 33.22300 26.97300
C  -3.95400 32.63800 25.89700
C  -4.81200 31.52800 26.39800
C  -4.61700 31.54600 27.75300
C  -3.71700 32.60800 28.06200
C  -5.74600 30.61400 25.55000
C  -4.86000 30.82600 28.96700
O  -5.60500 29.87300 29.23100
C  -4.20300 31.65000 30.10000
C  -5.28800 32.10600 30.98400
O  -6.37500 32.55300 30.58500
O  -5.00300 31.88500 32.33500
C  -6.20300 31.73500 33.10700
H  -0.09400 37.22400 30.01700
H  -0.66400 37.58800 23.69000
H  -4.13000 32.53500 23.68900
H  -3.19100 34.30900 31.98300
H  -0.36000 35.03200 31.69400
H  -1.08800 37.14300 32.54500
H  -2.59400 36.24100 32.84600
H  -2.44300 37.43100 31.46700
H  -0.46000 32.99200 32.13600
H  -1.79700 31.98100 31.67000
H  -2.67600 31.66000 33.58800
H  -2.78800 33.29000 33.95900
H  2.19600 38.96600 28.68600
H  0.69000 38.99300 29.56700
H  0.99400 40.31800 28.36700
H  2.62400 40.60000 24.86400
H  2.86200 39.72700 26.36700
H  1.63800 41.11200 26.14000
H  -1.28500 36.00300 21.94600
H  -3.65200 34.10400 22.31100
H  -2.97300 37.83800 22.50400
H  -4.15600 36.52300 22.04800
H  -2.87200 36.95300 21.00300
H  -2.08600 32.31400 22.47500
H  -0.71200 33.40500 22.75300
H  -1.45500 32.15600 20.35300
H  -0.26200 33.30900 20.55500
H  -1.91400 33.82300 20.03500
H  -6.66100 31.19500 25.43700
H  -5.91800 29.61600 25.95300
H  -5.37500 30.46200 24.53700
H  -3.54000 30.97000 30.63500
H  -5.95200 32.20200 34.05900
H  -6.34100 30.67300 33.31100
H  -7.07500 32.30700 32.78900

