158

Mg -1.51000 16.87200 26.05400
C  -2.15800 14.36700 28.53900
C  -2.76800 19.11100 28.34500
C  -1.58300 19.08500 23.72100
C  -1.35600 14.24400 23.77300
N  -2.12600 16.70600 28.26100
C  -2.15800 15.64400 29.07400
C  -2.45100 16.03000 30.52300
C  -2.91600 17.52900 30.30100
C  -2.58800 17.84900 28.89300
C  -4.34700 17.86900 30.81300
C  -1.30900 15.82400 31.59700
C  -1.35700 16.77200 32.84500
H  -1.26000 16.18700 34.23700
N  -2.10200 18.92700 26.05200
C  -2.55100 19.66600 27.06400
C  -2.68100 20.99200 26.65900
C  -2.33600 21.02000 25.24200
C  -1.98200 19.63400 24.94400
C  -2.96900 22.10200 27.65500
C  -2.23900 22.22100 24.27900
O  -1.69500 22.22500 23.18800
C  -2.76100 23.52300 24.70800
N  -1.41300 16.67000 23.99500
C  -1.34400 17.79500 23.26000
C  -0.99600 17.42300 21.88400
C  -0.72800 15.85100 21.91100
C  -1.16800 15.56100 23.30900
C  -2.17900 17.72000 20.80500
C  0.74000 15.40700 21.62300
C  1.79700 15.34400 22.76700
N  -1.74000 14.74600 26.10000
C  -1.58100 13.82300 25.05000
C  -1.88700 12.50100 25.44500
C  -2.04600 12.64200 26.84600
C  -1.89500 13.99300 27.17800
C  -2.07400 11.31000 24.61200
C  -2.47100 11.96200 28.01000
O  -2.71500 10.74300 28.20100
C  -2.50200 12.97100 29.20200
C  -1.61000 12.46400 30.28400
O  -0.41600 12.76300 30.39000
O  -2.24500 11.67700 31.16100
C  -1.49900 11.41600 32.43000
H  -3.09700 19.78400 29.14000
H  -1.61000 19.88800 22.98100
H  -1.19700 13.45100 23.03900
H  -3.24700 15.44400 30.98200
H  -2.15500 18.19700 30.70500
H  -4.94700 18.48000 30.13900
H  -4.40500 18.38100 31.77300
H  -4.81700 16.89200 30.92500
H  -0.32800 15.98700 31.15000
H  -1.35900 14.79600 31.95500
H  -2.30300 17.31100 32.90300
H  -0.57700 17.52300 32.71600
H  -3.71400 22.74700 27.18700
H  -2.12200 22.73100 27.92700
H  -3.43600 21.72900 28.56600
H  -3.78000 23.19900 24.92000
H  -2.74700 24.16600 23.82900
H  -2.31900 24.06300 25.54600
H  -0.11000 17.99300 21.60400
H  -1.29000 15.24300 21.20200
H  -2.52800 16.76500 20.41100
H  -1.75600 18.32300 20.00200
H  -2.94500 18.28200 21.34000
H  1.22500 16.02500 20.86800
H  0.71900 14.37400 21.27500
H  2.24900 14.35200 22.74400
H  1.24500 15.56300 23.68100
H  2.58900 16.06100 22.55600
H  -2.33900 11.61100 23.59900
H  -2.84000 10.75000 25.14800
H  -1.13300 10.76200 24.65500
H  -3.49600 12.92900 29.64600
H  -0.45100 11.14600 32.30100
H  -2.05800 10.63000 32.93700
H  -1.56300 12.26700 33.10800
Mg 46.66700 16.19100 27.56500
C  44.92900 15.80800 30.50600
C  48.97600 18.29900 29.13700
C  48.01800 17.14600 24.49400
C  44.15400 14.55700 25.88400
N  46.92900 16.95500 29.65400
C  46.16100 16.50900 30.72100
C  46.77800 17.01300 32.03500
C  47.99300 17.91900 31.55300
C  47.96400 17.75800 30.02000
C  47.92700 19.38600 31.96800
C  47.10300 15.83500 33.00000
C  46.39600 16.00100 34.38700
H  46.05100 17.40700 34.87900
N  48.32100 17.39500 26.92800
C  49.21700 18.00700 27.76600
C  50.27500 18.57600 27.01500
C  49.95500 18.45100 25.62300
C  48.69100 17.65600 25.64300
C  51.38800 19.42600 27.66000
C  50.72800 18.89900 24.36200
O  50.33900 18.57100 23.25300
C  51.93500 19.79800 24.56800
N  46.14200 15.88300 25.49700
C  46.89300 16.32100 24.44500
C  46.38900 15.77500 23.15600
C  45.15900 14.86700 23.53300
C  45.14900 15.00700 25.07300
C  46.12200 16.85800 22.06000
C  45.16000 13.44500 22.94600
C  45.22900 13.31100 21.38100
N  44.98100 15.15800 28.11500
C  44.02700 14.60800 27.29300
C  42.89000 14.10600 28.07500
C  43.30100 14.44700 29.37900
C  44.45300 15.24800 29.30400
C  41.60700 13.51300 27.53600
C  42.86100 14.53200 30.75600
O  41.81800 14.15000 31.29600
C  43.93800 15.35700 31.55500
C  43.12000 16.35600 32.34100
O  42.92400 17.49500 31.92200
O  42.80100 15.90500 33.58300
C  41.97400 16.70800 34.44400
H  49.77600 18.83600 29.64900
H  48.38800 17.37500 23.49200
H  43.32400 13.99900 25.44500
H  45.95200 17.61900 32.40500
H  48.92800 17.50000 31.92300
H  48.82200 19.51700 32.57500
H  46.99900 19.51500 32.52600
H  47.99400 20.07300 31.12400
H  48.17500 15.89700 33.18800
H  46.94300 14.89800 32.46600
H  47.08400 15.53500 35.09300
H  45.51200 15.36900 34.30900
H  51.45800 19.43800 28.74800
H  51.19700 20.48800 27.50400
H  52.32500 19.11500 27.19900
H  52.66900 19.25600 25.16400
H  51.54700 20.64800 25.12900
H  52.33500 20.09900 23.60000
H  47.25000 15.17600 22.85900
H  44.27800 15.33600 23.09400
H  45.19500 16.73600 21.50100
H  46.85200 16.71800 21.26300
H  46.22700 17.92200 22.27500
H  44.33100 12.79000 23.21300
H  45.98400 12.97200 23.48100
H  46.15100 12.75900 21.19500
H  45.21600 14.28000 20.88200
H  44.36000 12.77800 20.99600
H  41.97100 12.83400 26.76500
H  40.87000 14.26200 27.24500
H  41.22500 12.83300 28.29700
H  44.38500 14.79400 32.37400
H  42.45900 16.57800 35.41100
H  41.05100 16.16800 34.65500
H  41.63100 17.69000 34.11700

