158

Mg 53.90500 23.60200 43.71300
C  51.31700 25.95600 43.28800
C  51.73400 21.08200 42.57700
C  56.46400 21.41800 43.76300
C  55.81300 26.16600 44.87400
N  51.82900 23.59700 42.77200
C  50.97800 24.64900 42.79500
C  49.60400 24.24300 42.10800
C  49.74400 22.68400 42.08400
C  51.21000 22.42100 42.41300
C  48.88700 22.00200 43.11700
C  49.40500 24.75900 40.61800
C  50.76900 24.98300 39.84200
H  50.50100 25.68200 38.50600
N  54.09200 21.49400 43.21200
C  53.04400 20.65900 42.85300
C  53.57100 19.31500 42.79400
C  54.96900 19.38200 43.11700
C  55.23900 20.75300 43.34500
C  52.65400 18.13800 42.43800
C  55.92800 18.14400 43.26300
O  55.48600 17.02800 43.02600
C  57.32200 18.30600 43.56800
N  55.89000 23.77900 44.18200
C  56.81700 22.79300 44.04600
C  58.21700 23.18300 44.58800
C  57.96900 24.70600 44.97900
C  56.47400 24.96800 44.62100
C  58.75200 22.33300 45.73100
C  58.89200 25.69500 44.22300
C  58.71900 26.02400 42.74500
N  53.70800 25.74100 43.96200
C  54.49100 26.63000 44.59900
C  53.86000 27.84300 45.04700
C  52.49900 27.55600 44.55900
C  52.54900 26.29700 43.87000
C  54.40600 28.93900 45.99700
C  51.16700 28.11500 44.46300
O  50.73900 29.20000 44.86700
C  50.37900 27.05400 43.53200
C  49.80300 27.62900 42.33800
O  50.42400 28.15400 41.42100
O  48.44500 27.66000 42.49300
C  47.69400 28.73700 41.82100
H  50.98600 20.32500 42.33100
H  57.30200 20.79500 44.08400
H  56.42400 26.96200 45.30400
H  48.75200 24.44900 42.75500
H  49.51300 22.26100 41.10700
H  47.82900 22.23600 42.99800
H  49.06900 22.30200 44.15000
H  48.81600 20.91600 43.05500
H  48.69700 25.56800 40.43800
H  48.99500 23.95600 40.00600
H  51.36500 24.09600 39.62300
H  51.43800 25.70400 40.31200
H  53.09500 17.19600 42.76400
H  52.41800 18.09100 41.37500
H  51.72600 18.25800 42.99800
H  57.76300 17.31000 43.59900
H  57.45600 18.86000 44.49700
H  57.83700 18.92800 42.83500
H  58.89100 23.09800 43.73500
H  58.12200 24.70000 46.05800
H  59.55200 21.62800 45.50200
H  57.97200 21.65700 46.08100
H  59.05200 22.89800 46.61300
H  59.91500 25.32300 44.15900
H  58.94100 26.61800 44.80300
H  59.51700 25.72500 42.06500
H  58.55000 27.09000 42.59400
H  57.90700 25.39300 42.38300
H  55.40600 28.73100 46.37800
H  53.86700 28.87000 46.94200
H  54.25700 29.91000 45.52500
H  49.62300 26.66800 44.21600
H  48.19400 29.69100 41.98200
H  46.70000 28.81200 42.26400
H  47.68600 28.49300 40.75900
Mg 36.63000 50.28900 26.19000
C  36.96700 47.96800 28.91800
C  35.56100 52.63400 28.47200
C  36.01600 52.25800 23.51800
C  37.58000 47.66700 24.01400
N  36.15400 50.16200 28.46100
C  36.57800 49.23400 29.37500
C  36.44400 49.66300 30.84300
C  35.73400 51.13200 30.63700
C  35.75400 51.30500 29.08800
C  34.29900 51.37500 31.16800
C  37.83800 49.79900 31.63600
C  37.84500 48.90000 32.95200
H  36.66100 49.19900 33.95000
N  36.04100 52.21200 26.04500
C  35.59000 53.04000 27.08800
C  35.24800 54.30000 26.54200
C  35.30900 54.23800 25.07200
C  35.80800 52.80500 24.80300
C  34.89900 55.47900 27.45700
C  34.95100 55.23800 23.94900
O  35.13400 55.07300 22.75600
C  34.38000 56.57700 24.33700
N  36.76800 50.02700 24.10600
C  36.48700 50.95500 23.24200
C  36.81000 50.51200 21.80200
C  37.39400 49.09300 21.95400
C  37.24300 48.90300 23.45900
C  35.57100 50.68600 20.86600
C  38.90400 48.90000 21.50800
C  39.92500 49.75200 22.31100
N  37.14400 48.23500 26.36100
C  37.58700 47.37400 25.40900
C  37.87200 46.07900 26.07800
C  37.67600 46.29500 27.42900
C  37.18900 47.62300 27.57200
C  38.38700 44.87800 25.41900
C  37.73900 45.62700 28.77900
O  37.97100 44.48800 29.07900
C  37.28200 46.76600 29.72100
C  36.15100 46.29200 30.48900
O  34.98200 46.42500 30.18900
O  36.43300 45.77300 31.74200
C  35.45300 45.35100 32.72100
H  35.29900 53.39800 29.20700
H  35.74200 52.79700 22.60900
H  38.12200 47.00100 23.33900
H  35.85100 48.87700 31.31000
H  36.30900 51.94500 31.08100
H  34.36200 52.19500 31.88400
H  33.81800 50.50400 31.61300
H  33.55100 51.57700 30.40200
H  37.78100 50.82200 32.00900
H  38.72300 49.68500 31.01000
H  38.77200 48.94100 33.52500
H  37.65100 47.91900 32.51900
H  35.60100 56.24000 27.11300
H  35.11600 55.21700 28.49200
H  33.82900 55.68200 27.41400
H  33.48700 56.44500 24.94800
H  34.04500 57.08800 23.43400
H  35.20900 57.02400 24.88500
H  37.61700 51.15500 21.45200
H  36.76500 48.33300 21.49100
H  34.66000 50.88600 21.43100
H  35.47600 49.69600 20.41900
H  35.64000 51.35600 20.00900
H  39.03800 49.35600 20.52800
H  39.22300 47.88400 21.27400
H  40.79000 50.08900 21.73800
H  40.30100 49.16900 23.15200
H  39.59400 50.71200 22.70800
H  38.54100 44.08500 26.15000
H  39.36800 45.13000 25.01400
H  37.81000 44.53000 24.56300
H  38.09800 47.04300 30.38800
H  35.45800 44.27000 32.58100
H  34.39200 45.56400 32.59000
H  35.63100 45.68600 33.74300

