158

Mg 2.39700 -1.65800 44.76600
C  5.63900 -0.41200 44.30300
C  1.19900 0.69700 42.63500
C  -0.64200 -3.33100 44.82500
C  3.87800 -4.47900 46.29300
N  3.34100 -0.01400 43.54800
C  4.61800 0.33500 43.59000
C  4.91100 1.57500 42.75000
C  3.44000 2.08400 42.37800
C  2.60400 0.88500 42.88600
C  2.98900 3.45300 43.01200
C  5.67800 1.19100 41.34100
C  6.84600 2.15800 40.93700
H  6.34900 3.32400 40.05300
N  0.47600 -1.29600 44.03600
C  0.26500 -0.32500 43.08100
C  -1.14600 -0.33600 42.82700
C  -1.74400 -1.45300 43.51000
C  -0.64600 -2.04800 44.22700
C  -1.84500 0.78200 42.07600
C  -3.21700 -1.77000 43.48900
O  -4.01600 -1.22100 42.75400
C  -3.80000 -2.76200 44.30700
N  1.67200 -3.59800 45.61800
C  0.39200 -4.02800 45.48100
C  0.36100 -5.52200 45.97300
C  1.85100 -5.84000 46.34500
C  2.51000 -4.53100 46.09600
C  -0.71900 -6.00000 47.04200
C  2.42200 -7.06900 45.52800
C  1.48300 -8.21700 45.33200
N  4.36200 -2.32700 45.31200
C  4.77100 -3.46600 45.91700
C  6.24600 -3.37600 46.06100
C  6.61900 -2.19200 45.44000
C  5.46100 -1.57000 44.99900
C  7.18600 -4.49100 46.62000
C  7.77500 -1.42100 45.06000
O  8.97200 -1.55000 45.30300
C  7.19300 -0.22900 44.20800
C  7.58200 1.00500 44.84200
O  7.06400 1.47400 45.85900
O  8.42500 1.70600 44.07200
C  8.61700 3.06900 44.54200
H  0.72100 1.52400 42.10700
H  -1.56300 -3.90500 44.70800
H  4.33000 -5.33600 46.79600
H  5.47600 2.34000 43.28400
H  3.40700 2.06300 41.28800
H  3.92800 3.95200 43.25100
H  2.41100 3.33100 43.92800
H  2.43200 4.12400 42.35800
H  5.06900 1.30200 40.44400
H  6.12500 0.20800 41.49300
H  7.80500 1.75800 40.60900
H  7.09600 2.63800 41.88400
H  -2.77300 0.51500 41.57000
H  -1.17300 1.20500 41.32800
H  -2.18400 1.49700 42.82500
H  -4.88300 -2.66100 44.36600
H  -3.32200 -2.46600 45.24100
H  -3.51100 -3.78800 44.08000
H  0.08400 -6.02200 45.04500
H  2.03400 -5.99500 47.40800
H  -1.07500 -5.14300 47.61400
H  -0.22700 -6.75200 47.65800
H  -1.51400 -6.49300 46.48200
H  3.32800 -7.41600 46.02600
H  2.85100 -6.80200 44.56300
H  0.70100 -8.22700 46.09200
H  2.03000 -9.15400 45.43700
H  1.04000 -8.30000 44.34000
H  7.31200 -4.68600 47.68500
H  8.17000 -4.32200 46.18200
H  6.76400 -5.38500 46.16100
H  7.47100 -0.22300 43.15400
H  9.01700 3.13300 45.55400
H  7.69000 3.63500 44.45100
H  9.30200 3.58300 43.86700
Mg 35.59200 2.57300 30.07400
C  33.14900 3.63200 32.32800
C  37.86400 2.49800 32.70300
C  37.98800 2.11200 27.94000
C  33.40400 3.47800 27.46800
N  35.47200 3.07900 32.27900
C  34.39300 3.47700 32.95200
C  34.65200 3.59200 34.52800
C  36.27300 3.40000 34.64200
C  36.59700 2.89600 33.12600
C  37.22700 4.61400 34.89700
C  33.85000 2.61500 35.34900
C  33.53700 2.88400 36.88700
H  34.36600 4.01600 37.57100
N  37.61500 2.28400 30.35500
C  38.33900 2.21000 31.47000
C  39.71700 1.90200 31.21800
C  39.75400 1.73200 29.77600
C  38.41500 2.03900 29.31900
C  40.76500 1.59400 32.26000
C  40.93500 1.23300 28.92600
O  40.86500 1.09000 27.70600
C  42.31400 0.88900 29.55400
N  35.67900 2.83600 27.94800
C  36.79300 2.45300 27.28800
C  36.59400 2.52900 25.78900
C  35.09600 2.96500 25.60300
C  34.65600 3.05300 27.06700
C  37.66600 3.37600 24.99200
C  34.27100 1.95600 24.73800
C  33.62200 0.73700 25.39200
N  33.62100 3.23400 29.92300
C  32.83300 3.51500 28.77700
C  31.46700 3.76400 29.24200
C  31.50700 3.85500 30.62400
C  32.85800 3.53100 30.98600
C  30.37700 3.95500 28.31300
C  30.74700 4.21000 31.80900
O  29.56100 4.43100 31.95300
C  31.76500 4.02400 32.96600
C  31.78100 5.34600 33.64800
O  32.52300 6.25800 33.31900
O  30.77100 5.40100 34.57400
C  30.78800 6.62400 35.41600
H  38.55800 2.67500 33.52800
H  38.73300 1.82700 27.19300
H  32.60800 3.64600 26.73900
H  34.47600 4.64300 34.75600
H  36.47300 2.59400 35.34800
H  36.60900 5.49700 35.05600
H  37.84400 4.82000 34.02200
H  37.90100 4.36200 35.71600
H  34.29300 1.62700 35.47700
H  32.89200 2.43700 34.86000
H  33.61400 1.96800 37.47300
H  32.51900 3.26500 36.96000
H  41.80500 1.69400 31.95000
H  40.69200 0.61400 32.73200
H  40.69400 2.38200 33.01000
H  42.79100 0.37200 28.72100
H  42.21500 0.18200 30.37800
H  42.90000 1.79900 29.67900
H  36.78500 1.52500 25.40800
H  35.09500 4.02600 25.35300
H  38.35500 3.84800 25.69200
H  37.09300 4.11400 24.43000
H  38.24000 2.77300 24.28900
H  34.99500 1.60900 24.00100
H  33.62800 2.59000 24.12700
H  34.00700 0.71500 26.41200
H  34.00900 -0.13900 24.87200
H  32.53300 0.73300 25.35800
H  29.42400 4.16400 28.79800
H  30.28300 3.10200 27.64200
H  30.44000 4.87400 27.73100
H  31.29400 3.29900 33.63100
H  30.48500 7.51300 34.86300
H  31.71800 6.82300 35.94900
H  29.97100 6.52400 36.13000

