158

Mg 7.47500 54.46100 40.20200
C  6.87700 51.03900 40.31800
C  10.85400 53.84600 39.46100
C  7.96900 57.72600 39.46600
C  4.17500 55.13300 40.68500
N  8.65000 52.67100 39.73000
C  8.15100 51.35800 39.89000
C  9.33000 50.40000 39.66100
C  10.60700 51.31900 39.82000
C  10.08000 52.70500 39.67400
C  11.48100 51.09200 41.06800
C  9.30500 49.56000 38.29000
C  9.28400 50.55900 37.01100
H  7.82700 50.71100 36.39400
N  9.20600 55.56500 39.40900
C  10.50900 55.17400 39.37800
C  11.34600 56.29500 39.09600
C  10.54400 57.47900 39.09300
C  9.14900 56.93500 39.28100
C  12.88100 56.27200 38.87000
C  11.04200 58.97700 38.89200
O  12.21900 59.19400 38.66600
C  10.15500 60.15700 39.11400
N  6.22600 56.15700 39.99300
C  6.64200 57.42800 39.82600
C  5.53400 58.48900 39.90500
C  4.36300 57.63300 40.40300
C  4.97300 56.24100 40.43000
C  5.81000 59.79800 40.71800
C  3.15500 57.63600 39.41000
C  1.75100 57.46500 40.09600
N  5.76700 53.34400 40.40800
C  4.49200 53.70900 40.65100
C  3.73300 52.55800 41.06700
C  4.65000 51.51700 40.93300
C  5.84900 52.02500 40.46700
C  2.25100 52.52200 41.42500
C  4.82600 50.02700 41.13000
O  4.07900 49.18800 41.66000
C  6.27300 49.70200 40.67500
C  6.03100 48.71000 39.50500
O  5.55400 48.98000 38.40700
O  6.12300 47.42000 39.99500
C  6.04300 46.32700 39.02800
H  11.93600 53.69500 39.44700
H  8.10600 58.80000 39.32000
H  3.18100 55.25200 41.12000
H  9.27400 49.69200 40.48800
H  11.21800 51.14200 38.93500
H  11.08700 50.52400 41.91100
H  11.57900 52.11900 41.41900
H  12.49600 50.71600 40.94100
H  8.61300 48.72100 38.37200
H  10.29000 49.10800 38.17100
H  10.05600 50.21300 36.32300
H  9.56200 51.57700 37.28300
H  13.05400 56.80500 37.93500
H  13.20000 55.24900 38.67300
H  13.50000 56.69700 39.66000
H  9.33800 60.31100 38.40800
H  10.75000 61.05900 38.96700
H  9.78500 60.23900 40.13600
H  5.32200 58.78600 38.87800
H  4.05700 57.88000 41.41900
H  5.53500 60.56000 39.98900
H  6.81600 59.90900 41.12300
H  5.12500 59.80700 41.56600
H  3.28400 56.92600 38.59400
H  3.10700 58.60000 38.90300
H  1.89800 57.23400 41.15100
H  1.18100 56.78600 39.46100
H  1.13800 58.36500 40.09400
H  2.00800 51.69900 42.09700
H  1.70500 52.43700 40.48600
H  1.96800 53.40700 41.99400
H  6.87300 49.23400 41.45600
H  6.44200 45.38100 39.39500
H  6.69800 46.53700 38.18300
H  5.00600 46.14400 38.74600
Mg -2.57200 34.82200 27.13500
C  -3.64600 33.34300 30.07300
C  -1.25800 37.53500 29.02200
C  -2.07500 36.58500 24.25800
C  -4.05000 32.37900 25.33500
N  -2.53100 35.35500 29.26200
C  -2.98300 34.51300 30.29200
C  -2.52600 35.02600 31.63100
C  -1.70400 36.33100 31.24500
C  -1.89300 36.47900 29.72500
C  -2.06800 37.56700 31.99300
C  -1.79400 33.94200 32.48000
C  -2.46800 33.67200 33.85200
H  -1.50300 33.65700 35.09700
N  -1.68200 36.72100 26.68200
C  -1.17400 37.63300 27.61800
C  -0.47600 38.69000 26.89400
C  -0.69600 38.39900 25.43800
C  -1.55900 37.22700 25.40300
C  0.24400 39.78700 27.52400
C  -0.15200 39.16900 24.18500
O  -0.46100 38.93400 23.06900
C  0.55300 40.50500 24.41800
N  -3.22800 34.67300 25.14000
C  -2.88500 35.46000 24.09200
C  -3.49400 34.97500 22.77100
C  -3.51600 33.47900 23.07400
C  -3.65900 33.47000 24.64700
C  -4.76800 35.71500 22.42800
C  -2.30300 32.68500 22.63500
C  -1.06500 32.67000 23.49100
N  -3.60100 33.13400 27.53700
C  -4.20100 32.22800 26.69500
C  -4.86500 31.16700 27.50900
C  -4.70100 31.59100 28.80900
C  -3.93500 32.79200 28.76100
C  -5.59900 29.95000 27.01600
C  -5.02000 31.31400 30.19700
O  -5.71500 30.39700 30.67000
C  -4.37700 32.40300 31.08000
C  -5.49500 33.02100 31.79400
O  -5.98900 34.07900 31.45700
O  -5.91400 32.20800 32.83500
C  -6.95100 32.82600 33.67400
H  -0.76800 38.30400 29.62300
H  -2.00400 37.02400 23.26100
H  -4.46500 31.72200 24.56800
H  -3.41000 35.24900 32.22800
H  -0.65700 36.11000 31.45500
H  -1.15500 38.03200 32.36400
H  -2.74300 37.31000 32.81000
H  -2.57200 38.34700 31.42200
H  -0.81200 34.32200 32.76500
H  -1.68500 33.02200 31.90600
H  -3.19100 32.85600 33.87900
H  -2.99500 34.60100 34.07000
H  0.17200 39.71000 28.60800
H  -0.27300 40.68000 27.17100
H  1.24500 39.80300 27.09200
H  1.50400 40.13800 24.80500
H  0.03700 41.24000 25.03600
H  0.65400 41.02000 23.46200
H  -2.71900 35.03500 22.00700
H  -4.46200 33.05000 22.74300
H  -5.06900 36.37800 23.23900
H  -5.58600 35.00000 22.34900
H  -4.65500 36.21600 21.46600
H  -2.09600 33.09200 21.64500
H  -2.68300 31.66400 22.58900
H  -0.33600 33.05000 22.77500
H  -0.79200 31.67400 23.84000
H  -1.02900 33.31700 24.36800
H  -6.57800 30.31600 26.70700
H  -5.75500 29.24100 27.82900
H  -5.09200 29.55600 26.13500
H  -3.70300 31.98000 31.82500
H  -6.31800 33.41100 34.34100
H  -7.43600 31.97600 34.15400
H  -7.71800 33.36800 33.12200

