158

Mg 25.58700 1.40500 29.45000
C  27.49300 1.44800 32.47900
C  22.65900 1.46500 31.38600
C  23.82100 1.47200 26.57600
C  28.53100 0.98600 27.61200
N  25.13000 1.31400 31.78000
C  26.04900 1.64300 32.69900
C  25.40100 1.94200 34.03300
C  23.92200 1.62600 33.66800
C  23.89600 1.49600 32.18600
C  23.33800 0.34300 34.34500
C  25.77200 3.26800 34.65500
C  26.32300 3.19700 36.09700
H  25.98200 4.23800 37.11900
N  23.58800 1.39700 29.02800
C  22.53400 1.44600 29.94800
C  21.32600 1.43800 29.21600
C  21.64400 1.48600 27.80100
C  23.06700 1.56800 27.77600
C  20.00200 1.60000 29.85900
C  20.71900 1.27000 26.63100
O  21.08200 1.34600 25.47000
C  19.31100 0.95200 26.91500
N  26.12600 1.40200 27.35300
C  25.19900 1.41800 26.36500
C  25.94900 1.64400 25.01000
C  27.47100 1.75200 25.42100
C  27.38200 1.25800 26.88200
C  25.55100 0.57200 23.90100
C  28.15900 3.05100 25.10200
C  27.44900 4.25400 25.61800
N  27.53100 1.13300 29.94100
C  28.64700 0.88500 29.02300
C  29.88000 0.94100 29.80500
C  29.43700 0.96500 31.17000
C  28.03600 1.18400 31.19900
C  31.27200 0.86600 29.33700
C  29.87500 0.91600 32.52700
O  30.99100 0.61200 32.92200
C  28.65400 1.38700 33.39200
C  28.63100 0.37300 34.51900
O  28.09400 -0.70300 34.40500
O  29.30900 0.87000 35.60400
C  29.44500 -0.00700 36.81200
H  21.80400 1.58200 32.05500
H  23.26900 1.57400 25.63900
H  29.41500 1.00000 26.97100
H  25.72400 1.16400 34.72400
H  23.36800 2.49200 34.02900
H  22.81500 -0.22300 33.57500
H  22.77600 0.60700 35.24100
H  24.11500 -0.33000 34.70800
H  24.99500 4.02600 34.54900
H  26.63400 3.55300 34.05100
H  27.39900 3.37100 36.10000
H  26.29200 2.27300 36.67400
H  19.40900 0.68600 29.84400
H  19.40300 2.36300 29.36200
H  20.11800 2.01400 30.86100
H  19.26700 -0.00800 27.43000
H  18.85200 0.91800 25.92700
H  18.84500 1.78500 27.44000
H  25.57200 2.58000 24.59800
H  28.04000 1.03300 24.83200
H  26.38000 0.42400 23.20900
H  24.69400 1.03100 23.40700
H  25.20800 -0.31800 24.42900
H  28.32700 3.13100 24.02800
H  29.17200 2.86800 25.46000
H  26.61200 4.09000 26.29600
H  26.99200 4.87900 24.85100
H  28.12600 4.81700 26.26100
H  31.34000 1.36900 28.37300
H  31.54300 -0.19000 29.35400
H  31.93800 1.40200 30.01200
H  28.71800 2.37700 33.84300
H  28.55600 -0.03600 37.44200
H  30.23100 0.31500 37.49500
H  29.60100 -1.04500 36.52000
Mg 2.04800 42.24400 26.37600
C  3.35300 42.15000 29.51900
C  -0.89500 40.87600 27.47600
C  0.95900 42.00600 23.08300
C  5.05500 43.49300 25.16800
N  1.31600 41.69400 28.25400
C  1.99400 41.81000 29.46100
C  1.04900 41.53000 30.69000
C  -0.26300 41.02500 29.95200
C  0.09900 41.22400 28.47700
C  -0.65400 39.59100 30.34700
C  0.77100 42.80200 31.58900
C  1.35100 42.65300 33.04800
H  1.06900 41.35500 33.79300
N  0.28800 41.46100 25.41500
C  -0.86400 41.01200 26.07800
C  -1.83800 40.72900 25.14600
C  -1.32800 41.00500 23.88200
C  0.04200 41.55000 24.03600
C  -3.11300 40.02800 25.66100
C  -2.05900 40.89300 22.42200
O  -1.65700 41.50800 21.41200
C  -3.45100 40.30200 22.42100
N  2.95400 42.53500 24.41200
C  2.26400 42.51700 23.23900
C  3.09300 43.06400 22.04500
C  4.25300 43.74000 22.83300
C  4.10000 43.22700 24.23900
C  3.62400 41.85000 21.23200
C  4.28800 45.24400 22.60300
C  4.66000 45.85800 21.16600
N  3.86900 42.63900 27.15300
C  4.99600 43.19000 26.54100
C  5.99900 43.41100 27.52600
C  5.40800 43.01700 28.72400
C  4.10400 42.56300 28.40900
C  7.43900 43.95400 27.35200
C  5.53000 42.89100 30.11600
O  6.52800 43.13600 30.84900
C  4.23400 42.31400 30.67600
C  4.56800 41.02000 31.36700
O  4.87400 39.95700 30.83600
O  4.73200 41.27600 32.70400
C  5.00800 40.08000 33.51900
H  -1.80100 40.47800 27.93800
H  0.71600 41.92800 22.02100
H  6.00700 43.89600 24.81700
H  1.55500 40.76100 31.27400
H  -1.12100 41.64200 30.22000
H  -1.73700 39.55600 30.46400
H  -0.23200 39.38000 31.33000
H  -0.26500 38.84000 29.66000
H  -0.29400 42.91900 31.79100
H  1.24600 43.62900 31.06100
H  1.04500 43.58500 33.52300
H  2.43500 42.75600 32.99100
H  -2.98500 39.43600 26.56700
H  -3.37300 39.33300 24.86300
H  -4.00100 40.62200 25.88100
H  -4.12400 40.97600 22.95100
H  -3.37400 39.31600 22.87700
H  -3.78000 40.08700 21.40400
H  2.59200 43.88400 21.53100
H  5.21900 43.33300 22.53400
H  4.46200 42.02700 20.55700
H  2.83600 41.61000 20.51800
H  3.67400 40.91200 21.78400
H  5.13700 45.59000 23.19200
H  3.38700 45.72600 22.98100
H  4.49600 44.97000 20.55600
H  5.69400 46.15800 20.99600
H  3.91400 46.62800 20.96900
H  8.19300 43.21600 27.62900
H  7.57900 44.76600 28.06500
H  7.58700 44.32400 26.33800
H  3.96200 43.15300 31.31600
H  4.40200 40.16900 34.42000
H  6.07400 39.97300 33.72200
H  4.67000 39.15300 33.05600

