158

Mg 40.70500 9.89400 30.04500
C  42.56300 11.10300 32.68300
C  38.23200 8.79300 32.12300
C  39.12200 8.54200 27.49700
C  43.36300 10.82900 27.83400
N  40.49100 9.84500 32.19200
C  41.33700 10.48800 33.04400
C  40.65000 10.55900 34.49500
C  39.34100 9.73700 34.26000
C  39.35300 9.41700 32.83500
C  39.20900 8.42500 35.06400
C  40.28400 11.96700 34.94200
C  39.95200 12.06600 36.42400
H  40.91500 12.90000 37.34500
N  38.96000 8.64400 29.85600
C  38.04100 8.41000 30.83800
C  36.86000 7.87200 30.31500
C  37.13400 7.67600 28.90000
C  38.46900 8.24700 28.68900
C  35.69300 7.29700 31.20100
C  36.29500 7.07800 27.76700
O  36.72900 6.90000 26.58500
C  34.92000 6.60100 28.17500
N  41.20400 9.79600 27.93700
C  40.32800 9.11900 27.16500
C  40.81500 9.14000 25.70600
C  42.15300 10.00900 25.74500
C  42.31000 10.13100 27.24500
C  41.11500 7.66000 25.16000
C  41.89100 11.46700 25.23400
C  40.60200 12.25400 25.60500
N  42.60200 10.78500 30.20100
C  43.48500 11.15400 29.25700
C  44.59200 11.79800 29.84100
C  44.21200 11.95000 31.21100
C  43.03600 11.19300 31.35600
C  45.93300 12.21000 29.20800
C  44.66900 12.49100 32.46000
O  45.63000 13.12700 32.76900
C  43.45900 12.03400 33.48500
C  44.11200 11.33100 34.54200
O  44.86300 10.36700 34.46500
O  43.71100 11.83500 35.72500
C  44.06400 11.13900 36.92300
H  37.33600 8.54800 32.69700
H  38.67800 8.27300 26.53600
H  44.26000 11.06900 27.26000
H  41.27800 10.08600 35.25000
H  38.40000 10.28700 34.27400
H  38.14200 8.20500 35.08700
H  39.66300 8.64600 36.02900
H  39.80800 7.67000 34.55600
H  39.51000 12.29900 34.25100
H  41.15000 12.61900 34.83200
H  39.99500 11.07900 36.88600
H  38.93500 12.45600 36.43200
H  34.68900 7.37900 30.78400
H  35.69700 7.54500 32.26200
H  35.73600 6.20800 31.21700
H  35.08800 5.84700 28.94400
H  34.43200 6.13800 27.31700
H  34.39600 7.51600 28.45200
H  40.10200 9.59600 25.02000
H  42.96900 9.40900 25.34200
H  41.67200 7.03100 25.85400
H  41.61500 7.61900 24.19200
H  40.16800 7.13300 25.04400
H  42.04200 11.49500 24.15500
H  42.65300 12.19500 25.51300
H  40.18600 12.56400 24.64700
H  40.77000 13.11100 26.25600
H  39.89000 11.59100 26.09700
H  46.69300 12.43800 29.95600
H  45.79100 13.06700 28.54900
H  46.38500 11.43800 28.58500
H  43.15900 13.00000 33.89200
H  45.15300 11.13300 36.97000
H  43.70400 10.11800 36.79400
H  43.59400 11.50800 37.83400
Mg 54.14200 24.48300 44.85300
C  51.63900 26.78300 44.03100
C  51.91400 21.90800 44.07200
C  56.72000 22.44400 44.61100
C  56.26100 27.17000 45.41100
N  52.09600 24.44200 43.98200
C  51.23000 25.50300 43.87900
C  49.83000 25.04700 43.50300
C  49.89800 23.53900 44.01400
C  51.38600 23.24700 44.08800
C  49.15000 23.28800 45.34300
C  49.59200 25.15700 41.92400
C  48.09700 25.46800 41.60400
H  47.69300 25.40800 40.10800
N  54.27900 22.43400 44.38700
C  53.24000 21.51400 44.14500
C  53.83600 20.21100 43.89400
C  55.24800 20.35800 43.94500
C  55.48800 21.81000 44.28400
C  53.10800 18.93600 43.75400
C  56.26000 19.18000 43.69200
O  55.88800 18.04600 43.36200
C  57.69500 19.34000 43.90000
N  56.14800 24.76600 44.91000
C  57.02400 23.73900 44.97600
C  58.44500 24.16600 45.21800
C  58.31200 25.70200 45.47400
C  56.83900 25.88600 45.33300
C  59.27700 23.41000 46.33500
C  59.22700 26.59400 44.60000
C  60.05700 27.66100 45.31300
N  53.99100 26.62300 44.96500
C  54.90700 27.58100 45.35800
C  54.22600 28.84700 45.47100
C  52.94100 28.61700 44.86100
C  52.88600 27.20100 44.57100
C  54.68400 30.22200 45.91600
C  51.68300 29.25200 44.39400
O  51.38400 30.45800 44.43400
C  50.78800 28.12300 43.79800
C  50.50300 28.42600 42.35200
O  51.24600 28.11300 41.40700
O  49.23400 28.95600 42.21600
C  48.57200 29.02000 40.86700
H  51.27300 21.02500 44.02800
H  57.57600 21.78800 44.78300
H  56.86000 28.03700 45.69700
H  49.14100 25.55300 44.18100
H  49.39700 22.91900 43.27100
H  48.75900 22.27100 45.35900
H  48.29700 23.94000 45.53400
H  49.87200 23.41300 46.15000
H  49.84500 24.19100 41.48500
H  50.23800 25.90100 41.45800
H  48.03000 26.52100 41.87600
H  47.36300 24.92400 42.19900
H  53.48900 18.08400 43.19200
H  52.21400 19.18500 43.18200
H  52.57900 18.64500 44.66100
H  58.22300 18.48700 43.47300
H  57.87900 19.42600 44.97100
H  58.03100 20.19100 43.30800
H  59.04800 23.92700 44.34300
H  58.54700 25.97500 46.50300
H  58.71400 22.52200 46.62300
H  59.43100 24.09000 47.17200
H  60.22500 22.98900 45.99800
H  58.64500 27.23800 43.94100
H  59.90400 25.96600 44.02100
H  60.53300 28.18600 44.48500
H  60.78100 27.19500 45.98100
H  59.35400 28.25200 45.90200
H  55.24600 30.18600 46.84900
H  53.96200 31.02800 46.05100
H  55.39700 30.55800 45.16300
H  49.86200 27.86100 44.31000
H  47.80500 28.24900 40.93700
H  49.20800 28.66700 40.05500
H  48.17200 30.00400 40.62100

