158

Mg 23.75400 -3.90800 45.30100
C  25.84900 -1.38100 44.02200
C  21.29800 -2.91000 43.16300
C  22.43800 -6.92800 45.57200
C  26.73200 -5.22300 46.91100
N  23.66600 -2.35900 43.68400
C  24.62200 -1.45800 43.34900
C  24.17400 -0.58100 42.19700
C  22.56000 -0.75000 42.25100
C  22.49400 -2.15000 43.05100
C  21.61400 0.17100 43.10200
C  24.85600 -1.13400 40.91500
C  25.11600 -0.07700 39.89200
H  25.27000 -0.39000 38.37600
N  22.02300 -4.81300 44.55100
C  21.10100 -4.17300 43.74900
C  20.00100 -5.05400 43.49500
C  20.33800 -6.25900 44.21100
C  21.62200 -6.05300 44.84200
C  18.86400 -4.73800 42.60000
C  19.40900 -7.42400 44.20100
O  18.36900 -7.50600 43.55300
C  19.86200 -8.63100 44.95900
N  24.53800 -5.80700 46.12100
C  23.70900 -6.82500 46.07500
C  24.29000 -7.99400 46.88000
C  25.68100 -7.52300 47.33100
C  25.67500 -6.04800 46.79400
C  23.43600 -8.77300 48.03300
C  26.88500 -8.27900 46.77200
C  27.65900 -9.01200 47.88600
N  25.76500 -3.32400 45.65400
C  26.78000 -3.89000 46.41100
C  27.97200 -3.01500 46.31500
C  27.62600 -2.03500 45.42800
C  26.30200 -2.23900 44.98600
C  29.30500 -3.38300 47.01900
C  28.25500 -0.94100 44.71300
O  29.38400 -0.38200 44.79700
C  27.14300 -0.46200 43.71700
C  26.76400 0.92300 44.08100
O  25.99200 1.20700 44.98300
O  27.50900 1.82000 43.33000
C  27.31700 3.27000 43.47900
H  20.42300 -2.46000 42.68900
H  22.13500 -7.95900 45.77000
H  27.59300 -5.75200 47.32500
H  24.44800 0.43700 42.47200
H  22.21300 -1.07200 41.27000
H  20.76900 0.50900 42.50100
H  22.14200 1.08500 43.37400
H  21.36400 -0.28400 44.06000
H  24.16500 -1.87900 40.52000
H  25.82100 -1.53900 41.22200
H  26.00500 0.48900 40.17000
H  24.27600 0.61400 39.82100
H  19.07100 -5.06000 41.57900
H  18.69400 -3.66200 42.56700
H  17.90900 -5.09600 42.98600
H  19.22600 -9.51600 44.96900
H  19.89400 -8.35100 46.01200
H  20.83800 -8.94000 44.58500
H  24.48800 -8.76400 46.13400
H  25.71200 -7.50300 48.42100
H  22.63100 -8.06500 48.22800
H  23.93100 -8.88700 48.99800
H  23.09300 -9.74900 47.69100
H  27.57500 -7.62500 46.23800
H  26.65300 -9.06400 46.05200
H  27.40700 -10.03900 47.61900
H  27.43000 -8.61700 48.87600
H  28.73200 -8.84600 47.79200
H  29.26700 -4.43200 47.31400
H  29.55800 -2.83100 47.92400
H  30.10700 -3.27800 46.28800
H  27.55100 -0.53200 42.70900
H  26.51600 3.47400 44.19000
H  27.20900 3.75700 42.51000
H  28.13100 3.75400 44.02000
Mg 26.90300 49.74600 26.59600
C  24.91000 50.59400 29.44300
C  29.42400 49.01600 28.78200
C  28.87000 49.35400 24.02900
C  24.28900 50.99400 24.56600
N  27.07200 49.82500 28.80300
C  26.12900 50.04300 29.76300
C  26.60800 49.65300 31.19600
C  28.12900 49.41900 30.95700
C  28.22400 49.40700 29.42000
C  29.00500 50.45100 31.62800
C  25.84700 48.43600 31.76800
C  25.05700 48.85300 33.02600
H  25.81300 49.46600 34.25000
N  28.96300 49.18100 26.41600
C  29.80300 48.82500 27.46200
C  31.02200 48.42300 26.88000
C  30.96400 48.66900 25.47200
C  29.56300 49.09000 25.20900
C  32.19800 47.99000 27.68500
C  31.97500 48.65600 24.42500
O  31.87900 49.15900 23.26800
C  33.32500 48.09400 24.56600
N  26.61800 50.10000 24.61400
C  27.54300 49.73700 23.70300
C  27.04200 50.01500 22.27500
C  25.59800 50.42700 22.43100
C  25.46500 50.52400 23.98200
C  27.86500 51.07500 21.51700
C  24.45800 49.39500 21.93200
C  23.37800 49.95800 21.07300
N  25.08000 50.67700 26.87300
C  24.10100 51.11600 25.97300
C  22.91700 51.63300 26.64900
C  23.18500 51.37900 27.98500
C  24.47800 50.82700 28.12000
C  21.67900 52.25500 26.06300
C  22.63600 51.51600 29.28800
O  21.53500 51.95800 29.63700
C  23.67200 50.93200 30.33100
C  24.07100 52.00100 31.26300
O  24.94200 52.83800 31.05400
O  23.40000 51.91800 32.40500
C  23.67000 53.01100 33.37600
H  30.11800 48.80000 29.59700
H  29.45800 49.11500 23.14000
H  23.38300 51.27500 24.02400
H  26.39000 50.55800 31.76300
H  28.40300 48.39300 31.20200
H  29.64100 49.88700 32.31000
H  28.37300 51.04400 32.28800
H  29.69300 50.87400 30.89600
H  26.53600 47.62400 32.00400
H  25.10400 48.06800 31.06000
H  24.60600 47.91000 33.33400
H  24.21900 49.51800 32.81700
H  31.80100 47.54800 28.59900
H  32.85600 48.83200 27.89900
H  32.68100 47.25700 27.03900
H  33.84800 47.85400 23.64000
H  33.11500 47.11800 25.00300
H  33.97200 48.58900 25.29100
H  27.11700 49.06000 21.75500
H  25.38600 51.40800 22.00500
H  28.79000 51.39100 22.00000
H  27.42300 52.05100 21.32000
H  28.18200 50.75300 20.52500
H  23.96300 48.91400 22.77500
H  24.99500 48.64800 21.34800
H  22.49000 49.36700 21.29700
H  23.73000 50.03300 20.04400
H  23.25800 50.94800 21.51300
H  21.58300 53.33900 26.12100
H  20.87500 51.94200 26.72800
H  21.41400 51.84400 25.08900
H  23.32600 50.04400 30.86000
H  24.63200 53.50800 33.25100
H  23.55400 52.67200 34.40600
H  22.86300 53.73700 33.27600

