158

Mg 44.58900 3.08000 47.76200
C  42.32700 5.70300 47.01600
C  41.90900 0.93300 47.56300
C  46.78500 0.63900 47.64600
C  47.13700 5.42000 47.10900
N  42.43100 3.28600 47.32500
C  41.73100 4.45200 47.10800
C  40.21500 4.25700 46.90900
C  40.12800 2.76500 47.58200
C  41.53700 2.29200 47.47500
C  39.40300 2.78200 48.91900
C  39.74200 4.22300 45.41600
C  38.66500 5.15500 45.00100
H  39.04500 6.05200 43.83700
N  44.42100 1.07800 47.62600
C  43.21800 0.36800 47.62300
C  43.51400 -1.05500 47.66800
C  44.91300 -1.22400 47.80400
C  45.42400 0.17500 47.75400
C  42.42700 -2.19100 47.47000
C  45.66800 -2.53000 47.97900
O  45.06900 -3.60100 48.10900
C  47.15800 -2.64800 47.99200
N  46.64800 3.04400 47.25800
C  47.33900 1.89100 47.46000
C  48.87200 2.12700 47.32600
C  48.96500 3.57900 46.97100
C  47.51000 4.06300 47.10000
C  49.73400 1.88900 48.59500
C  49.45900 3.80600 45.52200
C  50.84100 4.21800 45.48100
N  44.79800 5.21900 47.39500
C  45.86800 5.99300 47.11200
C  45.46800 7.44800 46.90800
C  44.06200 7.37000 46.90100
C  43.68800 5.97200 47.20200
C  46.33200 8.66200 46.62000
C  42.87700 8.13800 46.74300
O  42.62800 9.31400 46.53800
C  41.68500 7.08800 46.87400
C  40.82000 7.53400 47.96800
O  41.14100 7.74900 49.15300
O  39.49900 7.57000 47.55800
C  38.59300 7.99500 48.71800
H  40.98800 0.35100 47.63500
H  47.67100 0.00100 47.68700
H  48.06900 5.96200 46.93500
H  39.67400 4.97600 47.52400
H  39.44100 2.13400 47.01900
H  40.09800 2.48600 49.70600
H  38.58800 2.05900 48.94800
H  39.07700 3.76200 49.26600
H  39.35200 3.23800 45.16100
H  40.59200 4.50000 44.79400
H  38.31100 5.71300 45.86800
H  37.88400 4.49800 44.61900
H  42.22100 -2.58500 48.46500
H  42.81400 -3.01700 46.87200
H  41.52900 -1.75700 47.03000
H  47.49400 -1.83000 48.63000
H  47.58200 -2.54000 46.99400
H  47.43300 -3.65900 48.29400
H  49.26700 1.56200 46.48200
H  49.59500 4.14600 47.65600
H  49.38400 0.98600 49.09500
H  49.72200 2.81500 49.17000
H  50.73600 1.69100 48.21300
H  48.91900 4.61400 45.02700
H  49.45400 2.92200 44.88400
H  51.18900 4.73200 46.37600
H  51.05100 4.97000 44.72100
H  51.46400 3.34200 45.29800
H  45.87200 9.43500 47.23500
H  46.13000 8.98000 45.59700
H  47.35500 8.50000 46.96100
H  41.02800 7.11200 46.00400
H  37.58100 7.88100 48.32800
H  38.76900 8.98500 49.13900
H  38.67400 7.31400 49.56600
Mg 41.11500 7.50200 29.43500
C  42.63500 9.05500 32.09400
C  38.92500 5.99300 31.57900
C  39.75700 6.06800 26.78400
C  43.72600 8.84300 27.29000
N  41.01200 7.37200 31.59300
C  41.61000 8.20000 32.51000
C  40.94900 7.99800 33.88000
C  39.99200 6.77200 33.67200
C  39.94300 6.61400 32.14800
C  40.57100 5.44500 34.28900
C  40.19900 9.28200 34.20300
C  40.19600 9.68400 35.70700
H  40.85600 11.05400 36.02000
N  39.60000 6.26500 29.21200
C  38.70000 5.87600 30.22400
C  37.53900 5.18400 29.60600
C  37.81900 5.21700 28.18600
C  39.08000 5.85300 28.00600
C  36.39300 4.42700 30.38400
C  36.88500 4.77100 27.00800
O  37.22500 4.83200 25.81500
C  35.51600 4.46200 27.42200
N  41.76100 7.45000 27.32700
C  40.93000 6.82100 26.49700
C  41.43300 6.92900 25.00500
C  42.60500 7.91000 25.15300
C  42.71000 8.11600 26.64300
C  41.77900 5.57300 24.32500
C  42.49500 9.17300 24.35800
C  41.32900 10.14300 24.55000
N  42.83000 8.72000 29.66200
C  43.78600 9.17100 28.74500
C  44.72200 10.01900 29.41500
C  44.32700 10.01600 30.71800
C  43.14800 9.19400 30.81400
C  45.91400 10.71100 28.72800
C  44.61000 10.50600 32.05900
O  45.47500 11.27600 32.45400
C  43.47600 9.85700 32.98900
C  44.04100 8.87900 33.98700
O  44.90500 8.01500 33.72600
O  43.72300 9.20200 35.28500
C  44.18400 8.44600 36.53800
H  38.16300 5.69300 32.30200
H  39.45900 5.55100 25.87000
H  44.40300 9.40700 26.64500
H  41.68100 7.76400 34.65200
H  39.05200 6.91800 34.20400
H  40.59800 4.63800 33.55600
H  39.86300 5.17100 35.07000
H  41.51300 5.44700 34.83700
H  39.14800 9.24200 33.91600
H  40.63300 10.06700 33.58300
H  40.78600 8.94900 36.25300
H  39.17100 9.61500 36.07300
H  36.43800 4.45900 31.47200
H  36.28700 3.43200 29.95100
H  35.45600 4.93800 30.16100
H  34.97300 4.21600 26.51000
H  35.03900 5.32000 27.89600
H  35.61600 3.52200 27.96600
H  40.57200 7.36400 24.49900
H  43.54800 7.51500 24.77300
H  41.31500 4.76300 24.88700
H  42.86300 5.48500 24.25200
H  41.27700 5.50500 23.36000
H  42.40100 8.80000 23.33800
H  43.43500 9.72300 24.33300
H  40.66500 10.10900 23.68700
H  41.63000 11.17800 24.71300
H  40.65700 9.96500 25.38900
H  46.44400 11.47200 29.29900
H  45.56700 11.23700 27.83800
H  46.69100 9.98700 28.48100
H  43.12700 10.71900 33.55800
H  44.79900 9.04800 37.20700
H  44.74400 7.57200 36.20300
H  43.41200 8.01900 37.17800

