158

Mg 54.46500 23.41800 45.01500
C  51.96200 25.72000 44.12700
C  52.15500 20.85700 44.44100
C  56.98100 21.06400 45.33700
C  56.62900 26.04100 45.47000
N  52.35000 23.33400 44.27700
C  51.51500 24.43000 43.97000
C  50.13100 23.86800 43.44200
C  50.20600 22.31700 43.71700
C  51.64500 22.15200 44.18300
C  49.21700 21.72100 44.63800
C  50.01400 24.22700 41.87200
C  48.61600 24.79200 41.62900
H  48.17300 24.73700 40.15500
N  54.50300 21.23900 44.92400
C  53.39300 20.41700 44.82700
C  53.89900 19.06400 44.88100
C  55.24900 19.11900 45.27500
C  55.65800 20.51200 45.19100
C  52.98300 17.86800 44.63000
C  56.11900 17.85700 45.80800
O  55.48500 16.80300 45.85500
C  57.60600 17.87700 46.35700
N  56.59400 23.55100 45.08200
C  57.36000 22.44800 45.33700
C  58.80500 22.93600 45.46700
C  58.75000 24.47800 45.65600
C  57.22300 24.74100 45.44100
C  59.53200 22.29100 46.71700
C  59.68600 25.31200 44.75000
C  60.76600 26.15500 45.58600
N  54.42000 25.59500 44.78900
C  55.32700 26.49600 45.24000
C  54.71500 27.83500 45.17200
C  53.37500 27.57900 44.74100
C  53.25100 26.20900 44.48100
C  55.38300 29.16300 45.45000
C  52.07200 28.14300 44.47300
O  51.72900 29.30200 44.45500
C  51.18800 26.98400 43.83700
C  50.92500 27.39300 42.40400
O  51.68300 27.12100 41.46100
O  49.88200 28.31900 42.38600
C  49.69000 28.98100 41.07200
H  51.42200 20.05100 44.36800
H  57.79300 20.36100 45.53300
H  57.35500 26.80800 45.74700
H  49.30500 24.29600 44.01000
H  50.12200 21.77000 42.77900
H  49.61000 21.13300 45.46600
H  48.59100 21.14200 43.95900
H  48.44000 22.39900 44.99100
H  50.07400 23.35800 41.21700
H  50.82200 24.92600 41.65400
H  48.56000 25.87200 41.76100
H  47.83800 24.36900 42.26400
H  53.50400 17.09400 44.06800
H  52.11300 18.07200 44.00500
H  52.67400 17.52800 45.61900
H  57.87400 16.83700 46.54700
H  57.64600 18.52900 47.22900
H  58.26000 18.31000 45.60100
H  59.41700 22.70700 44.59400
H  58.91200 24.77800 46.69100
H  58.89000 22.18000 47.59100
H  60.32300 23.01400 46.91500
H  59.98700 21.41500 46.25500
H  59.23900 26.00400 44.03600
H  60.35400 24.64000 44.21200
H  61.18000 25.55900 46.40000
H  60.24100 27.00300 46.02600
H  61.52400 26.47700 44.87300
H  56.31000 29.11500 44.87800
H  55.35900 29.33100 46.52600
H  54.86100 29.97500 44.94500
H  50.20300 26.94800 44.30200
H  49.49100 28.18200 40.35800
H  50.57200 29.59800 40.89500
H  48.77100 29.56300 41.01200
Mg 9.71400 47.67900 25.69600
C  7.88600 48.04300 28.65800
C  12.39000 49.06000 27.35200
C  11.40900 47.33400 22.88900
C  6.86600 46.70300 24.08300
N  10.10200 48.38600 27.83100
C  9.24400 48.35300 28.92000
C  9.95000 48.84200 30.26200
C  11.24100 49.39900 29.64700
C  11.28800 48.84900 28.19800
C  11.28300 50.95800 29.68500
C  10.22200 47.63400 31.28500
C  9.56400 47.84700 32.71700
H  9.17900 46.67000 33.60800
N  11.65200 48.11900 25.15000
C  12.59300 48.67500 25.98600
C  13.86700 48.82800 25.28900
C  13.61400 48.28200 23.95700
C  12.20100 47.85300 23.94600
C  15.14200 49.24400 25.94000
C  14.57500 48.17500 22.80900
O  14.35200 47.77500 21.64100
C  15.98900 48.70300 22.99400
N  9.14500 47.16500 23.77500
C  10.08500 46.99100 22.74600
C  9.47800 46.45000 21.46900
C  8.09100 46.02600 21.94200
C  8.01300 46.59300 23.37900
C  9.58400 47.60300 20.43900
C  7.92600 44.47600 22.13500
C  8.87600 43.62300 23.00000
N  7.79100 47.44900 26.23000
C  6.66700 47.09900 25.42500
C  5.44300 47.28600 26.16300
C  5.88100 47.58600 27.47900
C  7.32700 47.73300 27.47300
C  4.01300 47.08700 25.71500
C  5.46500 47.88700 28.89600
O  4.35800 47.93100 29.33600
C  6.71900 48.18600 29.66000
C  6.67100 47.15900 30.71800
O  7.24300 46.02700 30.60500
O  5.98500 47.64200 31.81000
C  5.41500 46.64500 32.65100
H  13.23300 49.51500 27.87600
H  11.92300 47.19600 21.93500
H  5.95800 46.35700 23.58400
H  9.35800 49.60400 30.76800
H  12.10500 49.04400 30.20800
H  10.38100 51.27600 30.20900
H  11.24900 51.29600 28.65000
H  12.19300 51.29900 30.17900
H  11.27800 47.54400 31.53700
H  9.89700 46.71200 30.80300
H  8.60100 48.32500 32.53400
H  10.33500 48.52300 33.08800
H  15.86400 48.44600 26.11400
H  14.94100 49.50000 26.98000
H  15.75100 50.01900 25.47500
H  15.92000 49.75900 23.25600
H  16.64400 48.59700 22.12900
H  16.47200 48.16900 23.81300
H  10.07300 45.59000 21.16100
H  7.30500 46.49100 21.34800
H  10.15800 48.41300 20.88900
H  8.54800 47.82800 20.18700
H  10.10300 47.18200 19.57700
H  8.23100 44.04900 21.17900
H  6.87900 44.20000 22.26300
H  9.42900 42.90400 22.39600
H  8.31700 43.11100 23.78300
H  9.67400 44.17200 23.50000
H  3.39300 47.97500 25.58900
H  3.48200 46.58500 26.52400
H  4.09200 46.38400 24.88600
H  6.69400 49.17800 30.10900
H  4.86000 47.04400 33.49900
H  6.27000 46.12100 33.07800
H  4.79500 45.96900 32.06300

