158

Mg 8.79400 2.59500 27.69700
C  10.31500 1.09800 30.48100
C  6.81400 4.48300 29.74800
C  7.45000 3.87500 24.96400
C  10.63500 0.25100 25.63900
N  8.68900 2.74900 29.81900
C  9.49600 2.22000 30.79400
C  9.10900 2.70800 32.17800
C  7.94300 3.65200 31.90600
C  7.72000 3.59300 30.38300
C  6.68500 3.41300 32.81400
C  10.34800 3.27300 33.00300
C  10.19600 4.25200 34.17700
H  10.95400 3.99000 35.44000
N  7.20600 3.98300 27.42700
C  6.51300 4.64400 28.37900
C  5.59700 5.51100 27.72300
C  5.93200 5.48900 26.30600
C  6.93200 4.45600 26.11700
C  4.59200 6.40400 28.50700
C  5.44200 6.34700 25.20500
O  5.85700 6.36500 24.10200
C  4.30200 7.37800 25.57300
N  8.81900 1.88600 25.58900
C  8.21600 2.69200 24.65300
C  8.73900 2.29800 23.21600
C  9.58700 1.01700 23.40100
C  9.78200 1.10100 24.98000
C  7.64900 2.19500 22.17800
C  10.99200 1.08700 22.63400
C  11.23400 -0.20500 21.83400
N  10.26800 1.14500 27.90900
C  10.86000 0.24100 27.01300
C  11.77800 -0.67000 27.72200
C  11.57800 -0.35800 29.07800
C  10.72100 0.77900 29.12400
C  12.58300 -1.85000 27.14900
C  11.99600 -0.72700 30.42500
O  12.78200 -1.56500 30.81400
C  11.22300 0.24200 31.36000
C  10.60100 -0.59800 32.36500
O  9.39200 -0.86600 32.56000
O  11.53000 -0.92200 33.35100
C  11.00600 -1.20700 34.66900
H  6.23500 5.13800 30.40300
H  7.19400 4.44700 24.06900
H  11.21000 -0.38600 24.96400
H  8.75100 1.79700 32.65800
H  8.23000 4.64800 32.24500
H  5.81000 2.97700 32.33300
H  6.32800 4.34400 33.25500
H  6.91700 2.79300 33.68000
H  10.93000 3.72900 32.20200
H  10.88600 2.37200 33.29800
H  9.14100 4.41700 34.39500
H  10.52100 5.21000 33.77100
H  3.58800 6.48800 28.09200
H  5.16700 7.30300 28.72800
H  4.44100 5.87000 29.44600
H  4.65200 8.04000 26.36500
H  3.51400 6.68400 25.86400
H  3.90300 7.99900 24.77100
H  9.37900 3.12900 22.91900
H  9.01200 0.09400 23.32700
H  6.81400 2.83100 22.47200
H  7.33900 1.15200 22.23700
H  7.98900 2.50600 21.19000
H  11.77300 1.28300 23.36900
H  10.96400 1.91400 21.92500
H  11.63000 -0.01700 20.83600
H  10.35200 -0.81400 21.63400
H  12.04500 -0.70900 22.35800
H  13.65500 -1.67900 27.04900
H  12.13300 -2.14400 26.20000
H  12.52000 -2.72800 27.79100
H  12.01800 0.80200 31.85200
H  10.08800 -0.64600 34.84600
H  11.77100 -0.84600 35.35600
H  10.75900 -2.26100 34.79700
Mg 47.84400 44.41600 43.69400
C  44.30500 43.90400 43.31200
C  48.26300 41.09400 43.07300
C  50.99400 45.07700 43.48500
C  47.09400 47.97100 43.48100
N  46.46400 42.76200 43.05400
C  45.12400 42.77500 43.14200
C  44.56800 41.34600 42.93500
C  45.85200 40.47500 42.81000
C  46.93100 41.53000 42.97800
C  45.93500 39.24500 43.79500
C  43.53800 41.24900 41.77700
C  44.01200 41.78300 40.46300
H  43.80800 41.07800 39.10300
N  49.40800 43.19100 43.47100
C  49.40200 41.87800 43.25200
C  50.77200 41.39800 43.19600
C  51.61700 42.52500 43.36600
C  50.69800 43.63100 43.46600
C  51.16600 39.97600 42.88700
C  53.12100 42.50000 43.39400
O  53.62100 41.38400 43.29600
C  53.97300 43.73600 43.69800
N  48.84700 46.31000 43.43500
C  50.22200 46.23600 43.44200
C  50.77600 47.63200 43.22600
C  49.50100 48.55800 43.17300
C  48.45600 47.54900 43.42000
C  51.58300 48.05800 44.52500
C  49.23400 49.43700 41.91800
C  49.12800 50.95400 42.03000
N  46.11700 45.73500 43.51700
C  45.96500 47.11700 43.42300
C  44.51900 47.48600 43.30800
C  43.86500 46.21500 43.32800
C  44.85700 45.23200 43.34100
C  43.87200 48.88400 43.31100
C  42.57100 45.63000 43.27900
O  41.44900 46.11600 43.17200
C  42.76500 44.07700 43.23400
C  42.00300 43.47100 44.34600
O  41.29400 42.46700 44.24700
O  42.30800 44.14600 45.50600
C  41.56300 43.46000 46.63000
H  48.45300 40.05300 42.80400
H  52.07100 45.25800 43.45900
H  47.11000 49.05200 43.32900
H  43.93300 41.21700 43.81100
H  46.00500 39.98800 41.84700
H  46.73900 39.52300 44.47700
H  46.21100 38.38300 43.18900
H  44.99000 39.21900 44.33800
H  42.58600 41.72800 42.00500
H  43.39000 40.17800 41.63600
H  45.04500 42.12800 40.51000
H  43.47500 42.73100 40.45700
H  51.82100 39.96000 42.01600
H  50.26400 39.38100 42.74200
H  51.76700 39.58200 43.70600
H  53.93700 44.43000 42.85800
H  54.98300 43.45600 43.99700
H  53.51500 44.20700 44.56700
H  51.48700 47.78500 42.41400
H  49.44900 49.23900 44.02300
H  51.25100 49.02100 44.91400
H  52.62100 48.20600 44.22600
H  51.55400 47.32000 45.32600
H  48.34900 49.08100 41.39000
H  50.09700 49.28100 41.27100
H  49.74400 51.40700 41.25300
H  49.49500 51.34600 42.97900
H  48.15100 51.40900 41.87200
H  44.01400 49.32300 42.32400
H  44.40400 49.41500 44.10000
H  42.83800 48.64400 43.56100
H  42.41900 43.80100 42.23700
H  41.70600 44.02400 47.55200
H  41.86300 42.44100 46.87100
H  40.50300 43.35300 46.39700

