158

Mg 16.89800 52.97800 26.85200
C  18.72000 51.21800 29.32700
C  14.65500 53.70400 29.26400
C  14.92700 54.20700 24.50500
C  18.99400 51.51000 24.35100
N  16.80400 52.66300 28.99900
C  17.67100 51.95500 29.81600
C  17.25500 51.92800 31.28100
C  15.75800 52.28600 31.09300
C  15.77700 52.98000 29.72300
C  14.95600 50.97700 31.30000
C  18.08900 53.01700 31.98800
C  18.47600 52.81400 33.43700
H  17.40700 52.08900 34.26700
N  15.08900 53.97700 26.87300
C  14.36200 54.25200 27.99200
C  13.22700 55.01800 27.63100
C  13.16900 54.99100 26.22900
C  14.45300 54.40100 25.77700
C  12.28700 55.55700 28.68500
C  11.98900 55.45700 25.28200
O  12.22500 55.53800 24.08900
C  10.60200 55.92200 25.81700
N  17.09700 53.02900 24.73400
C  16.05700 53.60800 24.01000
C  16.26100 53.34700 22.49600
C  17.62100 52.57500 22.49800
C  17.93700 52.44400 23.97000
C  15.11400 52.58500 21.90900
C  18.69700 53.14800 21.54800
C  19.71300 54.19700 22.04300
N  18.53300 51.59200 26.77500
C  19.30100 51.16000 25.73900
C  20.41700 50.43800 26.30800
C  20.26900 50.43900 27.69500
C  19.05500 51.05600 27.92400
C  21.56400 49.90900 25.49000
C  20.83700 50.13200 28.97000
O  21.95000 49.74100 29.26900
C  19.84500 50.61700 30.04700
C  19.46400 49.44900 30.95400
O  18.83400 48.49400 30.51400
O  19.78500 49.63200 32.29600
C  19.24200 48.68500 33.27700
H  13.97900 53.94600 30.08700
H  14.48200 54.75300 23.67100
H  19.50200 50.93500 23.57400
H  17.60900 51.06100 31.83900
H  15.38200 52.90800 31.90600
H  15.09700 50.27000 30.48200
H  13.87600 51.02700 31.43400
H  15.36600 50.50900 32.19500
H  17.55200 53.96500 32.00900
H  19.01800 53.19100 31.44600
H  18.71800 53.79300 33.85100
H  19.41300 52.25900 33.40000
H  11.96400 56.56000 28.40700
H  12.72600 55.48000 29.68000
H  11.35200 54.99800 28.70900
H  10.00100 55.16000 26.31300
H  9.92800 56.34200 25.07100
H  10.82200 56.80500 26.41700
H  16.37500 54.30000 21.98100
H  17.42800 51.55400 22.17000
H  14.57700 53.17400 21.16500
H  14.49500 52.11600 22.67400
H  15.57700 51.73400 21.41100
H  18.21100 53.88100 20.90300
H  19.17800 52.35800 20.97200
H  19.41500 54.50900 23.04400
H  19.67200 55.09000 21.42000
H  20.73300 53.81800 22.10000
H  21.97500 50.62900 24.78200
H  21.08400 49.17400 24.84200
H  22.36700 49.37700 25.99900
H  20.35200 51.28700 30.74200
H  19.61500 47.69100 33.03000
H  18.15800 48.58500 33.20900
H  19.63100 49.07400 34.21800
Mg -4.81500 25.34200 26.03300
C  -3.62900 26.72000 28.87800
C  -6.53300 22.99700 27.90200
C  -5.47900 23.64300 23.18600
C  -2.90000 27.57500 24.14600
N  -4.98600 24.90100 28.13800
C  -4.48300 25.64800 29.16500
C  -5.12800 25.39800 30.46500
C  -5.90300 24.05000 30.17900
C  -5.75500 23.86000 28.68000
C  -5.28200 22.92200 31.02000
C  -6.08300 26.51000 30.93300
C  -6.06100 26.66400 32.47000
H  -5.33200 25.70000 33.44600
N  -5.96600 23.63700 25.61100
C  -6.65100 22.82800 26.49900
C  -7.35300 21.74700 25.74600
C  -6.96700 21.89700 24.35400
C  -6.04100 23.09800 24.39900
C  -8.33100 20.83500 26.54200
C  -7.42600 21.03700 23.16000
O  -6.99700 21.19000 22.04000
C  -8.18100 19.79500 23.47000
N  -4.26700 25.58400 23.98500
C  -4.70400 24.78200 22.95000
C  -4.33100 25.28300 21.48200
C  -3.54000 26.64200 21.85800
C  -3.59500 26.66400 23.38600
C  -3.46700 24.26600 20.72500
C  -3.95300 27.93400 21.07400
C  -3.06100 28.54200 20.03000
N  -3.36900 26.70200 26.39400
C  -2.74000 27.59000 25.55300
C  -1.97600 28.58100 26.30100
C  -2.18000 28.19600 27.66400
C  -3.13700 27.08700 27.62700
C  -1.19300 29.83900 25.80400
C  -1.82700 28.52700 29.08300
O  -1.03400 29.27900 29.56700
C  -2.82000 27.56700 29.87600
C  -1.92800 26.82900 30.75700
O  -1.19500 25.92500 30.37500
O  -1.88900 27.38000 32.09000
C  -1.08900 26.58500 32.95600
H  -6.97300 22.18600 28.48700
H  -5.73800 23.05400 22.30300
H  -2.26600 28.38100 23.77000
H  -4.27400 25.39600 31.14300
H  -6.93900 24.23700 30.46100
H  -4.68600 22.23100 30.42400
H  -6.08000 22.24800 31.33000
H  -4.69000 23.20900 31.89000
H  -7.07400 26.43200 30.48400
H  -5.66700 27.45400 30.58100
H  -7.07500 26.77800 32.85400
H  -5.59700 27.64500 32.56800
H  -7.65100 20.06400 26.90500
H  -9.16500 20.35700 26.02900
H  -8.68700 21.40900 27.39700
H  -9.18000 19.97200 23.86900
H  -7.65900 19.12700 24.15500
H  -8.35300 19.28200 22.52400
H  -5.22900 25.41200 20.87800
H  -2.47500 26.43300 21.75600
H  -3.79600 23.89200 19.75500
H  -3.53200 23.28800 21.20300
H  -2.48700 24.72300 20.59100
H  -4.28100 28.75400 21.71200
H  -4.91400 27.73900 20.59900
H  -3.78800 28.74900 19.24600
H  -2.16900 28.01900 19.68500
H  -2.77600 29.51700 20.42500
H  -0.11100 29.70700 25.78400
H  -1.42600 30.66800 26.47200
H  -1.53400 30.10100 24.80200
H  -3.51800 28.14600 30.48100
H  -1.25800 25.51000 32.88400
H  -1.04000 26.96700 33.97500
H  -0.09900 26.65800 32.50700

