158

Mg 35.01000 3.08400 29.84400
C  33.17500 4.07700 32.65700
C  37.65500 3.04800 31.92600
C  36.92300 2.60000 27.19600
C  32.30000 3.94700 27.88700
N  35.36500 3.72000 32.01800
C  34.48000 3.98600 33.00200
C  35.13200 4.02400 34.40200
C  36.60500 4.02000 34.01700
C  36.55900 3.52300 32.53500
C  37.29400 5.40300 34.03100
C  34.66100 2.71700 35.24300
C  34.56600 2.88700 36.76300
H  35.35600 3.99400 37.46100
N  37.08100 2.80200 29.60200
C  38.00200 2.67300 30.61100
C  39.33200 2.38600 29.96600
C  39.14300 2.37900 28.60900
C  37.63800 2.56900 28.42500
C  40.57700 2.21100 30.75800
C  40.15700 2.26000 27.50400
O  39.89200 2.32000 26.33800
C  41.54500 1.75200 27.87900
N  34.69400 3.36200 27.87400
C  35.62400 3.05100 26.93400
C  35.05800 3.11400 25.52400
C  33.51400 3.31900 25.80700
C  33.51700 3.52000 27.26400
C  35.69100 4.27700 24.67100
C  32.59800 2.12500 25.34000
C  31.24600 2.48300 24.75800
N  33.01000 3.79600 30.13200
C  32.03500 4.15100 29.24100
C  30.86600 4.59000 29.87000
C  31.22100 4.42900 31.22600
C  32.55700 4.05100 31.37200
C  29.63400 5.04000 29.12200
C  30.72200 4.63500 32.53400
O  29.58100 4.93800 32.86700
C  31.96100 4.46800 33.55700
C  32.04100 5.78800 34.25300
O  32.41400 6.83300 33.70400
O  31.27400 5.77200 35.34900
C  31.00000 7.12800 35.87500
H  38.47500 2.95100 32.64100
H  37.53500 2.37100 26.32100
H  31.46200 3.98500 27.18800
H  34.71400 4.88400 34.92500
H  37.22500 3.31800 34.57500
H  38.23200 5.34800 34.58500
H  36.68800 6.18600 34.48700
H  37.35300 5.79900 33.01700
H  35.34200 1.91100 34.97200
H  33.66400 2.53900 34.84100
H  34.85700 1.97100 37.27800
H  33.51300 2.95300 37.03600
H  40.62100 2.15100 31.84600
H  41.25000 3.00300 30.42900
H  41.06400 1.29100 30.43700
H  41.51700 0.92400 28.58600
H  42.10300 2.48800 28.45900
H  42.18800 1.38000 27.08100
H  35.39700 2.26700 24.92800
H  33.19100 4.21700 25.28000
H  36.30400 4.84100 25.37400
H  34.95600 4.97700 24.27500
H  36.34300 3.95100 23.86000
H  32.47100 1.48300 26.21100
H  33.00200 1.52100 24.52600
H  30.42000 2.10500 25.36000
H  31.10000 2.03800 23.77300
H  31.06900 3.55000 24.62200
H  28.87800 5.33500 29.85000
H  29.23000 4.35200 28.38000
H  29.93900 5.86800 28.48200
H  31.77100 3.76900 34.37100
H  30.02200 7.49900 35.57000
H  31.77400 7.88600 35.75400
H  30.85500 7.01800 36.95000
Mg 36.85000 50.29500 25.31900
C  37.12500 48.33700 28.28300
C  35.85600 52.94200 27.12700
C  36.09600 51.83600 22.41800
C  38.06200 47.59700 23.52200
N  36.41100 50.49800 27.50500
C  36.73600 49.65600 28.53600
C  36.54100 50.36400 29.92700
C  36.20200 51.80600 29.47200
C  36.12500 51.77100 27.94800
C  34.89800 52.43600 30.04800
C  37.89000 50.31600 30.85300
C  37.81400 49.60300 32.18900
H  36.52900 49.63800 33.01500
N  36.12100 52.15400 24.84000
C  35.78300 53.11600 25.75100
C  35.35100 54.30900 24.99500
C  35.32600 53.96600 23.61100
C  35.91100 52.66700 23.55300
C  34.79000 55.48000 25.71800
C  34.86500 54.74500 22.36700
O  34.99000 54.26800 21.28300
C  34.30900 56.09800 22.51800
N  36.93800 49.68400 23.24800
C  36.57800 50.52700 22.24800
C  37.09000 49.99100 20.85400
C  37.91500 48.66200 21.25900
C  37.63000 48.64500 22.74300
C  35.93200 49.74100 19.90400
C  39.45300 48.52400 21.04200
C  40.09500 47.16600 20.67500
N  37.48400 48.38300 25.75900
C  37.87400 47.40000 24.89800
C  38.31500 46.25900 25.70300
C  37.94900 46.59100 27.02400
C  37.43200 47.85100 27.02100
C  39.02800 44.98300 25.25000
C  38.09100 46.11900 28.36900
O  38.51100 45.12000 28.87900
C  37.48600 47.23000 29.24900
C  36.31600 46.76200 29.99300
O  35.13400 47.07000 29.76900
O  36.66900 46.08000 31.09500
C  35.73400 45.57600 32.01000
H  35.49700 53.69500 27.83200
H  36.00800 52.28700 21.42700
H  38.38100 46.72200 22.95100
H  35.68400 49.97300 30.47500
H  36.98000 52.51100 29.76500
H  34.98600 53.44000 30.46300
H  34.55500 51.81400 30.87500
H  34.12200 52.42000 29.28200
H  38.18100 51.34300 31.07300
H  38.67800 49.84500 30.26500
H  38.53000 50.09000 32.85000
H  38.13700 48.57200 32.04900
H  35.04200 56.32400 25.07700
H  35.40000 55.74200 26.58200
H  33.74200 55.34400 25.98600
H  34.04000 56.42100 21.51200
H  35.06200 56.83300 22.80400
H  33.44000 56.24300 23.15900
H  37.87900 50.68100 20.55800
H  37.34900 47.79300 20.92200
H  35.38700 50.66900 19.73500
H  35.23800 49.00900 20.31700
H  36.29000 49.38600 18.93800
H  39.78800 48.80800 22.04000
H  39.76200 49.29300 20.33500
H  40.70700 47.38600 19.80000
H  39.29600 46.45700 20.45900
H  40.77200 46.87800 21.47900
H  39.89300 44.82000 25.89300
H  39.47300 45.13200 24.26600
H  38.41500 44.08400 25.29800
H  38.23500 47.51700 29.98600
H  35.18400 44.81600 31.45500
H  35.05400 46.34100 32.38600
H  36.24600 45.06300 32.82400

