158

Mg 47.50100 14.76600 27.52200
C  45.53400 14.86600 30.49500
C  49.48600 17.28000 28.81100
C  49.10700 14.84300 24.61000
C  45.06000 12.64700 26.22800
N  47.48400 15.87600 29.42300
C  46.71800 15.68000 30.58600
C  47.23100 16.40700 31.77900
C  48.44800 17.28300 31.23200
C  48.48000 16.85700 29.71800
C  48.39200 18.83000 31.49500
C  47.57700 15.44700 32.86400
C  47.31400 15.94000 34.26700
H  48.38400 15.71100 35.36000
N  49.16300 15.90500 26.79000
C  49.79000 16.93300 27.44400
C  50.75400 17.57400 26.53200
C  50.81100 16.65700 25.34900
C  49.66600 15.75700 25.52100
C  51.61800 18.82200 26.83100
C  51.76200 16.76700 24.15200
O  51.67000 16.01700 23.14900
C  52.92700 17.79400 24.15700
N  47.11400 13.85800 25.69700
C  47.92600 14.02200 24.65700
C  47.57100 13.06000 23.51100
C  46.36000 12.25900 24.09000
C  46.17700 12.89400 25.44800
C  47.21600 13.84200 22.16400
C  46.71700 10.66600 24.24400
C  47.28900 9.95300 22.99000
N  45.55600 13.99700 28.14800
C  44.74400 13.14800 27.47100
C  43.54500 12.97200 28.33100
C  43.89300 13.56600 29.54000
C  45.12100 14.18900 29.35700
C  42.28800 12.15400 27.99200
C  43.36700 13.84300 30.85700
O  42.31200 13.53400 31.37000
C  44.38300 14.68000 31.55400
C  43.77100 15.96000 31.94900
O  43.48100 16.87100 31.23500
O  43.56000 15.91900 33.27700
C  42.81700 16.99300 33.90400
H  50.15000 18.04100 29.22600
H  49.71900 14.65000 23.72600
H  44.39500 11.95000 25.71300
H  46.45200 17.06100 32.17100
H  49.34800 16.79800 31.61000
H  48.49900 19.37900 30.56000
H  49.20800 19.03500 32.18800
H  47.48000 19.22300 31.94500
H  48.61400 15.13500 32.74400
H  47.12600 14.45600 32.80700
H  46.37700 15.53400 34.64900
H  47.18800 17.02200 34.29500
H  51.26500 19.59300 26.14500
H  52.70500 18.78200 26.76200
H  51.50900 19.22200 27.83900
H  53.26200 17.76500 23.12000
H  53.72100 17.37300 24.77300
H  52.48100 18.76000 24.39400
H  48.46400 12.50000 23.23400
H  45.47800 12.53100 23.51100
H  47.92300 14.55600 21.74200
H  46.21900 14.27300 22.25100
H  47.01100 13.13100 21.36400
H  45.81100 10.21600 24.64900
H  47.40100 10.33900 25.02700
H  46.75000 9.06700 22.65500
H  48.26800 9.51300 23.17600
H  47.23500 10.61800 22.12800
H  42.56200 11.19000 27.56300
H  41.84600 12.70100 27.16000
H  41.65800 12.15400 28.88100
H  44.85500 14.18900 32.40500
H  43.46100 17.42300 34.67200
H  41.87700 16.68400 34.36000
H  42.66000 17.84500 33.24300
Mg 15.87000 51.63000 24.75000
C  17.92200 50.56900 27.42300
C  13.52900 52.50700 26.98400
C  14.19900 52.62600 22.24300
C  18.46400 50.28200 22.59400
N  15.64600 51.31800 26.86500
C  16.69000 51.11200 27.75000
C  16.28000 51.49100 29.18000
C  14.72400 51.68000 29.07000
C  14.64200 51.91400 27.56000
C  13.90000 50.50600 29.53000
C  17.03500 52.67700 29.62800
C  16.90200 53.08500 31.15400
H  15.83600 52.26000 31.97800
N  14.01000 52.50300 24.59700
C  13.26700 52.80900 25.65800
C  12.05300 53.43900 25.15300
C  12.20200 53.47400 23.69600
C  13.52300 52.87100 23.47600
C  10.91100 53.98400 25.91200
C  11.27400 54.01700 22.60800
O  11.55000 54.05300 21.41600
C  9.93800 54.71600 22.97100
N  16.28500 51.43500 22.76700
C  15.40800 51.96700 21.87500
C  15.89800 52.01500 20.47300
C  17.15900 51.12200 20.52800
C  17.32600 50.89900 22.06300
C  14.81100 51.51500 19.43600
C  18.37300 51.75900 19.89200
C  19.31100 50.89000 18.94400
N  17.87500 50.66600 24.92700
C  18.78800 50.12500 23.97000
C  19.92900 49.60900 24.58400
C  19.61300 49.76500 26.02700
C  18.39100 50.39600 26.12200
C  21.06800 49.00500 23.80100
C  20.08400 49.42100 27.34800
O  21.10900 48.83200 27.76500
C  19.03300 50.05400 28.36100
C  18.61000 48.90900 29.29400
O  17.68800 48.14800 29.15500
O  19.44600 48.93000 30.34000
C  18.89100 48.39200 31.57900
H  12.67200 52.77800 27.60400
H  13.64300 52.98800 21.37600
H  19.16200 49.90200 21.84500
H  16.43200 50.69000 29.90300
H  14.27900 52.55600 29.54200
H  12.98100 50.93600 29.92800
H  14.34400 49.79000 30.22100
H  13.69900 49.84400 28.68800
H  16.76600 53.60200 29.11800
H  18.11800 52.56100 29.61500
H  16.62500 54.13900 31.19700
H  17.89500 53.01900 31.59800
H  10.86100 55.07200 25.87200
H  11.02500 53.71900 26.96300
H  9.98700 53.49700 25.59800
H  10.21800 55.60100 23.54200
H  9.27600 54.07500 23.55300
H  9.47700 54.97000 22.01600
H  16.09900 53.07700 20.33000
H  16.88700 50.14200 20.13600
H  14.10300 50.91100 20.00300
H  15.26200 51.02000 18.57600
H  14.37000 52.44200 19.06900
H  19.03500 51.98400 20.72800
H  18.05800 52.60000 19.27300
H  19.29500 51.16800 17.89000
H  18.96200 49.85700 18.92600
H  20.35100 50.92300 19.26900
H  20.92000 48.71900 22.76000
H  21.33400 48.15000 24.42300
H  21.86100 49.75300 23.79900
H  19.59300 50.76800 28.96400
H  18.27500 47.51600 31.37500
H  18.27600 49.15900 32.05000
H  19.74400 48.10200 32.19200

