158

Mg 5.72700 53.88500 40.08100
C  5.21500 50.43600 40.17500
C  9.01100 53.17700 39.29000
C  6.10900 57.11000 39.11100
C  2.18200 54.26400 39.98500
N  7.03800 52.01000 39.86700
C  6.57200 50.74100 39.97600
C  7.71200 49.76300 39.75600
C  8.96300 50.74600 39.77900
C  8.29600 52.04500 39.61400
C  9.97700 50.73900 40.97500
C  7.63700 48.98500 38.46700
C  6.98400 49.72600 37.25200
H  7.87900 50.41000 36.28600
N  7.36100 55.01300 39.48100
C  8.62500 54.57600 39.27200
C  9.54300 55.69500 38.90300
C  8.71500 56.86600 38.91000
C  7.34700 56.33800 39.13300
C  11.06100 55.51000 38.63700
C  9.15300 58.35600 38.75300
O  10.35400 58.64300 38.58400
C  8.16600 59.51100 38.80900
N  4.34000 55.44900 39.49000
C  4.75500 56.74000 39.26900
C  3.55000 57.70600 39.33000
C  2.30100 56.75700 39.46300
C  2.95300 55.36400 39.60800
C  3.73200 58.82200 40.43700
C  1.43000 56.79500 38.20300
C  0.79000 58.10700 37.83300
N  4.00800 52.66600 40.31600
C  2.63100 52.96200 40.24200
C  1.91100 51.81500 40.64500
C  2.88900 50.80600 40.65000
C  4.12400 51.35700 40.31800
C  0.39900 51.65100 41.03100
C  3.02800 49.45000 40.83900
O  2.22800 48.57700 41.22200
C  4.50600 49.10500 40.50300
C  4.48400 48.19300 39.38100
O  3.89500 48.43300 38.35400
O  5.18200 47.05800 39.66800
C  5.25700 46.08500 38.63700
H  10.05500 52.90200 39.12700
H  6.19000 58.18000 38.90500
H  1.09000 54.26700 39.97600
H  7.67400 49.02400 40.55600
H  9.62900 50.56300 38.93500
H  9.71800 51.52100 41.68900
H  11.01600 50.85100 40.66500
H  9.85800 49.77200 41.46600
H  7.27500 47.95700 38.48000
H  8.68400 48.82400 38.21100
H  6.37800 50.53100 37.66800
H  6.23100 49.09000 36.78500
H  11.61300 55.34200 39.56100
H  11.56200 56.27000 38.03600
H  11.22000 54.57200 38.10600
H  7.57600 59.44700 37.89400
H  8.61500 60.49200 38.65100
H  7.78500 59.48600 39.83000
H  3.56500 58.16700 38.34300
H  1.77400 56.99800 40.38600
H  4.67400 58.56100 40.91800
H  2.90500 58.73800 41.14300
H  3.81600 59.84000 40.05700
H  0.69900 55.99700 38.33500
H  2.02000 56.48600 37.33900
H  -0.06300 57.77800 37.23900
H  1.31400 58.66500 37.05700
H  0.60800 58.74600 38.69700
H  0.14100 50.67900 41.45100
H  -0.09600 51.71300 40.06200
H  0.00600 52.48800 41.61000
H  4.99300 48.56000 41.31100
H  5.51900 45.18200 39.18800
H  6.00200 46.34800 37.88600
H  4.25300 46.00100 38.21900
Mg -9.84800 38.70900 40.12700
C  -8.94100 35.26800 39.20100
C  -6.58000 39.58100 39.21900
C  -10.80800 41.76600 40.27200
C  -12.96000 37.38000 40.89200
N  -7.98700 37.59800 39.19000
C  -7.90600 36.20100 38.91200
C  -6.49700 35.83400 38.54700
C  -5.69800 37.15900 38.74900
C  -6.75600 38.20700 39.15600
C  -4.51600 37.06500 39.86000
C  -6.31200 35.24700 37.05200
C  -6.78000 36.29000 36.00000
H  -7.71700 35.88200 34.82800
N  -8.80800 40.48100 39.88800
C  -7.47900 40.61700 39.50200
C  -7.23500 42.11100 39.30300
C  -8.50900 42.70100 39.58800
C  -9.41200 41.68700 40.04700
C  -5.93000 42.71900 38.78000
C  -8.79100 44.15000 39.42600
O  -7.99900 44.86000 38.83300
C  -10.09300 44.70400 39.84100
N  -11.70300 39.45200 40.30800
C  -11.87700 40.81100 40.44500
C  -13.36300 41.12200 40.55000
C  -13.92500 39.80000 41.17300
C  -12.85000 38.76900 40.75400
C  -13.74300 42.35900 41.46300
C  -15.31000 39.49400 40.64300
C  -16.32600 39.30200 41.75900
N  -10.84800 36.73200 40.00500
C  -12.08500 36.40200 40.46400
C  -12.28800 35.01300 40.47900
C  -11.10900 34.51700 39.79800
C  -10.27900 35.57200 39.64100
C  -13.51200 34.18100 40.91700
C  -10.44800 33.35300 39.33900
O  -10.82300 32.19200 39.34000
C  -9.01100 33.78500 38.78000
C  -7.95400 32.95600 39.40200
O  -7.84900 32.76600 40.63900
O  -7.06200 32.44300 38.51200
C  -6.01700 31.49700 38.99000
H  -5.58000 39.82000 38.85100
H  -11.25200 42.74100 40.48500
H  -13.89800 37.05100 41.34500
H  -6.05200 35.23000 39.33700
H  -5.23500 37.44300 37.80400
H  -3.57900 36.94000 39.31700
H  -4.65900 36.10700 40.35900
H  -4.50900 37.87100 40.59400
H  -6.80200 34.29100 36.87000
H  -5.25500 35.07000 36.85100
H  -5.90400 36.66100 35.46900
H  -7.24500 37.12300 36.52700
H  -5.12500 42.08600 39.15200
H  -5.73400 43.72800 39.14400
H  -5.91000 42.80200 37.69300
H  -10.28900 44.49100 40.89100
H  -10.81400 44.16000 39.23100
H  -10.15500 45.77200 39.63500
H  -13.79300 41.24800 39.55600
H  -13.91100 39.92700 42.25500
H  -14.13800 43.20900 40.90700
H  -12.88300 42.76700 41.99300
H  -14.48700 42.13300 42.22700
H  -15.24600 38.61900 39.99500
H  -15.63000 40.27000 39.94700
H  -17.18000 39.92200 41.48700
H  -16.10000 39.68000 42.75600
H  -16.73400 38.29200 41.76800
H  -13.53500 34.10600 42.00500
H  -13.54100 33.21400 40.41400
H  -14.33100 34.81200 40.57400
H  -8.99700 33.64200 37.70000
H  -6.24500 30.46100 38.74000
H  -5.82100 31.58600 40.05800
H  -5.11900 31.77400 38.43800

