158

Mg -0.76200 7.39800 26.36100
C  0.11100 9.44100 29.10900
C  -0.73700 4.80800 28.61500
C  -1.19700 5.39000 23.76700
C  -0.35900 10.10100 24.32800
N  -0.46800 7.17300 28.66100
C  -0.18200 8.21000 29.58400
C  -0.34400 7.73200 31.05800
C  -0.40500 6.12700 30.85300
C  -0.58300 6.00000 29.28800
C  0.90000 5.41300 31.39900
C  -1.70300 8.35500 31.67200
C  -1.75100 8.44600 33.17300
H  -0.51600 7.97200 33.92800
N  -0.95700 5.39400 26.21300
C  -0.87500 4.50100 27.19700
C  -0.79400 3.16100 26.53900
C  -1.03000 3.27600 25.13500
C  -1.09900 4.70500 24.99300
C  -0.69600 2.00500 27.35900
C  -1.14300 2.19500 24.06900
O  -1.34200 2.45400 22.88200
C  -1.35700 0.72000 24.50800
N  -0.93600 7.70100 24.37500
C  -1.04600 6.73400 23.46200
C  -1.31100 7.25800 22.03300
C  -1.34900 8.76700 22.35400
C  -0.83300 8.93900 23.77000
C  -0.20700 6.73900 21.10400
C  -2.86100 9.41200 22.31700
C  -2.97100 10.99200 22.05400
N  -0.33200 9.38900 26.55900
C  -0.12800 10.36500 25.62500
C  0.21000 11.64400 26.24300
C  0.37100 11.32100 27.60200
C  0.04300 9.96000 27.78700
C  0.44000 12.94900 25.56800
C  0.80700 11.82200 28.84300
O  1.44300 12.81600 29.12600
C  0.52800 10.71300 29.93700
C  1.70700 10.57800 30.78200
O  2.52000 9.67000 30.84900
O  1.59300 11.54900 31.70000
C  2.44100 11.43700 32.85200
H  -0.74800 3.93500 29.27200
H  -1.42100 4.78300 22.88800
H  -0.39700 11.00200 23.71200
H  0.56300 8.06300 31.56400
H  -1.22500 5.67600 31.41100
H  0.53600 4.41400 31.64000
H  1.28600 5.89300 32.29800
H  1.68500 5.39700 30.64300
H  -2.50900 7.74200 31.26800
H  -1.84700 9.33400 31.21500
H  -2.61100 7.88500 33.54000
H  -1.98900 9.45600 33.50600
H  0.18200 1.40800 27.11700
H  -1.63200 1.44700 27.33000
H  -0.51500 2.19000 28.41800
H  -0.45400 0.30600 24.95900
H  -1.70100 0.09400 23.68500
H  -2.12000 0.78100 25.28400
H  -2.34300 7.08000 21.72900
H  -0.67500 9.36700 21.74200
H  0.40500 7.61000 20.87400
H  -0.68300 6.48300 20.15700
H  0.44200 5.95900 21.50300
H  -3.22300 9.36700 23.34400
H  -3.51900 8.84800 21.65600
H  -3.57300 11.38700 22.87300
H  -3.35300 11.19700 21.05400
H  -2.03100 11.53500 22.14700
H  1.17200 12.84700 24.76700
H  0.91400 13.70500 26.19400
H  -0.53100 13.31600 25.23600
H  -0.33200 10.95100 30.56300
H  2.62500 12.32700 33.45300
H  3.42100 11.04400 32.58200
H  2.00600 10.68000 33.50500
Mg 27.08000 50.00900 26.63100
C  25.05400 51.14500 29.23900
C  29.27800 49.11800 28.85000
C  29.30300 49.67000 23.97100
C  24.98900 51.83300 24.33300
N  27.06300 50.13600 28.79600
C  26.15600 50.47700 29.75600
C  26.66500 50.29000 31.17900
C  28.13300 50.01100 30.91000
C  28.16500 49.76800 29.37100
C  29.03200 51.23800 31.27300
C  25.85200 49.25800 32.00100
C  25.11600 49.81300 33.19500
H  25.87400 50.08500 34.52200
N  28.98500 49.32400 26.49100
C  29.70100 48.86300 27.49700
C  30.96500 48.34700 26.99200
C  31.03300 48.57000 25.58100
C  29.75400 49.24300 25.29500
C  31.99700 47.67200 27.85700
C  32.11400 48.06000 24.64300
O  31.97200 48.31700 23.42000
C  33.35200 47.28200 25.18800
N  27.12400 50.64600 24.42000
C  28.09800 50.25900 23.53400
C  27.73600 50.44600 22.03000
C  26.36700 51.18600 22.25400
C  26.09300 51.18400 23.73800
C  28.69700 51.17800 21.13300
C  25.15300 50.68000 21.44100
C  24.37800 49.48800 22.00800
N  25.35000 51.16000 26.71500
C  24.58700 51.77900 25.68100
C  23.45600 52.54800 26.33200
C  23.60100 52.26500 27.68100
C  24.79300 51.47700 27.87500
C  22.42500 53.31100 25.59100
C  22.98400 52.51500 28.95800
O  21.96700 53.07400 29.21300
C  24.01400 51.90100 30.02700
C  24.66600 53.10200 30.66600
O  25.84100 53.46800 30.49400
O  23.90500 53.48000 31.71600
C  24.62200 54.47400 32.59600
H  29.94800 48.70600 29.60700
H  29.98400 49.46300 23.14300
H  24.29500 52.13700 23.54700
H  26.56300 51.23400 31.71300
H  28.52000 49.11300 31.39000
H  29.10300 51.94800 30.44900
H  30.01600 51.03700 31.69600
H  28.52600 51.78700 32.06700
H  26.53000 48.47900 32.35000
H  25.15800 48.73500 31.34300
H  24.32700 49.09900 33.42800
H  24.55100 50.72700 33.01500
H  32.01300 46.65200 27.47300
H  31.79900 47.58800 28.92500
H  32.87000 48.31700 27.76200
H  33.99700 47.20900 24.31300
H  32.93100 46.34600 25.55500
H  33.82400 47.91800 25.93700
H  27.58200 49.44500 21.62700
H  26.37700 52.25700 22.05500
H  28.32000 52.10500 20.70200
H  28.76300 50.59400 20.21500
H  29.60400 51.40100 21.69500
H  25.52600 50.51800 20.43000
H  24.37000 51.42900 21.32000
H  24.96800 48.94800 22.74900
H  24.28600 48.84700 21.13100
H  23.46600 49.86800 22.46800
H  22.28600 54.33700 25.93400
H  21.52700 52.69800 25.66700
H  22.70200 53.36400 24.53800
H  23.46600 51.46400 30.86200
H  25.50100 53.98500 33.01700
H  23.92800 54.85500 33.34500
H  24.93200 55.31700 31.98000

