158

Mg 17.39600 -1.02300 27.34700
C  16.26800 1.11200 29.85500
C  19.25300 -2.64700 29.88100
C  18.84800 -2.70300 24.99600
C  15.70200 1.06600 24.99800
N  17.63200 -0.85000 29.64200
C  17.11900 0.16200 30.38800
C  17.42800 -0.03500 31.90200
C  18.54500 -1.14100 31.82900
C  18.53700 -1.51800 30.39300
C  19.90900 -0.78000 32.37200
C  16.19300 -0.45500 32.80600
C  16.54000 -0.47400 34.29900
H  17.78600 0.16500 34.86600
N  18.83500 -2.52600 27.40700
C  19.36800 -3.19000 28.53300
C  20.11200 -4.33400 28.10000
C  19.94700 -4.38400 26.67000
C  19.24400 -3.14000 26.28400
C  20.82000 -5.31700 28.97500
C  20.48500 -5.37600 25.59300
O  20.40500 -5.20000 24.38300
C  21.24000 -6.55300 26.14900
N  17.48600 -0.65700 25.35000
C  18.09500 -1.59000 24.57200
C  17.84200 -1.32600 23.04700
C  16.88100 -0.05400 23.08000
C  16.66400 0.19500 24.56600
C  19.03400 -1.24300 22.17600
C  15.66500 -0.41000 22.21100
C  14.94500 0.72600 21.58300
N  16.07300 0.65800 27.39200
C  15.46900 1.32400 26.36500
C  14.70300 2.39200 26.88800
C  14.96700 2.36700 28.23200
C  15.81600 1.27600 28.52300
C  13.75500 3.33200 26.15300
C  14.76500 3.04100 29.49600
O  13.97800 3.95100 29.75400
C  15.43900 2.23200 30.57100
C  16.24600 3.16600 31.42300
O  17.43600 3.35700 31.25000
O  15.56000 3.72800 32.51200
C  16.31200 4.47700 33.45800
H  19.75800 -3.12300 30.72300
H  19.15800 -3.26400 24.11200
H  15.20500 1.71500 24.27400
H  17.87300 0.92100 32.17500
H  18.27800 -2.05200 32.36500
H  19.87600 0.08800 33.02900
H  20.52100 -0.44600 31.53300
H  20.26300 -1.57000 33.03400
H  15.82300 -1.43200 32.49500
H  15.44500 0.31500 32.61400
H  16.45300 -1.52500 34.57600
H  15.74700 -0.01400 34.88800
H  21.85900 -5.13900 28.69700
H  20.46700 -6.31600 28.71800
H  20.59400 -5.01600 29.99800
H  22.07600 -6.24100 26.77500
H  21.62800 -7.20100 25.36300
H  20.47800 -7.11100 26.69300
H  17.33500 -2.23900 22.73500
H  17.43400 0.83500 22.77500
H  18.87400 -0.47700 21.41700
H  19.14900 -2.23600 21.74100
H  19.83600 -1.03100 22.88300
H  14.99600 -0.94400 22.88700
H  15.87000 -1.04000 21.34600
H  13.89200 0.50500 21.40400
H  15.46000 0.84300 20.63000
H  15.15100 1.67200 22.08400
H  13.06000 2.85600 25.46100
H  14.32300 4.17600 25.76200
H  13.12900 3.65900 26.98300
H  14.59800 1.86200 31.15700
H  16.52200 5.44900 33.01100
H  17.23600 4.01900 33.81200
H  15.58000 4.69100 34.23700
Mg -12.58200 37.30800 42.29900
C  -10.11400 34.86000 41.49700
C  -10.66500 39.58700 40.60000
C  -15.26100 39.29000 42.24500
C  -14.55800 34.65200 43.55500
N  -10.60900 37.21400 41.17100
C  -9.84700 36.09700 40.92300
C  -8.48500 36.53200 40.35100
C  -8.52800 38.11400 40.29200
C  -10.04100 38.28100 40.64000
C  -7.57200 38.92200 41.25200
C  -8.28600 35.81600 39.03900
C  -6.96000 35.01500 38.84400
H  -6.04700 35.57100 37.79400
N  -12.96500 39.22900 41.62400
C  -12.00400 40.00100 40.89700
C  -12.59700 41.26800 40.61100
C  -13.93800 41.10100 40.97500
C  -14.13600 39.84600 41.68400
C  -11.87700 42.34200 39.88900
C  -14.91100 42.08900 40.60800
O  -14.62700 43.08600 39.95100
C  -16.36600 41.97100 40.85300
N  -14.63200 37.00600 42.76300
C  -15.50700 37.99900 42.79700
C  -16.92700 37.47800 43.25800
C  -16.59200 36.05600 43.83100
C  -15.15400 35.85800 43.36200
C  -17.68000 38.35700 44.26700
C  -17.53300 34.84500 43.46100
C  -17.79900 33.85400 44.60700
N  -12.38200 35.22100 42.56300
C  -13.22900 34.29900 43.19500
C  -12.62700 32.99400 43.30700
C  -11.38000 33.18800 42.62200
C  -11.30900 34.51200 42.18400
C  -13.22900 31.71200 43.87000
C  -10.26300 32.49000 42.16900
O  -10.00100 31.26000 42.32000
C  -9.32400 33.54600 41.46600
C  -7.98200 33.51800 42.12300
O  -7.08900 32.83900 41.73100
O  -8.03200 34.33300 43.29500
C  -6.75700 34.66100 43.86200
H  -10.02300 40.28500 40.05700
H  -16.12400 39.95900 42.27700
H  -15.07200 33.85900 44.10100
H  -7.80500 36.19500 41.13400
H  -8.46300 38.50200 39.27600
H  -8.17500 39.39100 42.03000
H  -7.07800 39.63100 40.58900
H  -6.86100 38.26900 41.75700
H  -8.29800 36.55300 38.23600
H  -9.04300 35.07700 38.77800
H  -7.09200 33.95100 38.64700
H  -6.43400 34.98900 39.79800
H  -12.03700 43.35600 40.25500
H  -12.12600 42.29400 38.82800
H  -10.79000 42.26400 39.89500
H  -16.71600 40.98100 40.56000
H  -16.95000 42.77200 40.39800
H  -16.53200 41.93700 41.92900
H  -17.57200 37.34200 42.38900
H  -16.33100 36.07000 44.88900
H  -18.59900 38.78400 43.86500
H  -16.92200 39.13000 44.39300
H  -18.01400 37.75400 45.11100
H  -17.08400 34.31500 42.62100
H  -18.44500 35.31800 43.09800
H  -17.16900 34.04200 45.47700
H  -17.63600 32.86600 44.17800
H  -18.85200 33.93500 44.87900
H  -12.72700 30.92100 43.31300
H  -14.28100 31.84200 43.61800
H  -13.03200 31.55700 44.93100
H  -9.05300 33.25100 40.45200
H  -6.53300 35.72600 43.80600
H  -5.90400 34.23900 43.33000
H  -6.77500 34.22900 44.86300

