158

Mg -0.26900 43.42500 26.85700
C  1.71800 43.35700 29.77200
C  -2.95100 42.27700 28.76100
C  -2.17100 43.55600 24.09500
C  2.57600 44.06300 24.90200
N  -0.55600 42.93100 29.04400
C  0.35600 43.00700 30.04100
C  -0.27200 42.76800 31.35600
C  -1.63600 42.05700 30.96800
C  -1.74800 42.47100 29.50600
C  -1.60700 40.50200 31.00000
C  -0.39600 44.10900 32.15700
C  0.17800 44.11800 33.66200
H  -0.20100 42.89300 34.58600
N  -2.31100 43.01200 26.46100
C  -3.16400 42.54200 27.40600
C  -4.46100 42.40600 26.71600
C  -4.30600 42.82100 25.34700
C  -2.90200 43.23100 25.26400
C  -5.72400 41.87400 27.43000
C  -5.28000 42.87000 24.24300
O  -4.99400 43.26900 23.10200
C  -6.64600 42.36900 24.37600
N  0.08700 43.75700 24.75300
C  -0.85600 43.78000 23.83100
C  -0.32300 44.41000 22.46800
C  1.15800 44.50300 22.83300
C  1.29500 44.04200 24.28100
C  -0.53100 43.49900 21.26900
C  1.76000 45.86500 22.39900
C  1.73600 47.02400 23.45700
N  1.74900 43.71900 27.18000
C  2.81700 43.90300 26.29700
C  4.02500 44.03200 27.07600
C  3.65100 43.80500 28.39100
C  2.26700 43.58400 28.43200
C  5.39700 44.37500 26.50900
C  4.12900 43.69300 29.77200
O  5.27200 43.68700 30.21800
C  2.87300 43.51600 30.71100
C  3.23900 42.35300 31.60500
O  2.93300 41.16700 31.39700
O  3.88900 42.77800 32.72200
C  4.37300 41.77800 33.64400
H  -3.68700 41.66300 29.28400
H  -2.80600 43.77100 23.23300
H  3.46400 44.46200 24.40700
H  0.32700 42.06700 31.93800
H  -2.47900 42.37600 31.58100
H  -2.07200 40.11500 31.90700
H  -0.57600 40.15200 30.95100
H  -2.16300 40.09600 30.15500
H  -1.41400 44.49600 32.19900
H  0.08400 44.83200 31.49700
H  -0.15800 45.03100 34.15400
H  1.25800 44.25700 33.61300
H  -6.59600 42.52400 27.35900
H  -5.46500 41.62800 28.46000
H  -5.76100 40.95100 26.85100
H  -6.46600 41.36500 24.75900
H  -7.29300 42.63400 23.54000
H  -7.06000 42.92700 25.21600
H  -0.83800 45.36700 22.38500
H  1.64000 43.73000 22.23500
H  -1.59600 43.49700 21.03900
H  -0.29200 42.46200 21.50600
H  0.01000 43.72100 20.35000
H  1.28400 46.22700 21.48800
H  2.75100 45.60700 22.02400
H  1.38700 47.90700 22.92200
H  2.80200 47.16100 23.64000
H  1.15800 46.81300 24.35700
H  5.90700 43.41100 26.52300
H  5.91400 45.03600 27.20500
H  5.32600 44.83800 25.52500
H  2.70400 44.42900 31.28100
H  3.58900 41.41000 34.30500
H  5.19300 42.20700 34.22100
H  4.82900 40.96200 33.08300
Mg -11.24800 16.31800 42.55000
C  -8.02000 16.96600 42.89300
C  -11.97100 19.44000 41.65000
C  -14.42000 15.37900 42.24000
C  -10.40400 12.81800 42.40300
N  -10.17200 17.96100 42.05400
C  -8.79600 18.00000 42.31000
C  -8.32500 19.41700 42.05300
C  -9.62700 20.25700 41.82500
C  -10.67500 19.17400 41.85800
C  -9.92700 21.38400 42.86100
C  -7.34800 19.57000 40.83600
C  -6.20200 20.56500 40.93600
H  -4.90600 20.00200 40.39100
N  -13.04400 17.29600 42.07200
C  -13.12900 18.59500 41.76700
C  -14.50400 18.98800 41.57700
C  -15.26300 17.79500 41.74700
C  -14.29100 16.75400 41.96400
C  -14.97700 20.42300 41.40800
C  -16.77800 17.73600 41.58000
O  -17.42700 18.76500 41.35400
C  -17.56300 16.49200 41.81800
N  -12.28000 14.32300 42.18200
C  -13.57300 14.28400 42.39800
C  -13.97900 12.85600 42.71100
C  -12.77700 12.12500 42.07600
C  -11.69400 13.11300 42.18900
C  -14.22200 12.43400 44.13300
C  -13.06300 11.56900 40.73000
C  -13.51800 10.07500 40.63600
N  -9.56200 15.11000 42.77600
C  -9.40200 13.68900 42.75100
C  -7.99500 13.42000 43.03700
C  -7.43600 14.70100 43.19200
C  -8.44600 15.68800 43.06600
C  -7.30100 12.04300 43.12000
C  -6.17500 15.50800 43.55600
O  -5.01700 15.10900 43.83600
C  -6.64000 16.98400 43.36800
C  -6.50200 17.71800 44.64200
O  -7.08800 17.36000 45.63300
O  -5.72800 18.84700 44.51700
C  -5.36900 19.36600 45.85500
H  -12.21300 20.49500 41.50800
H  -15.45400 15.07700 42.41700
H  -10.24900 11.74000 42.47600
H  -7.83100 19.77200 42.95700
H  -9.76800 20.76600 40.87100
H  -10.40200 20.98100 43.75500
H  -10.55300 22.15300 42.40900
H  -9.06700 21.93300 43.24500
H  -7.87500 19.90500 39.94200
H  -6.99700 18.57000 40.58200
H  -5.99200 20.73000 41.99200
H  -6.41900 21.52200 40.46100
H  -14.14600 21.12600 41.34600
H  -15.55900 20.58500 42.31500
H  -15.49200 20.58400 40.46100
H  -18.64100 16.65600 41.81100
H  -17.24300 16.17400 42.81000
H  -17.30500 15.73200 41.08100
H  -14.91300 12.68700 42.17600
H  -12.54000 11.25900 42.69400
H  -15.22700 12.03600 44.27000
H  -14.00900 13.21000 44.86700
H  -13.60100 11.59400 44.44600
H  -12.11800 11.57900 40.18700
H  -13.81900 12.23200 40.30900
H  -13.11800 9.65900 41.56000
H  -13.22300 9.50600 39.75500
H  -14.60600 10.12300 40.58000
H  -8.10500 11.30800 43.16500
H  -6.76100 11.97200 44.06400
H  -6.73000 11.79300 42.22500
H  -5.83800 17.41500 42.76800
H  -4.87600 18.64100 46.50200
H  -6.22600 19.84100 46.33300
H  -4.60800 20.12400 45.67000

