158

Mg 17.00200 52.42300 26.49600
C  18.95700 51.23300 29.00200
C  14.75900 53.71200 28.87900
C  14.93500 53.43200 23.94300
C  19.10000 50.89700 24.09500
N  16.83100 52.37400 28.60500
C  17.74200 51.83800 29.40800
C  17.41900 52.20400 30.88500
C  15.92500 52.58300 30.87100
C  15.85000 52.97500 29.38400
C  14.95400 51.37100 31.23200
C  18.40900 53.25200 31.50600
C  18.43100 53.57500 33.03900
H  17.58700 52.65100 33.99000
N  15.06100 53.45000 26.37000
C  14.41100 53.89400 27.50900
C  13.31300 54.74100 27.01200
C  13.26000 54.67800 25.61500
C  14.40300 53.82200 25.23100
C  12.45900 55.53900 27.96800
C  12.34400 55.28800 24.66300
O  12.55500 55.16300 23.43900
C  11.22600 56.12100 25.14400
N  17.02800 52.28000 24.30500
C  16.08600 52.74100 23.52000
C  16.41400 52.40800 22.03000
C  17.90400 51.94700 22.06000
C  18.00000 51.66100 23.56100
C  15.45300 51.51100 21.23100
C  18.97200 53.00300 21.65900
C  19.95000 52.51900 20.56500
N  18.64400 51.28300 26.46100
C  19.40900 50.67100 25.41400
C  20.64900 50.09000 26.01600
C  20.42100 50.26000 27.41900
C  19.27800 50.95800 27.62600
C  21.76900 49.29400 25.28700
C  21.04300 49.99300 28.76800
O  22.03300 49.41100 29.17100
C  20.04600 50.61400 29.79100
C  19.44300 49.46500 30.50000
O  18.85000 48.53500 30.00000
O  19.68600 49.64300 31.85400
C  19.17500 48.60200 32.72400
H  14.01700 54.01500 29.62200
H  14.31200 53.84200 23.14600
H  19.80300 50.58100 23.32200
H  17.51800 51.31200 31.50400
H  15.67100 53.38900 31.55900
H  14.15300 51.37800 30.49300
H  14.41200 51.45500 32.17400
H  15.51800 50.44200 31.15800
H  18.42300 54.17100 30.92000
H  19.35600 52.73000 31.36900
H  17.93300 54.54500 33.06000
H  19.45500 53.68100 33.39500
H  12.59300 56.55300 27.59000
H  12.85500 55.49200 28.98200
H  11.42800 55.20600 27.85000
H  11.54500 57.03600 25.64400
H  10.74000 55.51500 25.90800
H  10.40800 56.34200 24.45800
H  16.32300 53.32200 21.44300
H  17.96000 51.00000 21.52300
H  15.06700 52.00200 20.33700
H  14.68600 51.23400 21.95400
H  15.88900 50.56200 20.91900
H  19.51100 53.37300 22.53100
H  18.55200 53.96300 21.36000
H  19.51600 51.82100 19.84900
H  20.79800 51.97800 20.98500
H  20.43100 53.38000 20.10200
H  22.39600 48.96900 26.11700
H  22.29300 49.89800 24.54600
H  21.26600 48.48800 24.75300
H  20.54300 51.33400 30.44100
H  19.85100 47.75100 32.79900
H  18.16300 48.29900 32.45600
H  18.92400 49.05300 33.68400
Mg 9.55400 48.04100 26.74500
C  7.61800 47.92300 29.59800
C  12.17000 49.49500 28.38200
C  11.32500 47.67600 23.88500
C  6.61800 47.20800 25.02800
N  9.72200 48.86800 28.71600
C  8.89000 48.47400 29.75900
C  9.63000 48.68900 31.08800
C  10.89600 49.48400 30.63300
C  10.97600 49.28200 29.13700
C  10.90300 50.93500 31.11800
C  9.93900 47.54600 32.11900
C  9.60400 47.86000 33.58900
H  9.61900 46.63200 34.54200
N  11.51300 48.54900 26.13500
C  12.40300 49.10200 27.01500
C  13.71400 49.13700 26.37000
C  13.45600 48.54900 25.07200
C  12.05800 48.23900 24.95800
C  14.95900 49.73800 26.98400
C  14.43300 48.31100 23.94500
O  14.08500 47.79700 22.87300
C  15.93400 48.53900 24.18500
N  9.02400 47.59600 24.76400
C  9.88800 47.48300 23.79200
C  9.34900 46.77900 22.62400
C  7.83300 46.87400 22.86200
C  7.78300 47.30400 24.34100
C  9.84800 47.30500 21.27000
C  7.06200 45.53600 22.58900
C  5.82600 45.82700 21.68700
N  7.46100 47.65900 27.15300
C  6.45500 47.26900 26.39000
C  5.26400 47.00800 27.13400
C  5.64200 47.32600 28.53000
C  7.01500 47.59100 28.39800
C  3.89100 46.63800 26.58900
C  5.21400 47.49700 29.86500
O  4.13200 47.31600 30.42200
C  6.55500 47.67900 30.68400
C  6.88600 46.37100 31.32000
O  7.47500 45.48400 30.80000
O  6.30400 46.29200 32.49800
C  6.30400 45.04300 33.24300
H  12.95000 50.03200 28.92600
H  11.83900 47.32100 22.99000
H  5.76200 46.97500 24.39200
H  8.93700 49.30400 31.66300
H  11.83600 49.03500 30.95200
H  10.83300 51.49100 30.18300
H  11.84100 51.10700 31.64600
H  10.03500 51.14900 31.74100
H  11.02800 47.53400 32.15000
H  9.72800 46.51800 31.82400
H  8.70300 48.43200 33.81200
H  10.54400 48.29900 33.92400
H  15.64400 48.93000 27.24300
H  14.70300 50.35800 27.84300
H  15.41700 50.37900 26.23000
H  16.18800 48.15100 25.17200
H  16.17500 49.60100 24.15700
H  16.52300 48.08400 23.38900
H  9.60600 45.73900 22.82900
H  7.41200 47.64200 22.21300
H  10.23300 48.30800 21.45600
H  9.05000 47.28300 20.52700
H  10.63900 46.66300 20.88300
H  6.77400 44.99100 23.48700
H  7.73300 44.91700 21.99300
H  5.74600 45.17100 20.82100
H  5.75900 46.84700 21.30800
H  4.89200 45.60500 22.20300
H  3.81500 46.36400 25.53600
H  3.26300 47.51900 26.72400
H  3.51700 45.79500 27.17000
H  6.42700 48.49700 31.39400
H  5.84000 45.03300 34.23000
H  7.35700 44.79200 33.36800
H  5.84700 44.24700 32.65500

