158

Mg 0.53700 7.52900 26.03100
C  1.24700 9.40800 28.84800
C  0.30200 4.76600 28.09000
C  0.29200 5.57100 23.31400
C  1.29100 10.32500 24.04800
N  0.88800 7.17200 28.25400
C  1.10600 8.07000 29.21800
C  0.99200 7.50600 30.64700
C  0.89200 5.96900 30.31500
C  0.61700 5.99100 28.79200
C  2.08200 5.02400 30.61800
C  -0.28200 8.08300 31.35200
C  -0.30600 8.04400 32.89800
H  0.93700 7.62100 33.69400
N  0.17900 5.39700 25.75200
C  0.13600 4.47500 26.73500
C  -0.20000 3.23800 26.11000
C  -0.04600 3.40100 24.68500
C  0.14400 4.82900 24.52800
C  -0.54000 1.98600 26.94900
C  -0.12700 2.37100 23.55400
O  -0.07000 2.73600 22.34800
C  -0.65400 0.98200 23.91100
N  0.81300 7.82200 24.02800
C  0.52900 6.88300 23.07800
C  0.44900 7.50700 21.66100
C  0.52500 9.11500 21.93900
C  0.99500 9.06300 23.42100
C  1.40000 6.86300 20.60900
C  -0.86100 9.81800 21.82600
C  -0.88100 11.21700 21.08500
N  1.18800 9.52000 26.32200
C  1.46000 10.53400 25.43700
C  1.70200 11.81600 26.17800
C  1.62300 11.40500 27.49100
C  1.26900 10.01700 27.57600
C  1.83900 13.24100 25.64900
C  1.74700 11.77400 28.89400
O  1.98300 12.92500 29.29400
C  1.34900 10.59100 29.78800
C  2.42300 10.55800 30.77600
O  3.59200 10.21200 30.56900
O  1.99700 10.95600 31.95900
C  3.06800 11.26400 32.92600
H  0.15800 3.92400 28.77000
H  0.11100 4.97200 22.42000
H  1.38600 11.09900 23.28400
H  1.94400 7.83100 31.06700
H  -0.01700 5.67500 30.84000
H  2.56200 5.51500 31.46500
H  2.67800 4.87900 29.71700
H  1.62700 4.06000 30.84400
H  -1.12000 7.44400 31.07700
H  -0.47600 9.13500 31.14200
H  -0.99600 7.20300 32.97200
H  -0.66000 9.02900 33.20300
H  -0.11700 1.10000 26.47600
H  -1.62200 1.85400 26.95300
H  -0.10900 2.02600 27.95000
H  -0.94900 0.36400 23.06200
H  -1.57700 1.19900 24.44800
H  0.07100 0.38000 24.46000
H  -0.54900 7.36900 21.24600
H  1.35000 9.55000 21.37500
H  1.81500 5.93400 21.00000
H  2.24300 7.52700 20.42300
H  0.85400 6.61900 19.69700
H  -1.22000 10.01700 22.83600
H  -1.58600 9.20900 21.28600
H  -1.41300 11.05200 20.14800
H  0.15100 11.53000 20.93100
H  -1.38300 11.89300 21.77800
H  1.89400 13.37000 24.56800
H  2.67500 13.74500 26.13300
H  0.93100 13.70400 26.03700
H  0.40800 10.83700 30.27900
H  3.89900 11.79300 32.46000
H  3.35400 10.37500 33.48800
H  2.63300 11.87000 33.72100
Mg 53.91300 24.21800 44.10500
C  51.16500 26.45200 43.27500
C  51.98500 21.84800 42.50000
C  56.41200 22.25400 44.50700
C  55.79300 26.99900 44.81600
N  51.94500 24.26100 42.74100
C  50.98800 25.23800 42.66100
C  49.75100 24.67200 41.89200
C  49.88500 23.11800 42.20900
C  51.35300 23.07300 42.46200
C  49.02800 22.58600 43.38100
C  49.69800 24.97700 40.34800
C  50.97700 25.30400 39.56400
H  50.76800 25.66900 38.07900
N  54.15000 22.27100 43.62900
C  53.23700 21.43500 43.07300
C  53.80800 20.06000 43.16300
C  55.03600 20.20000 43.89400
C  55.27300 21.61100 44.01600
C  53.09700 18.78500 42.54500
C  55.88000 19.01000 44.45000
O  55.44600 17.89000 44.29300
C  57.17300 19.25800 45.30100
N  55.80600 24.56600 44.52300
C  56.76900 23.58900 44.65800
C  58.15400 24.08700 44.90400
C  57.86800 25.62400 45.05400
C  56.39800 25.76800 44.74800
C  58.96300 23.42500 46.03600
C  58.86200 26.62000 44.43600
C  58.51300 27.05700 42.96400
N  53.62500 26.38100 44.08600
C  54.46200 27.27300 44.57100
C  53.75400 28.57600 44.67900
C  52.46500 28.31300 44.11800
C  52.42200 26.94000 43.85600
C  54.19700 29.91300 45.23000
C  51.17400 28.88500 43.78300
O  50.75700 30.00200 44.03000
C  50.28000 27.67900 43.26000
C  49.91000 28.01700 41.87900
O  50.70700 28.34400 41.03500
O  48.58900 28.24500 41.86000
C  48.16400 29.16200 40.76000
H  51.40800 21.04200 42.04300
H  57.20100 21.56800 44.82200
H  56.33100 27.87900 45.17300
H  48.88100 25.12500 42.36700
H  49.70000 22.52600 41.31200
H  48.35300 23.36500 43.73400
H  49.69100 22.26200 44.18400
H  48.53300 21.65500 43.10600
H  49.04200 25.84700 40.29200
H  49.33200 24.26600 39.60700
H  51.67200 24.47800 39.71500
H  51.52900 26.08000 40.09500
H  52.18200 18.85700 41.95700
H  52.77100 18.17100 43.38500
H  53.87200 18.25500 41.99100
H  57.62700 18.31400 45.60300
H  56.99400 19.86300 46.19000
H  58.02000 19.61400 44.71400
H  58.63800 23.99100 43.93200
H  57.84000 26.04600 46.05900
H  58.49100 22.56100 46.50400
H  58.98500 24.16200 46.83900
H  59.94800 23.19300 45.63300
H  59.84000 26.13800 44.44500
H  59.05600 27.54200 44.98400
H  57.85600 27.90600 42.77400
H  58.20100 26.18400 42.39200
H  59.48300 27.24800 42.50700
H  55.28300 29.93600 45.32000
H  53.80000 29.97300 46.24300
H  53.89400 30.78800 44.65500
H  49.41300 27.48200 43.89100
H  48.86800 29.99100 40.67900
H  47.25500 29.67700 41.07200
H  48.00400 28.77300 39.75500

