158

Mg 42.10800 41.29000 26.58700
C  41.54800 43.51700 29.12400
C  42.98600 38.99600 29.09500
C  42.35800 38.99100 24.27600
C  41.28200 43.68800 24.25500
N  42.37200 41.35300 28.90100
C  41.91900 42.31700 29.69500
C  42.02300 41.88900 31.12500
C  42.91600 40.59400 31.09900
C  42.73300 40.23500 29.58000
C  44.41300 40.76400 31.47700
C  40.57000 41.70100 31.81900
C  40.20500 42.64000 32.98300
H  39.82100 41.99800 34.28400
N  42.77100 39.32400 26.67800
C  43.07100 38.55300 27.77300
C  43.51900 37.26000 27.34800
C  43.22000 37.22100 25.90000
C  42.73900 38.54600 25.57600
C  44.03700 36.16200 28.29500
C  43.41400 36.07300 24.93400
O  43.30900 36.13900 23.72500
C  43.81700 34.74400 25.32800
N  42.07900 41.34800 24.45500
C  42.00900 40.26700 23.75100
C  41.67300 40.51900 22.35300
C  41.22500 41.98800 22.38900
C  41.50600 42.36700 23.79600
C  42.91600 40.19800 21.35300
C  39.73100 42.30400 21.88400
C  39.60600 43.07500 20.54400
N  41.72100 43.26800 26.60800
C  41.34500 44.16300 25.62500
C  40.74800 45.29600 26.21600
C  40.90100 45.13600 27.54300
C  41.48200 43.92700 27.77000
C  40.32100 46.54900 25.46200
C  40.65300 45.85100 28.77600
O  40.35600 47.00400 29.01600
C  41.11500 44.80400 29.86200
C  42.19300 45.30700 30.79200
O  43.36800 45.28600 30.56900
O  41.64400 45.70000 31.95100
C  42.47900 46.51900 32.80200
H  43.06900 38.21100 29.84900
H  42.41100 38.26400 23.46200
H  40.83900 44.43600 23.59500
H  42.56300 42.72800 31.56400
H  42.53100 39.85900 31.80500
H  44.76200 41.79600 31.42700
H  44.99600 40.15600 30.78600
H  44.43500 40.43700 32.51700
H  40.44200 40.69400 32.21800
H  39.78900 41.80400 31.06600
H  39.31100 43.19300 32.69600
H  40.99400 43.32200 33.29900
H  45.01500 35.78200 28.00000
H  43.36400 35.30600 28.33000
H  44.07100 36.52800 29.32200
H  44.64600 34.73000 26.03500
H  44.02500 33.94300 24.61900
H  42.91700 34.44200 25.86300
H  40.80500 39.92300 22.07100
H  42.00400 42.59000 21.92100
H  43.81500 40.15600 21.96900
H  43.04200 41.05800 20.69600
H  42.89500 39.26900 20.78300
H  39.21300 42.71200 22.75200
H  39.27100 41.36000 21.59400
H  38.93000 43.90300 20.75700
H  39.08400 42.51000 19.77100
H  40.61300 43.37100 20.25300
H  40.74100 46.60700 24.45800
H  40.65600 47.45900 25.96000
H  39.24200 46.57400 25.30800
H  40.32300 44.44000 30.51700
H  42.86900 47.30600 32.15700
H  43.23100 45.94600 33.34400
H  41.76700 47.00200 33.47200
Mg -9.63300 38.86300 39.80200
C  -8.77500 35.54300 39.30300
C  -6.28600 39.75300 39.06000
C  -10.59700 42.06000 39.21600
C  -13.01300 37.92200 40.15800
N  -7.69100 37.77700 39.35500
C  -7.64800 36.49000 39.13600
C  -6.20100 36.05000 38.89800
C  -5.36600 37.33500 39.15000
C  -6.43600 38.42200 39.22900
C  -4.53500 37.30300 40.44100
C  -5.86700 35.28200 37.58200
C  -6.18300 36.11100 36.30100
H  -7.32500 35.63200 35.44200
N  -8.59900 40.62900 39.30400
C  -7.25400 40.74600 39.04200
C  -6.99700 42.13400 38.67700
C  -8.19300 42.90300 38.68800
C  -9.23200 41.85300 39.01100
C  -5.62400 42.64100 38.38100
C  -8.41100 44.35100 38.32100
O  -7.47200 45.07500 38.14100
C  -9.80600 44.87000 38.08700
N  -11.53600 39.82100 39.73600
C  -11.61700 41.16400 39.53700
C  -13.03600 41.64100 39.37900
C  -13.93500 40.25000 39.74800
C  -12.77500 39.22900 39.90100
C  -13.37600 42.86900 40.36400
C  -15.02000 39.80600 38.73300
C  -16.39800 39.89600 39.41500
N  -10.64800 37.10100 39.94100
C  -12.07900 36.83300 40.05600
C  -12.29900 35.36700 40.11600
C  -11.04400 34.83700 39.75300
C  -10.09200 35.91500 39.67400
C  -13.64200 34.63000 40.44000
C  -10.31100 33.56100 39.42000
O  -10.74300 32.43600 39.38600
C  -8.92800 33.97600 39.00200
C  -7.89300 33.13700 39.75000
O  -7.73400 33.10100 40.95500
O  -7.11700 32.36100 38.88200
C  -5.97300 31.63000 39.50500
H  -5.21800 39.94000 38.92900
H  -11.05500 43.05100 39.24200
H  -14.04000 37.55900 40.23700
H  -5.97800 35.30100 39.65800
H  -4.73000 37.42800 38.26900
H  -3.50500 37.12500 40.13200
H  -4.86500 36.52700 41.13100
H  -4.67800 38.29200 40.87800
H  -6.48500 34.38700 37.49900
H  -4.81600 34.99500 37.53000
H  -5.29300 36.24300 35.68600
H  -6.44100 37.10700 36.66000
H  -5.67700 43.39400 37.59400
H  -4.89800 41.88500 38.08200
H  -5.20000 43.08200 39.28300
H  -10.25700 45.04900 39.06300
H  -10.19700 44.10500 37.41700
H  -9.85500 45.82100 37.55600
H  -13.21000 42.03500 38.37800
H  -14.28900 40.37800 40.77100
H  -13.30400 43.85200 39.89900
H  -12.59800 42.87600 41.12800
H  -14.33800 42.72500 40.85600
H  -14.93800 38.73800 38.53200
H  -15.02900 40.26500 37.74400
H  -17.01800 40.55800 38.81000
H  -16.44300 40.20600 40.45900
H  -16.91300 38.93600 39.37000
H  -13.64500 33.55100 40.28300
H  -14.54600 35.05400 40.00300
H  -13.70900 34.67100 41.52700
H  -8.81600 33.59600 37.98700
H  -4.99500 31.96200 39.15600
H  -5.93600 30.56000 39.30000
H  -5.87000 31.79100 40.57800

