158

Mg 46.14700 24.94400 29.24800
C  46.72000 27.37200 31.66700
C  45.49600 22.70600 31.65400
C  45.93700 22.77700 26.77500
C  47.41400 27.43600 26.76200
N  46.10700 25.01800 31.31000
C  46.34000 26.11900 32.14000
C  46.01200 25.90600 33.57200
C  45.69200 24.37300 33.55000
C  45.76800 23.99100 32.04600
C  46.54400 23.50900 34.49800
C  44.99500 26.78100 34.28700
C  45.32200 27.36100 35.66400
H  44.20000 27.21600 36.76900
N  45.78600 22.98900 29.27200
C  45.38400 22.23300 30.32300
C  45.12900 20.89100 29.86100
C  45.25100 20.93700 28.40700
C  45.63700 22.30400 28.07600
C  44.73800 19.79000 30.82300
C  45.07400 19.79200 27.42500
O  45.16500 20.00200 26.18600
C  44.74600 18.33600 27.88500
N  46.70600 25.03300 27.00600
C  46.46100 23.97600 26.23100
C  46.95600 24.30200 24.76900
C  46.93600 25.87100 24.82200
C  47.07700 26.16300 26.27000
C  48.47300 23.78900 24.64100
C  45.57600 26.50000 24.22800
C  44.63000 27.35100 25.10800
N  46.92200 26.98000 29.13800
C  47.25400 27.87800 28.11100
C  47.68300 29.11000 28.74100
C  47.54400 29.00600 30.10700
C  47.02600 27.66100 30.32700
C  48.22500 30.26400 27.99900
C  47.64200 29.65900 31.40100
O  47.98400 30.80300 31.58800
C  47.14600 28.58500 32.47300
C  48.37500 28.30300 33.34300
O  49.21000 27.48500 33.05100
O  48.25600 28.99900 34.49600
C  49.28800 28.68200 35.49700
H  45.19900 22.04700 32.47300
H  45.84200 22.08800 25.93200
H  47.69200 28.08000 25.92500
H  46.86000 26.05600 34.24000
H  44.67200 24.17300 33.88000
H  46.68800 22.59600 33.92100
H  46.01800 23.34000 35.43800
H  47.48600 23.99400 34.75500
H  44.06000 26.24700 34.45700
H  44.76600 27.60700 33.61400
H  45.35600 28.42100 35.41500
H  46.27300 27.01300 36.06800
H  43.69800 19.53000 30.62400
H  44.92000 20.00300 31.87600
H  45.42100 18.98600 30.54900
H  44.70600 17.67500 27.01900
H  43.82300 18.32500 28.46500
H  45.49900 17.96600 28.58100
H  46.21100 23.88100 24.09300
H  47.82000 26.38400 24.44500
H  48.98700 24.33600 23.85200
H  48.38900 22.75700 24.29800
H  49.03400 23.77500 25.57500
H  45.03400 25.76200 23.63600
H  45.93700 27.17600 23.45300
H  43.58200 27.26100 24.82200
H  44.81000 28.42400 25.04400
H  44.64200 27.08200 26.16500
H  47.66300 31.17600 28.20200
H  48.12800 30.15500 26.91900
H  49.27600 30.44300 28.22400
H  46.36000 29.04100 33.07500
H  48.95000 27.82200 36.07500
H  49.32300 29.51200 36.20300
H  50.23800 28.46400 35.01000
Mg 29.34900 58.90200 41.05200
C  26.32700 57.49100 40.29700
C  30.88700 56.17600 39.45500
C  32.27800 60.61500 41.15800
C  27.69400 61.82100 41.88700
N  28.62800 57.11300 40.04500
C  27.35000 56.70000 39.83000
C  27.22200 55.31100 39.07300
C  28.69100 54.84300 39.13000
C  29.46000 56.13500 39.48400
C  28.86200 53.65200 40.19300
C  26.79000 55.69300 37.60100
C  25.82300 54.77800 36.84400
H  25.93200 54.65500 35.35300
N  31.33800 58.36100 40.57000
C  31.75600 57.24600 39.95000
C  33.21200 57.33500 39.81400
C  33.56700 58.57400 40.26900
C  32.37700 59.27500 40.70300
C  33.97400 56.11500 39.36700
C  35.09100 59.00300 40.29600
O  36.00900 58.27600 39.78600
C  35.54300 60.31500 40.98200
N  29.84000 61.01900 41.27800
C  31.16600 61.36600 41.44900
C  31.22200 62.92900 41.66800
C  29.70700 63.34100 41.79600
C  29.07600 61.99200 41.64600
C  32.09400 63.35600 42.92300
C  28.96600 64.42700 40.84500
C  28.68400 65.83500 41.43100
N  27.45700 59.62100 41.12400
C  26.90900 60.77500 41.60100
C  25.46700 60.74200 41.53500
C  25.19300 59.42800 41.13100
C  26.43300 58.79600 40.83400
C  24.40100 61.76900 41.97100
C  24.17100 58.37700 41.00500
O  23.00100 58.37300 41.40000
C  24.91500 57.21100 40.37700
C  24.53400 56.03400 41.13600
O  24.85600 55.85000 42.27600
O  23.90000 55.03200 40.31700
C  23.66800 53.70800 40.91400
H  31.45200 55.30900 39.10600
H  33.22900 61.11100 41.36800
H  27.11600 62.71800 42.12100
H  26.59200 54.61400 39.62500
H  28.94600 54.40200 38.16700
H  29.52200 53.89100 41.02700
H  29.18900 52.71800 39.73700
H  27.98100 53.28100 40.71800
H  27.65400 55.84800 36.95500
H  26.17200 56.59000 37.61800
H  24.80300 55.13600 36.98500
H  25.78700 53.76200 37.23900
H  34.13700 56.24200 38.29600
H  33.41700 55.21600 39.63200
H  34.86000 56.21000 39.99500
H  35.43400 61.19600 40.34900
H  36.60000 60.17400 41.20900
H  35.05900 60.44500 41.94900
H  31.80300 63.34000 40.84200
H  29.47800 63.81900 42.74800
H  31.49700 63.33100 43.83400
H  32.32500 64.42100 42.94100
H  32.95600 62.71400 43.10300
H  27.99600 64.02100 40.56000
H  29.69200 64.43300 40.03200
H  27.60100 65.85200 41.54600
H  28.90200 66.70000 40.80400
H  29.19800 65.94700 42.38600
H  24.77700 61.90900 42.98400
H  23.41100 61.32200 41.87200
H  24.45700 62.77700 41.55900
H  24.43300 57.05500 39.41200
H  23.03600 53.79900 41.79800
H  24.55500 53.14500 41.20400
H  23.17600 53.02400 40.22400

