158

Mg 35.48600 47.99500 25.99500
C  35.86200 46.05200 28.84600
C  34.26300 50.46200 27.83700
C  34.91600 49.73400 23.10500
C  36.59700 45.35000 24.07300
N  35.01200 48.15000 28.14300
C  35.24300 47.30300 29.10100
C  34.93800 47.91200 30.48800
C  34.18600 49.21600 30.07900
C  34.39500 49.29200 28.60000
C  32.67600 49.24400 30.46900
C  36.18500 48.09600 31.45400
C  36.02500 47.81400 32.89600
H  35.94800 49.03700 33.90000
N  34.70200 49.83600 25.53400
C  34.34400 50.76800 26.44400
C  33.84000 51.99500 25.73300
C  34.10000 51.81300 24.35300
C  34.60600 50.39900 24.28500
C  33.24700 53.17000 26.49600
C  33.83200 52.71400 23.16700
O  34.02900 52.38400 21.96800
C  33.31400 54.08100 23.58700
N  35.35600 47.47400 23.84700
C  35.12500 48.37600 22.86300
C  35.38100 47.78300 21.48000
C  36.09000 46.35500 21.76300
C  36.01600 46.41600 23.30500
C  34.05900 47.60400 20.74100
C  37.56800 46.24000 21.22400
C  37.95700 44.99900 20.47700
N  36.11200 46.06200 26.33300
C  36.56300 45.12100 25.43700
C  37.01100 43.90100 26.24300
C  36.79700 44.30100 27.57400
C  36.20500 45.53600 27.54700
C  37.60500 42.53100 25.78400
C  36.87700 43.86100 28.98200
O  37.26200 42.77400 29.43200
C  36.41800 44.99400 29.77900
C  35.36100 44.60800 30.68800
O  34.36000 44.04000 30.38300
O  35.73300 44.76800 32.00200
C  34.86800 44.31800 33.09500
H  33.85700 51.23800 28.48900
H  34.97300 50.30500 22.17600
H  37.13800 44.59200 23.50300
H  34.27200 47.23400 31.02100
H  34.64100 50.11300 30.49900
H  32.60200 49.34500 31.55200
H  32.15300 48.37000 30.08200
H  32.25400 50.09500 29.93500
H  36.36900 49.17000 31.46500
H  36.95800 47.49800 30.97100
H  36.73100 47.09200 33.30600
H  35.02000 47.39000 32.89100
H  33.80000 54.10400 26.59600
H  33.07500 52.93000 27.54500
H  32.22600 53.37700 26.17400
H  32.39100 54.05000 24.16600
H  33.16400 54.52200 22.60200
H  34.06800 54.59900 24.18000
H  35.97100 48.43700 20.83900
H  35.50200 45.49100 21.45500
H  33.84900 48.38900 20.01500
H  33.13400 47.43800 21.29300
H  34.16400 46.75200 20.07000
H  38.17900 46.44800 22.10200
H  37.78400 47.16800 20.69400
H  37.13100 44.29100 20.53500
H  38.82000 44.53100 20.95100
H  38.21900 45.21400 19.44100
H  38.13500 42.82100 24.87700
H  36.78800 41.84500 25.55600
H  38.29600 42.09900 26.50800
H  37.23700 45.37800 30.38800
H  33.82900 44.50300 32.82100
H  35.05000 44.78200 34.06500
H  35.17700 43.29300 33.30200
Mg -2.76100 34.81000 26.57800
C  -4.22400 33.00800 28.98300
C  -1.71900 37.04800 28.84900
C  -1.27600 36.65800 24.12800
C  -3.90600 32.57800 24.13500
N  -3.05400 35.04700 28.78900
C  -3.62400 34.12000 29.56900
C  -3.39900 34.47600 31.01800
C  -2.89000 35.98400 30.96200
C  -2.56100 36.08100 29.44500
C  -3.92500 37.04300 31.45400
C  -2.40000 33.58700 31.71800
C  -2.94200 32.55500 32.76000
H  -2.15900 32.41200 34.07500
N  -1.59800 36.61900 26.49200
C  -1.26600 37.30600 27.56200
C  -0.40600 38.43300 27.20700
C  -0.43200 38.45200 25.80600
C  -1.10700 37.22400 25.38300
C  0.27000 39.34100 28.20300
C  0.32000 39.45200 24.93700
O  0.36000 39.31400 23.70700
C  0.91400 40.70500 25.53800
N  -2.57300 34.66700 24.36900
C  -1.97600 35.54000 23.55700
C  -1.80500 34.99500 22.15600
C  -2.52200 33.62100 22.31400
C  -3.11100 33.67800 23.68300
C  -2.16300 35.85400 20.85100
C  -1.70000 32.35100 21.91800
C  -0.33000 32.23900 22.67900
N  -3.96300 33.22200 26.49700
C  -4.38500 32.39300 25.44500
C  -5.20800 31.36400 25.94500
C  -5.16900 31.54500 27.27300
C  -4.41600 32.72700 27.61100
C  -5.96400 30.26700 25.21700
C  -5.61700 31.08100 28.57000
O  -6.39500 30.20100 28.74400
C  -4.94200 31.90600 29.70200
C  -5.93700 32.36200 30.68800
O  -6.62600 33.33100 30.55500
O  -6.02900 31.53300 31.78300
C  -6.89900 31.79100 32.92900
H  -1.48000 37.77900 29.62500
H  -0.75000 37.22100 23.35400
H  -4.10400 31.85500 23.34100
H  -4.37700 34.57300 31.49000
H  -1.93800 36.10200 31.47900
H  -3.74200 37.25600 32.50700
H  -4.88600 36.53000 31.43400
H  -3.96800 37.92700 30.81700
H  -1.66600 34.18100 32.26100
H  -1.77500 33.04400 31.01000
H  -3.12000 31.57400 32.31900
H  -3.95600 32.85900 33.01900
H  1.27600 39.53900 27.83100
H  0.26100 38.95800 29.22300
H  -0.21500 40.31600 28.23400
H  0.33700 41.17500 26.33400
H  0.98400 41.42900 24.72600
H  1.90700 40.49000 25.93200
H  -0.73900 34.78700 22.06200
H  -3.39300 33.56400 21.66000
H  -2.61700 36.80400 21.13200
H  -2.88500 35.25200 20.30000
H  -1.30000 36.05300 20.21500
H  -1.50600 32.35100 20.84600
H  -2.20200 31.41300 22.15600
H  -0.29500 32.97400 23.48400
H  0.39600 32.42100 21.88700
H  -0.28900 31.28500 23.20700
H  -5.38000 29.35100 25.12600
H  -6.18200 30.66400 24.22600
H  -6.97100 30.21000 25.63000
H  -4.24800 31.31300 30.29800
H  -6.37300 32.50900 33.55800
H  -7.17900 30.85100 33.40400
H  -7.82600 32.18000 32.50700

