158

Mg 17.64600 -1.67900 28.19100
C  16.69800 0.39400 31.00000
C  19.07300 -3.82800 30.42600
C  18.92000 -3.30700 25.51100
C  16.33500 0.77800 26.02900
N  17.97500 -1.60500 30.56300
C  17.51300 -0.70300 31.45000
C  17.78300 -1.13100 32.85300
C  18.68700 -2.44600 32.62600
C  18.56800 -2.69500 31.11200
C  20.11900 -2.36400 33.15700
C  16.44500 -1.44800 33.69300
C  16.41300 -1.09100 35.21600
H  17.70600 -0.54100 35.87600
N  18.76900 -3.37600 28.08200
C  19.25000 -4.16700 29.12900
C  19.88800 -5.37800 28.47100
C  19.80900 -5.21900 27.02800
C  19.16400 -3.93500 26.83400
C  20.36100 -6.53200 29.32400
C  20.21200 -6.15400 25.94500
O  19.89200 -5.93400 24.80400
C  20.97700 -7.49700 26.29600
N  17.64500 -1.31300 26.10000
C  18.28200 -2.11400 25.23400
C  18.15200 -1.57700 23.84000
C  17.19000 -0.34200 23.93200
C  17.01900 -0.28800 25.42900
C  19.49300 -1.24400 23.12600
C  15.91000 -0.51600 23.06500
C  15.35000 0.73700 22.41300
N  16.63100 0.08700 28.38200
C  16.15500 0.98500 27.44600
C  15.47100 2.09900 28.12400
C  15.65800 1.91900 29.49100
C  16.31300 0.61900 29.57800
C  14.80400 3.16900 27.38500
C  15.36300 2.50200 30.82400
O  14.73100 3.49200 31.05600
C  15.95100 1.51700 31.82200
C  16.89600 2.36900 32.60000
O  18.01400 2.78500 32.25200
O  16.32800 2.70900 33.82800
C  17.20200 3.44500 34.67500
H  19.57800 -4.57900 31.03700
H  19.38600 -3.80000 24.65500
H  15.92100 1.54800 25.37500
H  18.38900 -0.35500 33.32000
H  18.31900 -3.27200 33.23500
H  20.12700 -1.48800 33.80500
H  20.74300 -2.13000 32.29400
H  20.52300 -3.25300 33.64100
H  16.24900 -2.50900 33.53700
H  15.60200 -0.89000 33.28700
H  16.29400 -1.99800 35.80900
H  15.65400 -0.38200 35.54800
H  19.53400 -7.24000 29.37300
H  20.49700 -6.28100 30.37600
H  21.36300 -6.83800 29.02300
H  20.47500 -8.16600 26.99500
H  21.86400 -7.10700 26.79600
H  21.22900 -8.02200 25.37500
H  17.82900 -2.48400 23.32800
H  17.63400 0.60100 23.61600
H  19.61700 -1.90400 22.26700
H  20.28100 -1.45400 23.84900
H  19.55100 -0.27100 22.63800
H  15.15600 -0.95300 23.72100
H  16.07100 -1.20700 22.23800
H  14.26100 0.77500 22.44100
H  15.70500 0.67900 21.38400
H  15.69200 1.59000 22.99800
H  14.13600 3.72300 28.04400
H  14.23100 2.86400 26.50900
H  15.55300 3.92100 27.13800
H  15.15200 1.06800 32.41100
H  18.14800 2.90400 34.69500
H  16.80800 3.33600 35.68500
H  17.28000 4.49400 34.38800
Mg 48.34100 14.67800 28.03400
C  46.52000 14.96700 31.08300
C  50.63900 16.75200 29.43200
C  50.17500 14.38000 25.19000
C  45.77400 12.82000 26.76900
N  48.57700 15.72600 29.97000
C  47.74700 15.68900 31.08000
C  48.26900 16.39600 32.31700
C  49.35100 17.24000 31.63400
C  49.58400 16.53900 30.31700
C  48.89600 18.74800 31.37000
C  48.68200 15.40600 33.45600
C  47.94100 15.58800 34.78000
H  48.68400 15.39100 36.09400
N  50.19600 15.33500 27.49100
C  51.01500 16.18000 28.16900
C  52.31100 16.35500 27.45800
C  52.12100 15.78500 26.18300
C  50.75100 15.13400 26.23000
C  53.46900 17.11500 28.05800
C  53.07100 15.65100 24.93800
O  52.90000 14.93200 23.98100
C  54.30500 16.50800 24.96300
N  47.91900 13.83100 26.20800
C  48.86600 13.78400 25.16100
C  48.30600 13.01800 23.93500
C  47.00000 12.41400 24.53700
C  46.85700 13.04400 25.90000
C  48.13900 13.92800 22.63900
C  47.01300 10.84500 24.48600
C  48.18300 10.14600 25.17700
N  46.52800 14.06600 28.69300
C  45.58200 13.26400 28.04500
C  44.39800 13.10600 28.91700
C  44.72700 13.67800 30.09100
C  46.01600 14.23700 29.95300
C  43.31600 12.19500 28.60000
C  44.27200 13.94200 31.51100
O  43.26500 13.53100 32.13900
C  45.50600 14.68600 32.23900
C  44.80600 15.84900 32.79600
O  44.64200 16.90400 32.23900
O  44.53000 15.62300 34.09900
C  44.05700 16.84700 34.76400
H  51.34300 17.45100 29.88700
H  50.53400 14.38900 24.15800
H  44.99800 12.19600 26.32000
H  47.48600 17.02600 32.73900
H  50.29400 17.16300 32.17700
H  48.53300 18.75300 30.34200
H  49.74800 19.41100 31.51200
H  48.11400 19.06700 32.05900
H  49.76600 15.49700 33.53000
H  48.47100 14.34800 33.29800
H  47.19200 14.81800 34.96700
H  47.37000 16.51600 34.77900
H  53.36000 18.19800 28.11800
H  54.43900 16.89800 27.61100
H  53.45200 16.82800 29.10900
H  54.88600 16.54400 24.04100
H  54.99500 16.04400 25.66700
H  54.01800 17.53800 25.17600
H  48.98300 12.18100 23.76300
H  46.10400 12.61800 23.95100
H  48.51700 13.41800 21.75300
H  48.72000 14.84600 22.72500
H  47.10800 14.22800 22.45100
H  46.91900 10.54200 23.44300
H  46.09800 10.54300 24.99500
H  47.93900 9.47800 26.00300
H  48.88800 10.75700 25.74100
H  48.87600 9.72500 24.44900
H  42.73400 11.85500 29.45600
H  43.58000 11.28800 28.05600
H  42.66700 12.83200 27.99900
H  45.86900 14.02400 33.02500
H  43.29400 17.35200 34.17200
H  44.82500 17.61900 34.70500
H  43.77900 16.79600 35.81700

