158

Mg 47.73500 44.79900 43.34000
C  44.39300 43.84400 42.69800
C  48.51000 41.43100 42.91700
C  51.05500 45.65200 43.44800
C  46.91600 48.19100 43.11700
N  46.54800 42.89800 42.93900
C  45.21000 42.71800 42.69300
C  44.73400 41.25600 42.48800
C  46.12600 40.58600 42.72500
C  47.13800 41.74800 42.98700
C  46.09300 39.47900 43.83400
C  44.12400 41.00500 41.02200
C  44.76500 41.79800 39.84900
H  44.55400 41.28300 38.46000
N  49.53300 43.63500 43.29600
C  49.64800 42.30500 43.06800
C  51.01800 41.91500 43.00600
C  51.77500 43.09400 43.14000
C  50.82900 44.24600 43.36300
C  51.50100 40.45300 42.77700
C  53.32300 43.25600 43.24400
O  53.91600 42.18100 43.21700
C  54.13300 44.56700 43.37100
N  48.84100 46.59900 43.34300
C  50.17300 46.74100 43.44100
C  50.63800 48.16600 43.23300
C  49.27300 48.98000 43.49700
C  48.31900 47.88300 43.21900
C  51.82500 48.49600 44.16800
C  49.09600 50.19400 42.49000
C  48.47000 51.48400 43.07100
N  46.02300 45.84000 42.94000
C  45.86200 47.24800 43.00700
C  44.43200 47.54100 42.87400
C  43.81800 46.25400 42.73200
C  44.82800 45.24500 42.79000
C  43.74000 48.88600 42.89500
C  42.55000 45.52900 42.63800
O  41.37700 45.90500 42.58000
C  42.88600 43.95300 42.65200
C  42.18800 43.30500 43.81400
O  41.22000 42.54800 43.71800
O  42.58000 43.91500 45.01600
C  41.69900 43.62200 46.14400
H  48.76100 40.37100 42.83100
H  52.12000 45.88700 43.50200
H  46.68200 49.23200 43.34900
H  43.97300 41.02000 43.23100
H  46.46300 40.12900 41.79500
H  46.93200 39.63500 44.51100
H  46.32700 38.52400 43.36200
H  45.17700 39.26700 44.38700
H  43.06700 41.15500 41.24100
H  44.27500 39.98300 40.67300
H  45.82800 41.90700 40.06100
H  44.33300 42.79800 39.89900
H  51.52300 39.87000 43.69800
H  52.51300 40.34100 42.38800
H  50.82800 39.99700 42.05100
H  53.93900 45.22900 42.52700
H  55.19000 44.31900 43.46700
H  53.78300 44.90300 44.34600
H  51.04000 48.33000 42.23300
H  49.08000 49.40000 44.48400
H  51.57700 49.51200 44.47500
H  52.86800 48.42700 43.85800
H  51.75700 47.96100 45.11600
H  48.52600 49.92200 41.60200
H  50.12100 50.38600 42.17400
H  48.19300 51.31500 44.11200
H  47.61100 51.81500 42.48700
H  49.17500 52.31400 43.10200
H  44.27200 49.39000 43.70100
H  42.68100 48.81400 43.14400
H  43.85600 49.48100 41.98900
H  42.47400 43.43300 41.78700
H  41.99900 44.23500 46.99300
H  41.77100 42.56500 46.40000
H  40.63900 43.79900 45.96300
Mg 36.68200 48.95100 24.63400
C  36.59400 47.43400 27.80300
C  36.08400 51.92800 26.22300
C  36.42200 50.23700 21.63300
C  37.07900 45.76000 23.26900
N  36.25100 49.54700 26.82900
C  36.36700 48.82800 27.92400
C  36.05200 49.62000 29.23700
C  35.81200 51.05300 28.69000
C  36.05500 50.85400 27.14900
C  34.46100 51.69400 29.07700
C  37.32800 49.52200 30.13000
C  37.03600 49.13700 31.61200
H  35.84500 49.77700 32.24800
N  36.24000 50.80300 23.96800
C  36.17500 51.92200 24.76000
C  36.10600 53.08100 23.92500
C  36.26000 52.66900 22.63400
C  36.26500 51.15400 22.67600
C  35.88100 54.47100 24.51800
C  36.28600 53.44700 21.38000
O  36.29000 52.88900 20.21300
C  36.33400 55.04600 21.30600
N  36.52900 48.08100 22.60800
C  36.55900 48.85700 21.60400
C  36.68100 48.02200 20.25000
C  37.05900 46.58500 20.79800
C  36.83200 46.77800 22.29000
C  35.40300 48.12000 19.34800
C  38.49600 46.18000 20.29800
C  39.64400 46.58400 21.25400
N  36.94500 47.07700 25.34000
C  37.10900 45.82100 24.70200
C  37.44600 44.76800 25.64400
C  37.12500 45.30100 26.86000
C  36.83700 46.69200 26.60800
C  37.82800 43.37600 25.27600
C  37.08400 44.97800 28.27400
O  37.29700 43.95200 28.90500
C  36.68200 46.42900 28.94700
C  35.42400 46.21900 29.72100
O  34.26400 46.29000 29.27500
O  35.71100 45.93500 31.05300
C  34.58700 45.81800 32.00000
H  35.99700 52.87000 26.76800
H  36.20400 50.53800 20.60700
H  37.24400 44.79500 22.78400
H  35.23600 49.10000 29.74000
H  36.54600 51.78900 29.01700
H  33.86400 51.95400 28.20300
H  34.57600 52.63700 29.61200
H  33.88200 51.14200 29.81800
H  37.80800 50.49600 30.22200
H  38.08900 48.84700 29.73700
H  37.89900 49.55900 32.12700
H  37.07900 48.04900 31.55900
H  36.89700 54.83400 24.66900
H  35.30700 54.46500 25.44500
H  35.44400 55.14500 23.78100
H  37.09400 55.50300 21.94000
H  35.33100 55.36100 21.59300
H  36.50600 55.23200 20.24600
H  37.57300 48.38800 19.74200
H  36.28100 45.84900 20.59400
H  34.58000 48.40600 20.00400
H  35.17200 47.12700 18.96300
H  35.41000 48.82300 18.51500
H  38.54400 46.52000 19.26400
H  38.50300 45.09400 20.20600
H  39.35000 47.16100 22.13100
H  40.35200 47.16800 20.66600
H  40.16400 45.66700 21.53100
H  38.40800 43.34400 24.35300
H  36.91900 42.78100 25.19500
H  38.52000 42.91600 25.98200
H  37.50300 46.66100 29.62500
H  34.74300 46.24200 32.99200
H  34.46300 44.81200 32.40100
H  33.61900 46.16800 31.64000

