158

Mg 48.63000 33.90500 27.54000
C  46.93300 32.33100 30.05000
C  48.65500 36.80600 29.54200
C  50.21400 35.58500 25.14100
C  47.97500 31.23800 25.41900
N  47.87400 34.48400 29.59300
C  47.34200 33.60800 30.47500
C  47.11700 34.20800 31.87600
C  47.30400 35.74500 31.50900
C  47.93900 35.69000 30.09300
C  46.04700 36.58000 31.65600
C  48.23200 33.71400 32.77500
C  47.66900 33.40800 34.18700
H  47.75200 34.50100 35.31200
N  49.39300 35.92200 27.39900
C  49.34800 36.93600 28.32800
C  50.18500 38.05900 27.88700
C  50.81200 37.63600 26.65400
C  50.18100 36.37400 26.33000
C  50.38300 39.31300 28.68000
C  51.87200 38.34100 25.76900
O  52.17700 37.82700 24.70700
C  52.44500 39.72200 26.11600
N  48.91500 33.61200 25.53500
C  49.59200 34.42300 24.73100
C  49.87500 33.84900 23.34400
C  49.43500 32.40000 23.56500
C  48.69800 32.38200 24.91200
C  49.13100 34.59200 22.18400
C  50.62000 31.37200 23.63700
C  50.18300 29.93300 22.97200
N  47.63300 32.10300 27.65800
C  47.43100 31.14600 26.71000
C  46.71300 30.07000 27.31700
C  46.45500 30.42700 28.63100
C  47.03000 31.72600 28.74200
C  46.38300 28.83300 26.66600
C  45.84000 30.09800 29.95800
O  45.17200 29.07900 30.21300
C  46.07700 31.33900 30.91900
C  46.77600 30.76800 32.04600
O  47.95200 30.47000 32.09500
O  45.85800 30.67900 33.10300
C  46.31900 29.94600 34.32900
H  48.76100 37.70900 30.14700
H  50.72200 36.16000 24.36300
H  47.73100 30.44200 24.71300
H  46.08000 34.05700 32.17800
H  48.07000 36.19300 32.14200
H  46.00600 37.34900 30.88500
H  46.18200 37.08000 32.61600
H  45.10600 36.04300 31.77100
H  49.04200 34.44300 32.75400
H  48.71800 32.86100 32.30100
H  48.24900 32.53600 34.48900
H  46.61600 33.12700 34.20900
H  51.12300 39.21000 29.47400
H  49.47700 39.50200 29.25700
H  50.69100 40.15600 28.06200
H  52.55800 39.90200 27.18500
H  51.93800 40.58800 25.69000
H  53.42300 39.57800 25.65700
H  50.91500 34.11900 23.16100
H  48.60400 32.10900 22.92300
H  48.46500 35.39400 22.50400
H  48.68600 33.80300 21.57800
H  49.85300 35.17600 21.61300
H  51.00600 31.20400 24.64200
H  51.50900 31.76900 23.14700
H  49.13800 29.90000 22.66400
H  50.35400 29.15000 23.71100
H  50.83100 29.71000 22.12400
H  45.86300 28.14600 27.33200
H  47.23900 28.28500 26.27300
H  45.73800 29.21100 25.87300
H  45.11500 31.79600 31.15100
H  47.08100 29.19800 34.11300
H  45.44100 29.48000 34.77700
H  46.64900 30.66600 35.07800
Mg 16.72700 51.45300 26.10300
C  18.63600 50.06700 28.71800
C  14.33400 52.58100 28.42300
C  14.99900 52.63600 23.59200
C  19.19700 50.15700 23.89100
N  16.40800 51.10000 28.30700
C  17.47300 50.75900 29.09200
C  17.12600 51.24500 30.56400
C  15.52700 51.41200 30.41000
C  15.39500 51.77200 28.97200
C  14.75900 50.13300 30.83800
C  17.95900 52.44600 31.05500
C  17.38600 53.03100 32.37500
H  16.55300 52.11900 33.30600
N  14.91500 52.46700 25.98400
C  14.10000 52.82400 27.04600
C  13.03000 53.62400 26.47100
C  13.13600 53.56500 25.09800
C  14.37900 52.89500 24.79600
C  11.99200 54.36400 27.28800
C  12.27100 54.31100 23.98500
O  12.67300 54.26100 22.86200
C  11.00800 55.15500 24.38000
N  17.11500 51.39900 24.03000
C  16.23100 52.01400 23.18900
C  16.66900 51.94400 21.67900
C  18.03500 51.27300 21.80700
C  18.19100 50.92100 23.30000
C  15.71400 51.25600 20.65500
C  19.27300 52.13400 21.21400
C  19.65700 53.45000 21.93900
N  18.51900 50.20700 26.18500
C  19.34700 49.75000 25.21700
C  20.38000 48.95100 25.85400
C  20.19600 49.13200 27.15200
C  18.98000 49.87600 27.37500
C  21.57400 48.37900 25.20300
C  20.81200 48.90500 28.49700
O  21.83800 48.36400 28.88700
C  19.78000 49.49300 29.58000
C  19.43200 48.41100 30.47500
O  19.30200 47.20300 30.17200
O  19.20600 48.91700 31.74700
C  18.66200 47.93700 32.67000
H  13.52300 52.87100 29.09500
H  14.58200 52.87800 22.61200
H  19.87000 49.77100 23.12300
H  17.35900 50.36900 31.16900
H  15.03300 52.17900 31.00600
H  14.07900 50.34500 31.66400
H  15.30400 49.24400 31.15400
H  14.05900 49.79300 30.07500
H  17.88900 53.23500 30.30600
H  18.99800 52.11400 31.06600
H  16.77500 53.92900 32.28500
H  18.23600 53.25700 33.01900
H  11.80200 55.40900 27.04300
H  12.49700 54.47200 28.24800
H  11.08300 53.78300 27.44200
H  11.19300 56.02600 25.00800
H  10.35800 54.50600 24.96700
H  10.57700 55.47500 23.43200
H  16.81200 52.96800 21.33400
H  18.06700 50.39200 21.16400
H  14.94700 51.96900 20.35300
H  15.21700 50.44300 21.18600
H  16.29300 50.96800 19.77700
H  18.93400 52.46300 20.23200
H  20.07500 51.39700 21.16600
H  18.77900 53.49200 22.58400
H  19.77100 54.32100 21.29400
H  20.53900 53.26100 22.55000
H  22.49600 48.61600 25.73400
H  21.66600 48.65500 24.15200
H  21.65100 47.29300 25.17500
H  20.31100 50.29400 30.09500
H  18.93400 48.45700 33.58800
H  19.25000 47.01900 32.67600
H  17.59400 47.76900 32.53000

