158

Mg 2.38000 -0.67400 43.28800
C  5.78700 0.06300 42.85500
C  1.75900 2.25200 41.52700
C  -0.78100 -1.55300 42.95600
C  3.26900 -3.75900 44.69700
N  3.65300 0.99700 42.16500
C  4.98900 1.10400 42.18800
C  5.49800 2.24900 41.33600
C  4.21300 3.07600 41.13800
C  3.12200 2.07500 41.66600
C  4.17600 4.50700 41.78300
C  6.10600 1.63800 40.02900
C  7.15100 2.47700 39.28900
H  6.74800 3.02800 37.89400
N  0.74600 0.15900 42.33600
C  0.67900 1.43200 41.75800
C  -0.62600 1.67100 41.38500
C  -1.38900 0.50200 41.61500
C  -0.46100 -0.34800 42.34300
C  -1.10700 2.90900 40.67300
C  -2.87500 0.21600 41.16800
O  -3.45000 1.09700 40.51600
C  -3.59300 -1.11800 41.34900
N  1.34700 -2.39400 43.81000
C  0.02700 -2.49900 43.60100
C  -0.50700 -3.83500 44.15100
C  0.79400 -4.64600 44.46700
C  1.88300 -3.54600 44.32100
C  -1.48300 -3.58700 45.32600
C  1.13900 -5.82400 43.48400
C  1.63700 -7.17100 44.02400
N  4.13300 -1.61000 43.87900
C  4.38300 -2.86100 44.45900
C  5.82100 -3.01200 44.72000
C  6.38800 -1.82400 44.21600
C  5.33600 -1.06100 43.57600
C  6.50500 -4.16900 45.44600
C  7.65700 -1.08300 44.05400
O  8.78800 -1.29400 44.37000
C  7.34000 0.14000 43.18200
C  7.42300 1.24700 44.12800
O  6.65300 1.40700 45.07400
O  8.40800 2.12700 43.79200
C  8.65900 3.23400 44.75700
H  1.40300 3.19100 41.09800
H  -1.85800 -1.72200 43.01000
H  3.44800 -4.70200 45.22000
H  6.30500 2.78200 41.84000
H  4.13600 3.33100 40.08100
H  5.11900 4.59700 42.32300
H  3.33200 4.71600 42.44100
H  4.26700 5.33300 41.07800
H  5.22700 1.36200 39.44600
H  6.61400 0.68900 40.20300
H  7.99600 1.82600 39.06200
H  7.52900 3.30700 39.88500
H  -1.88200 2.78900 39.91600
H  -0.28100 3.33200 40.10100
H  -1.49700 3.62000 41.40100
H  -4.55500 -1.14200 40.83700
H  -3.77500 -1.23500 42.41700
H  -2.96600 -1.89800 40.91700
H  -1.06300 -4.30500 43.33900
H  0.80700 -5.04900 45.48000
H  -1.24500 -4.10900 46.25300
H  -2.49600 -3.85600 45.02700
H  -1.50200 -2.50700 45.47300
H  1.95300 -5.44200 42.86700
H  0.32000 -6.07300 42.80900
H  1.14100 -8.03300 43.57800
H  1.65600 -7.24000 45.11200
H  2.68100 -7.29900 43.74100
H  6.14100 -4.28400 46.46700
H  7.58400 -4.03100 45.36500
H  6.35400 -5.00700 44.76500
H  7.95600 0.18700 42.28300
H  7.69100 3.67100 45.00200
H  9.40000 3.95800 44.41600
H  8.94800 2.76500 45.69700
Mg 35.61200 0.82800 29.73500
C  33.42100 2.54400 31.97400
C  38.05600 1.20900 32.32900
C  37.90200 -0.17900 27.56600
C  33.25500 1.29900 27.32700
N  35.72300 1.71600 31.90400
C  34.63700 2.26900 32.55700
C  34.88900 2.34500 34.03900
C  36.46600 2.26400 34.10100
C  36.77200 1.62500 32.74900
C  37.25000 3.71600 34.31300
C  34.14300 1.11100 34.78600
C  33.67500 1.41700 36.24100
H  34.15400 2.65500 36.96700
N  37.69100 0.39100 29.95700
C  38.49100 0.63500 31.07800
C  39.86800 0.18000 30.78400
C  39.79200 -0.23600 29.41900
C  38.40700 -0.00000 28.94000
C  40.83900 0.02600 31.90100
C  40.81600 -0.79200 28.49200
O  40.61600 -1.12600 27.33900
C  42.08300 -1.16800 29.08600
N  35.57800 0.64800 27.73300
C  36.64500 0.14200 27.07500
C  36.35400 0.19300 25.54700
C  34.80000 0.47600 25.56600
C  34.48500 0.77700 26.96100
C  37.05600 1.28800 24.71700
C  33.95000 -0.66300 24.92500
C  32.85000 -0.14800 23.87400
N  33.67400 1.67000 29.64800
C  32.82400 1.72200 28.62300
C  31.49100 2.25300 29.01500
C  31.70300 2.66000 30.31000
C  33.02700 2.22400 30.63300
C  30.20900 2.16500 28.22200
C  31.07600 3.25000 31.46000
O  29.92200 3.64400 31.60900
C  32.20600 3.20900 32.63300
C  32.41500 4.61600 32.94700
O  33.24700 5.35400 32.52700
O  31.59200 4.89600 34.02400
C  31.68000 6.25400 34.60500
H  38.81500 1.27700 33.11100
H  38.60500 -0.50400 26.79600
H  32.58400 1.29100 26.46500
H  34.54900 3.33300 34.34900
H  36.82300 1.56900 34.86100
H  36.54200 4.47900 34.63300
H  37.61900 4.07300 33.35100
H  38.01400 3.67500 35.08900
H  34.76800 0.21800 34.75000
H  33.21500 0.84000 34.28100
H  33.94300 0.48800 36.74400
H  32.59100 1.52900 36.26900
H  41.64000 0.75600 32.01800
H  41.48900 -0.83000 31.72000
H  40.52100 -0.11800 32.93400
H  41.95900 -2.08200 29.66800
H  42.57700 -0.39200 29.67100
H  42.73500 -1.49300 28.27500
H  36.48500 -0.80700 25.13400
H  34.53100 1.39600 25.04800
H  37.90800 1.75400 25.21200
H  36.37300 2.12100 24.55200
H  37.27000 0.71200 23.81700
H  33.52500 -1.34200 25.66500
H  34.66300 -1.24200 24.33800
H  33.25900 -0.34000 22.88200
H  32.55700 0.89700 23.97000
H  31.87100 -0.57300 24.09500
H  30.38300 1.26200 27.63700
H  30.03100 3.03000 27.58300
H  29.36100 2.16500 28.90700
H  31.76400 2.59000 33.41400
H  32.13000 6.17800 35.59500
H  30.65900 6.63200 34.65500
H  32.33900 6.94100 34.07400

