158

Mg 17.31400 -0.52800 27.85300
C  16.10200 1.54000 30.48300
C  19.18700 -2.22300 30.11600
C  18.67100 -2.03900 25.20100
C  15.58100 1.70900 25.64000
N  17.56300 -0.37500 29.96200
C  16.98600 0.47900 30.82600
C  17.47100 0.23400 32.27500
C  18.51900 -0.86900 32.15900
C  18.37600 -1.23100 30.65900
C  19.98300 -0.54400 32.58900
C  16.38000 -0.21400 33.26300
C  16.39500 0.64700 34.54800
H  17.73800 1.04300 35.27400
N  18.73200 -2.03400 27.65200
C  19.34300 -2.62100 28.70700
C  20.02500 -3.78800 28.20700
C  19.94900 -3.73100 26.78800
C  19.18500 -2.52300 26.45100
C  20.90800 -4.75100 28.94600
C  20.65200 -4.55200 25.59700
O  20.49900 -4.31200 24.39000
C  21.44800 -5.76000 25.86800
N  17.31000 -0.00600 25.71300
C  17.96500 -0.87100 24.84500
C  17.48800 -0.60300 23.36900
C  16.43900 0.48100 23.54000
C  16.34000 0.67100 25.12000
C  18.56500 -0.12700 22.37100
C  15.13200 0.36300 22.70300
C  15.00800 1.41800 21.61400
N  16.09400 1.22200 27.99400
C  15.44400 2.03000 27.01600
C  14.61500 3.08500 27.61600
C  14.88300 2.88800 29.02000
C  15.69300 1.73400 29.16500
C  13.72700 4.23200 27.10300
C  14.64900 3.49600 30.39600
O  13.93700 4.42400 30.74100
C  15.43900 2.61600 31.39600
C  16.39500 3.55300 31.90600
O  17.46000 3.88300 31.44600
O  15.83800 4.04600 33.12400
C  16.69700 5.12700 33.67400
H  19.72600 -2.94300 30.73500
H  18.85300 -2.70500 24.35500
H  14.96600 2.25600 24.92300
H  17.96300 1.13100 32.65100
H  18.30700 -1.84900 32.58700
H  20.70100 -0.36500 31.78800
H  20.36500 -1.48500 32.98500
H  19.93900 0.29400 33.28400
H  16.53400 -1.24900 33.57000
H  15.42400 0.01500 32.79200
H  15.68600 0.30000 35.30000
H  15.92600 1.60300 34.31600
H  20.75600 -4.76200 30.02500
H  21.97100 -4.65600 28.72500
H  20.67700 -5.79100 28.72000
H  21.96900 -6.06800 24.96100
H  20.90700 -6.56100 26.37200
H  22.30100 -5.47800 26.48500
H  16.95100 -1.51700 23.11400
H  16.94000 1.40800 23.25900
H  19.52500 -0.03000 22.87900
H  18.29800 0.82700 21.91600
H  18.71300 -0.81000 21.53500
H  14.38300 0.37000 23.49400
H  15.15100 -0.58000 22.15600
H  14.57900 2.24500 22.18100
H  14.41700 1.11100 20.75200
H  15.96600 1.79700 21.25700
H  14.07400 4.67200 26.16800
H  13.66300 4.99300 27.88100
H  12.78900 3.68000 27.03900
H  14.69900 2.28800 32.12600
H  17.73100 4.78800 33.72300
H  16.46000 5.41800 34.69800
H  16.65100 5.97800 32.99500
Mg 42.35300 41.06300 26.18400
C  41.48600 43.37300 28.69100
C  43.62200 39.04600 28.71600
C  43.46200 38.95800 23.91500
C  41.30600 43.27100 23.85200
N  42.55100 41.34000 28.50900
C  42.10100 42.27700 29.31900
C  42.31700 41.94800 30.87200
C  43.05500 40.57300 30.75500
C  43.02700 40.23100 29.28400
C  44.54000 40.51000 31.31900
C  40.88500 41.82400 31.64200
C  40.59300 42.71900 32.85100
H  39.95800 41.98900 34.06200
N  43.51500 39.28400 26.26900
C  43.89200 38.62500 27.39600
C  44.54900 37.40800 27.02000
C  44.52600 37.34100 25.59900
C  43.86100 38.58100 25.19800
C  44.97800 36.44600 28.15700
C  45.09800 36.20600 24.71900
O  44.86800 36.11900 23.52100
C  45.74500 34.92900 25.29600
N  42.49100 41.16700 24.10300
C  42.84500 40.10500 23.35300
C  42.35700 40.28600 21.88100
C  41.82400 41.78500 21.84200
C  41.83500 42.05700 23.36000
C  43.42500 39.97200 20.75300
C  40.43000 41.81800 21.21300
C  40.17500 43.10200 20.38700
N  41.58000 43.01700 26.17700
C  41.19400 43.81800 25.10100
C  40.69400 45.04800 25.59600
C  40.83900 44.96100 26.92400
C  41.36100 43.63000 27.30700
C  40.14700 46.11800 24.66000
C  40.59200 45.62000 28.17900
O  40.10200 46.71600 28.36800
C  41.01700 44.64200 29.35500
C  42.06400 45.40100 30.14200
O  43.23500 45.55800 29.84200
O  41.46900 45.80100 31.23700
C  42.45600 46.34800 32.21800
H  44.00100 38.46200 29.55800
H  43.47700 38.22900 23.10200
H  40.85700 43.78100 22.99700
H  42.83600 42.82900 31.25000
H  42.47700 39.80300 31.26600
H  44.66200 41.41900 31.91000
H  45.28000 40.60100 30.52400
H  44.89300 39.66200 31.90600
H  40.79000 40.80400 32.01300
H  40.10500 41.98800 30.89800
H  39.91200 43.51100 32.53800
H  41.54300 43.15900 33.15400
H  45.58500 37.14800 28.72800
H  45.56200 35.56000 27.90500
H  44.05100 36.17200 28.66000
H  46.05800 34.27500 24.48200
H  44.94300 34.55800 25.93500
H  46.58800 35.32600 25.86100
H  41.54400 39.56800 21.76500
H  42.49600 42.53700 21.42900
H  44.40300 39.95900 21.23400
H  43.47200 40.65700 19.90600
H  43.18200 39.02200 20.27600
H  39.70500 41.68700 22.01700
H  40.31700 40.98000 20.52600
H  39.16100 43.47400 20.53100
H  40.30900 42.82500 19.34100
H  40.88700 43.88800 20.64000
H  39.39000 45.68700 24.00400
H  40.99300 46.44100 24.05300
H  39.73000 46.92100 25.26800
H  40.10300 44.56500 29.94300
H  42.86100 45.64700 32.94800
H  41.91700 47.10500 32.78800
H  43.26500 46.88800 31.72600

