158

Mg 42.76800 41.57500 26.90200
C  41.77700 43.71000 29.53100
C  43.76000 39.32300 29.29800
C  43.83600 39.49700 24.47000
C  41.98700 44.05300 24.60800
N  42.76500 41.51900 29.11800
C  42.11000 42.46100 29.97700
C  42.18200 41.98100 31.43800
C  42.93300 40.60000 31.29100
C  43.17300 40.47100 29.84900
C  44.33600 40.45700 32.08300
C  40.79700 41.87300 32.11200
C  40.58200 42.63900 33.51600
H  40.23400 41.88100 34.76600
N  43.68900 39.68700 26.88500
C  44.00000 38.95900 27.95000
C  44.67700 37.79300 27.55100
C  44.55300 37.74200 26.13800
C  43.97100 39.00800 25.75300
C  45.25800 36.73800 28.54400
C  44.90400 36.62200 25.15000
O  44.60400 36.60600 23.92000
C  45.43200 35.40100 25.68500
N  43.15500 41.81200 24.85900
C  43.46200 40.79600 24.09200
C  43.31200 41.15800 22.56900
C  42.62000 42.59900 22.59300
C  42.57700 42.84200 24.09000
C  44.67000 41.04700 21.75100
C  41.28700 42.49800 21.86900
C  40.70100 43.74600 21.29700
N  42.12400 43.55800 26.97100
C  41.85700 44.45000 25.97000
C  41.42600 45.68000 26.53400
C  41.44300 45.39000 27.94100
C  41.73000 44.07800 28.12700
C  41.02500 46.92500 25.74800
C  41.07000 46.02900 29.22400
O  40.62900 47.13700 29.40100
C  41.32700 44.98500 30.30900
C  42.24400 45.47200 31.36600
O  43.43700 45.65200 31.21100
O  41.58900 45.68800 32.56400
C  42.45500 45.97400 33.71000
H  43.98900 38.54100 30.02500
H  44.10200 38.85500 23.62700
H  41.71200 44.85500 23.92000
H  42.75500 42.69100 32.03400
H  42.36100 39.73000 31.61400
H  45.20200 40.29900 31.44000
H  44.23200 39.59800 32.74700
H  44.55000 41.17300 32.87600
H  40.40100 40.86100 32.19800
H  40.05200 42.37600 31.49500
H  39.73100 43.32000 33.54900
H  41.44000 43.22400 33.85000
H  44.71700 35.79300 28.58600
H  45.39300 37.10100 29.56300
H  46.27300 36.54800 28.19400
H  44.65600 35.17100 26.41400
H  46.38500 35.58700 26.18100
H  45.52500 34.55000 25.01000
H  42.52600 40.47600 22.24600
H  43.26600 43.32300 22.09800
H  44.51200 40.18900 21.09800
H  45.52700 40.88800 22.40500
H  44.96100 41.91400 21.15800
H  40.55300 42.23600 22.63200
H  41.26600 41.71700 21.10900
H  39.83500 44.12500 21.83900
H  40.41400 43.51400 20.27200
H  41.47600 44.50200 21.16600
H  41.82000 47.66600 25.83400
H  40.23200 47.40900 26.31900
H  40.61300 46.66400 24.77300
H  40.39500 44.82400 30.85100
H  43.41300 46.49300 33.66700
H  42.63500 45.07800 34.30500
H  41.99800 46.69300 34.39000
Mg -5.35400 24.61600 26.08000
C  -4.09100 26.05600 29.04900
C  -7.16600 22.45500 28.19000
C  -5.99800 22.76600 23.43500
C  -3.37200 26.77900 24.27100
N  -5.52600 24.33500 28.31700
C  -5.03300 25.10300 29.32900
C  -5.40100 24.66400 30.67100
C  -6.29900 23.35400 30.40300
C  -6.35100 23.38200 28.83700
C  -5.79500 21.96700 30.96500
C  -6.19300 25.81900 31.43300
C  -5.78200 25.99400 32.89200
H  -5.36200 24.76600 33.74400
N  -6.45200 22.86200 25.80400
C  -7.18700 22.19400 26.80000
C  -7.98100 21.15100 26.14400
C  -7.73000 21.27100 24.74500
C  -6.59700 22.28900 24.61600
C  -8.98500 20.29600 26.85700
C  -8.34200 20.49200 23.54700
O  -7.97900 20.67400 22.38300
C  -9.55400 19.53600 23.70700
N  -4.79600 24.88400 24.19200
C  -5.17700 23.88800 23.27600
C  -4.61800 24.25300 21.85700
C  -4.00200 25.62100 22.13800
C  -4.06700 25.79500 23.62200
C  -3.79400 23.12400 21.05000
C  -4.56600 26.79200 21.24600
C  -3.47200 27.35700 20.38500
N  -4.04300 26.26200 26.55400
C  -3.27000 26.96900 25.65700
C  -2.43200 27.94300 26.40900
C  -2.67500 27.59600 27.78400
C  -3.71600 26.56500 27.80900
C  -1.46400 28.98200 25.91700
C  -2.33600 27.84400 29.16400
O  -1.65700 28.71600 29.67600
C  -3.27400 26.81800 30.05700
C  -2.26000 26.00200 30.85500
O  -1.78900 24.97300 30.38000
O  -1.99500 26.56200 32.06400
C  -1.21000 25.83700 33.09800
H  -7.73200 21.82600 28.88000
H  -6.20800 22.18000 22.53800
H  -2.65600 27.31000 23.64000
H  -4.45500 24.46200 31.17300
H  -7.28900 23.47500 30.84300
H  -6.73700 21.53100 31.29900
H  -5.04300 21.90500 31.75200
H  -5.36200 21.24400 30.27400
H  -7.20600 25.41800 31.44100
H  -6.22900 26.79500 30.94900
H  -6.64500 26.44700 33.38000
H  -4.91700 26.65500 32.93900
H  -8.82900 19.26500 26.53700
H  -10.01500 20.65200 26.84700
H  -8.67700 20.22000 27.90000
H  -10.28800 20.12600 24.25500
H  -9.18700 18.70200 24.30500
H  -9.73700 19.11900 22.71700
H  -5.49800 24.56100 21.29300
H  -2.93300 25.43200 22.03100
H  -3.69000 22.30300 21.75900
H  -2.79000 23.38200 20.71400
H  -4.47500 22.91800 20.22400
H  -4.99000 27.57900 21.87000
H  -5.44300 26.58900 20.63000
H  -3.74700 27.34100 19.33000
H  -2.50600 26.88500 20.56000
H  -3.33400 28.39700 20.67800
H  -1.90300 29.97900 25.87800
H  -1.02400 28.62200 24.98700
H  -0.63700 29.07700 26.62100
H  -3.73100 27.51900 30.75400
H  -1.78600 25.86900 34.02300
H  -0.21000 26.23500 33.27100
H  -1.12500 24.75400 33.00400

