158

Mg 24.23200 -4.68900 45.62300
C  26.64000 -2.53100 43.89400
C  21.94800 -3.66900 43.25400
C  22.46400 -7.22800 46.53700
C  27.04600 -5.89900 47.56600
N  24.39500 -3.31700 43.72200
C  25.37700 -2.46000 43.36600
C  24.94900 -1.58300 42.15500
C  23.40900 -1.67600 42.16300
C  23.19700 -2.90800 43.10400
C  22.69800 -0.51100 42.74700
C  25.59200 -2.16000 40.77600
C  26.29400 -1.06300 39.94700
H  26.04800 -1.19500 38.37000
N  22.41300 -5.35600 45.03700
C  21.61600 -4.79100 44.04100
C  20.38900 -5.60300 43.84800
C  20.54400 -6.63200 44.84400
C  21.81400 -6.45100 45.53100
C  19.27300 -5.21100 42.82500
C  19.54300 -7.80400 44.98800
O  18.60000 -7.77400 44.27000
C  19.71800 -8.91000 46.05500
N  24.67100 -6.27600 47.07100
C  23.75400 -7.23200 47.15400
C  24.22400 -8.38300 48.10400
C  25.64500 -7.91900 48.52500
C  25.85700 -6.64200 47.59500
C  23.21700 -8.72500 49.27300
C  26.79500 -8.98300 48.48200
C  27.76400 -9.09200 49.67000
N  26.32700 -4.21900 45.79700
C  27.25200 -4.79500 46.67700
C  28.49800 -4.13800 46.41500
C  28.35900 -3.21900 45.30900
C  27.01600 -3.32200 44.96500
C  29.80700 -4.35400 47.21600
C  29.01000 -2.23900 44.43500
O  30.15000 -1.77200 44.41000
C  27.88500 -1.76800 43.44700
C  27.81900 -0.32500 43.66100
O  27.68300 0.26100 44.75200
O  28.10200 0.27100 42.50200
C  27.83600 1.75400 42.41300
H  21.21100 -3.46200 42.47500
H  21.95400 -8.15500 46.80300
H  27.88400 -6.33100 48.11600
H  25.26100 -0.55100 42.31000
H  23.05200 -1.85600 41.14900
H  21.62300 -0.58400 42.58000
H  23.12300 0.35000 42.23200
H  22.73300 -0.53100 43.83600
H  24.75000 -2.43500 40.14100
H  26.25000 -2.99300 41.02000
H  27.35600 -1.08600 40.18900
H  26.08200 -0.06900 40.33900
H  19.67500 -5.37000 41.82400
H  18.98100 -4.17000 42.95600
H  18.42800 -5.89900 42.85300
H  19.77500 -8.43600 47.03500
H  20.66200 -9.36200 45.74900
H  18.82700 -9.53800 46.07900
H  24.41100 -9.25700 47.47900
H  25.58100 -7.47800 49.52000
H  23.72400 -8.54800 50.22100
H  22.93600 -9.77800 49.23200
H  22.29600 -8.14300 49.23500
H  27.37400 -8.69400 47.60500
H  26.24700 -9.91300 48.33300
H  28.73000 -8.97700 49.17800
H  27.60900 -10.02800 50.20600
H  27.60000 -8.31700 50.41900
H  30.49300 -3.54600 46.96000
H  30.32000 -5.27400 46.93200
H  29.67500 -4.34300 48.29700
H  28.14000 -1.94100 42.40200
H  26.84000 1.96400 42.80400
H  27.80100 2.01300 41.35500
H  28.61800 2.19100 43.03400
Mg 26.64500 50.09700 26.91600
C  24.43100 51.38100 29.17700
C  28.85200 49.30800 29.33200
C  28.58500 48.88300 24.48700
C  24.48100 51.45000 24.39500
N  26.60900 50.33000 29.04600
C  25.51500 50.72700 29.80200
C  25.82600 50.49900 31.30700
C  27.36000 50.06100 31.31000
C  27.68000 50.03600 29.81000
C  28.32600 50.83100 32.22000
C  24.76100 49.51700 31.97200
C  24.24500 49.89300 33.34800
H  24.12000 48.80200 34.38200
N  28.46600 49.10100 26.93500
C  29.27000 48.89300 28.06300
C  30.44900 48.19000 27.65200
C  30.24600 47.92100 26.22500
C  29.07500 48.65700 25.80900
C  31.63100 47.92700 28.66300
C  31.17900 47.10100 25.30800
O  31.02200 47.03100 24.12400
C  32.34500 46.30400 26.02400
N  26.58200 50.26900 24.69700
C  27.53000 49.60200 23.96100
C  27.23900 49.70800 22.40500
C  25.76100 50.36000 22.45800
C  25.54200 50.69500 23.92700
C  28.32800 50.46300 21.55900
C  24.69600 49.46600 21.77900
C  23.69400 48.65900 22.61600
N  24.84100 51.38200 26.76100
C  24.09300 51.85700 25.69400
C  22.83100 52.49500 26.15400
C  22.97200 52.37400 27.55700
C  24.10800 51.64000 27.80400
C  21.75200 53.14600 25.36300
C  22.31800 52.66000 28.83600
O  21.25100 53.29300 29.00000
C  23.31400 52.11100 29.97100
C  23.83000 53.32800 30.69500
O  24.89900 53.86200 30.59400
O  22.94800 53.63200 31.68500
C  23.42100 54.68100 32.66800
H  29.49900 48.87000 30.09600
H  29.10500 48.39600 23.65900
H  23.81000 51.81900 23.61700
H  25.72900 51.46300 31.80500
H  27.36700 49.06900 31.76300
H  29.17100 51.19200 31.63400
H  28.60400 50.22900 33.08400
H  27.97800 51.69800 32.78100
H  25.16500 48.50700 31.90200
H  23.90000 49.61600 31.31200
H  23.27300 50.36800 33.22100
H  24.87900 50.69800 33.71800
H  32.44000 47.23800 28.42100
H  31.20500 47.66400 29.63100
H  32.07700 48.89500 28.88800
H  31.92300 45.73500 26.85300
H  33.02200 47.05400 26.43400
H  32.79100 45.57300 25.35100
H  27.27700 48.69800 21.99600
H  25.81300 51.30100 21.91000
H  29.05200 50.78600 22.30800
H  27.92800 51.33600 21.04300
H  28.93300 49.84900 20.89200
H  25.10000 48.85200 20.97400
H  24.06000 50.22100 21.31700
H  22.81900 49.30000 22.51300
H  24.01200 48.60300 23.65700
H  23.57100 47.66500 22.18700
H  21.20300 52.31200 24.92600
H  22.30200 53.76600 24.65500
H  21.15500 53.72800 26.06500
H  22.66000 51.52000 30.61200
H  23.93800 55.46700 32.11700
H  24.27400 54.39300 33.28300
H  22.64500 55.00100 33.36300

