158

Mg 35.84300 50.04900 25.56400
C  35.48600 48.49800 28.63000
C  35.12900 53.13000 27.04700
C  35.49800 51.64000 22.46400
C  36.39000 47.07400 23.97700
N  35.18200 50.63900 27.52400
C  35.20800 49.88600 28.67500
C  35.05800 50.66900 29.99800
C  34.90600 52.10600 29.43400
C  35.08400 51.97000 27.90600
C  33.53800 52.81100 29.90200
C  36.16300 50.54400 31.14400
C  35.72600 49.92600 32.44000
H  34.29600 50.21200 33.11500
N  35.39500 52.15300 24.88100
C  35.16200 53.21900 25.64700
C  34.86600 54.36900 24.84700
C  34.94800 53.94800 23.52300
C  35.28100 52.58900 23.56800
C  34.51800 55.76500 25.32900
C  34.84900 54.74100 22.18500
O  34.91100 54.16700 21.09800
C  34.84000 56.22400 22.23400
N  35.81900 49.36900 23.46100
C  35.74600 50.26200 22.40800
C  36.04800 49.57100 21.06000
C  36.40200 48.07700 21.57400
C  36.19700 48.16100 23.11200
C  34.77500 49.54900 20.09500
C  37.80800 47.53700 21.03400
C  38.95000 48.03200 21.96900
N  35.87900 48.14600 26.17700
C  36.24200 47.09700 25.40300
C  36.31500 45.93000 26.33500
C  35.93800 46.43500 27.62900
C  35.74300 47.78300 27.43200
C  36.79500 44.58500 25.93800
C  35.88800 46.11400 29.01700
O  36.02400 45.02400 29.69900
C  35.56200 47.46100 29.75400
C  34.24100 47.10000 30.34400
O  33.20000 47.61900 29.96800
O  34.34900 46.38600 31.54500
C  33.17100 46.02400 32.28100
H  34.94400 54.03100 27.63500
H  35.47700 51.96300 21.42100
H  36.76400 46.14300 23.54700
H  34.10500 50.37600 30.43700
H  35.76000 52.69300 29.77000
H  33.78900 53.85800 30.07300
H  33.10100 52.38100 30.80200
H  32.78200 52.76100 29.11800
H  36.73700 51.46700 31.22600
H  36.85500 49.82400 30.71000
H  36.36200 50.38900 33.19500
H  36.01100 48.87500 32.40900
H  34.35800 55.78500 26.40700
H  33.66900 56.15600 24.76800
H  35.54300 56.12400 25.24000
H  35.46800 56.65300 23.01400
H  33.87600 56.67300 22.47200
H  35.23000 56.48800 21.25100
H  36.92300 49.97900 20.55200
H  35.62300 47.38500 21.25400
H  33.98900 50.24000 20.40000
H  34.22900 48.60900 20.17100
H  35.02900 49.80600 19.06600
H  38.06700 47.79700 20.00800
H  37.70300 46.46800 21.22100
H  39.23300 47.19200 22.60400
H  38.59200 48.74400 22.71300
H  39.70600 48.64100 21.47400
H  36.01800 43.99300 25.45300
H  37.09600 44.12400 26.87900
H  37.63700 44.59100 25.24600
H  36.44400 47.49700 30.39400
H  32.87300 45.00400 32.03700
H  32.33300 46.66800 32.01100
H  33.45700 45.98500 33.33200
Mg -5.52900 24.73900 26.77600
C  -3.73800 26.17500 29.33200
C  -6.88800 22.60200 29.21600
C  -7.36200 23.25000 24.37800
C  -3.77500 26.52700 24.44400
N  -5.25200 24.41600 28.88000
C  -4.67900 25.27400 29.76100
C  -5.00100 24.99600 31.19000
C  -5.70600 23.63600 31.14000
C  -5.97600 23.52800 29.64700
C  -5.07600 22.42400 31.87000
C  -5.82300 26.20900 31.77000
C  -5.52800 26.74600 33.23100
H  -4.78100 25.87300 34.25300
N  -6.86800 23.15200 26.75600
C  -7.35100 22.41500 27.88400
C  -8.31600 21.38300 27.44900
C  -8.43300 21.45000 26.03800
C  -7.50300 22.66100 25.64300
C  -8.98600 20.39300 28.39700
C  -9.21200 20.56600 25.02400
O  -8.98900 20.66500 23.81900
C  -10.11600 19.53700 25.57900
N  -5.59000 24.90000 24.74700
C  -6.48300 24.24800 23.99300
C  -6.21100 24.52300 22.48100
C  -4.95700 25.48600 22.43700
C  -4.72400 25.65600 23.92800
C  -6.08700 23.26500 21.60200
C  -5.10500 26.76700 21.62800
C  -3.97400 27.07000 20.55200
N  -4.02300 26.10500 26.77300
C  -3.40100 26.74700 25.80900
C  -2.45700 27.72900 26.37100
C  -2.59600 27.59500 27.75900
C  -3.50200 26.48500 27.97600
C  -1.57900 28.83500 25.59000
C  -2.15900 28.05200 29.05800
O  -1.41500 28.95400 29.38100
C  -2.86700 27.14400 30.11000
C  -1.79500 26.43100 30.79700
O  -0.95100 25.73000 30.21800
O  -1.79600 26.76600 32.16200
C  -0.71600 26.08200 32.93300
H  -7.31900 22.10800 30.08900
H  -7.98200 22.84000 23.57800
H  -3.20300 27.06200 23.68300
H  -4.09700 24.96500 31.79800
H  -6.68000 23.82000 31.59300
H  -5.76900 21.90800 32.53500
H  -4.29700 22.81300 32.52600
H  -4.59300 21.82900 31.09500
H  -6.90900 26.14700 31.70900
H  -5.56900 27.08200 31.16700
H  -6.47300 27.12000 33.62400
H  -4.94000 27.64600 33.05000
H  -10.02400 20.69000 28.54700
H  -8.51900 20.26800 29.37500
H  -9.03100 19.37900 28.00000
H  -9.68200 18.65000 26.04200
H  -10.95100 19.30100 24.91900
H  -10.78500 19.90600 26.35600
H  -7.10800 25.07600 22.20300
H  -4.15700 24.84900 22.06000
H  -7.07500 23.17300 21.15000
H  -5.86700 22.39900 22.22700
H  -5.36700 23.44600 20.80400
H  -5.13000 27.60500 22.32400
H  -6.10100 26.64500 21.20300
H  -4.37400 27.09800 19.53800
H  -3.04000 26.51500 20.63700
H  -3.74200 28.13000 20.66000
H  -1.86000 29.86100 25.83000
H  -1.70400 28.63300 24.52600
H  -0.51500 28.67400 25.76400
H  -3.39700 27.69100 30.89000
H  -0.44200 25.13200 32.47300
H  -1.11000 25.86300 33.92600
H  0.12900 26.74500 33.11800

