158

Mg 39.91500 9.05200 29.53400
C  41.68700 10.57300 32.02100
C  37.57400 8.06100 31.72800
C  38.37700 7.22800 26.95100
C  42.74300 9.42700 27.40600
N  39.77300 9.26500 31.69000
C  40.50400 9.99600 32.53700
C  39.88500 10.16000 33.97100
C  38.65800 9.24900 33.80700
C  38.65200 8.85600 32.30200
C  38.63300 7.95200 34.78800
C  39.50900 11.63000 34.42700
C  38.41500 11.82000 35.52600
H  38.81900 12.68600 36.63400
N  38.04800 8.00500 29.29400
C  37.27600 7.63600 30.37800
C  36.07800 6.99100 29.89200
C  36.21000 6.90300 28.50600
C  37.55500 7.40500 28.14900
C  34.99500 6.49000 30.78100
C  35.24700 6.28100 27.49600
O  35.49800 6.16100 26.33500
C  33.89500 5.73100 27.86800
N  40.58400 8.23500 27.56900
C  39.77900 7.54400 26.73100
C  40.41900 7.42000 25.31500
C  41.78500 8.07200 25.49300
C  41.70200 8.68800 26.90700
C  40.52500 5.94500 24.73900
C  42.11400 9.16000 24.41400
C  41.32400 10.50800 24.60200
N  41.81300 9.87500 29.65100
C  42.78600 10.05700 28.69600
C  43.84000 10.87100 29.23400
C  43.50400 11.09900 30.51400
C  42.19800 10.48600 30.75200
C  45.04700 11.28700 28.52000
C  43.90900 11.61500 31.72500
O  44.93600 12.25400 31.97500
C  42.74800 11.33000 32.73100
C  43.30700 10.52400 33.90800
O  43.86200 9.42800 33.81000
O  42.99900 11.13000 35.09200
C  42.98600 10.27800 36.24600
H  36.89000 7.80900 32.54200
H  37.88900 6.72300 26.11500
H  43.50400 9.63700 26.65100
H  40.58300 9.79400 34.72400
H  37.74700 9.78500 34.07100
H  38.67600 7.00800 34.24600
H  37.79700 7.90900 35.48600
H  39.55400 7.96900 35.37000
H  39.06700 12.11900 33.55900
H  40.33700 12.30300 34.65300
H  38.23400 10.85500 35.99900
H  37.49500 12.12900 35.03000
H  34.02300 6.80700 30.40300
H  35.12200 6.93700 31.76700
H  35.10600 5.40800 30.85600
H  34.02000 4.87900 28.53600
H  33.41000 5.28900 26.99800
H  33.18400 6.44700 28.27900
H  39.89900 8.04000 24.58500
H  42.59500 7.35900 25.64600
H  40.18600 5.23400 25.49200
H  41.59400 5.90900 24.53000
H  40.00200 5.85000 23.78700
H  41.85400 8.63600 23.49400
H  43.18700 9.35000 24.42100
H  40.85700 10.79500 23.65900
H  41.95900 11.30400 24.99200
H  40.57300 10.45300 25.38900
H  45.07600 12.37600 28.48100
H  45.13400 10.95000 27.48800
H  45.93100 10.95100 29.06200
H  42.35400 12.30000 33.03300
H  43.17800 10.90000 37.11900
H  43.85600 9.65000 36.43900
H  42.07900 9.67300 36.22800
Mg 49.35200 44.90700 42.67600
C  45.91200 45.08200 42.35300
C  49.08600 41.48700 42.17300
C  52.70500 44.72000 42.14000
C  49.43500 48.28500 42.93400
N  47.60000 43.42200 42.06000
C  46.30200 43.77300 42.19500
C  45.47100 42.47000 42.13700
C  46.57300 41.33500 42.42100
C  47.82800 42.10900 42.25300
C  46.41900 40.53900 43.77000
C  44.62700 42.30800 40.78600
C  44.61800 43.32700 39.64800
H  44.65100 42.66900 38.26700
N  50.77200 43.30800 42.28700
C  50.45600 42.04400 42.19400
C  51.68500 41.21200 42.28600
C  52.76700 42.07300 42.25600
C  52.13800 43.41700 42.23900
C  51.80200 39.69100 42.25000
C  54.27800 41.75300 42.14900
O  54.62500 40.59300 42.08500
C  55.37500 42.79300 42.26700
N  50.78300 46.31200 42.33300
C  52.10300 45.99000 42.16200
C  52.88500 47.29100 41.89500
C  51.93400 48.45000 42.33000
C  50.63300 47.64300 42.53800
C  54.23600 47.32700 42.60400
C  51.84000 49.63900 41.34200
C  52.17300 51.12600 41.83100
N  48.01600 46.44600 42.70400
C  48.16800 47.75500 42.90600
C  46.87800 48.39900 42.94500
C  45.97400 47.37500 42.69300
C  46.71100 46.21400 42.56800
C  46.49000 49.85700 43.12300
C  44.55200 47.09800 42.46300
O  43.57900 47.80300 42.38100
C  44.55600 45.65500 42.11800
C  43.43900 44.98600 42.77000
O  42.58700 44.36100 42.15000
O  43.33800 45.30900 44.13900
C  42.07800 45.00200 44.87100
H  49.05800 40.40300 42.29900
H  53.78700 44.66100 42.01200
H  49.47800 49.33900 43.21600
H  44.79800 42.40400 42.99200
H  46.66400 40.60600 41.61500
H  47.32100 40.32200 44.34300
H  45.79400 39.67000 43.56300
H  45.82900 41.09200 44.50100
H  43.60600 42.22800 41.16000
H  44.73200 41.31800 40.34200
H  45.31300 44.16600 39.68700
H  43.61900 43.76200 39.61100
H  52.29100 39.41400 41.31600
H  50.75800 39.39900 42.36500
H  52.45400 39.34700 43.05300
H  56.25100 42.22000 42.57100
H  55.03800 43.50800 43.01700
H  55.56700 43.17400 41.26400
H  53.02800 47.43400 40.82400
H  52.23900 48.89200 43.27800
H  54.15500 46.68500 43.48000
H  54.41600 48.36300 42.89300
H  55.02300 47.05000 41.90200
H  50.86600 49.59400 40.85300
H  52.43900 49.44800 40.45200
H  52.27000 51.21500 42.91300
H  51.24000 51.63200 41.58200
H  53.00100 51.56300 41.27300
H  45.97800 50.05500 42.18200
H  47.30900 50.57300 43.19500
H  45.92100 49.84800 44.05300
H  44.38400 45.59800 41.04300
H  41.30700 44.52700 44.26400
H  41.58200 45.80600 45.41600
H  42.43600 44.29900 45.62300

