158

Mg 15.78300 -1.87200 27.38400
C  14.80000 0.21800 30.37400
C  17.87300 -3.57700 29.48200
C  16.96300 -3.30700 24.75000
C  13.88900 0.37900 25.52000
N  16.32100 -1.60500 29.69100
C  15.75700 -0.80400 30.68000
C  16.32800 -1.23900 32.00700
C  17.19100 -2.50900 31.72200
C  17.11600 -2.58600 30.21700
C  18.64800 -2.40600 32.32900
C  15.30100 -1.59200 33.12000
C  15.53800 -0.83300 34.49200
H  16.86800 -0.28000 34.94700
N  17.23600 -3.36800 27.12600
C  17.98700 -3.93500 28.06300
C  18.83400 -4.92200 27.48100
C  18.50900 -4.89200 26.09300
C  17.54100 -3.81000 25.89100
C  19.80000 -5.84800 28.24900
C  19.12900 -5.66400 25.00700
O  18.82800 -5.53600 23.81800
C  20.09600 -6.78100 25.28100
N  15.32400 -1.59600 25.39200
C  15.99900 -2.31100 24.44500
C  15.61100 -1.75300 23.05600
C  14.39700 -0.79600 23.30300
C  14.44200 -0.70600 24.82700
C  16.81700 -1.08200 22.33800
C  13.08900 -1.41600 22.87900
C  12.81500 -1.23200 21.37600
N  14.69200 -0.07300 27.76700
C  14.01600 0.64300 26.87500
C  13.34500 1.75200 27.53600
C  13.59500 1.63200 28.89200
C  14.36300 0.47500 29.03800
C  12.64100 2.88800 26.85400
C  13.34000 2.28400 30.22500
O  12.97600 3.39100 30.57200
C  14.10900 1.34100 31.24200
C  15.00400 2.22700 32.04300
O  15.99000 2.77000 31.59900
O  14.49800 2.50500 33.23100
C  15.20000 3.39800 34.13300
H  18.44300 -4.18100 30.19100
H  17.37900 -3.65900 23.80400
H  13.25300 1.05800 24.94900
H  16.96300 -0.45900 32.42600
H  16.59700 -3.37900 32.00500
H  18.71100 -1.47200 32.88700
H  19.39700 -2.40800 31.53700
H  18.67900 -3.35700 32.86100
H  15.33000 -2.66600 33.30600
H  14.31200 -1.33000 32.74600
H  15.15900 -1.43200 35.32000
H  14.96400 0.06800 34.27400
H  20.77100 -5.37600 28.40100
H  19.91000 -6.88900 27.94300
H  19.40700 -5.90000 29.26400
H  21.02200 -6.32800 25.63500
H  20.27600 -7.42700 24.42100
H  19.64400 -7.38600 26.06700
H  15.21500 -2.50700 22.37600
H  14.58300 0.23100 22.98800
H  16.77100 -0.02800 22.61200
H  16.76000 -1.23800 21.26100
H  17.79000 -1.47000 22.64000
H  12.25500 -0.95600 23.40900
H  12.93300 -2.43000 23.24700
H  13.76800 -0.91200 20.95400
H  12.17300 -0.37400 21.17700
H  12.39800 -2.08300 20.83900
H  13.30100 3.45400 26.19600
H  12.25400 3.55300 27.62600
H  11.81500 2.54400 26.23100
H  13.41800 0.91200 31.96700
H  15.04200 4.45400 33.91500
H  16.24500 3.11100 34.25600
H  14.72200 3.28700 35.10600
Mg 24.57800 1.90900 29.24200
C  26.86900 1.52600 31.82900
C  22.16000 1.95900 31.55100
C  22.50900 1.95000 26.70000
C  27.30000 1.08200 26.97800
N  24.51300 1.76600 31.52700
C  25.55800 1.83300 32.33700
C  25.18600 2.22200 33.73700
C  23.60000 1.94300 33.70900
C  23.40300 1.91700 32.19300
C  23.11600 0.62100 34.35300
C  25.67300 3.64900 34.35100
C  26.36500 3.68700 35.71600
H  25.85700 4.63700 36.84100
N  22.60800 1.91700 29.15000
C  21.75000 1.99400 30.21500
C  20.38100 1.88400 29.73400
C  20.43100 1.85600 28.28000
C  21.91000 1.89700 27.97000
C  19.17400 1.88300 30.72600
C  19.30900 1.80200 27.22000
O  19.48800 2.01600 26.02500
C  17.91900 1.55900 27.70200
N  24.90500 1.52000 27.07800
C  23.86200 1.93200 26.31300
C  24.37100 1.96000 24.83300
C  25.89100 1.80800 24.94700
C  26.05500 1.46000 26.41600
C  23.71300 0.83500 24.00800
C  26.85300 2.97200 24.37000
C  26.38800 4.38100 24.65400
N  26.69600 1.40300 29.37100
C  27.63300 1.03600 28.36600
C  28.90100 0.82600 28.98400
C  28.68300 1.03200 30.38400
C  27.32100 1.32500 30.53800
C  30.23000 0.73200 28.24000
C  29.34700 1.10300 31.65800
O  30.49300 0.89100 32.04800
C  28.22200 1.50400 32.63400
C  28.16000 0.39800 33.73900
O  27.50200 -0.62700 33.63800
O  28.81300 0.77900 34.87400
C  28.67400 -0.16000 36.00800
H  21.34000 1.99400 32.27100
H  21.87400 2.25100 25.86500
H  28.16900 0.91800 26.33800
H  25.57800 1.41600 34.35700
H  22.88600 2.62200 34.17600
H  22.16300 0.44400 33.85500
H  22.90300 0.74600 35.41400
H  23.73900 -0.22300 34.05500
H  24.73000 4.18000 34.47900
H  26.28800 4.13500 33.59400
H  27.36000 4.06500 35.48100
H  26.50000 2.65400 36.03700
H  18.38800 1.17700 30.45600
H  18.66200 2.84500 30.69600
H  19.49500 1.60700 31.73000
H  17.15200 1.70200 26.94100
H  17.61600 2.16200 28.55800
H  17.80200 0.49500 27.90700
H  23.98900 2.87500 24.38100
H  26.11400 0.83600 24.50800
H  22.76500 0.50300 24.43300
H  24.31500 -0.03700 23.75500
H  23.38500 1.35100 23.10600
H  26.97800 2.82900 23.29700
H  27.76600 2.75500 24.92600
H  25.46600 4.38100 25.23500
H  26.08900 4.73900 23.66900
H  27.15500 4.97100 25.15600
H  30.09600 1.13100 27.23400
H  30.32500 -0.34700 28.12100
H  31.07900 1.11300 28.80700
H  28.44700 2.48300 33.05800
H  27.75800 0.20000 36.47700
H  29.52000 0.14300 36.62400
H  28.61200 -1.23000 35.80800

