158

Mg 43.10400 42.14200 26.97900
C  41.77900 44.37500 29.26100
C  44.41200 40.25900 29.39200
C  44.16100 40.03900 24.50000
C  42.11900 44.42300 24.32900
N  43.15300 42.36900 29.07900
C  42.34700 43.22500 29.82500
C  42.46800 42.90300 31.31800
C  43.59200 41.82700 31.33500
C  43.72000 41.39600 29.83500
C  44.89000 42.30000 32.01500
C  41.10500 42.47400 31.91400
C  40.70000 42.84500 33.37600
H  41.74000 43.33000 34.32900
N  44.11400 40.39100 26.95700
C  44.61700 39.74600 28.08000
C  45.22400 38.53900 27.65500
C  44.92500 38.33300 26.30100
C  44.45400 39.63600 25.82800
C  45.83400 37.56800 28.61800
C  45.17400 37.11800 25.37700
O  44.99400 37.15900 24.14300
C  45.57400 35.86900 26.00400
N  43.18000 42.24500 24.70400
C  43.59200 41.20000 24.00300
C  43.47600 41.38300 22.48400
C  42.80500 42.83000 22.42900
C  42.68600 43.20800 23.91600
C  44.78900 41.26300 21.66400
C  41.38400 42.74000 21.72400
C  40.33500 41.77100 22.21800
N  42.16400 43.94500 26.77000
C  41.89800 44.84500 25.69600
C  41.24600 46.05600 26.16300
C  41.19100 45.84500 27.56600
C  41.74400 44.57200 27.86500
C  40.75800 47.20600 25.30400
C  40.75600 46.49800 28.78900
O  40.27500 47.59600 28.91100
C  41.03100 45.54900 29.90200
C  41.80500 46.24000 30.92900
O  42.92700 46.71000 30.80300
O  40.95500 46.45200 31.93800
C  41.44800 47.24600 33.03800
H  44.80800 39.68300 30.23100
H  44.32400 39.32700 23.68900
H  41.78900 45.05400 23.50100
H  42.78100 43.78600 31.87500
H  43.27700 40.94200 31.88700
H  45.09000 41.72300 32.91900
H  44.81900 43.36700 32.22500
H  45.67400 42.13500 31.27700
H  41.01400 41.38900 31.87500
H  40.37300 42.80000 31.17500
H  40.31900 41.92900 33.82700
H  39.96300 43.64300 33.28800
H  45.73200 37.92000 29.64400
H  46.88300 37.44000 28.34800
H  45.36700 36.58700 28.53100
H  45.64900 35.04100 25.29900
H  44.82000 35.60200 26.74400
H  46.60600 35.87300 26.35600
H  42.77300 40.70800 21.99400
H  43.49400 43.49600 21.91000
H  44.82000 41.97900 20.84300
H  44.87900 40.23300 21.31600
H  45.73600 41.39000 22.18800
H  41.64200 42.56900 20.67900
H  40.89200 43.71000 21.65200
H  40.80500 41.28800 23.07500
H  40.10000 41.11300 21.38200
H  39.44800 42.32500 22.52500
H  40.22200 46.97400 24.38300
H  41.61700 47.84500 25.10100
H  40.12900 47.75200 26.00800
H  40.09600 45.11900 30.26100
H  41.94300 46.67000 33.81900
H  40.63900 47.85500 33.44200
H  42.12100 48.04700 32.73000
Mg 1.45000 42.13700 26.18000
C  3.52400 42.19000 28.90900
C  -1.13400 41.48700 28.37100
C  -0.56100 41.31800 23.48500
C  4.08400 42.66600 24.12600
N  1.25700 41.85300 28.36100
C  2.22200 42.10100 29.29100
C  1.63300 42.18000 30.67100
C  0.17100 41.57600 30.54400
C  0.05400 41.67800 29.00200
C  -0.02100 40.17900 31.16400
C  1.63800 43.60500 31.22300
C  1.26400 43.73500 32.69400
H  1.19000 42.52900 33.66500
N  -0.45500 41.54200 25.95800
C  -1.36200 41.34500 27.00100
C  -2.64200 40.82400 26.55700
C  -2.40300 40.53300 25.16400
C  -1.08700 41.14100 24.78500
C  -3.71800 40.48400 27.51600
C  -3.19400 39.65300 24.20500
O  -2.76500 39.43700 23.06400
C  -4.41900 38.91100 24.69500
N  1.73100 41.96100 24.05000
C  0.77400 41.66200 23.19100
C  1.41600 41.67800 21.66600
C  2.74400 42.44200 21.97900
C  2.87200 42.40700 23.47300
C  1.28800 40.38200 20.95600
C  2.81200 43.93500 21.57300
C  4.12800 44.37500 20.88700
N  3.44000 42.23800 26.34500
C  4.43800 42.46000 25.40900
C  5.67700 42.52500 26.03500
C  5.35300 42.38800 27.44200
C  4.00600 42.23600 27.56800
C  6.95900 42.85000 25.46600
C  5.92000 42.39100 28.81500
O  7.07900 42.35000 29.17700
C  4.75000 42.35300 29.73100
C  4.88500 41.10300 30.51400
O  4.99700 39.96100 30.10700
O  4.93700 41.42400 31.90100
C  4.98700 40.29700 32.76500
H  -1.94700 41.24000 29.05600
H  -1.18400 40.97600 22.65600
H  4.89600 42.99200 23.47200
H  2.35900 41.60300 31.24400
H  -0.61000 42.18000 31.00500
H  -0.46600 40.46400 32.11800
H  0.96000 39.72900 31.31600
H  -0.50200 39.48200 30.47800
H  0.86700 44.16400 30.69300
H  2.55000 44.15000 30.98000
H  0.28700 44.21500 32.65700
H  2.06800 44.29900 33.16800
H  -4.70400 40.47500 27.05200
H  -3.79100 41.24100 28.29800
H  -3.52900 39.51500 27.97900
H  -4.11100 38.30600 25.54800
H  -4.80700 38.25600 23.91500
H  -5.12800 39.66000 25.04600
H  0.80500 42.34900 21.06300
H  3.65600 41.96000 21.62600
H  0.82500 39.69200 21.66200
H  2.21400 39.98800 20.53800
H  0.85400 40.57200 19.97400
H  2.81100 44.60500 22.43400
H  2.01000 44.13300 20.86200
H  4.69100 43.60100 20.36500
H  4.87100 44.80200 21.56100
H  3.87000 45.11600 20.13200
H  7.18000 42.03600 24.77700
H  7.72000 42.86500 26.24600
H  6.94600 43.82000 24.96800
H  4.81000 43.18000 30.43800
H  5.73900 39.56900 32.46100
H  4.04000 39.79100 32.57700
H  4.96300 40.52100 33.83200

