158

Mg -2.20500 17.33600 25.98900
C  -2.61400 15.11200 28.58300
C  -2.77300 19.90900 28.09700
C  -2.02800 19.50100 23.29900
C  -1.84800 14.63600 23.80500
N  -2.64000 17.50900 28.08100
C  -2.77600 16.47900 28.96400
C  -3.27900 16.94100 30.35000
C  -3.21500 18.50700 30.16300
C  -2.89000 18.67300 28.68100
C  -4.46900 19.37900 30.61300
C  -2.47500 16.51900 31.58500
C  -2.60100 17.40700 32.85300
H  -2.70200 16.50800 34.10700
N  -2.34100 19.44900 25.75500
C  -2.64700 20.31000 26.74800
C  -2.55400 21.68900 26.28700
C  -2.09300 21.52800 24.92600
C  -2.18200 20.14600 24.64300
C  -2.87800 22.86500 27.19500
C  -1.67400 22.62300 24.00000
O  -1.32800 22.53000 22.82600
C  -1.58400 24.03600 24.49100
N  -2.16800 17.07300 23.80200
C  -2.00500 18.14600 22.94100
C  -1.86400 17.73400 21.50600
C  -1.59900 16.13300 21.69500
C  -1.83200 15.92600 23.22900
C  -3.05800 18.04200 20.59200
C  -0.20000 15.68700 21.23200
C  0.93400 15.75800 22.24200
N  -2.31200 15.27500 26.08900
C  -2.13200 14.28800 25.14400
C  -2.08600 13.02500 25.74300
C  -2.28800 13.25500 27.10800
C  -2.44300 14.65800 27.27800
C  -1.68900 11.69900 25.06700
C  -2.40500 12.62000 28.47100
O  -2.33300 11.45800 28.81000
C  -2.55200 13.84600 29.45300
C  -1.30600 13.85600 30.21800
O  -0.44300 14.72200 30.04600
O  -1.24400 12.81600 31.10100
C  -0.16700 12.89200 32.10800
H  -2.95100 20.66000 28.86900
H  -1.88100 20.21800 22.48800
H  -1.53800 13.86400 23.09700
H  -4.25500 16.53700 30.61900
H  -2.36300 18.91400 30.70700
H  -5.09600 19.59500 29.74800
H  -4.01300 20.27800 31.02600
H  -5.04800 18.85100 31.37000
H  -1.40800 16.43100 31.38100
H  -2.81200 15.49000 31.71200
H  -3.59600 17.85200 32.88600
H  -1.81700 18.16100 32.77200
H  -3.42000 23.61000 26.61200
H  -1.91500 23.20700 27.57600
H  -3.43900 22.63100 28.09900
H  -2.52100 24.59000 24.55400
H  -1.02300 24.62900 23.76900
H  -1.08800 23.93100 25.45600
H  -0.95000 18.21000 21.15100
H  -2.34500 15.46800 21.25900
H  -3.38600 17.11700 20.11800
H  -2.68300 18.67200 19.78400
H  -3.88400 18.50400 21.13300
H  0.15900 16.44200 20.53300
H  -0.25000 14.73900 20.69600
H  0.65200 16.20800 23.19400
H  1.87800 16.09400 21.81200
H  1.13400 14.72100 22.51300
H  -1.20100 11.80300 24.09800
H  -2.51100 11.04400 24.77800
H  -0.97600 11.27500 25.77500
H  -3.33700 13.79900 30.20900
H  -0.30900 13.71800 32.80500
H  0.74900 13.08800 31.55000
H  0.06800 12.00100 32.69000
Mg 46.75200 24.96200 28.19200
C  47.47500 27.34400 30.72300
C  46.00900 22.76000 30.80400
C  46.34700 22.69900 25.91300
C  48.00800 27.24400 25.81900
N  46.82900 25.06300 30.55100
C  46.99800 26.13000 31.31500
C  46.74600 25.90000 32.80200
C  46.21600 24.40200 32.76400
C  46.42300 24.01100 31.26000
C  46.81200 23.43200 33.77700
C  45.74500 26.96600 33.36100
C  44.97000 26.46700 34.62100
H  44.86000 27.45400 35.77800
N  46.20300 23.01400 28.34400
C  45.91400 22.28200 29.46400
C  45.59300 20.92100 29.13000
C  45.73100 20.89000 27.71800
C  46.09000 22.22300 27.25100
C  45.15300 19.81900 30.17200
C  45.64200 19.62100 26.82000
O  45.99400 19.56800 25.65900
C  45.29200 18.32700 27.47300
N  47.40500 24.84900 26.18700
C  46.95200 23.87100 25.38700
C  47.22600 24.11100 23.92200
C  47.56500 25.70600 23.87600
C  47.66900 25.96400 25.38700
C  48.47000 23.28600 23.48400
C  46.49500 26.61300 23.10300
C  45.21200 26.76800 23.89300
N  47.55900 26.81700 28.22900
C  48.02100 27.61200 27.16500
C  48.36500 28.93600 27.61100
C  48.25600 28.80800 29.04900
C  47.68200 27.59000 29.32500
C  48.79600 30.06600 26.69000
C  48.34100 29.53200 30.25000
O  48.48500 30.72600 30.60400
C  47.87400 28.63300 31.35700
C  49.04000 28.49100 32.27500
O  50.11200 28.10800 31.88700
O  48.77400 29.05600 33.50700
C  49.76000 28.74500 34.56200
H  45.58100 22.11500 31.57400
H  46.07300 21.91600 25.20400
H  48.39900 27.92400 25.05900
H  47.64100 26.03000 33.41000
H  45.14800 24.52300 32.94700
H  47.57700 23.89900 34.39800
H  47.48200 22.75100 33.25100
H  46.06600 22.83100 34.29700
H  45.06300 27.31800 32.58800
H  46.21300 27.88800 33.70500
H  45.52400 25.59500 34.96800
H  43.97600 26.24900 34.23200
H  44.33300 19.23300 29.75800
H  44.79000 20.32200 31.06800
H  46.00200 19.14600 30.28900
H  44.35800 18.44600 28.02200
H  46.06700 18.09700 28.20500
H  45.24800 17.50500 26.75900
H  46.31700 23.94900 23.34200
H  48.57000 25.92200 23.51300
H  48.34100 22.76200 22.53700
H  48.72400 22.53000 24.22700
H  49.31800 23.94200 23.28700
H  46.26100 26.16200 22.13900
H  46.97200 27.59200 23.05700
H  44.93400 25.86000 24.42800
H  44.36300 26.82900 23.21200
H  45.29700 27.57100 24.62600
H  48.53000 31.00800 27.17100
H  48.32100 30.12300 25.71000
H  49.87700 30.05900 26.55400
H  47.07700 29.19800 31.84000
H  49.32200 28.06600 35.29400
H  50.15600 29.61900 35.07900
H  50.64000 28.18600 34.24500

