158

Mg 44.09600 5.27200 47.05300
C  42.07500 8.17200 46.73900
C  41.33600 3.31400 46.45600
C  45.99400 2.57300 46.54000
C  46.83600 7.34400 46.95100
N  41.91600 5.73400 46.75600
C  41.34700 6.91400 46.51300
C  39.90900 6.74700 45.98500
C  39.62200 5.19300 46.34200
C  41.00900 4.67900 46.49900
C  38.60100 4.86900 47.56100
C  39.71200 7.04500 44.41200
C  39.08500 8.40300 44.00300
H  39.70500 9.19800 42.87300
N  43.69200 3.19300 46.60400
C  42.50000 2.57000 46.43700
C  42.63400 1.19800 46.16900
C  44.02200 0.91100 46.20000
C  44.67400 2.23100 46.45400
C  41.48300 0.29400 45.87000
C  44.65800 -0.53400 46.01300
O  43.93000 -1.53000 45.77400
C  46.10500 -0.71800 45.77400
N  46.09400 4.98200 46.95500
C  46.65800 3.79400 46.79000
C  48.17500 3.84200 46.71100
C  48.53100 5.34200 46.66000
C  47.09200 5.95400 46.92200
C  48.80400 2.96300 47.84200
C  49.03200 5.92100 45.28100
C  50.29400 5.31900 44.66100
N  44.45800 7.35000 46.99000
C  45.63800 8.01300 46.97500
C  45.36100 9.42400 46.95300
C  43.96200 9.54900 46.91000
C  43.45100 8.24400 46.92800
C  46.36400 10.57600 46.88800
C  42.84200 10.49000 46.84300
O  42.80700 11.71100 46.81000
C  41.58800 9.60900 46.66400
C  40.61500 9.94400 47.72800
O  40.65500 9.46600 48.86000
O  39.67000 10.86300 47.30700
C  38.58600 11.17500 48.13900
H  40.44400 2.69000 46.37500
H  46.68200 1.82200 46.14600
H  47.66400 8.05600 46.97600
H  39.24600 7.45200 46.48600
H  39.20100 4.74300 45.44300
H  38.16900 3.91800 47.25200
H  37.76800 5.51400 47.84200
H  39.21800 4.86700 48.46000
H  39.15500 6.18700 44.03600
H  40.67900 6.95500 43.91700
H  39.04900 8.99200 44.92000
H  38.01600 8.22400 43.89200
H  40.48300 0.70200 46.01900
H  41.63800 -0.56500 46.52200
H  41.73200 -0.13900 44.90100
H  46.38000 0.08100 45.08600
H  46.30000 -1.73500 45.43400
H  46.65600 -0.69700 46.71400
H  48.49600 3.36500 45.78600
H  49.11400 5.56200 47.55400
H  49.54300 3.53700 48.40200
H  49.23600 2.00100 47.56600
H  48.10200 2.78500 48.65600
H  49.37300 6.93700 45.48100
H  48.16700 5.86600 44.62000
H  50.28400 4.91700 43.64800
H  50.64600 4.57400 45.37500
H  51.16100 5.98000 44.66200
H  46.38800 11.05800 45.91000
H  47.33600 10.22800 47.23800
H  45.90700 11.24200 47.61900
H  41.20000 9.72000 45.65200
H  37.67100 10.91700 47.60600
H  38.46500 12.23400 48.36900
H  38.43100 10.47800 48.96200
Mg 9.43500 48.09400 26.98600
C  7.48500 47.79000 29.92700
C  11.98800 49.45100 28.81500
C  11.23800 48.36100 24.15200
C  6.69300 46.86900 25.11900
N  9.61800 48.72300 29.14000
C  8.79200 48.24200 30.11000
C  9.59000 48.37900 31.42600
C  10.75900 49.35400 31.05800
C  10.86600 49.10100 29.58600
C  10.54400 50.83700 31.44900
C  10.01700 46.99300 31.99400
C  9.66000 46.77500 33.50500
H  10.52800 47.53200 34.60600
N  11.34800 48.78100 26.49000
C  12.27100 49.24800 27.41400
C  13.53100 49.42800 26.75300
C  13.31100 49.01700 25.39200
C  11.92100 48.76200 25.26800
C  14.80500 49.84100 27.61700
C  14.32100 48.83200 24.29800
O  14.03100 48.74200 23.09200
C  15.79600 48.83500 24.61100
N  8.98000 47.75300 24.96700
C  9.89700 47.93200 23.97200
C  9.43700 47.43400 22.58500
C  8.02800 46.72800 22.98000
C  7.90300 47.08100 24.47500
C  9.36200 48.51400 21.48500
C  7.86100 45.19100 22.85300
C  8.97000 44.34600 23.50800
N  7.41300 47.60600 27.38900
C  6.46600 47.11000 26.48600
C  5.22800 46.93300 27.26400
C  5.56200 47.16700 28.57600
C  6.91800 47.51800 28.67000
C  3.92400 46.48800 26.71400
C  5.08800 47.19700 29.95300
O  3.97400 47.10900 30.48000
C  6.31100 47.39800 30.85400
C  6.55900 46.02300 31.42700
O  7.17900 45.12700 30.90400
O  6.02800 45.93400 32.68600
C  6.21000 44.74000 33.48900
H  12.81500 49.71100 29.47800
H  11.79300 48.35500 23.21200
H  5.79800 46.72500 24.51000
H  9.02200 48.79200 32.26000
H  11.70500 49.03900 31.50000
H  9.73700 51.13200 30.77900
H  11.44700 51.34900 31.11700
H  10.39800 50.97800 32.52000
H  11.05400 46.73100 31.78500
H  9.38600 46.21200 31.56900
H  9.98600 45.74300 33.63100
H  8.59900 46.73900 33.75200
H  15.42300 48.97000 27.83800
H  14.53600 50.32100 28.55800
H  15.41600 50.56500 27.07800
H  16.08000 48.27000 25.49900
H  16.00400 49.90400 24.64700
H  16.34200 48.38600 23.78100
H  10.07900 46.63800 22.20800
H  7.19600 47.26900 22.53000
H  9.90700 49.43100 21.71000
H  8.33300 48.80600 21.27700
H  9.73900 48.04300 20.57600
H  7.52000 44.84000 21.87900
H  6.94000 44.98600 23.39700
H  8.48900 43.61300 24.15500
H  9.73000 44.91500 24.04500
H  9.43900 43.89500 22.63400
H  4.14600 45.72400 25.96900
H  3.46400 47.27900 26.12100
H  3.23400 46.04200 27.43000
H  6.11900 48.04200 31.71200
H  5.26800 44.44600 33.95100
H  6.93300 44.84400 34.29800
H  6.39200 43.74100 33.09200

