158

Mg -1.23700 17.61700 27.05800
C  -1.47800 15.23700 29.65100
C  -2.04400 20.08700 29.17200
C  -1.35800 19.64900 24.24600
C  -1.55300 14.80200 24.78300
N  -1.52700 17.59200 29.09100
C  -1.67600 16.54800 30.01700
C  -2.09800 17.07700 31.37800
C  -2.32500 18.62400 31.20000
C  -1.94100 18.79000 29.66200
C  -3.70700 19.19100 31.54500
C  -1.10200 16.59300 32.44000
C  -0.76900 17.43700 33.65100
H  -0.44900 16.81200 35.06900
N  -1.57800 19.53900 26.79400
C  -1.88500 20.42800 27.80900
C  -1.79400 21.74900 27.30100
C  -1.62000 21.62200 25.79900
C  -1.52800 20.20200 25.50400
C  -1.98600 22.90700 28.12000
C  -1.37900 22.74600 24.81400
O  -1.36100 22.60800 23.61700
C  -1.01200 24.16800 25.33600
N  -1.41900 17.29800 24.84900
C  -1.36900 18.30200 23.93500
C  -1.26300 17.82300 22.52700
C  -1.22700 16.26600 22.67100
C  -1.42100 16.08100 24.18900
C  -2.40400 18.41400 21.56000
C  0.15500 15.68600 22.17900
C  1.52600 16.10700 22.83000
N  -1.30300 15.38200 27.18300
C  -1.47400 14.48200 26.18100
C  -1.66700 13.13000 26.75500
C  -1.57800 13.39800 28.09800
C  -1.39500 14.80300 28.32300
C  -2.16600 11.88900 25.98300
C  -1.73000 12.77100 29.35700
O  -1.90600 11.64600 29.76200
C  -1.78200 13.99700 30.42700
C  -0.76400 13.65100 31.44000
O  0.42700 14.12000 31.46400
O  -1.32000 12.80300 32.39500
C  -0.40300 12.30100 33.41100
H  -2.16000 20.92100 29.86700
H  -1.29400 20.31300 23.38200
H  -1.64100 13.93100 24.13100
H  -3.04500 16.59200 31.61300
H  -1.64600 19.22700 31.80200
H  -4.23600 18.48500 32.18400
H  -4.25100 19.38900 30.62100
H  -3.47100 20.16900 31.96300
H  -0.13200 16.39400 31.98500
H  -1.54200 15.72900 32.93800
H  -1.61500 18.11700 33.75200
H  0.03800 18.02300 33.21000
H  -2.82100 23.41500 27.63700
H  -1.04700 23.45900 28.15400
H  -2.17500 22.70500 29.17400
H  -0.00700 24.03800 25.73800
H  -1.70300 24.56800 26.07800
H  -0.94500 24.80200 24.45200
H  -0.31700 18.13200 22.08200
H  -2.09300 15.85900 22.14800
H  -1.89900 19.07600 20.85700
H  -3.01400 19.04000 22.21100
H  -3.02600 17.70700 21.01100
H  0.29800 15.93600 21.12700
H  0.15000 14.59900 22.26600
H  1.36600 17.02000 23.40400
H  2.17500 16.56800 22.08600
H  2.00600 15.25800 23.31800
H  -1.48400 11.56800 25.19500
H  -3.11300 12.09400 25.48400
H  -2.39700 11.03000 26.61300
H  -2.79600 13.89900 30.81500
H  -0.92300 11.69700 34.15500
H  0.01900 13.15500 33.94100
H  0.33900 11.61800 32.99700
Mg 54.65100 24.22800 44.89900
C  52.00800 26.46500 43.87000
C  52.50200 21.58500 44.16600
C  57.37000 22.24500 44.61700
C  56.76400 27.03100 45.30700
N  52.51500 24.10100 43.98500
C  51.65300 25.13600 43.63200
C  50.31800 24.49000 43.07000
C  50.34600 23.03200 43.71500
C  51.84500 22.87500 44.02000
C  49.46900 22.86700 45.00000
C  50.19800 24.63100 41.57400
C  48.76900 24.59100 41.02400
H  48.64000 23.87400 39.63200
N  54.91700 22.21500 44.50600
C  53.92700 21.25500 44.35600
C  54.48600 19.95900 44.31700
C  55.86300 20.14200 44.29700
C  56.09800 21.55800 44.43400
C  53.75100 18.72500 43.90700
C  56.92500 19.04300 44.02800
O  56.58100 17.86300 44.02800
C  58.37900 19.30300 43.61700
N  56.78100 24.63000 44.77200
C  57.60700 23.61000 44.79400
C  59.07100 24.01700 45.18500
C  58.84400 25.56800 45.37600
C  57.39000 25.79400 45.13000
C  59.67800 23.28000 46.38800
C  59.72200 26.47100 44.30100
C  60.59200 27.63800 44.87400
N  54.42700 26.31300 44.84400
C  55.39900 27.30400 45.07100
C  54.72400 28.52500 45.04800
C  53.41400 28.28500 44.57700
C  53.27800 26.90800 44.46200
C  55.30000 29.82000 45.41400
C  52.14600 28.86800 44.18400
O  51.83900 30.03500 44.10300
C  51.19900 27.74400 43.58000
C  51.02700 28.04600 42.17300
O  51.91800 28.01700 41.33200
O  49.68200 28.25200 41.92500
C  49.37500 28.49000 40.50600
H  51.81800 20.77900 43.89400
H  58.35400 21.77500 44.67800
H  57.45400 27.83500 45.57000
H  49.53800 25.09100 43.53700
H  50.07400 22.33900 42.92000
H  50.01800 22.54500 45.88500
H  48.72700 22.10800 44.75200
H  48.90000 23.77700 45.18900
H  50.79800 23.81400 41.17500
H  50.59400 25.59800 41.26300
H  48.50300 25.64600 40.96200
H  48.15300 24.09700 41.77600
H  53.88800 18.68800 42.82700
H  52.66900 18.78000 44.01900
H  54.19000 17.85700 44.39900
H  58.59600 18.57100 42.84000
H  58.97800 19.35900 44.52600
H  58.36600 20.20300 43.00200
H  59.64600 23.79300 44.28700
H  58.98800 25.86600 46.41500
H  59.01200 22.57700 46.88800
H  60.11600 23.96300 47.11600
H  60.55700 22.74200 46.03400
H  59.03100 26.89000 43.56900
H  60.37800 25.79400 43.75400
H  60.12200 28.61900 44.80200
H  61.55900 27.72600 44.37900
H  60.86200 27.59300 45.92900
H  55.68600 29.81600 46.43300
H  54.46000 30.51300 45.44600
H  56.07800 30.15400 44.72800
H  50.33400 27.77300 44.24200
H  49.14700 29.52200 40.23900
H  48.37900 28.07100 40.36600
H  50.12700 28.19300 39.77500

