158

Mg 16.70500 -1.49700 28.18700
C  15.47700 0.22100 31.01100
C  18.99600 -2.95400 30.32200
C  18.23000 -2.73300 25.48200
C  15.01900 0.87300 26.08600
N  17.09700 -1.31100 30.39700
C  16.49000 -0.60400 31.34500
C  16.96800 -0.95000 32.69800
C  18.15500 -1.92700 32.48900
C  18.05100 -2.10800 30.93200
C  19.54300 -1.47500 33.04500
C  15.85100 -1.50300 33.59100
C  15.63200 -0.94100 34.99400
H  16.86700 -0.29000 35.64400
N  18.30100 -2.77900 27.92600
C  19.09300 -3.31700 28.98600
C  19.86600 -4.37400 28.37600
C  19.65800 -4.35000 26.93000
C  18.70400 -3.26800 26.68800
C  20.68600 -5.28000 29.24300
C  20.27100 -5.22500 25.84500
O  20.01400 -5.18200 24.61700
C  21.31500 -6.22100 26.19300
N  16.61600 -0.97600 25.99900
C  17.34200 -1.68600 25.10600
C  17.35100 -1.02200 23.68800
C  16.10400 -0.06400 23.82100
C  15.90200 0.02400 25.34600
C  18.60100 -0.16900 23.52700
C  14.82800 -0.66900 23.17900
C  13.93200 0.32900 22.43000
N  15.33000 -0.02400 28.40900
C  14.78300 0.85000 27.51300
C  13.83000 1.63900 28.20200
C  14.11500 1.55400 29.54400
C  15.04200 0.48600 29.65100
C  12.83500 2.60200 27.62200
C  13.82400 2.03500 30.85600
O  13.00100 2.92600 31.23700
C  14.73600 1.24200 31.80200
C  15.58400 2.17100 32.52500
O  16.63400 2.52900 32.06400
O  15.18700 2.33300 33.81100
C  16.06100 3.38300 34.45800
H  19.64000 -3.36600 31.10200
H  18.73500 -3.11300 24.59100
H  14.49700 1.70700 25.61100
H  17.47500 -0.05600 33.06100
H  17.87400 -2.92700 32.81700
H  19.44200 -0.79700 33.89200
H  20.14100 -1.07100 32.22800
H  19.89300 -2.42900 33.43900
H  15.97900 -2.58500 33.62400
H  14.87300 -1.40300 33.12000
H  15.30900 -1.75200 35.64700
H  14.81000 -0.23000 35.06900
H  20.14300 -6.20900 29.41500
H  20.94800 -4.89000 30.22600
H  21.65600 -5.44300 28.77300
H  20.87900 -6.93200 26.89500
H  21.98300 -5.49500 26.65600
H  21.50600 -6.78400 25.28000
H  17.30500 -1.82500 22.95200
H  16.29200 0.98600 23.59900
H  19.05300 0.22900 24.43500
H  18.30800 0.76100 23.03900
H  19.34900 -0.70100 22.93900
H  14.30800 -1.15000 24.00800
H  15.12400 -1.42100 22.44800
H  13.64400 -0.01100 21.43500
H  14.44800 1.28600 22.34700
H  13.01700 0.49700 22.99900
H  12.03000 2.11200 27.07400
H  13.31900 3.12900 26.80000
H  12.50800 3.25200 28.43400
H  14.07500 0.70900 32.48500
H  15.97600 3.36200 35.54500
H  15.69300 4.35500 34.12900
H  17.13200 3.30800 34.27300
Mg 48.69500 36.10300 27.34700
C  46.84200 34.18800 29.42800
C  48.96100 38.47000 29.86800
C  50.30900 38.09700 25.08200
C  48.38200 33.61100 24.94300
N  48.08300 36.21500 29.51800
C  47.36700 35.29500 30.16200
C  47.37600 35.58300 31.66800
C  47.73500 37.10100 31.67300
C  48.33900 37.29400 30.27700
C  46.56600 38.07700 31.93000
C  48.41800 34.62900 32.32700
C  48.40500 34.42200 33.84200
H  47.54500 35.18800 34.84700
N  49.48800 38.08400 27.47300
C  49.47000 38.86900 28.60200
C  50.35900 40.06400 28.37400
C  50.59700 39.97800 26.93600
C  50.11900 38.68900 26.40400
C  50.81100 41.07700 29.43900
C  51.35800 41.06400 26.09400
O  51.70400 40.89500 24.91100
C  51.66300 42.30800 26.79400
N  49.08300 35.96600 25.30300
C  49.79000 36.87600 24.58300
C  50.27000 36.33200 23.27100
C  49.82600 34.80900 23.27300
C  49.08100 34.74200 24.58500
C  49.79500 37.20100 22.03400
C  50.99800 33.82200 22.94600
C  51.18300 33.40300 21.50700
N  47.88300 34.20300 27.14300
C  47.79400 33.34300 26.14700
C  46.98800 32.19700 26.44000
C  46.56000 32.48200 27.76600
C  47.13400 33.73800 28.12200
C  46.61000 31.04300 25.69300
C  45.71100 32.01000 28.80100
O  45.13300 30.94300 28.83700
C  45.78400 33.13700 29.91600
C  46.06400 32.37900 31.09800
O  46.85300 31.41700 31.31400
O  45.24800 32.90600 32.15000
C  45.10600 32.10100 33.39300
H  49.21900 39.10700 30.71700
H  50.90300 38.61700 24.32700
H  48.29700 32.83600 24.17900
H  46.36100 35.33500 31.98000
H  48.50100 37.26200 32.43100
H  46.72300 38.83200 32.70000
H  45.60400 37.69200 32.26800
H  46.47500 38.55600 30.95500
H  49.40300 35.00900 32.05700
H  48.44200 33.65100 31.84500
H  49.38500 34.31900 34.30700
H  48.00800 33.41300 33.95100
H  51.86200 41.35600 29.37100
H  50.59700 40.77500 30.46500
H  50.27400 42.02000 29.34300
H  50.79300 42.61400 27.37600
H  51.88100 43.06500 26.04000
H  52.42900 42.04300 27.52200
H  51.35900 36.31700 23.32700
H  49.03200 34.63400 22.54800
H  49.32600 36.56600 21.28200
H  50.62400 37.77500 21.61900
H  49.03800 37.92400 22.33800
H  50.90100 32.85800 23.44600
H  51.91300 34.24000 23.36500
H  51.38900 32.33300 21.50100
H  52.10200 33.88400 21.17300
H  50.26500 33.53100 20.93300
H  45.84300 31.35000 24.98300
H  46.15600 30.36600 26.41600
H  47.44000 30.47400 25.27300
H  44.75100 33.48300 29.92300
H  45.54600 31.11000 33.28400
H  44.06500 31.82200 33.55500
H  45.54400 32.61900 34.24600

