158

Mg 1.36700 -1.90100 45.19500
C  4.81900 -0.53800 44.45800
C  0.18800 0.80600 43.39000
C  -1.61600 -3.28400 45.37200
C  3.08100 -4.80800 46.17800
N  2.38900 -0.12300 43.93800
C  3.74400 0.29000 43.92000
C  3.81700 1.62300 43.20800
C  2.38600 2.19200 43.23900
C  1.56500 0.92600 43.54300
C  2.23500 3.39600 44.15800
C  4.41300 1.59300 41.75800
C  5.56200 2.58000 41.50100
H  6.91100 2.03300 40.95100
N  -0.42600 -1.31700 44.54300
C  -0.71200 -0.23400 43.78100
C  -2.17700 -0.04200 43.67200
C  -2.70200 -1.15500 44.31900
C  -1.55700 -2.01000 44.76600
C  -2.83800 1.19400 42.90500
C  -4.21700 -1.42400 44.55800
O  -5.07000 -0.76000 44.07200
C  -4.77300 -2.54900 45.47200
N  0.79900 -3.78400 45.55100
C  -0.49300 -4.18600 45.61900
C  -0.65500 -5.60400 46.27900
C  0.83200 -6.03700 46.32800
C  1.61900 -4.79800 46.00400
C  -1.40900 -5.78100 47.62200
C  1.15100 -7.18700 45.37400
C  1.38200 -8.60600 45.98000
N  3.38900 -2.46700 45.49000
C  3.91100 -3.72700 45.90200
C  5.37400 -3.63500 46.01100
C  5.67700 -2.33800 45.41600
C  4.49500 -1.71500 45.10600
C  6.24700 -4.83500 46.38200
C  6.88000 -1.59800 45.04000
O  8.09000 -1.74200 45.09200
C  6.33700 -0.26500 44.45600
C  6.80100 0.96400 45.25000
O  6.98100 1.06500 46.45900
O  6.91200 2.01700 44.41200
C  7.45100 3.23600 45.07000
H  -0.25000 1.61800 42.80600
H  -2.60000 -3.72300 45.55400
H  3.62800 -5.55200 46.76000
H  4.34400 2.38500 43.78300
H  2.05300 2.49600 42.24700
H  1.72400 4.19600 43.62400
H  3.17300 3.81900 44.51700
H  1.78600 3.08100 45.10100
H  3.68200 1.94500 41.02900
H  4.75000 0.58700 41.51000
H  5.92700 2.99300 42.44200
H  5.22400 3.48200 40.99000
H  -2.63500 2.03700 43.56600
H  -3.92300 1.09700 42.94100
H  -2.48100 1.45100 41.90800
H  -4.21500 -2.60400 46.40700
H  -4.76900 -3.43400 44.83600
H  -5.81900 -2.31000 45.66100
H  -1.15300 -6.26800 45.57300
H  1.10100 -6.41600 47.31400
H  -0.71200 -6.21600 48.33900
H  -2.31000 -6.34100 47.37200
H  -1.67000 -4.77500 47.95000
H  2.01100 -6.95000 44.74700
H  0.36700 -7.38400 44.64200
H  0.89600 -9.39800 45.41000
H  1.01700 -8.69000 47.00400
H  2.46200 -8.74100 45.92700
H  6.47600 -5.43000 45.49800
H  5.80700 -5.47600 47.14600
H  7.16000 -4.33200 46.70100
H  6.72300 -0.20900 43.43900
H  8.53700 3.14400 45.07100
H  7.13700 3.46900 46.08800
H  7.35200 4.12200 44.44300
Mg 16.42000 52.09000 26.08400
C  18.26400 50.41100 28.57800
C  14.10900 53.00100 28.60200
C  14.82100 53.96700 23.83300
C  18.70000 51.07200 23.71300
N  16.23800 51.79300 28.36200
C  17.14500 51.14700 29.14200
C  16.74000 51.14100 30.62800
C  15.23200 51.66200 30.50200
C  15.22300 52.27600 29.08200
C  14.21200 50.53900 30.75100
C  17.67600 52.12000 31.42900
C  18.05900 51.64600 32.82400
H  17.15300 52.10500 33.98600
N  14.72200 53.31300 26.18500
C  13.92700 53.51800 27.32300
C  12.74200 54.20800 26.82900
C  12.95300 54.67000 25.50800
C  14.22200 53.91800 25.10600
C  11.55200 54.61300 27.78200
C  12.11800 55.59500 24.56100
O  12.42300 55.75600 23.42000
C  10.86000 56.16700 25.07500
N  16.77200 52.48700 24.11000
C  16.02800 53.43900 23.41500
C  16.41200 53.54600 21.96700
C  17.88200 52.87600 21.98000
C  17.72700 52.07100 23.33600
C  15.38500 53.09800 20.90400
C  19.13900 53.85600 21.97700
C  19.64400 54.27700 20.50000
N  18.01000 50.71400 26.01200
C  18.88200 50.39900 24.96800
C  19.97700 49.63700 25.45400
C  19.77100 49.57700 26.81600
C  18.53800 50.26900 27.15600
C  21.12900 49.06000 24.62200
C  20.38200 49.20800 28.10000
O  21.44900 48.64700 28.35400
C  19.43100 49.70300 29.28500
C  18.89800 48.47900 30.03100
O  18.23300 47.58100 29.60600
O  19.49600 48.51500 31.22300
C  19.07300 47.50400 32.15200
H  13.34600 53.20100 29.35600
H  14.37900 54.64400 23.09800
H  19.55100 51.07400 23.02800
H  16.73700 50.16700 31.11600
H  15.05300 52.43500 31.24900
H  13.59100 50.75700 31.62000
H  14.72000 49.57500 30.77700
H  13.46400 50.56100 29.95900
H  17.19200 53.09400 31.48700
H  18.58200 52.34100 30.86600
H  19.04200 52.04300 33.07600
H  18.10800 50.55800 32.85600
H  11.30300 55.67100 27.70000
H  11.80900 54.39500 28.81900
H  10.63700 54.07200 27.54000
H  10.21700 55.44100 25.57300
H  10.25100 56.61600 24.29100
H  11.20100 56.88900 25.81700
H  16.58900 54.61000 21.81000
H  17.96100 52.15500 21.16500
H  15.85700 52.38700 20.22600
H  15.13500 53.99200 20.33200
H  14.55700 52.60000 21.40900
H  19.89300 53.23200 22.45600
H  19.09600 54.70100 22.66500
H  19.42700 55.33800 20.62000
H  18.99000 53.95000 19.69100
H  20.67700 54.03800 20.25000
H  22.09800 49.48600 24.88200
H  20.92800 49.12200 23.55300
H  21.36100 48.02800 24.88700
H  19.93500 50.46500 29.88000
H  19.39500 47.97900 33.07900
H  19.53900 46.54000 31.95000
H  18.00100 47.38600 32.30800

