158

Mg 47.15100 24.99200 28.98600
C  48.26500 27.38400 31.45100
C  46.20500 23.00200 31.63200
C  46.89700 22.49400 26.69600
C  48.67700 26.98600 26.61800
N  47.15700 25.25400 31.32500
C  47.49100 26.34500 32.05200
C  47.00400 26.14900 33.49300
C  46.54500 24.65900 33.52700
C  46.60500 24.26600 32.08700
C  47.33800 23.73900 34.47600
C  45.81400 27.21800 33.91000
C  45.86000 27.78000 35.37600
H  46.65000 26.95500 36.39800
N  46.51400 23.12200 29.13400
C  46.19700 22.48300 30.29700
C  45.75400 21.20400 29.92200
C  45.90000 20.96400 28.52500
C  46.44200 22.24900 28.02900
C  45.26400 20.20100 30.98400
C  45.55500 19.82200 27.66900
O  45.71900 19.82600 26.45200
C  44.83700 18.67000 28.24700
N  47.82100 24.78800 27.08100
C  47.44600 23.72300 26.28900
C  47.91100 23.85800 24.84900
C  48.21700 25.33700 24.79500
C  48.22200 25.75600 26.22100
C  49.06400 22.89300 24.60700
C  47.24500 26.19700 23.92800
C  47.89600 27.00400 22.75200
N  48.26200 26.85600 28.90300
C  48.75500 27.57100 27.88300
C  49.57300 28.61400 28.37400
C  49.37300 28.58700 29.74400
C  48.58800 27.49400 30.04500
C  50.35000 29.60600 27.46700
C  49.72500 29.29900 30.96000
O  50.43300 30.25900 31.13200
C  49.00200 28.54500 32.05700
C  50.04000 28.04700 32.92900
O  50.75700 27.05200 32.76600
O  49.97100 28.81700 34.04300
C  50.90200 28.34100 35.09100
H  45.81200 22.24900 32.31900
H  46.75300 21.78200 25.88100
H  49.09800 27.48800 25.74400
H  47.80100 26.26500 34.22800
H  45.48500 24.60000 33.77600
H  47.82400 24.34500 35.24000
H  48.23600 23.24500 34.10300
H  46.68000 22.98600 34.91100
H  44.86800 26.75500 33.62800
H  46.04000 28.11200 33.32800
H  44.81700 27.99300 35.60900
H  46.39300 28.72100 35.24300
H  45.84800 19.32000 30.71700
H  44.18700 20.04000 30.95600
H  45.54000 20.36300 32.02600
H  45.49100 18.08100 28.88900
H  44.50300 18.06900 27.40100
H  43.94600 18.99400 28.78500
H  47.12600 23.52400 24.17000
H  49.20100 25.61000 24.41500
H  48.81400 22.40600 23.66400
H  49.22400 22.20900 25.44000
H  49.98500 23.47200 24.53700
H  46.87400 26.92200 24.65300
H  46.38800 25.67000 23.50800
H  47.44800 26.91700 21.76200
H  48.93100 26.66500 22.70400
H  47.80100 28.06500 22.98300
H  51.25400 29.04000 27.24200
H  50.62600 30.46100 28.08500
H  49.72700 30.00400 26.66700
H  48.35500 29.33300 32.44200
H  51.96800 28.35900 34.86600
H  50.59200 27.31200 35.27300
H  50.69600 28.87400 36.02000
Mg -11.39100 38.36900 41.89700
C  -9.27400 35.69000 40.63400
C  -9.37300 40.47000 40.03000
C  -13.92000 40.50500 41.70200
C  -13.62200 35.77100 43.08600
N  -9.55200 38.07700 40.49900
C  -8.86800 36.98000 40.17300
C  -7.61500 37.32400 39.35100
C  -7.48100 38.85300 39.55700
C  -8.92400 39.18900 40.04900
C  -6.35600 39.32400 40.51800
C  -7.78600 36.85100 37.79000
C  -6.88100 35.70000 37.38500
H  -5.59600 36.01000 36.68600
N  -11.49100 40.30700 41.31800
C  -10.52900 41.00200 40.66000
C  -10.85000 42.43000 40.76800
C  -12.21300 42.44600 41.09400
C  -12.64900 41.03500 41.38200
C  -9.87800 43.44800 40.24900
C  -13.07300 43.77400 41.13200
O  -12.53700 44.86200 40.95400
C  -14.54800 43.73800 41.44100
N  -13.48200 38.21400 42.36700
C  -14.36500 39.25700 42.28700
C  -15.73600 38.93500 42.99900
C  -15.56500 37.42200 43.33400
C  -14.07600 37.06100 42.90700
C  -15.98800 39.78500 44.21300
C  -16.73800 36.43000 42.81300
C  -17.28500 35.44900 43.85900
N  -11.46400 36.21000 41.96200
C  -12.40600 35.29200 42.54700
C  -11.87000 33.96800 42.46900
C  -10.66800 34.08000 41.74400
C  -10.47200 35.43000 41.43100
C  -12.55300 32.78400 43.12500
C  -9.60200 33.30500 41.06800
O  -9.35700 32.12700 41.12800
C  -8.68200 34.32200 40.37600
C  -7.21100 34.25900 40.77700
O  -6.73500 34.90800 41.69900
O  -6.52800 33.27800 40.06400
C  -5.09800 33.08200 40.50100
H  -8.67600 41.14100 39.52300
H  -14.80000 41.15100 41.71700
H  -14.32600 35.07500 43.54700
H  -6.77100 36.80200 39.80300
H  -7.31000 39.16900 38.52800
H  -6.63800 40.28800 40.94300
H  -5.39000 39.38800 40.01700
H  -6.29800 38.59500 41.32600
H  -7.64700 37.66000 37.07400
H  -8.82500 36.56300 37.62500
H  -7.38300 34.99600 36.72200
H  -6.66700 35.11300 38.27800
H  -10.20800 44.37500 40.71900
H  -9.90900 43.47300 39.16000
H  -8.91300 43.16200 40.66600
H  -15.02200 43.09300 40.70000
H  -15.03800 44.70200 41.30300
H  -14.82000 43.25400 42.37900
H  -16.58900 39.01400 42.32500
H  -15.54100 37.23600 44.40800
H  -15.06300 39.98900 44.75200
H  -16.66700 39.33600 44.93700
H  -16.54200 40.70700 44.04000
H  -16.21600 35.86000 42.04500
H  -17.51300 37.02500 42.33000
H  -18.37000 35.54300 43.91000
H  -16.75500 35.66600 44.78700
H  -17.13700 34.43500 43.48800
H  -13.48600 32.47800 42.65200
H  -12.76500 32.90200 44.18800
H  -11.90200 31.92400 42.96900
H  -8.79200 34.20600 39.29800
H  -4.61700 32.24600 39.99300
H  -5.11400 33.06500 41.59100
H  -4.52800 33.93500 40.13200

