158

Mg 1.76100 -2.19500 43.58200
C  5.11600 -1.26400 43.48600
C  0.92600 0.66800 41.92000
C  -1.34000 -3.40900 43.22500
C  2.69000 -5.33200 44.94200
N  2.88500 -0.51300 42.71000
C  4.23000 -0.44400 42.74300
C  4.68200 0.89300 42.03900
C  3.31500 1.64400 41.80600
C  2.32400 0.59400 42.21900
C  3.12000 3.02200 42.55000
C  5.62400 0.72700 40.82700
C  6.58600 1.90800 40.60300
H  6.36800 2.76300 39.32500
N  0.07400 -1.49000 42.75800
C  -0.09100 -0.29800 42.14300
C  -1.46600 -0.16600 41.72100
C  -2.14600 -1.33100 42.09200
C  -1.11800 -2.14200 42.69400
C  -2.06000 1.02300 41.04200
C  -3.63200 -1.59900 41.80400
O  -4.23900 -0.66100 41.32000
C  -4.32100 -2.91500 42.03800
N  0.87600 -4.16100 43.83300
C  -0.46300 -4.31800 43.76300
C  -0.93800 -5.75600 44.09500
C  0.40800 -6.35100 44.72800
C  1.38500 -5.17300 44.51200
C  -2.22400 -5.94000 44.92000
C  0.89000 -7.74500 44.32800
C  1.30100 -8.64300 45.49000
N  3.51600 -3.16200 44.21700
C  3.72900 -4.37200 44.78500
C  5.18600 -4.48000 45.08300
C  5.67600 -3.27400 44.68000
C  4.62500 -2.50800 44.10800
C  5.85500 -5.72000 45.65900
C  6.90200 -2.49400 44.65800
O  7.97600 -2.76500 45.12100
C  6.63900 -1.14500 43.82700
C  6.86400 0.06000 44.69800
O  6.52400 0.19400 45.82500
O  7.53100 0.98300 43.94200
C  7.71500 2.32200 44.45400
H  0.67800 1.62900 41.46600
H  -2.35300 -3.80700 43.30800
H  2.90700 -6.21300 45.55000
H  5.20300 1.45600 42.81300
H  3.22500 1.83600 40.73700
H  2.23400 3.54500 42.19000
H  3.94500 3.71400 42.37900
H  2.99000 2.82700 43.61500
H  4.90000 0.66200 40.01400
H  6.33500 -0.09600 40.89600
H  7.60800 1.53400 40.55000
H  6.42200 2.55800 41.46300
H  -2.51600 0.87100 40.06400
H  -1.29200 1.79400 40.97800
H  -2.79400 1.34700 41.78000
H  -5.27300 -2.87300 41.50900
H  -4.47900 -3.18400 43.08200
H  -3.67600 -3.66800 41.58400
H  -1.18700 -6.08500 43.08700
H  0.29600 -6.35400 45.81200
H  -2.83500 -6.69900 44.43100
H  -2.71700 -4.96800 44.91700
H  -2.05400 -6.31600 45.92900
H  1.74400 -7.69500 43.65100
H  0.05000 -8.07600 43.71700
H  0.77900 -9.57700 45.28300
H  1.04000 -8.26700 46.47900
H  2.37900 -8.80200 45.52600
H  5.71200 -6.56900 44.99100
H  5.27400 -6.01800 46.53200
H  6.92000 -5.59400 45.85100
H  7.24700 -1.21200 42.92500
H  7.51700 2.49200 45.51300
H  6.94200 2.93300 43.98800
H  8.70000 2.67300 44.15000
Mg 47.96300 16.06600 28.19100
C  45.75400 15.85500 31.07700
C  49.91500 18.24100 30.19400
C  49.90500 16.70600 25.55200
C  45.67100 14.27400 26.37900
N  47.79600 16.99400 30.35700
C  46.89500 16.57300 31.38600
C  47.38000 17.16300 32.78900
C  48.54100 18.15700 32.32700
C  48.74900 17.75200 30.90300
C  48.28500 19.69100 32.39800
C  47.93300 16.10800 33.81300
C  47.69800 16.48600 35.27500
H  47.28000 17.90000 35.62500
N  49.67300 17.28800 27.91600
C  50.31900 18.04400 28.88800
C  51.50300 18.57800 28.38100
C  51.45100 18.30800 26.90300
C  50.30300 17.35800 26.72200
C  52.44000 19.45100 29.16900
C  52.34000 18.92000 25.76400
O  52.16400 18.69600 24.56400
C  53.52700 19.77800 26.12800
N  47.76300 15.61000 26.25700
C  48.74500 15.91800 25.35000
C  48.38800 15.35100 24.00200
C  47.21600 14.44000 24.28600
C  46.86700 14.74300 25.75000
C  48.16600 16.45000 22.99400
C  47.58900 12.92500 24.05100
C  46.96400 12.28700 22.79100
N  46.00100 15.27300 28.50500
C  45.20700 14.54300 27.64900
C  43.99200 14.16300 28.34800
C  44.13700 14.66000 29.70800
C  45.42700 15.32900 29.75800
C  42.87000 13.38700 27.75500
C  43.51900 14.70600 31.05200
O  42.46700 14.30900 31.48600
C  44.58500 15.38800 31.98500
C  44.00100 16.64100 32.62600
O  43.95900 17.69500 32.09900
O  43.53600 16.37500 33.87100
C  43.07300 17.55700 34.64000
H  50.59300 18.88900 30.75300
H  50.45000 16.97100 24.64400
H  45.12500 13.54500 25.77700
H  46.55100 17.80500 33.08300
H  49.46100 18.02000 32.89600
H  48.17100 20.12600 31.40500
H  49.16000 20.13200 32.87600
H  47.42600 19.94300 33.02100
H  49.00700 15.94100 33.72500
H  47.50500 15.12100 33.64000
H  48.63800 16.37100 35.81400
H  46.94200 15.81500 35.68400
H  52.94900 18.93000 29.98000
H  51.92400 20.22600 29.73500
H  53.29500 19.87700 28.64500
H  53.26600 20.75100 26.54500
H  53.98600 19.92400 25.15000
H  54.06800 19.16600 26.85000
H  49.25000 14.76100 23.69100
H  46.42200 14.73700 23.60000
H  48.94700 16.24300 22.26200
H  48.29500 17.46000 23.38500
H  47.30100 16.26900 22.35600
H  47.28100 12.31500 24.90000
H  48.67400 12.83100 24.01400
H  46.50000 11.34300 23.07600
H  47.75700 12.16900 22.05200
H  46.22100 12.89600 22.27500
H  43.11500 13.03800 26.75200
H  42.01900 14.05200 27.61000
H  42.62400 12.51400 28.35900
H  44.83400 14.66600 32.76300
H  42.01600 17.82500 34.63900
H  43.59100 18.49400 34.43700
H  43.49100 17.38600 35.63200

