158

Mg 2.75100 -3.40600 45.19500
C  5.88200 -2.08900 44.10700
C  1.10500 -1.22600 43.12200
C  -0.06800 -5.43400 45.28400
C  4.52200 -5.95300 46.94000
N  3.44000 -1.92600 43.68400
C  4.73100 -1.42800 43.49300
C  4.67200 -0.10000 42.69500
C  3.16400 0.14000 42.41200
C  2.50700 -1.08800 43.20700
C  2.61900 1.62200 42.68800
C  5.55800 -0.21400 41.43900
C  6.59500 1.00300 41.20400
H  6.32500 1.97100 40.03700
N  0.73000 -3.33300 44.32500
C  0.24300 -2.33100 43.55500
C  -1.15000 -2.48700 43.29300
C  -1.47800 -3.70800 43.99400
C  -0.23800 -4.22400 44.54700
C  -1.94600 -1.69800 42.35100
C  -2.90900 -4.34600 44.00300
O  -3.82500 -3.74600 43.44700
C  -3.24200 -5.74100 44.64800
N  2.30300 -5.45200 46.02300
C  1.08000 -6.01400 45.88700
C  0.93000 -7.17300 46.92800
C  2.49900 -7.48400 47.20400
C  3.13900 -6.24300 46.70600
C  0.11600 -6.93100 48.20300
C  2.99100 -8.82500 46.65200
C  2.46700 -10.08900 47.42400
N  4.73800 -3.82500 45.66600
C  5.30900 -4.95100 46.39800
C  6.82800 -4.80200 46.34200
C  7.02700 -3.69900 45.54300
C  5.77800 -3.17300 45.02200
C  7.79300 -5.57000 47.07700
C  8.07000 -2.85700 44.94800
O  9.26100 -2.85100 45.15600
C  7.36500 -1.87700 43.95400
C  7.82300 -0.50400 44.36200
O  8.79200 0.02500 43.78200
O  7.15800 0.05000 45.39500
C  7.69300 1.23300 46.01200
H  0.66600 -0.50700 42.42800
H  -0.93000 -6.10400 45.27000
H  5.04400 -6.71300 47.52500
H  5.06300 0.68700 43.34100
H  2.95400 -0.13700 41.37900
H  3.47100 2.04400 43.22000
H  1.70800 1.57600 43.28400
H  2.45300 2.04800 41.69800
H  4.99900 -0.20400 40.50300
H  6.21200 -1.08500 41.44400
H  7.55100 0.54800 40.94300
H  6.69100 1.54100 42.14700
H  -1.42500 -0.78200 42.07300
H  -2.92500 -1.41700 42.73900
H  -2.16000 -2.17000 41.39200
H  -2.98400 -5.70700 45.70600
H  -2.71900 -6.50100 44.06800
H  -4.29400 -6.02700 44.61300
H  0.49600 -8.04100 46.43100
H  2.55500 -7.52700 48.29200
H  0.77300 -7.12300 49.05100
H  -0.81600 -7.49500 48.24200
H  -0.26300 -5.91300 48.11300
H  4.08000 -8.80500 46.69600
H  2.84300 -8.87500 45.57300
H  1.85300 -10.69900 46.76100
H  1.88100 -9.68300 48.24900
H  3.23600 -10.73300 47.85200
H  8.82600 -5.34000 46.81700
H  7.54700 -6.62700 47.17500
H  7.74400 -5.21800 48.10700
H  7.71100 -2.18700 42.96800
H  7.46600 1.22600 47.07800
H  7.15800 2.10600 45.64000
H  8.76900 1.20300 45.83600
Mg 27.42000 50.22100 26.93300
C  25.17100 51.12600 29.43400
C  29.77700 49.37800 29.39600
C  29.51400 49.20600 24.42300
C  25.10000 51.17200 24.51400
N  27.42400 50.24100 29.16300
C  26.34800 50.56400 29.97500
C  26.69200 50.44700 31.41100
C  28.24100 50.07400 31.41100
C  28.54400 49.85200 29.90700
C  29.10600 51.12800 32.09900
C  25.73200 49.38600 32.16400
C  24.87200 49.81700 33.38700
H  24.92300 48.83600 34.54200
N  29.35600 49.47000 26.93700
C  30.19100 49.21200 28.04100
C  31.42900 48.64600 27.58000
C  31.36500 48.62500 26.11800
C  30.04300 49.13600 25.76400
C  32.47800 48.14900 28.49100
C  32.44800 48.27000 25.14500
O  32.32000 48.27700 23.89600
C  33.75900 47.82300 25.76700
N  27.38000 50.34700 24.79500
C  28.22000 49.63700 23.99200
C  27.81000 49.57300 22.56900
C  26.42500 50.18200 22.64400
C  26.27500 50.64800 24.08400
C  28.82800 50.13200 21.49400
C  25.25500 49.17100 22.20000
C  24.05100 49.82500 21.49800
N  25.53700 51.14700 26.91700
C  24.67700 51.33800 25.91500
C  23.44600 51.93800 26.39600
C  23.54100 51.79300 27.83100
C  24.87700 51.38400 28.04000
C  22.35500 52.50900 25.54900
C  22.80500 52.02900 29.09300
O  21.69100 52.50200 29.26800
C  23.84600 51.57300 30.16900
C  23.97800 52.72100 31.05300
O  24.41300 53.80500 30.76100
O  23.28500 52.42300 32.15900
C  23.15200 53.40400 33.19000
H  30.62000 49.28400 30.08500
H  30.15000 48.82900 23.61900
H  24.29300 51.23100 23.78200
H  26.46300 51.40100 31.88500
H  28.31400 49.23400 32.10300
H  29.60900 51.67000 31.29900
H  29.81900 50.69900 32.80300
H  28.49600 51.89500 32.57500
H  26.14200 48.41700 32.45100
H  25.05300 49.02000 31.39300
H  23.82200 49.91700 33.11300
H  25.14500 50.84700 33.61700
H  32.91900 47.19300 28.20800
H  32.12700 48.15800 29.52300
H  33.23700 48.93000 28.44800
H  33.77900 46.81300 26.17800
H  34.13600 48.61100 26.41900
H  34.36900 47.76600 24.86600
H  27.75000 48.52800 22.26700
H  26.40300 51.11300 22.07800
H  29.47600 50.59800 22.23700
H  28.37000 50.89600 20.86600
H  29.44600 49.50900 20.84800
H  25.02800 48.68900 23.15100
H  25.67200 48.36700 21.59400
H  23.91700 49.39600 20.50400
H  24.09700 50.88600 21.25400
H  23.12100 49.55900 22.00100
H  21.61500 51.70900 25.52900
H  22.69400 52.72400 24.53600
H  21.95600 53.33600 26.13500
H  23.58900 50.66100 30.70700
H  22.11900 53.48300 33.52700
H  23.38700 54.41500 32.85800
H  23.72800 53.14200 34.07700

