158

Mg 36.01100 49.29700 25.52300
C  36.01800 47.31200 28.43400
C  34.96800 51.92700 27.33900
C  35.59000 50.93300 22.62200
C  36.77800 46.45100 23.71900
N  35.31300 49.47700 27.68200
C  35.58600 48.64000 28.69900
C  35.50100 49.34500 30.02800
C  34.92500 50.79000 29.69800
C  35.04300 50.73400 28.13100
C  33.48400 51.18300 30.26600
C  36.80700 49.36500 30.84700
C  36.67000 48.92600 32.36300
H  36.76000 50.07500 33.35000
N  35.47600 51.20200 25.05100
C  34.98300 52.17700 25.93200
C  34.95100 53.46200 25.28500
C  35.08300 53.17500 23.89100
C  35.35000 51.70600 23.78500
C  34.74800 54.68000 26.08500
C  35.06700 54.09600 22.69100
O  35.00800 53.85100 21.47100
C  34.92300 55.59500 22.98900
N  36.03400 48.72500 23.44300
C  35.90900 49.60500 22.47900
C  35.98400 49.02400 21.10900
C  36.42500 47.57500 21.40400
C  36.40900 47.56500 22.95600
C  34.69900 49.00400 20.14400
C  37.76200 47.31600 20.69500
C  39.11100 47.40200 21.51700
N  36.26300 47.32400 25.90700
C  36.60300 46.28700 25.05300
C  36.85300 45.04900 25.87200
C  36.60000 45.42700 27.19100
C  36.25500 46.82200 27.13300
C  37.37700 43.84000 25.40100
C  36.67000 44.97600 28.50600
O  36.80100 43.83800 28.94600
C  36.42600 46.25700 29.37400
C  35.23400 46.05700 30.22400
O  34.04000 46.02700 29.86100
O  35.71900 45.70700 31.51400
C  34.69400 45.41400 32.50500
H  34.84700 52.75500 28.04100
H  35.47000 51.53500 21.71900
H  37.16100 45.60800 23.14000
H  34.76500 48.92700 30.71500
H  35.57200 51.61000 30.01300
H  33.07900 50.27000 30.70100
H  32.91700 51.51800 29.39700
H  33.51500 52.09500 30.86300
H  37.26300 50.35300 30.78100
H  37.57500 48.70400 30.44400
H  37.53400 48.29300 32.56200
H  35.76300 48.32900 32.45900
H  35.39100 55.55500 25.99300
H  34.62800 54.51500 27.15500
H  33.80500 55.04000 25.67400
H  35.80400 55.98900 23.49500
H  34.03400 55.84400 23.56800
H  34.65700 56.06000 22.04000
H  36.81100 49.57800 20.66500
H  35.72900 46.74800 21.26000
H  33.88900 49.63700 20.50800
H  34.31700 47.99600 19.98600
H  35.01200 49.30200 19.14300
H  37.87400 48.00500 19.85800
H  37.74800 46.30200 20.29700
H  39.82600 46.67800 21.12400
H  38.93900 47.27100 22.58500
H  39.56900 48.37500 21.33800
H  37.95900 43.40900 26.21600
H  37.92300 43.79700 24.45900
H  36.55500 43.15200 25.20500
H  37.29900 46.33400 30.02200
H  34.03100 44.57400 32.29500
H  33.99700 46.25200 32.52800
H  35.21500 45.29600 33.45500
Mg -4.33300 25.05500 25.64200
C  -2.78100 26.53300 28.41900
C  -5.62300 22.69900 27.93400
C  -5.44100 23.25900 22.99200
C  -2.67200 27.26900 23.62600
N  -4.28000 24.70400 27.94900
C  -3.57300 25.48200 28.79700
C  -4.13000 25.13700 30.22500
C  -4.73500 23.73200 30.08700
C  -4.98600 23.74500 28.58000
C  -3.89600 22.53200 30.56800
C  -5.15900 26.20500 30.72200
C  -5.11400 26.25000 32.25500
H  -5.03600 24.87100 32.93000
N  -5.34200 23.29100 25.47400
C  -5.76800 22.53900 26.53200
C  -6.47800 21.42200 26.04900
C  -6.40400 21.43200 24.60000
C  -5.69400 22.69300 24.27300
C  -7.12400 20.47600 27.02100
C  -6.89100 20.48000 23.53800
O  -6.59600 20.56700 22.35100
C  -7.72700 19.24500 23.89500
N  -3.84500 25.07900 23.53900
C  -4.68600 24.38300 22.65700
C  -4.63500 25.01200 21.25500
C  -3.70800 26.24300 21.45000
C  -3.38900 26.22300 22.98300
C  -4.12800 24.08300 20.09900
C  -4.33700 27.59200 21.13300
C  -4.38900 27.98100 19.62000
N  -3.01300 26.65200 25.93700
C  -2.37000 27.45300 24.95800
C  -1.55100 28.43200 25.60500
C  -1.63600 28.10400 26.99300
C  -2.50800 26.98400 27.14200
C  -0.86900 29.51500 24.96300
C  -1.14600 28.39800 28.35600
O  -0.30800 29.18800 28.70600
C  -1.90100 27.43800 29.34500
C  -0.98200 26.71400 30.20300
O  -0.46000 25.69000 29.90500
O  -0.94400 27.32600 31.43100
C  -0.20300 26.51700 32.46000
H  -6.10400 22.04100 28.66000
H  -5.89600 22.79300 22.11600
H  -2.25200 27.97100 22.90300
H  -3.31400 25.12000 30.94800
H  -5.73200 23.72000 30.52800
H  -3.95900 21.67100 29.90200
H  -4.13500 22.14300 31.55800
H  -2.84300 22.77500 30.43000
H  -6.17300 25.92000 30.44100
H  -4.96700 27.14600 30.20700
H  -5.91700 26.90700 32.59100
H  -4.13600 26.68600 32.45900
H  -7.70400 20.96100 27.80700
H  -6.31000 19.86600 27.41200
H  -7.65500 19.69600 26.47700
H  -8.60400 19.47600 24.50000
H  -7.10200 18.54900 24.45400
H  -8.08200 18.68300 23.03100
H  -5.61100 25.26200 20.84000
H  -2.76000 26.05200 20.94800
H  -3.32200 23.42600 20.42600
H  -3.65500 24.70400 19.33900
H  -4.90900 23.52800 19.57900
H  -3.73200 28.40100 21.54100
H  -5.30900 27.76500 21.59600
H  -5.45100 28.12800 19.42400
H  -4.01800 27.19200 18.96500
H  -3.79700 28.88700 19.48700
H  0.03800 29.71100 25.53600
H  -1.41800 30.45000 24.84600
H  -0.61200 29.28500 23.92900
H  -2.60200 28.00200 29.96100
H  0.71800 27.08000 32.61600
H  0.09900 25.51200 32.16500
H  -0.77200 26.45600 33.38700

