158

Mg 6.50400 55.00700 41.67800
C  5.71300 51.53100 41.27200
C  9.70800 54.29600 40.80100
C  6.92600 58.18400 41.60500
C  3.04100 55.40800 42.21400
N  7.55400 53.10400 40.91100
C  7.03500 51.85600 40.80100
C  8.18900 50.85200 40.27200
C  9.47900 51.75600 40.42300
C  8.90600 53.14900 40.73100
C  10.49600 51.27900 41.57400
C  7.93100 50.24800 38.80900
C  7.47500 51.19600 37.69000
H  6.52700 50.68400 36.60000
N  8.13600 56.14100 41.26100
C  9.37200 55.68800 40.92800
C  10.16400 56.80500 40.54500
C  9.34900 57.96300 40.77800
C  8.08400 57.46800 41.23800
C  11.65700 56.76900 40.18200
C  9.84700 59.45200 40.71200
O  10.99300 59.67700 40.40200
C  9.02000 60.59100 40.84900
N  5.20600 56.53800 41.93100
C  5.59800 57.84000 41.88600
C  4.51800 58.83900 42.20600
C  3.30000 57.96700 42.17300
C  3.86800 56.52100 42.13400
C  4.85300 59.41300 43.57600
C  2.35900 58.19400 40.91400
C  0.79900 58.30100 41.01600
N  4.72400 53.77900 41.87600
C  3.41500 54.09100 42.10300
C  2.62600 52.91700 42.21100
C  3.50100 51.85500 42.02300
C  4.69500 52.47200 41.65000
C  1.13800 52.87200 42.58200
C  3.62900 50.46200 41.90700
O  2.71500 49.63200 42.04800
C  5.10500 50.20600 41.37600
C  4.76000 49.52400 40.11000
O  4.28900 50.01700 39.06700
O  4.99200 48.19800 40.25000
C  4.63600 47.26800 39.13200
H  10.79300 54.25300 40.91900
H  7.00700 59.25700 41.41600
H  1.98100 55.65000 42.30700
H  8.30600 50.04300 40.99300
H  9.99400 51.81500 39.46400
H  10.14500 50.42100 42.14700
H  10.70700 52.12000 42.23600
H  11.42300 51.14400 41.01900
H  7.23200 49.41300 38.85900
H  8.90200 49.93600 38.42200
H  8.47300 51.51800 37.39200
H  6.96900 52.02700 38.18200
H  11.87800 57.57100 39.47700
H  11.95400 55.83500 39.70600
H  12.23600 56.91700 41.09400
H  8.32100 60.47500 40.02100
H  9.49000 61.55900 40.67600
H  8.42800 60.67000 41.76200
H  4.39200 59.61200 41.44900
H  2.76700 58.06800 43.11800
H  5.12200 58.61000 44.26300
H  3.92000 59.85900 43.92000
H  5.70400 60.09400 43.58600
H  2.48500 57.37200 40.20900
H  2.60700 59.06900 40.31300
H  0.43100 58.73400 41.94600
H  0.50900 57.26900 40.82000
H  0.40200 58.97400 40.25600
H  0.42800 52.72600 41.76700
H  0.84500 53.77200 43.12100
H  1.06800 52.01900 43.25800
H  5.71700 49.66200 42.09500
H  3.61900 47.05200 38.80700
H  5.14900 46.37000 39.47600
H  5.26000 47.62800 38.31300
Mg 0.00300 43.84200 25.88500
C  2.17300 44.10300 28.71100
C  -2.47600 43.06000 28.03400
C  -1.49100 42.90900 23.27600
C  2.96200 44.46300 23.92700
N  -0.22100 43.71400 28.13100
C  0.81200 43.93500 29.02100
C  0.20000 43.92500 30.49000
C  -1.26000 43.45500 30.27900
C  -1.34400 43.42400 28.76300
C  -1.59800 42.06600 30.96300
C  0.33500 45.29100 31.17000
C  0.43400 45.21200 32.67500
H  -0.12500 44.01500 33.44300
N  -1.75300 43.10300 25.73200
C  -2.72300 42.79400 26.64600
C  -3.79600 42.17600 26.06300
C  -3.58600 42.27400 24.65700
C  -2.23300 42.76900 24.46100
C  -4.95800 41.73200 26.86500
C  -4.61800 41.95100 23.44500
O  -4.37100 41.87200 22.24500
C  -6.06400 41.75300 23.88300
N  0.62300 43.89000 23.87000
C  -0.28800 43.43300 22.99200
C  0.29000 43.42600 21.55400
C  1.62300 44.13400 21.77100
C  1.74800 44.31400 23.25900
C  0.39200 42.01800 20.91000
C  1.71400 45.56100 21.14000
C  0.79200 46.62800 21.82200
N  2.17800 44.37900 26.21100
C  3.16000 44.48700 25.31000
C  4.45400 44.50800 26.02700
C  4.09900 44.42100 27.36300
C  2.71600 44.29000 27.41800
C  5.73800 44.63500 25.40900
C  4.60200 44.16300 28.75400
O  5.76700 44.01900 29.11800
C  3.34400 44.14600 29.62800
C  3.37600 43.01700 30.52100
O  2.97000 41.92700 30.20100
O  3.84000 43.36900 31.82500
C  3.99600 42.31400 32.79400
H  -3.30000 42.77100 28.69000
H  -2.08400 42.46700 22.47200
H  3.81200 44.50900 23.24200
H  0.78900 43.24300 31.10200
H  -2.01900 44.16700 30.60100
H  -0.78600 41.53900 31.46400
H  -1.92200 41.32100 30.23700
H  -2.42500 42.30300 31.63300
H  -0.48600 45.95500 30.90200
H  1.16700 45.85200 30.74500
H  -0.03800 46.09300 33.10900
H  1.51200 45.13900 32.82400
H  -5.78500 42.43200 26.74200
H  -4.70700 41.64300 27.92200
H  -5.37100 40.80900 26.45800
H  -6.85100 42.00800 23.17300
H  -6.32500 42.36200 24.74900
H  -6.21700 40.70200 24.12900
H  -0.24400 44.15200 20.94100
H  2.49000 43.54900 21.46400
H  0.11700 41.24400 21.62700
H  1.30900 41.72200 20.40000
H  -0.30900 41.92200 20.08200
H  1.42000 45.51300 20.09200
H  2.72200 45.97300 21.20000
H  -0.19500 46.28100 22.12900
H  0.47200 47.27500 21.00500
H  1.40800 47.21900 22.50000
H  6.02100 45.66900 25.60600
H  5.69300 44.32500 24.36500
H  6.45800 43.95700 25.86800
H  3.43400 45.07200 30.19600
H  5.08000 42.20800 32.83300
H  3.48700 41.43800 32.39300
H  3.63800 42.55800 33.79400

