158

Mg 54.88000 23.09100 44.62000
C  52.73300 25.66900 43.75700
C  52.70800 20.86900 43.55000
C  57.19700 20.65400 45.23200
C  57.24200 25.49300 45.57000
N  53.03400 23.33300 43.52100
C  52.30100 24.47200 43.32900
C  51.03900 24.12100 42.52400
C  50.89800 22.60700 42.94700
C  52.30800 22.21400 43.33700
C  49.88300 22.15700 44.01200
C  51.32000 24.31400 41.04300
C  50.38400 25.32400 40.23000
H  50.97300 26.02500 38.94900
N  54.95100 21.11100 44.25000
C  53.88300 20.31800 43.96700
C  54.24500 18.90200 43.96100
C  55.58100 18.84900 44.52000
C  55.96800 20.26300 44.69900
C  53.37600 17.80300 43.41700
C  56.33700 17.59500 44.77500
O  55.73100 16.54200 44.55100
C  57.71100 17.50100 45.18000
N  57.04900 23.09700 44.98400
C  57.75100 21.96200 45.36400
C  59.20900 22.30300 45.86100
C  59.20400 23.87700 45.82700
C  57.78600 24.20800 45.44100
C  59.66800 21.63600 47.25900
C  60.25200 24.47000 44.88200
C  61.24400 25.48900 45.53100
N  55.07100 25.12600 44.64500
C  55.99800 25.95200 45.21300
C  55.44100 27.26700 45.52800
C  54.14000 27.20400 44.96500
C  53.96500 25.87400 44.45000
C  56.18500 28.50300 46.11000
C  52.94800 27.94700 44.69200
O  52.64700 29.09700 44.89100
C  51.99800 27.01300 43.83200
C  51.63700 27.69300 42.57000
O  52.27200 27.51000 41.52600
O  50.54800 28.43100 42.79600
C  50.09200 29.26800 41.73100
H  51.87900 20.16800 43.42700
H  57.98200 20.05100 45.69400
H  57.96500 26.20300 45.97700
H  50.26800 24.78100 42.92200
H  50.66900 22.01100 42.06300
H  49.27400 21.33200 43.64200
H  49.30400 23.01100 44.36400
H  50.43000 22.03000 44.94600
H  51.22700 23.34900 40.54500
H  52.38100 24.50900 40.89100
H  50.01400 26.10000 40.90000
H  49.50000 24.76700 39.91800
H  53.87900 17.17200 42.68400
H  52.50500 18.24700 42.93500
H  52.95200 17.28500 44.27700
H  57.73800 17.91100 46.18900
H  58.23200 18.12200 44.45100
H  57.99300 16.45700 45.04100
H  59.92600 21.96800 45.11100
H  59.50400 24.07200 46.85600
H  60.30900 20.75400 47.26800
H  58.71900 21.30600 47.68400
H  60.11900 22.45000 47.82600
H  59.78200 24.94800 44.02300
H  60.86400 23.68200 44.44300
H  60.79300 26.38300 45.96100
H  62.01200 25.73100 44.79600
H  61.79200 24.95900 46.31000
H  55.44200 29.23500 46.42600
H  56.92500 28.78700 45.36100
H  56.78400 28.32100 47.00200
H  51.06600 26.83500 44.36800
H  50.12200 28.70600 40.79800
H  50.67300 30.18700 41.80400
H  49.04800 29.55500 41.86000
Mg 6.89000 53.22600 41.58000
C  6.56200 49.78300 41.46300
C  10.00100 52.85500 40.22700
C  7.06900 56.58300 41.48100
C  3.52700 53.49800 42.62800
N  8.05600 51.53500 40.72900
C  7.71700 50.20100 40.78900
C  8.80800 49.26000 40.33300
C  10.03200 50.31200 40.22000
C  9.29600 51.64600 40.33000
C  11.16500 50.29800 41.25400
C  8.62600 48.64400 38.91600
C  7.87600 49.45800 37.84500
H  8.71700 49.78500 36.61500
N  8.42200 54.60400 40.98200
C  9.58800 54.21300 40.39200
C  10.33700 55.46300 40.07100
C  9.58000 56.57800 40.48100
C  8.30000 55.96600 40.99300
C  11.84100 55.43700 39.53400
C  9.93000 58.02500 40.31500
O  11.03900 58.46900 39.94700
C  8.94900 59.01900 40.60700
N  5.44800 54.88600 41.77300
C  5.78600 56.12100 41.84900
C  4.70300 57.14400 42.34000
C  3.60900 56.05700 42.65800
C  4.18100 54.69200 42.34100
C  5.04800 58.04400 43.60200
C  2.22600 56.29800 41.97400
C  1.85700 55.72100 40.65600
N  5.24200 51.99800 41.88100
C  4.02300 52.18700 42.48500
C  3.42800 50.95000 42.83500
C  4.42600 49.96700 42.53900
C  5.48400 50.64000 41.89400
C  2.04300 50.66400 43.39200
C  4.69200 48.47100 42.48000
O  4.03700 47.48900 42.83700
C  6.08900 48.35600 41.70300
C  5.71100 47.57900 40.42800
O  5.02200 48.01400 39.52100
O  6.07000 46.22100 40.48500
C  5.76800 45.37800 39.34700
H  11.05700 52.82000 39.95200
H  7.12900 57.67300 41.45400
H  2.54000 53.55600 43.09200
H  8.92300 48.52500 41.13000
H  10.50900 50.29000 39.24000
H  10.95700 50.91700 42.12700
H  12.09200 50.69500 40.83900
H  11.33800 49.27800 41.59800
H  8.06100 47.72000 39.03500
H  9.53500 48.18500 38.52700
H  7.59900 50.42500 38.26600
H  7.02200 48.80700 37.65900
H  11.94100 56.17300 38.73600
H  12.06100 54.47800 39.06500
H  12.57300 55.58500 40.32800
H  9.33600 60.02300 40.43400
H  8.78800 58.89500 41.67800
H  8.06200 59.01900 39.97400
H  4.37500 57.70000 41.46200
H  3.46200 56.19400 43.72900
H  4.51900 57.81100 44.52600
H  4.87000 59.10200 43.41300
H  6.13600 58.05100 43.67600
H  2.01600 57.35500 41.81300
H  1.45400 55.97000 42.67000
H  2.66000 55.11500 40.23700
H  1.67100 56.55600 39.98100
H  0.87200 55.25800 40.70100
H  2.20500 49.95100 44.20000
H  1.36200 50.40700 42.58100
H  1.68100 51.59200 43.83500
H  6.80700 47.73600 42.24100
H  6.54000 45.51900 38.59000
H  4.80500 45.59300 38.88400
H  5.72700 44.36900 39.75800

