158

Mg 27.08700 49.05300 26.35900
C  24.79100 50.34100 28.90600
C  29.20800 48.02800 28.93500
C  29.13200 47.86900 24.12900
C  25.00900 50.45900 23.96300
N  26.97100 49.19200 28.66800
C  25.87700 49.66800 29.48700
C  26.19200 49.42600 30.99800
C  27.64700 48.83900 30.95100
C  27.98000 48.69600 29.45100
C  28.70800 49.69700 31.73200
C  25.16600 48.43900 31.67300
C  24.36200 49.04100 32.83400
H  24.19400 48.24700 34.11700
N  28.98500 48.20200 26.50400
C  29.68900 47.79500 27.62300
C  30.89000 47.09200 27.29600
C  30.84100 46.97000 25.84400
C  29.61300 47.67900 25.45600
C  31.87600 46.53300 28.29800
C  31.75000 46.34700 24.87000
O  31.60000 46.41300 23.62500
C  32.89700 45.65100 25.38200
N  27.13800 49.22200 24.27000
C  28.06700 48.55900 23.54600
C  27.65800 48.65700 21.98900
C  26.31500 49.39000 22.03900
C  26.08300 49.66300 23.51300
C  28.73000 49.37200 21.10600
C  25.19900 48.53600 21.38900
C  24.36400 47.51300 22.27000
N  25.27400 50.26600 26.36800
C  24.57100 50.72900 25.30200
C  23.38300 51.46700 25.79500
C  23.45500 51.41400 27.22100
C  24.56200 50.61100 27.52000
C  22.30000 52.04000 24.94900
C  22.74500 51.69700 28.46200
O  21.70300 52.27500 28.61500
C  23.66600 51.11100 29.63200
C  24.08200 52.21800 30.49200
O  24.78600 53.19800 30.16500
O  23.59500 52.01500 31.71400
C  24.06300 52.90900 32.78200
H  29.80600 47.63500 29.76000
H  29.64700 47.36500 23.30900
H  24.40800 50.88200 23.15500
H  26.12100 50.40600 31.46900
H  27.63500 47.85800 31.42600
H  28.22200 50.26400 32.52600
H  29.16000 50.42700 31.06200
H  29.51900 49.07800 32.11600
H  25.61300 47.49800 31.99300
H  24.50800 48.05300 30.89500
H  23.35600 49.12600 32.42200
H  24.63700 50.04700 33.15100
H  32.89000 46.79700 27.99700
H  31.92100 45.44500 28.33700
H  31.74600 46.85700 29.33100
H  33.59300 46.38200 25.79400
H  33.13300 44.95100 24.58000
H  32.58800 45.01900 26.21400
H  27.45100 47.62400 21.70800
H  26.34400 50.40000 21.62900
H  29.01100 48.71100 20.28500
H  29.66500 49.60600 21.61500
H  28.34100 50.29500 20.67700
H  25.57700 48.00400 20.51600
H  24.44300 49.09300 20.83500
H  23.33000 47.84700 22.34800
H  24.68200 47.29900 23.29000
H  24.42900 46.62300 21.64400
H  21.74900 51.39800 24.26200
H  22.77800 52.79800 24.32900
H  21.61100 52.34400 25.73700
H  23.04900 50.36000 30.12500
H  24.02900 53.93800 32.42300
H  25.11000 52.69200 32.99300
H  23.29500 52.84500 33.55200
Mg 0.55900 44.27000 25.43000
C  2.57100 43.50900 28.40500
C  -2.02600 43.22100 27.36800
C  -1.07700 43.21400 22.73600
C  3.58700 44.21500 23.66800
N  0.36500 43.50100 27.69500
C  1.24500 43.44300 28.72700
C  0.56700 43.20300 30.11700
C  -0.95900 43.08800 29.68900
C  -0.88400 43.23800 28.15800
C  -1.59800 41.69700 30.14500
C  0.77000 44.44100 31.07800
C  0.74200 44.14600 32.60400
H  0.48400 42.72600 33.22400
N  -1.39600 43.79200 25.05800
C  -2.35100 43.45800 26.00300
C  -3.66500 43.27000 25.36400
C  -3.36500 43.27000 23.93700
C  -1.92500 43.45500 23.80600
C  -4.98400 43.33300 26.15000
C  -4.31900 42.96700 22.84600
O  -3.98800 42.90900 21.63400
C  -5.79200 42.77300 23.11400
N  1.21800 43.66700 23.52800
C  0.30300 43.39800 22.58000
C  0.91600 43.24300 21.24400
C  2.27000 43.94700 21.39400
C  2.38000 43.99300 22.97300
C  0.99900 41.74900 20.75600
C  2.40100 45.24900 20.60500
C  1.91400 46.48700 21.22000
N  2.60100 44.18200 25.89600
C  3.67400 44.13000 25.06500
C  4.94500 43.98800 25.82000
C  4.52400 43.75900 27.13500
C  3.08700 43.86200 27.13700
C  6.36000 43.98200 25.31000
C  4.98200 43.46500 28.37700
O  6.13300 43.42200 28.73700
C  3.79100 43.42900 29.30500
C  3.83400 42.21000 30.14100
O  3.41300 41.10100 29.84100
O  4.49500 42.51500 31.37400
C  4.50700 41.43600 32.43000
H  -2.92500 43.05100 27.96400
H  -1.63100 42.94700 21.83400
H  4.51100 44.37400 23.10700
H  0.85600 42.24200 30.54300
H  -1.59400 43.85900 30.12800
H  -1.91100 41.15600 29.25200
H  -2.54000 41.81500 30.68100
H  -0.93200 41.18300 30.83800
H  0.07300 45.26800 30.94300
H  1.74200 44.85700 30.81200
H  0.11600 44.87600 33.11800
H  1.78300 44.23800 32.91300
H  -4.71200 43.44400 27.20000
H  -5.33000 42.30100 26.11100
H  -5.66900 44.09300 25.77400
H  -6.37900 42.66300 22.20200
H  -6.09500 43.73800 23.52100
H  -5.87000 42.08900 23.95900
H  0.19400 43.79600 20.64300
H  2.92600 43.26000 20.86000
H  0.00400 41.55100 20.35900
H  1.37600 41.05000 21.50200
H  1.62900 41.83000 19.87000
H  2.04600 45.16800 19.57700
H  3.47800 45.30800 20.45000
H  1.11600 46.89500 20.59800
H  2.72000 47.21900 21.17800
H  1.45600 46.38800 22.20400
H  7.01300 44.60800 25.91700
H  6.52600 44.30600 24.28300
H  6.79900 42.99700 25.47000
H  3.87100 44.26800 29.99600
H  4.23600 41.74500 33.43900
H  5.53300 41.08600 32.55100
H  3.88300 40.61000 32.08900

