158

Mg 16.80300 -1.64200 28.33800
C  15.58900 0.40500 30.97600
C  19.11600 -2.94200 30.59700
C  18.34600 -3.25700 25.81000
C  14.92600 0.17900 26.13000
N  17.39500 -1.22000 30.48200
C  16.61800 -0.48600 31.31900
C  17.11100 -0.72300 32.77900
C  18.23100 -1.75300 32.66000
C  18.31100 -1.97000 31.16300
C  19.52700 -1.40100 33.44400
C  15.94100 -1.24000 33.76800
C  16.00000 -0.62900 35.19300
H  17.17300 0.16800 35.75600
N  18.42500 -2.86500 28.22700
C  19.19200 -3.37100 29.27900
C  19.98600 -4.52300 28.77800
C  19.91400 -4.49900 27.35000
C  18.86200 -3.53600 27.06700
C  20.75700 -5.40700 29.69200
C  20.66700 -5.39000 26.44100
O  20.56700 -5.34400 25.25000
C  21.64600 -6.40400 26.93600
N  16.93500 -1.28500 26.24600
C  17.64700 -2.09900 25.39800
C  17.27900 -1.71600 23.91500
C  16.08200 -0.73500 24.07900
C  15.91900 -0.62300 25.57800
C  18.58200 -1.02600 23.39600
C  14.74900 -1.22800 23.36400
C  13.92400 -0.17300 22.61600
N  15.45400 -0.01000 28.51800
C  14.74700 0.63000 27.51400
C  13.87100 1.54100 28.14700
C  14.13000 1.54000 29.52400
C  15.12600 0.54200 29.66200
C  12.91400 2.39800 27.45200
C  13.87300 2.16700 30.76700
O  13.15000 3.05200 31.08400
C  14.70700 1.36200 31.83000
C  15.54800 2.29700 32.70300
O  16.60600 2.74700 32.41900
O  14.85100 2.68300 33.80900
C  15.42500 3.61200 34.83400
H  19.71800 -3.47800 31.33400
H  18.77400 -3.77800 24.95100
H  14.24600 0.58800 25.37900
H  17.47400 0.22900 33.16400
H  18.02900 -2.77400 32.98700
H  19.83500 -2.00500 34.29800
H  19.25000 -0.44800 33.89500
H  20.39300 -1.33600 32.78500
H  15.99900 -2.32200 33.88400
H  15.00800 -1.05900 33.23300
H  15.66900 -1.36300 35.92800
H  15.23500 0.14700 35.21800
H  20.29400 -6.36700 29.91700
H  20.78800 -5.00500 30.70500
H  21.80800 -5.56900 29.45000
H  21.19500 -7.17600 27.55800
H  22.48300 -5.87900 27.39600
H  22.21600 -6.92400 26.16500
H  16.98400 -2.58100 23.32100
H  16.29600 0.25700 23.67900
H  18.33600 -0.05500 22.96600
H  19.08500 -1.61000 22.62500
H  19.26200 -0.86900 24.23300
H  14.16600 -1.79800 24.08700
H  15.00600 -2.03200 22.67500
H  14.37400 0.80300 22.80000
H  12.98900 -0.09100 23.17100
H  13.70200 -0.38100 21.56900
H  12.70400 1.89700 26.50800
H  13.51000 3.28400 27.23200
H  12.07100 2.46300 28.14000
H  13.98700 0.84300 32.46200
H  15.43500 3.02200 35.75100
H  14.77100 4.48400 34.82500
H  16.42300 3.92300 34.52600
Mg 54.22400 24.66100 45.18400
C  51.74000 26.80300 43.86900
C  52.37900 21.98000 44.28100
C  57.02100 22.80000 45.38300
C  56.09900 27.51200 45.91600
N  52.29600 24.51700 44.14800
C  51.39500 25.45500 43.77300
C  50.10500 24.83000 43.27500
C  50.25500 23.40800 43.83300
C  51.73100 23.23900 44.14100
C  49.29900 22.97700 45.10200
C  49.94400 24.90500 41.74500
C  48.53600 24.83300 41.11800
H  48.34200 24.61300 39.61100
N  54.70600 22.64000 44.73700
C  53.75400 21.71800 44.48300
C  54.39200 20.38600 44.44300
C  55.72000 20.55000 44.90500
C  55.91600 22.02100 45.00300
C  53.68900 19.16300 43.99500
C  56.75800 19.46600 45.24800
O  56.31800 18.32400 45.43400
C  58.13700 19.61700 45.56300
N  56.19800 25.09400 45.51900
C  57.19900 24.13200 45.63500
C  58.59700 24.73500 45.94000
C  58.27200 26.16500 46.26800
C  56.79600 26.30100 45.77600
C  59.45700 23.96500 46.99000
C  59.28500 27.23700 45.78500
C  59.35600 27.46000 44.21500
N  53.96200 26.81100 45.12500
C  54.77300 27.82300 45.54300
C  54.05800 29.13500 45.49100
C  52.86700 28.71500 44.85700
C  52.89500 27.32500 44.53900
C  54.48600 30.44400 45.96100
C  51.63200 29.24700 44.35400
O  51.12700 30.35900 44.40600
C  50.82400 27.98900 43.73100
C  50.39200 28.31900 42.41500
O  51.11500 28.47500 41.44400
O  49.03000 28.39600 42.41700
C  48.37900 28.89000 41.24600
H  51.71100 21.11700 44.23500
H  57.86100 22.11800 45.53100
H  56.62400 28.44600 46.12600
H  49.23000 25.26800 43.75600
H  50.01600 22.73600 43.01000
H  50.00700 23.05900 45.92600
H  48.86200 21.98300 45.00400
H  48.52100 23.72400 45.25700
H  50.39200 24.02000 41.29300
H  50.30000 25.84900 41.33100
H  48.20000 25.83800 41.37400
H  48.01100 24.03500 41.64400
H  54.22800 18.30500 43.59500
H  52.91700 19.35300 43.24900
H  53.02400 18.83800 44.79500
H  58.71300 18.70500 45.40300
H  58.19000 19.97800 46.59000
H  58.67500 20.22500 44.83500
H  59.03800 24.70900 44.94400
H  58.18600 26.25600 47.35100
H  60.36900 23.65900 46.47600
H  59.05800 23.03500 47.39400
H  59.80400 24.62800 47.78300
H  60.29900 26.87000 45.94200
H  59.26000 28.12700 46.41300
H  60.26000 27.03300 43.78100
H  59.39600 28.49500 43.87300
H  58.56500 26.94100 43.67400
H  54.83500 30.32300 46.98700
H  53.72100 31.21500 45.86900
H  55.33900 30.76600 45.36500
H  49.91400 27.86300 44.31800
H  48.20100 29.96100 41.34200
H  47.36300 28.55500 41.45500
H  48.70700 28.52700 40.27200

