158

Mg 2.27000 -2.21700 44.30700
C  5.63900 -1.36200 44.12200
C  1.48800 0.66800 42.72700
C  -0.93200 -3.30800 43.87100
C  3.28900 -5.42700 45.34400
N  3.56600 -0.59800 43.28300
C  4.84100 -0.34700 43.58200
C  5.24200 1.05200 43.13200
C  3.83900 1.67800 42.85500
C  2.88200 0.50200 42.92800
C  3.40300 2.89700 43.79800
C  6.24000 1.13900 41.97700
C  6.20000 0.06100 40.84800
H  5.62000 0.48100 39.50300
N  0.54100 -1.44200 43.37700
C  0.41300 -0.17800 42.85200
C  -0.93200 0.08700 42.40400
C  -1.70400 -1.03400 42.86600
C  -0.67000 -1.97200 43.38800
C  -1.36200 1.30400 41.67700
C  -3.27800 -1.20800 42.63200
O  -3.95700 -0.27900 42.15800
C  -4.01500 -2.44400 42.93300
N  1.27200 -4.08300 44.41500
C  -0.04300 -4.27600 44.29400
C  -0.48600 -5.68100 44.88900
C  0.96200 -6.26300 45.19800
C  1.91600 -5.18500 44.88800
C  -1.45700 -5.54100 46.06600
C  1.32500 -7.58300 44.34600
C  1.76800 -7.42200 42.88400
N  4.11600 -3.20100 44.75700
C  4.37600 -4.50000 45.18700
C  5.75100 -4.61700 45.60900
C  6.28600 -3.39500 45.16700
C  5.29600 -2.63400 44.59000
C  6.47400 -5.80500 46.16900
C  7.50800 -2.63200 45.10800
O  8.61700 -2.93800 45.52700
C  7.13500 -1.28800 44.36300
C  7.52300 -0.12400 45.26800
O  6.70200 0.38600 46.00400
O  8.81600 0.34400 45.07400
C  9.08900 1.73300 45.41600
H  1.27300 1.63100 42.25900
H  -1.98600 -3.59100 43.83200
H  3.48300 -6.41600 45.76300
H  5.75500 1.59500 43.92600
H  3.88300 2.06100 41.83500
H  3.18700 3.72500 43.12200
H  4.18600 3.19000 44.49700
H  2.46100 2.79200 44.33700
H  7.22200 1.27000 42.43100
H  6.02700 2.07900 41.46900
H  5.53600 -0.74000 41.17200
H  7.14700 -0.47500 40.78600
H  -1.97200 1.86600 42.38500
H  -2.02800 1.10100 40.83900
H  -0.60800 1.99400 41.29800
H  -5.03800 -2.20400 42.64400
H  -4.02300 -2.66600 44.00000
H  -3.64500 -3.27700 42.33600
H  -1.05700 -6.23200 44.14100
H  1.01300 -6.41700 46.27600
H  -1.87100 -4.53500 45.99700
H  -0.99300 -5.65200 47.04600
H  -2.19700 -6.33900 46.01800
H  0.37200 -8.10800 44.41800
H  1.96000 -8.17100 45.00700
H  0.95600 -7.79200 42.25800
H  2.60000 -8.11100 42.73900
H  2.04500 -6.40000 42.62800
H  6.26000 -6.72000 45.61600
H  6.26100 -6.03000 47.21400
H  7.54500 -5.60600 46.22300
H  7.78700 -1.09100 43.51200
H  9.46000 2.02900 44.43400
H  9.90400 1.81500 46.13500
H  8.16600 2.27400 45.62000
Mg 27.47000 51.23200 25.95900
C  25.31700 52.37200 28.66700
C  29.54600 50.11700 28.31500
C  29.44700 50.52400 23.46500
C  25.24800 52.86100 23.83100
N  27.42500 51.33500 28.23700
C  26.40400 51.62200 29.08600
C  26.83600 51.42600 30.53400
C  28.33500 51.05600 30.42600
C  28.49800 50.84100 28.89400
C  29.29600 52.08900 31.06800
C  25.92300 50.39200 31.19000
C  25.00300 50.90800 32.36000
H  25.22000 50.16800 33.60800
N  29.30500 50.52300 25.96400
C  29.97300 49.95900 26.98900
C  31.23100 49.33500 26.51400
C  31.12600 49.39900 25.09500
C  29.89900 50.21200 24.75900
C  32.25000 48.67600 27.33000
C  32.14100 48.79700 24.12900
O  32.06200 49.08500 22.92500
C  33.22000 47.86900 24.51100
N  27.20100 51.50300 23.96700
C  28.19000 51.14400 23.11800
C  27.93800 51.49400 21.66700
C  26.49300 52.07400 21.73600
C  26.27800 52.18500 23.25800
C  28.92300 52.53000 20.91700
C  25.38100 51.14200 21.19300
C  24.32600 51.87900 20.47600
N  25.66900 52.35100 26.14300
C  24.98900 53.01400 25.15900
C  23.71500 53.63500 25.65900
C  23.88600 53.52000 27.12000
C  25.03100 52.64900 27.28900
C  22.65000 54.37300 24.83300
C  23.29800 53.83000 28.44900
O  22.35000 54.49700 28.80400
C  24.17600 53.06800 29.52300
C  24.70100 54.04300 30.52500
O  25.68900 54.79500 30.36400
O  24.03900 53.95800 31.68100
C  24.59700 54.84000 32.78700
H  30.16500 49.66900 29.09500
H  30.10700 50.22200 22.64800
H  24.52200 53.21000 23.09400
H  26.75400 52.38800 31.04100
H  28.41300 50.08800 30.92200
H  28.83100 52.78300 31.76800
H  29.59300 52.83600 30.33200
H  30.17700 51.60600 31.49000
H  26.53700 49.54900 31.50800
H  25.27700 49.87900 30.47700
H  23.97500 50.85000 32.00400
H  25.30300 51.94200 32.53200
H  32.29700 47.58900 27.27800
H  32.10400 48.95400 28.37400
H  33.24400 49.10800 27.21500
H  34.04100 48.40600 24.98700
H  33.58600 47.54600 23.53600
H  32.88600 46.96500 25.02100
H  27.91300 50.56300 21.10100
H  26.46200 53.09000 21.34100
H  28.42700 53.41400 20.51600
H  29.43800 51.89000 20.20200
H  29.66000 53.00500 21.56500
H  24.81700 50.74600 22.03800
H  25.79700 50.33700 20.58700
H  24.57100 51.82100 19.41500
H  24.25700 52.90300 20.84300
H  23.40700 51.30100 20.58000
H  22.98800 55.23600 24.25900
H  21.79500 54.63900 25.45500
H  22.21000 53.59900 24.20500
H  23.60900 52.28200 30.02100
H  24.18700 54.34400 33.66600
H  24.24800 55.87100 32.73200
H  25.66700 55.04800 32.80400

