158

Mg 43.43700 3.82200 46.88500
C  41.39000 6.73700 46.61300
C  40.69000 1.92600 46.88900
C  45.30300 1.14800 46.10000
C  46.27400 5.83000 46.42500
N  41.35800 4.36100 46.89100
C  40.71300 5.56500 46.76400
C  39.22100 5.47500 46.95700
C  39.00100 3.96300 47.25400
C  40.44900 3.35300 47.02700
C  38.24600 3.54000 48.56500
C  38.34700 5.97200 45.72800
C  38.57600 5.38800 44.31200
H  39.33800 6.28200 43.40200
N  43.04900 1.78500 46.64000
C  41.82900 1.19300 46.62500
C  41.94100 -0.22500 46.34200
C  43.32900 -0.48000 46.10900
C  43.95900 0.83200 46.23900
C  40.71900 -1.20400 46.42700
C  43.93900 -1.80400 45.76000
O  43.23200 -2.78200 45.71300
C  45.35900 -1.97500 45.29100
N  45.60400 3.55300 46.56900
C  46.06500 2.28000 46.32700
C  47.58900 2.30100 46.40000
C  47.91500 3.87400 46.20900
C  46.54400 4.48100 46.39100
C  48.23900 1.55800 47.65700
C  48.67500 4.25900 44.88200
C  50.22300 4.32100 44.95400
N  43.84000 5.87600 46.64000
C  45.03100 6.54100 46.53700
C  44.72500 7.96400 46.54000
C  43.32200 8.04200 46.53500
C  42.85300 6.74800 46.55200
C  45.75500 9.09500 46.66100
C  42.22900 8.96800 46.42800
O  42.26800 10.13900 46.26200
C  40.91900 8.18600 46.51500
C  40.26400 8.58300 47.78300
O  40.45600 8.10900 48.89800
O  39.26900 9.51500 47.45300
C  38.44500 9.86800 48.62500
H  39.74400 1.38700 46.80700
H  45.89300 0.24500 45.93100
H  47.18800 6.38600 46.20600
H  39.00900 5.97600 47.90200
H  38.42700 3.40600 46.51300
H  37.72300 4.38500 49.01300
H  38.87600 3.23000 49.39800
H  37.55000 2.71200 48.42500
H  38.34900 7.04800 45.55300
H  37.27400 5.95000 45.91700
H  37.55200 5.17500 44.00400
H  39.13500 4.45300 44.30900
H  40.45800 -1.48500 45.40600
H  39.85000 -0.69400 46.84200
H  40.88200 -2.05900 47.08300
H  46.04000 -1.81800 46.12700
H  45.57400 -1.41500 44.38100
H  45.50500 -3.01500 44.99600
H  47.85100 1.70400 45.52600
H  48.55600 4.27900 46.99200
H  48.79100 0.69400 47.28700
H  47.59100 1.09200 48.39900
H  48.85300 2.25200 48.23100
H  48.36200 5.24800 44.54700
H  48.38800 3.60300 44.06000
H  50.52700 3.75100 45.83200
H  50.47200 5.38100 44.91000
H  50.63300 3.78900 44.09500
H  46.26600 9.08900 45.69800
H  46.47400 8.84700 47.44200
H  45.17000 9.98000 46.91000
H  40.18800 8.28500 45.71300
H  37.71600 9.06800 48.75300
H  37.95300 10.78600 48.30600
H  38.98200 10.15300 49.53000
Mg -12.18600 38.44400 42.68600
C  -10.22800 35.61900 41.82000
C  -9.68100 40.49500 41.36400
C  -14.16400 41.22700 42.98000
C  -14.81400 36.28900 43.40100
N  -10.19500 38.05400 41.71900
C  -9.60200 36.83200 41.53900
C  -8.31500 36.99000 40.65600
C  -8.04900 38.56200 40.87800
C  -9.41300 39.08500 41.33900
C  -6.90200 38.96100 41.88200
C  -8.50700 36.52700 39.17600
C  -7.20900 35.81700 38.70900
H  -6.44400 36.47800 37.56100
N  -11.94900 40.60700 42.24900
C  -10.84000 41.17300 41.77300
C  -11.08500 42.61600 41.59300
C  -12.36200 42.90600 42.19800
C  -12.91200 41.55800 42.51500
C  -10.12800 43.62000 40.97500
C  -13.07600 44.19700 42.54500
O  -12.74400 45.32300 42.17600
C  -14.41400 44.19600 43.34300
N  -14.18900 38.74100 43.12400
C  -14.75200 39.94400 43.25300
C  -16.23500 39.91400 43.72700
C  -16.48400 38.28400 43.77600
C  -15.08100 37.72700 43.36700
C  -16.61600 40.68600 44.96600
C  -17.69100 37.72200 42.91200
C  -18.90300 37.38400 43.68800
N  -12.46500 36.39800 42.86100
C  -13.58500 35.65700 43.17900
C  -13.31100 34.28500 42.92300
C  -11.98100 34.23300 42.50900
C  -11.52300 35.58800 42.37800
C  -14.20600 33.07400 43.08900
C  -10.89700 33.38400 42.07100
O  -10.80800 32.18700 42.01800
C  -9.74300 34.24000 41.53000
C  -8.66600 33.90100 42.44800
O  -8.65800 34.11000 43.65200
O  -7.56300 33.24800 41.89100
C  -6.37400 33.11000 42.64800
H  -8.99300 41.10500 40.77500
H  -14.99200 41.87700 43.27100
H  -15.64700 35.65900 43.71900
H  -7.51100 36.42000 41.12100
H  -7.92200 38.99700 39.88700
H  -6.50800 38.03900 42.31000
H  -7.21500 39.70400 42.61500
H  -6.14200 39.37200 41.21800
H  -8.69000 37.32600 38.45900
H  -9.35800 35.84800 39.11400
H  -7.40500 34.77600 38.45200
H  -6.42600 35.78900 39.46700
H  -10.29600 43.62300 39.89800
H  -9.08700 43.31700 41.08800
H  -10.18200 44.63700 41.36300
H  -15.23000 43.84700 42.71000
H  -14.65900 45.18200 43.73900
H  -14.24300 43.61400 44.24800
H  -16.82200 40.21600 42.86000
H  -16.56900 37.97900 44.81800
H  -17.16300 40.13900 45.73300
H  -17.19200 41.56900 44.68900
H  -15.70200 40.97600 45.48400
H  -17.40300 36.85300 42.32100
H  -18.04200 38.50900 42.24400
H  -18.97900 36.30300 43.80100
H  -19.80800 37.73300 43.19100
H  -18.86100 37.78400 44.70100
H  -15.15600 33.35000 42.63200
H  -14.43100 32.90600 44.14200
H  -13.90200 32.20100 42.51200
H  -9.46800 33.99800 40.50300
H  -5.56300 32.96900 41.93300
H  -6.50400 32.15500 43.15700
H  -6.18300 33.94400 43.32200

