158

Mg 35.86000 2.24400 30.69900
C  33.22000 3.21700 32.79000
C  38.04800 2.50700 33.39300
C  38.35200 1.65100 28.57600
C  33.60800 2.51700 27.99100
N  35.65000 2.86400 32.79100
C  34.42900 3.03300 33.46600
C  34.67400 3.15000 34.94900
C  36.22000 3.35800 35.01300
C  36.67900 2.92400 33.64300
C  36.60000 4.81700 35.47700
C  34.16100 1.88400 35.67100
C  33.67000 2.09500 37.13000
H  34.18700 3.25100 37.93900
N  37.91800 2.08400 30.91600
C  38.63800 2.22200 32.14400
C  40.01300 1.92000 31.90700
C  40.13100 1.61900 30.50100
C  38.76000 1.73700 29.92700
C  41.01400 2.09000 33.03900
C  41.36700 1.24500 29.66000
O  41.22900 0.86500 28.50200
C  42.77200 1.16900 30.23700
N  35.97300 2.00600 28.51600
C  37.14600 1.80800 27.90500
C  36.98700 1.67100 26.36000
C  35.43000 1.86200 26.23900
C  34.96800 2.27100 27.63600
C  37.82700 2.59000 25.43500
C  34.71200 0.55500 25.85600
C  33.70500 0.60300 24.73900
N  33.80800 2.76600 30.34100
C  33.02400 2.77200 29.22100
C  31.59600 3.13600 29.55700
C  31.69400 3.33200 30.95100
C  33.03900 3.07000 31.37300
C  30.38700 3.46800 28.77700
C  30.95700 3.73800 32.13600
O  29.82200 4.10400 32.23000
C  31.85900 3.56900 33.32900
C  31.92600 4.86200 34.01000
O  32.48600 5.83300 33.56800
O  31.20900 4.82300 35.17400
C  31.05700 6.06600 35.99100
H  38.73200 2.43000 34.24100
H  39.16000 1.38200 27.89300
H  32.89900 2.68700 27.17800
H  34.13000 4.00600 35.34800
H  36.63600 2.72600 35.79800
H  37.12200 4.80700 36.43400
H  35.78300 5.51100 35.67500
H  37.30100 5.17700 34.72500
H  35.00200 1.19300 35.72700
H  33.42100 1.52300 34.95600
H  33.81500 1.15500 37.66300
H  32.58800 2.21900 37.08800
H  40.82400 1.35900 33.82600
H  40.88400 3.09900 33.43000
H  42.00700 1.95900 32.61000
H  43.42000 0.63900 29.53900
H  42.86500 0.54400 31.12600
H  43.05300 2.19600 30.46800
H  37.40200 0.68600 26.14500
H  35.10100 2.61600 25.52400
H  38.51700 1.89900 24.95100
H  38.25100 3.37600 26.06100
H  37.23800 3.14200 24.70200
H  34.24500 0.05500 26.70400
H  35.44200 -0.18600 25.53100
H  34.05400 0.14300 23.81400
H  33.36800 1.61100 24.49900
H  32.82500 0.07400 25.10600
H  30.45700 3.20100 27.72200
H  30.00100 4.47600 28.92600
H  29.62500 2.81300 29.20100
H  31.48500 2.79400 33.99800
H  31.86200 6.16100 36.72000
H  30.10700 5.99700 36.52100
H  30.88200 6.94700 35.37500
Mg 54.95600 24.36300 44.17300
C  52.27000 26.27100 43.22300
C  53.37700 21.50100 43.27900
C  58.05700 22.68600 44.13900
C  56.90700 27.38000 44.50400
N  53.06200 24.00600 43.25400
C  52.03900 24.90800 43.01000
C  50.75800 24.18600 42.53200
C  51.11300 22.74000 43.08900
C  52.61700 22.71400 43.22800
C  50.34000 22.54700 44.44000
C  50.63200 24.12600 41.00600
C  49.24200 24.01500 40.44600
H  49.04100 23.73100 38.94300
N  55.58800 22.32600 43.79900
C  54.75500 21.30400 43.45700
C  55.44300 20.09900 43.51900
C  56.82100 20.40500 43.80300
C  56.86100 21.87800 43.96500
C  54.73700 18.86700 43.09000
C  57.86400 19.37500 43.90100
O  57.53800 18.23900 43.69500
C  59.27800 19.65200 44.35900
N  57.15900 24.92800 44.17900
C  58.16200 24.04600 44.23200
C  59.53300 24.71500 44.44900
C  59.21900 26.21000 44.57800
C  57.61600 26.17400 44.35000
C  60.38700 24.12800 45.55600
C  59.97800 27.05300 43.54100
C  60.69100 28.23800 44.10100
N  54.66200 26.45500 43.92000
C  55.48700 27.54100 44.23800
C  54.61500 28.68200 44.42000
C  53.31900 28.22400 43.98900
C  53.49000 26.86700 43.67000
C  54.98800 30.02900 44.90900
C  51.93700 28.63100 43.94400
O  51.36300 29.60600 44.30200
C  51.17200 27.39400 43.34400
C  50.69300 27.86700 42.03100
O  51.46000 28.27600 41.12100
O  49.32500 27.79000 41.84300
C  48.70200 28.24700 40.58200
H  52.85200 20.55200 43.40700
H  58.96600 22.08100 44.12600
H  57.50100 28.25000 44.79300
H  49.83900 24.62500 42.92000
H  50.77700 21.97800 42.38600
H  51.02200 22.24800 45.23500
H  49.63900 21.74100 44.22200
H  49.84200 23.44600 44.80200
H  51.16500 23.21700 40.72800
H  51.18900 24.93000 40.52400
H  48.73000 24.97600 40.48500
H  48.70200 23.30300 41.07100
H  54.34700 19.04700 42.08800
H  53.83500 18.82400 43.70100
H  55.25100 17.91700 43.23100
H  59.83400 20.23500 43.62500
H  59.74700 18.73600 44.72000
H  59.29600 20.18300 45.31100
H  60.09500 24.54800 43.53000
H  59.46300 26.61700 45.55900
H  60.60400 24.89400 46.30100
H  61.24600 23.57800 45.17300
H  59.67000 23.42500 45.98000
H  59.30400 27.42000 42.76800
H  60.78400 26.58300 42.97700
H  61.65800 28.34900 43.60900
H  60.86700 28.18600 45.17500
H  60.11400 29.15200 43.95700
H  55.57700 29.88100 45.81400
H  54.13400 30.69600 45.01900
H  55.58000 30.49700 44.12200
H  50.33900 27.12000 43.99100
H  48.76100 27.53100 39.76200
H  49.34900 29.08100 40.30900
H  47.66300 28.57500 40.58100

