158

Mg -1.50900 17.89000 26.01700
C  -1.60600 15.41400 28.58700
C  -1.86600 20.29100 28.46200
C  -1.42700 20.08000 23.69200
C  -1.33800 15.26600 23.74000
N  -1.63000 17.80900 28.29300
C  -1.51200 16.76100 29.13800
C  -1.50200 17.28800 30.63800
C  -2.01600 18.77400 30.52400
C  -1.91100 18.98100 29.00400
C  -3.51600 19.09600 30.96000
C  -0.11000 17.23500 31.43300
C  -0.10900 17.85600 32.89400
H  0.32400 17.09000 34.08000
N  -1.33600 19.93000 26.07000
C  -1.68200 20.69600 27.14000
C  -1.68500 22.12900 26.67300
C  -1.53200 22.12100 25.31200
C  -1.50500 20.71800 24.97200
C  -2.02900 23.30600 27.69000
C  -1.66200 23.30100 24.27200
O  -1.62700 23.07300 23.05100
C  -1.86200 24.67400 24.79400
N  -1.41300 17.68400 24.00900
C  -1.44300 18.77400 23.20600
C  -1.41200 18.42600 21.65300
C  -1.40300 16.84600 21.65100
C  -1.40000 16.56900 23.21300
C  -2.61600 19.03200 20.84100
C  -0.17100 16.19000 21.01700
C  -0.42000 14.93100 20.24100
N  -1.70100 15.74000 26.08400
C  -1.72400 14.84300 25.01900
C  -1.78300 13.44100 25.65800
C  -1.76100 13.62100 27.11100
C  -1.63100 15.04200 27.23300
C  -1.72700 12.20300 24.85800
C  -1.81200 12.97900 28.44000
O  -1.85700 11.81000 28.81900
C  -1.80600 14.14100 29.40500
C  -0.72800 13.84800 30.35600
O  0.46500 13.95600 30.13000
O  -1.26300 13.43500 31.58800
C  -0.33600 12.93500 32.59600
H  -2.15900 21.16800 29.04400
H  -1.28300 20.76000 22.85000
H  -1.36000 14.43500 23.03200
H  -2.29900 16.83300 31.22700
H  -1.39400 19.48900 31.06200
H  -4.24300 19.20200 30.15500
H  -3.51500 20.03500 31.51400
H  -3.90200 18.26300 31.54700
H  0.71300 17.61700 30.82900
H  0.11000 16.17500 31.56200
H  -1.13900 18.14100 33.10700
H  0.43200 18.80000 32.96300
H  -3.04500 23.67600 27.55200
H  -1.29000 24.03800 27.36100
H  -1.71600 23.17600 28.72600
H  -1.73800 25.42600 24.01500
H  -1.08800 24.80500 25.55000
H  -2.84300 24.55100 25.25300
H  -0.53100 18.74900 21.09800
H  -2.33900 16.53100 21.19200
H  -2.30500 19.71100 20.04700
H  -3.19000 19.66600 21.51700
H  -3.19300 18.18600 20.46700
H  0.52300 16.00500 21.83700
H  0.26000 16.81100 20.23200
H  0.41400 14.23000 20.26800
H  -0.38800 15.12800 19.16900
H  -1.42100 14.54700 20.43900
H  -2.07400 12.30400 23.83000
H  -2.34900 11.57100 25.49200
H  -0.71900 11.80400 24.97100
H  -2.70100 14.21600 30.02400
H  -0.78700 13.37300 33.48600
H  0.70600 13.22800 32.47100
H  -0.35300 11.89400 32.92100
Mg 25.55600 0.55800 29.61700
C  27.48000 0.26200 32.43900
C  22.84500 1.47300 31.51700
C  23.62300 0.52200 26.81200
C  28.24600 -0.75000 27.72400
N  25.17800 0.56400 31.76900
C  26.15000 0.60800 32.72900
C  25.54500 1.13700 34.06900
C  24.02900 1.24100 33.78300
C  24.00300 1.02700 32.29200
C  23.10200 0.34300 34.61400
C  26.17600 2.45900 34.62600
C  26.87300 2.27600 35.94700
H  26.58100 3.20200 37.15800
N  23.46500 0.96700 29.20300
C  22.62500 1.40800 30.09400
C  21.29400 1.64200 29.47400
C  21.48800 1.29600 28.11800
C  22.88600 0.92800 27.94500
C  20.01900 1.99200 30.21000
C  20.44700 1.18000 26.94400
O  20.67700 0.52700 25.92700
C  19.11900 1.75200 27.13000
N  25.87700 -0.01700 27.53700
C  24.95000 0.15200 26.59100
C  25.53400 -0.16500 25.22200
C  27.03600 -0.45000 25.46300
C  27.06700 -0.39900 26.96500
C  24.81900 -1.19600 24.29500
C  28.05200 0.53900 24.73200
C  28.31400 1.93800 25.39600
N  27.46500 -0.06000 29.93200
C  28.44500 -0.54000 29.06600
C  29.68100 -0.64000 29.84500
C  29.34100 -0.29200 31.19700
C  27.99000 -0.02700 31.20400
C  31.07500 -1.01000 29.38600
C  29.84700 -0.13000 32.55700
O  30.90600 -0.27800 32.99100
C  28.66900 0.33500 33.45800
C  28.48200 -0.67000 34.52100
O  28.18600 -1.80300 34.36000
O  28.86200 -0.05400 35.76800
C  28.49300 -0.76600 36.95300
H  21.97600 1.81000 32.08600
H  23.03100 0.44300 25.89800
H  29.12100 -1.02200 27.12900
H  25.64500 0.34000 34.80500
H  23.62400 2.25200 33.83300
H  23.57700 -0.07400 35.50200
H  22.69900 -0.43900 33.97000
H  22.25900 0.95900 34.92800
H  25.36100 3.15900 34.80700
H  26.86700 2.94300 33.93600
H  27.91700 2.46500 35.69700
H  26.72800 1.28400 36.37400
H  19.31700 1.15900 30.18500
H  19.40900 2.77300 29.75500
H  20.24100 2.31800 31.22600
H  18.60800 2.03700 26.21000
H  19.30900 2.67700 27.67400
H  18.46000 1.17700 27.78000
H  25.58400 0.75700 24.64300
H  27.27500 -1.46400 25.14100
H  23.89300 -1.60700 24.69700
H  25.49100 -2.02900 24.08600
H  24.50300 -0.69300 23.38200
H  27.73200 0.63200 23.69400
H  29.02600 0.05500 24.80400
H  27.67700 2.10400 26.26500
H  28.09600 2.85100 24.84100
H  29.35600 1.98300 25.71100
H  31.91900 -0.67100 29.98600
H  31.25300 -0.67800 28.36300
H  31.14300 -2.09800 29.42000
H  28.87500 1.31100 33.89700
H  28.16700 -0.05400 37.71100
H  29.43400 -1.26400 37.18800
H  27.79700 -1.60100 36.86600

