158

Mg 40.30900 9.77800 29.99000
C  42.24100 11.20500 32.43600
C  38.15300 8.52700 32.30500
C  38.45400 8.49500 27.47700
C  42.99700 10.31600 27.75100
N  40.26100 9.82300 32.09200
C  41.04700 10.57500 32.82900
C  40.54200 10.64500 34.30000
C  39.39800 9.48900 34.31000
C  39.22100 9.26200 32.83500
C  39.77700 8.20100 35.09000
C  40.07600 12.04300 34.85800
C  39.63900 12.08400 36.33900
H  40.27200 13.04500 37.35700
N  38.59800 8.62600 29.88300
C  37.78800 8.24000 30.93500
C  36.59100 7.48000 30.46500
C  36.59100 7.58400 29.00200
C  37.91100 8.32800 28.73000
C  35.50300 6.86300 31.36200
C  35.55000 7.03900 28.04000
O  35.67200 7.14700 26.80400
C  34.18400 6.53000 28.46600
N  40.59100 9.45800 27.88800
C  39.61900 8.95900 27.07300
C  40.14000 8.91000 25.55000
C  41.59300 9.44800 25.72000
C  41.78600 9.79200 27.17000
C  40.00600 7.66000 24.68800
C  41.87900 10.69900 24.76600
C  41.70600 12.10900 25.17900
N  42.22800 10.56500 29.98100
C  43.20200 10.73100 28.99400
C  44.37400 11.36000 29.61000
C  43.99400 11.67100 30.95100
C  42.71100 11.06500 31.14500
C  45.77800 11.58700 29.05100
C  44.44600 12.34000 32.21000
O  45.41500 13.07200 32.45500
C  43.29100 12.02500 33.20800
C  43.88700 11.44500 34.43800
O  44.34200 10.31700 34.48300
O  43.90900 12.36900 35.47200
C  44.44800 12.00400 36.77600
H  37.40300 8.17400 33.01500
H  37.87500 8.14200 26.62100
H  43.82200 10.41400 27.04200
H  41.38800 10.40500 34.94300
H  38.43500 9.83800 34.68400
H  40.86400 8.14200 35.03500
H  39.42100 7.32600 34.54800
H  39.38800 8.25300 36.10700
H  39.26300 12.46000 34.26400
H  40.90300 12.74100 34.72800
H  39.58400 11.06300 36.71800
H  38.61000 12.43400 36.26800
H  35.89000 6.93200 32.37800
H  35.31800 5.89300 30.90000
H  34.60500 7.47800 31.31800
H  34.38700 5.57700 28.95500
H  33.67800 6.28100 27.53300
H  33.63300 7.22000 29.10600
H  39.60900 9.76400 25.12700
H  42.31500 8.68700 25.42500
H  39.91500 6.81600 25.37200
H  40.91900 7.50500 24.11200
H  39.21200 7.66400 23.94100
H  41.22400 10.68200 23.89500
H  42.77700 10.59600 24.15700
H  41.39300 12.75300 24.35800
H  42.65400 12.51700 25.53100
H  40.94900 12.11400 25.96400
H  46.18500 10.58100 29.14900
H  46.40000 12.21500 29.68900
H  45.69400 12.00700 28.04800
H  42.81500 12.95800 33.50900
H  43.66400 11.86100 37.52000
H  45.23000 12.65700 37.16400
H  45.01700 11.07400 36.77300
Mg 17.18700 52.63800 26.58400
C  19.40700 51.13200 28.75100
C  15.11000 53.20000 29.14800
C  15.20800 54.19600 24.42200
C  19.54600 52.03100 23.97500
N  17.17000 52.05100 28.68300
C  18.18500 51.42500 29.41000
C  17.97900 51.48800 30.92800
C  16.44500 51.78600 30.93300
C  16.17400 52.38300 29.49600
C  15.56300 50.54800 31.21700
C  18.84400 52.68000 31.53700
C  18.98600 52.52900 33.03600
H  17.89400 51.91500 33.79800
N  15.34700 53.56400 26.77400
C  14.69900 53.74600 27.92700
C  13.55900 54.63000 27.67900
C  13.55600 54.89100 26.27000
C  14.73000 54.22500 25.73800
C  12.58800 55.05300 28.76700
C  12.55800 55.69500 25.46900
O  12.54000 55.71200 24.28300
C  11.62300 56.51300 26.18800
N  17.29900 52.91100 24.45600
C  16.33900 53.64800 23.82300
C  16.75700 53.89000 22.36900
C  18.20900 53.33000 22.29700
C  18.35700 52.70400 23.62500
C  15.78300 53.11400 21.42000
C  19.35500 54.28600 21.89600
C  20.00000 54.17600 20.51400
N  18.96200 51.50200 26.34800
C  19.86200 51.51600 25.26100
C  20.99200 50.78100 25.63700
C  20.89400 50.61100 26.98500
C  19.64900 51.11300 27.36600
C  22.26300 50.49000 24.79700
C  21.56200 50.23500 28.14200
O  22.67400 49.74600 28.32700
C  20.66700 50.55500 29.30300
C  20.35400 49.33900 30.19700
O  19.93400 48.32600 29.72800
O  20.64400 49.70300 31.49800
C  20.24700 48.72400 32.49500
H  14.58500 53.63900 29.99900
H  14.59700 54.82800 23.77400
H  20.40600 51.94100 23.30800
H  18.24400 50.53500 31.38500
H  16.17600 52.49700 31.71400
H  14.91900 50.37000 30.35600
H  15.01600 50.69400 32.14900
H  16.17200 49.64400 31.19600
H  18.31200 53.63200 31.53700
H  19.83400 52.84900 31.11300
H  19.17600 53.45300 33.58300
H  19.92900 52.00600 33.19200
H  11.56900 54.80000 28.47300
H  12.66600 56.13300 28.88900
H  12.84200 54.60400 29.72700
H  10.79800 55.94200 26.61500
H  11.20200 57.26200 25.51700
H  12.19300 57.04200 26.95300
H  16.64700 54.95600 22.17200
H  18.11800 52.54700 21.54300
H  16.27900 52.90800 20.47100
H  15.01700 53.86400 21.22400
H  15.46100 52.17200 21.86400
H  20.22000 54.22400 22.55500
H  19.11500 55.33300 22.08400
H  21.08900 54.19900 20.56500
H  19.63700 54.98500 19.87900
H  19.58300 53.28400 20.04700
H  23.05600 50.32100 25.52500
H  22.55700 51.33400 24.17300
H  22.28900 49.57000 24.21300
H  21.15700 51.26800 29.96700
H  19.70400 47.84200 32.15500
H  19.76900 49.19500 33.35400
H  21.21800 48.38600 32.85600

