158

Mg 47.62400 35.59100 27.97100
C  46.33700 33.62200 30.47300
C  48.09700 38.10800 30.31800
C  49.21200 37.28900 25.60800
C  47.37800 32.87500 25.76700
N  47.21300 35.87300 30.15500
C  46.92900 34.83000 31.00800
C  47.35000 35.12300 32.41900
C  47.54300 36.73000 32.40600
C  47.55900 36.96800 30.88000
C  46.35700 37.48500 33.20000
C  48.55600 34.21600 32.87500
C  49.17500 34.47200 34.27400
H  48.28000 35.29500 35.28300
N  48.35400 37.54600 27.90300
C  48.39600 38.42600 28.94800
C  49.05500 39.68900 28.47600
C  49.44000 39.49300 27.12900
C  48.96000 38.02900 26.79600
C  49.28800 40.78500 29.46400
C  50.13800 40.34900 26.16300
O  50.58300 39.95600 25.08200
C  50.50300 41.76500 26.53800
N  48.09100 35.15600 25.87800
C  48.75600 36.03500 25.13800
C  49.23300 35.42000 23.84000
C  48.55400 34.00700 23.86300
C  47.92300 33.99300 25.19900
C  48.89100 36.27800 22.53400
C  49.55300 32.90000 23.54000
C  50.06600 32.90600 22.09700
N  46.86100 33.66700 27.95900
C  46.88000 32.67100 27.04400
C  46.22700 31.53200 27.61700
C  46.01900 31.89500 28.95800
C  46.35300 33.22200 29.09800
C  46.07500 30.08500 27.02600
C  45.40900 31.33400 30.18800
O  44.95400 30.25300 30.46500
C  45.49400 32.46400 31.13600
C  45.82600 32.06300 32.51400
O  46.70100 31.36700 32.89700
O  44.82400 32.66100 33.27600
C  44.66900 32.36500 34.67600
H  48.40300 38.89800 31.00800
H  49.78100 37.83900 24.85500
H  47.35700 31.95600 25.17700
H  46.44100 34.93000 32.98800
H  48.55800 36.99500 32.70300
H  46.73900 38.27200 33.85000
H  45.77200 36.90000 33.91000
H  45.67300 37.93900 32.48300
H  49.33400 34.49400 32.16400
H  48.40700 33.17300 32.59600
H  50.03900 35.09700 34.05000
H  49.46100 33.45300 34.53300
H  49.31200 41.79200 29.04800
H  50.19700 40.63100 30.04600
H  48.39100 40.78100 30.08200
H  49.64400 42.23100 27.02200
H  50.86900 42.23500 25.62600
H  51.26300 41.67100 27.31400
H  50.30400 35.22400 23.80300
H  47.75700 34.07700 23.12300
H  48.51200 37.26000 22.81500
H  48.04700 35.76200 22.07700
H  49.67500 36.39400 21.78500
H  49.14200 31.89600 23.64900
H  50.33300 32.82000 24.29700
H  49.95900 31.89500 21.70500
H  51.11100 33.20600 22.16600
H  49.61000 33.64500 21.43900
H  46.29100 29.93500 25.96800
H  45.09800 29.72400 27.34900
H  46.75700 29.41700 27.55300
H  44.49500 32.89300 31.22000
H  43.63100 32.03100 34.67200
H  44.75200 33.34000 35.15600
H  45.47000 31.74600 35.07900
Mg 30.10000 57.19100 41.39900
C  27.34300 55.35500 40.36400
C  32.08700 54.69500 40.37700
C  32.50700 59.43200 41.56500
C  27.88000 59.72700 42.66500
N  29.70300 55.39700 40.39000
C  28.51200 54.78200 40.04100
C  28.74800 53.44700 39.28700
C  30.14700 53.02000 39.82500
C  30.74100 54.46200 40.27300
C  30.14600 51.95300 40.91700
C  28.62300 53.52400 37.67000
C  27.63500 52.55400 36.94400
H  26.59700 53.12600 35.98100
N  32.02700 57.11100 40.95300
C  32.68100 55.92500 40.65400
C  34.11300 56.21000 40.63300
C  34.24400 57.59600 40.94600
C  32.92000 58.13800 41.18600
C  35.16800 55.18500 40.38100
C  35.55300 58.29400 41.00700
O  36.54700 57.68000 40.67600
C  35.69600 59.70700 41.39000
N  30.11700 59.40000 41.90600
C  31.24600 60.01200 41.84200
C  31.14400 61.54500 42.13200
C  29.73600 61.56600 42.87400
C  29.17800 60.12500 42.42600
C  32.33400 62.44000 42.68500
C  28.73300 62.72500 42.53700
C  28.10300 62.80900 41.05100
N  27.99700 57.44800 41.53000
C  27.26900 58.48100 42.17300
C  25.86500 58.03700 42.24700
C  25.82700 56.81000 41.44300
C  27.15900 56.51900 41.10600
C  24.63500 58.64000 42.87000
C  24.98300 55.75100 41.03100
O  23.79800 55.54600 41.14000
C  25.96000 54.76100 40.26600
C  25.87100 53.39300 40.90600
O  26.23700 53.10700 42.06200
O  25.27600 52.56100 39.98800
C  25.34800 51.14900 40.33400
H  32.77800 53.86300 40.22800
H  33.33600 60.14000 41.50200
H  27.17400 60.35800 43.20800
H  28.05600 52.73300 39.73400
H  30.70400 52.49200 39.05100
H  30.70700 52.40100 41.73700
H  30.59600 51.05200 40.50000
H  29.13000 51.73500 41.24600
H  29.62200 53.40100 37.25100
H  28.26900 54.47800 37.28000
H  27.07000 51.89900 37.60700
H  28.28300 51.96300 36.29700
H  35.89000 55.68000 39.73100
H  34.70800 54.39200 39.79100
H  35.68300 54.93500 41.30800
H  35.13000 59.98700 42.27900
H  35.23500 60.32900 40.62300
H  36.75600 59.88600 41.57200
H  30.95100 62.13000 41.23300
H  29.89500 61.51500 43.95100
H  32.74300 61.78300 43.45300
H  31.84700 63.27400 43.19000
H  32.93800 62.81800 41.86100
H  29.12100 63.68500 42.88000
H  27.87400 62.51500 43.17500
H  27.17400 62.24500 40.97500
H  28.81600 62.32700 40.38300
H  28.00200 63.84100 40.71400
H  24.08100 59.32200 42.22500
H  25.14200 59.29100 43.58200
H  23.99700 57.83300 43.22900
H  25.61900 54.78900 39.23100
H  26.37700 50.81700 40.20200
H  24.79500 50.62900 39.55200
H  24.84000 50.97600 41.28400

