158

Mg 1.63700 8.89200 27.13100
C  2.21500 11.17500 29.70900
C  1.68900 6.40000 29.36400
C  1.20500 6.92200 24.64800
C  1.65100 11.69600 24.86900
N  1.89600 8.78700 29.20500
C  2.07600 9.84000 30.07400
C  1.89300 9.36200 31.60800
C  2.20900 7.80700 31.42500
C  1.85900 7.62400 29.91800
C  3.65200 7.43500 31.81400
C  0.45000 9.59100 32.17900
C  0.13200 8.99000 33.58200
H  1.30600 8.58100 34.60500
N  1.55600 6.94000 26.97800
C  1.52500 6.04200 28.02600
C  1.24600 4.72300 27.46000
C  1.27000 4.85000 26.06700
C  1.18600 6.27700 25.83600
C  1.09000 3.52200 28.26800
C  1.33100 3.82400 25.05100
O  1.25800 4.06200 23.86200
C  1.45600 2.42200 25.47400
N  1.40200 9.27100 25.02300
C  1.25400 8.26000 24.22600
C  1.10000 8.73900 22.76800
C  0.76900 10.28800 22.85300
C  1.29100 10.43200 24.30200
C  2.37700 8.32400 21.98300
C  -0.72300 10.69200 22.77900
C  -1.42300 10.74200 21.43500
N  2.01100 10.98500 27.24700
C  1.94600 11.98300 26.26000
C  2.27000 13.30800 26.83400
C  2.42900 12.99200 28.25600
C  2.20200 11.60500 28.41200
C  2.37900 14.65900 26.09000
C  2.64500 13.58100 29.60200
O  3.02800 14.66200 29.93000
C  2.32400 12.41000 30.66000
C  3.51200 12.29000 31.62000
O  4.57900 11.70700 31.45700
O  3.07800 12.79300 32.81900
C  4.08800 12.64800 33.89200
H  1.68300 5.52700 30.02000
H  1.25500 6.30200 23.75000
H  1.60700 12.58500 24.23600
H  2.64800 9.99000 32.08100
H  1.64200 7.07400 31.99900
H  4.27700 6.84300 31.14600
H  3.58600 6.91100 32.76700
H  4.28200 8.31500 31.94400
H  -0.31400 9.05800 31.61300
H  0.23200 10.65800 32.17400
H  -0.29600 8.01900 33.33300
H  -0.51900 9.65700 34.14800
H  0.66900 3.66600 29.26300
H  2.02200 2.97400 28.40600
H  0.26700 2.92400 27.87700
H  0.55700 2.06600 25.97700
H  2.38200 2.41500 26.05000
H  1.69800 1.77900 24.62800
H  0.22000 8.27300 22.32500
H  1.42000 10.88900 22.21700
H  2.83700 7.50400 22.53400
H  3.14500 9.07700 21.80500
H  2.18200 7.92500 20.98800
H  -0.78000 11.67100 23.25500
H  -1.18700 9.91700 23.38800
H  -1.04200 10.08800 20.65000
H  -1.31600 11.79100 21.15800
H  -2.48000 10.58200 21.64700
H  1.68200 15.33200 26.59000
H  2.05700 14.53900 25.05500
H  3.41300 14.98300 26.20300
H  1.34100 12.57400 31.10000
H  3.53200 12.28000 34.75400
H  4.37700 13.67800 34.10300
H  4.93700 11.98000 33.74800
Mg 26.11100 1.39700 29.77700
C  27.93300 0.99100 32.67900
C  23.31600 1.93100 31.69200
C  24.08200 1.66200 26.96900
C  28.74400 0.54000 27.77700
N  25.70900 1.30000 31.89400
C  26.62100 1.22200 32.93200
C  26.00200 1.40500 34.31800
C  24.49600 1.61500 33.93400
C  24.53400 1.72300 32.40700
C  23.53200 0.46800 34.32200
C  26.52700 2.50400 35.18700
C  26.00700 2.60600 36.64500
H  26.95100 2.40100 37.83300
N  23.95200 1.67500 29.39500
C  22.99400 1.91100 30.33600
C  21.70000 2.24900 29.75000
C  21.96900 2.27100 28.29600
C  23.36000 1.86500 28.14000
C  20.46100 2.51700 30.57100
C  21.00000 2.54800 27.21100
O  21.35000 2.61200 26.04600
C  19.48300 2.76800 27.44200
N  26.39900 1.47700 27.62200
C  25.43100 1.44100 26.69000
C  25.88800 1.09900 25.19200
C  27.44300 0.82800 25.46500
C  27.54800 0.98800 27.06300
C  25.07600 0.07500 24.44000
C  28.46600 1.70500 24.71900
C  28.91600 1.13600 23.42700
N  28.01900 0.92400 30.07800
C  28.98500 0.60600 29.21500
C  30.17100 0.22300 29.90200
C  29.81700 0.41300 31.31000
C  28.46300 0.76200 31.34100
C  31.43200 -0.16200 29.34400
C  30.33600 0.46500 32.70300
O  31.51600 0.41000 33.13700
C  29.09700 0.68700 33.68900
C  28.87700 -0.37400 34.68500
O  28.18500 -1.37600 34.52300
O  29.61700 -0.06600 35.80600
C  29.56100 -0.98600 36.97200
H  22.47300 2.14200 32.35300
H  23.57700 1.70100 26.00200
H  29.55300 0.15300 27.15500
H  26.03900 0.44500 34.83300
H  24.15800 2.56400 34.35000
H  23.60000 -0.00600 35.30100
H  23.60500 -0.38400 33.64600
H  22.51100 0.83000 34.19900
H  26.51300 3.46600 34.67300
H  27.58400 2.33700 35.39500
H  25.24400 1.83500 36.75900
H  25.49600 3.56000 36.77600
H  20.55500 2.70900 31.64000
H  19.73800 1.74700 30.30200
H  20.02300 3.47100 30.27700
H  18.97400 2.97800 26.50100
H  19.34700 3.61500 28.11300
H  19.00600 1.82500 27.70600
H  25.76700 2.10300 24.78400
H  27.58600 -0.23300 25.26000
H  25.77100 -0.49200 23.82100
H  24.28200 0.58400 23.89400
H  24.43000 -0.48400 25.11800
H  29.38000 1.73700 25.31200
H  28.17900 2.75600 24.67200
H  28.71000 1.97200 22.75800
H  28.36500 0.20500 23.29400
H  29.96500 0.91100 23.23700
H  32.24500 -0.12000 30.06900
H  31.63200 0.52400 28.52100
H  31.26100 -1.18600 29.01200
H  29.31200 1.65800 34.13500
H  28.72200 -0.63000 37.57100
H  30.42600 -1.02300 37.63500
H  29.30900 -2.01400 36.71400

