158

Mg 24.64700 -8.55400 46.98000
C  27.07400 -6.16400 46.03700
C  22.58200 -7.56500 44.39400
C  22.72600 -11.23700 47.62300
C  27.21700 -9.95700 49.17200
N  24.95000 -7.05000 45.38900
C  25.93500 -6.19000 45.17800
C  25.57200 -5.22400 44.09200
C  24.17000 -5.58100 43.70000
C  23.87000 -6.86400 44.57600
C  22.99900 -4.52100 43.73100
C  26.64900 -5.15300 42.93000
C  27.18800 -3.71300 42.56900
H  27.09200 -3.15800 41.18100
N  22.82300 -9.26900 46.20500
C  22.13000 -8.68900 45.15400
C  20.94500 -9.40600 44.94200
C  20.86000 -10.46800 45.82400
C  22.19200 -10.41400 46.61200
C  20.03700 -8.95600 43.81900
C  19.76200 -11.54500 45.92600
O  18.75700 -11.52400 45.19900
C  19.98900 -12.82500 46.78900
N  25.09200 -10.37200 48.10200
C  23.99900 -11.23100 48.27300
C  24.44700 -12.48400 49.16800
C  25.88000 -12.08700 49.64500
C  26.09900 -10.75400 48.90700
C  23.47400 -12.68100 50.43200
C  27.01000 -13.10900 49.43300
C  27.43300 -14.04500 50.52100
N  26.66700 -8.08900 47.61000
C  27.58700 -8.75100 48.52100
C  28.84200 -8.02600 48.63500
C  28.64600 -6.96100 47.70600
C  27.36500 -7.09200 47.08400
C  29.95200 -8.40400 49.47200
C  29.17500 -5.72800 47.20100
O  30.27800 -5.27200 47.50800
C  28.19700 -5.20700 46.12900
C  27.76200 -3.82400 46.38000
O  26.95700 -3.49900 47.26000
O  28.19500 -2.98600 45.39700
C  28.01300 -1.56600 45.66700
H  21.97300 -7.02200 43.66900
H  22.16100 -12.15900 47.77800
H  27.96800 -10.31700 49.87800
H  25.42100 -4.24700 44.55100
H  24.26200 -5.94600 42.67700
H  23.43900 -3.53500 43.87700
H  22.20900 -4.68500 44.46400
H  22.57500 -4.58900 42.72900
H  26.11300 -5.31900 41.99600
H  27.46600 -5.84700 43.12800
H  28.24700 -3.80100 42.81100
H  26.63800 -3.16400 43.33300
H  20.20000 -7.92400 43.50900
H  19.01800 -9.09300 44.18100
H  20.08700 -9.62400 42.95900
H  20.97700 -13.16000 46.47100
H  19.19600 -13.46100 46.39700
H  19.79700 -12.33600 47.74400
H  24.59400 -13.42700 48.64200
H  25.90800 -11.77200 50.68800
H  22.57000 -13.13400 50.02500
H  23.12100 -11.69900 50.74500
H  23.83100 -13.35800 51.20800
H  27.91700 -12.53600 49.24100
H  26.83400 -13.64900 48.50300
H  26.69500 -13.92200 51.31400
H  28.42500 -13.75100 50.86600
H  27.50300 -15.08200 50.19300
H  30.50300 -9.29000 49.15400
H  29.61700 -8.64900 50.48000
H  30.62500 -7.55300 49.57500
H  28.78100 -5.13100 45.21200
H  28.50700 -1.43300 46.62900
H  26.94600 -1.34600 45.70000
H  28.46600 -0.92700 44.90900
Mg 35.37600 1.21300 29.25800
C  33.30500 2.29300 31.85400
C  37.83200 0.87500 31.63700
C  37.73600 0.46500 26.84200
C  32.95300 1.84500 26.96300
N  35.56200 1.76900 31.50800
C  34.55000 1.98200 32.31300
C  34.98600 1.91300 33.76200
C  36.52300 1.75100 33.67100
C  36.68800 1.45800 32.20100
C  37.56100 2.75300 34.32400
C  34.18200 0.88900 34.61600
C  33.97400 1.14300 36.10700
H  34.72000 2.29100 36.74800
N  37.48400 0.83400 29.20700
C  38.25900 0.64400 30.27800
C  39.53500 0.09200 29.85300
C  39.60200 0.17500 28.47200
C  38.23500 0.50300 28.11800
C  40.60200 -0.26800 30.91300
C  40.76900 -0.07400 27.49800
O  40.58100 0.08200 26.29900
C  42.01400 -0.58100 27.94000
N  35.27600 1.15000 27.19900
C  36.41200 0.87400 26.39100
C  36.02100 0.67600 24.92000
C  34.49300 1.10600 24.98700
C  34.21300 1.32600 26.49000
C  36.81000 1.39600 23.79200
C  33.52000 0.15600 24.27800
C  33.12000 -1.14500 25.05600
N  33.50100 2.00700 29.29600
C  32.64400 2.14100 28.27900
C  31.39200 2.54400 28.78900
C  31.56300 2.68200 30.18400
C  32.83700 2.23400 30.49300
C  30.08500 2.66800 28.05800
C  30.90500 2.95300 31.46600
O  29.72200 3.20800 31.77700
C  31.99500 2.63400 32.55600
C  32.00200 3.85500 33.43200
O  32.72100 4.78000 33.34900
O  31.10300 3.66200 34.51100
C  31.06000 4.83100 35.45400
H  38.48000 0.75200 32.50700
H  38.44100 0.09800 26.09400
H  32.16800 2.08600 26.24400
H  34.78000 2.87000 34.24200
H  36.66900 0.79500 34.17400
H  38.20800 2.29000 35.07000
H  36.91600 3.50600 34.77400
H  38.11100 3.36000 33.60500
H  34.71200 -0.06400 34.62300
H  33.21300 0.68800 34.15900
H  34.06800 0.21900 36.67700
H  32.89900 1.31400 36.16500
H  40.20900 -0.37500 31.92400
H  41.50900 0.32700 30.80700
H  41.00600 -1.22900 30.59300
H  42.56100 0.25700 28.37300
H  42.62400 -0.97700 27.12900
H  41.88200 -1.39800 28.64900
H  36.00000 -0.37300 24.62600
H  34.35800 2.06100 24.47800
H  37.07000 0.67800 23.01400
H  37.69900 1.94700 24.10000
H  36.14400 2.14400 23.36300
H  34.01200 -0.21000 23.37700
H  32.66700 0.72300 23.90500
H  33.92600 -1.55300 25.66500
H  32.78500 -1.81100 24.26100
H  32.18800 -1.01200 25.60600
H  29.29800 2.33500 28.73500
H  29.96800 2.08900 27.14200
H  29.90700 3.69600 27.74500
H  31.58600 1.78200 33.09900
H  31.90400 4.73500 36.13600
H  30.12600 4.71700 36.00400
H  31.05400 5.78800 34.93200

