158

Mg -0.10700 7.95300 27.46800
C  0.75400 10.19900 30.04300
C  0.28400 5.38400 29.86200
C  -0.63200 5.82000 25.00300
C  0.24500 10.65400 25.22400
N  0.43500 7.76000 29.71800
C  0.53000 8.90100 30.56600
C  0.52500 8.50900 32.02400
C  0.79800 6.94600 31.94700
C  0.52500 6.64600 30.42900
C  2.22800 6.49600 32.33400
C  -0.86300 8.84600 32.66900
C  -0.83100 9.17700 34.22300
H  0.43400 8.86100 34.97500
N  -0.28200 5.88900 27.50000
C  -0.09200 5.01600 28.51700
C  -0.27000 3.63300 27.97500
C  -0.62800 3.75100 26.59700
C  -0.55900 5.20900 26.28800
C  -0.20300 2.41600 28.85700
C  -1.00000 2.60900 25.60300
O  -1.32400 2.80700 24.43700
C  -0.92500 1.17700 26.04200
N  -0.16600 8.23100 25.46800
C  -0.44300 7.19500 24.56200
C  -0.30300 7.68900 23.07600
C  -0.47100 9.22400 23.27400
C  -0.10700 9.41200 24.75500
C  1.02300 7.21500 22.31500
C  -1.91100 9.86000 22.85700
C  -1.98400 10.95400 21.77200
N  0.37400 9.94700 27.56100
C  0.48600 10.94000 26.54800
C  0.89400 12.14400 27.16800
C  0.93300 11.87800 28.50000
C  0.64200 10.55600 28.71900
C  1.18300 13.53300 26.49000
C  1.16500 12.52700 29.76400
O  1.42600 13.71100 29.97500
C  1.00300 11.41700 30.82800
C  2.23300 11.45700 31.64000
O  3.24600 10.86100 31.34300
O  2.06500 12.23300 32.75300
C  3.26400 12.42800 33.60300
H  0.27400 4.61500 30.63700
H  -0.74400 5.11400 24.17800
H  0.26400 11.55900 24.61400
H  1.34700 9.01000 32.53500
H  0.01500 6.54800 32.59100
H  2.92800 7.28800 32.60200
H  2.67500 6.00500 31.47000
H  2.27400 5.69900 33.07700
H  -1.64500 8.16500 32.33200
H  -1.17200 9.77000 32.18000
H  -1.73100 8.68400 34.58800
H  -1.11200 10.22400 34.33800
H  -1.18900 2.07900 29.17600
H  0.27800 2.67600 29.80000
H  0.35100 1.64300 28.32600
H  -1.68300 0.90000 26.77400
H  0.10900 1.00100 26.33900
H  -1.05300 0.50200 25.19600
H  -1.18100 7.24800 22.60300
H  0.30600 9.82400 22.80100
H  0.81300 6.58900 21.44700
H  1.61900 6.62800 23.01400
H  1.59600 8.11700 22.10400
H  -2.36600 10.26200 23.76200
H  -2.53500 9.02300 22.54600
H  -2.52100 10.56000 20.90900
H  -1.00700 11.34200 21.48200
H  -2.48300 11.83800 22.16900
H  0.54800 13.84000 25.66000
H  2.20400 13.60200 26.11500
H  0.97200 14.24300 27.28900
H  0.22600 11.75300 31.51400
H  3.06200 12.08200 34.61700
H  3.55000 13.47300 33.72100
H  4.14300 11.85800 33.30100
Mg 17.18900 51.96700 25.96600
C  18.55100 50.73700 28.79900
C  14.36300 53.03400 27.85300
C  15.62500 53.10600 23.25300
C  19.63300 50.54400 23.97900
N  16.48000 51.81400 28.04700
C  17.29200 51.36200 29.06300
C  16.60400 51.55600 30.51300
C  15.29900 52.28500 30.10000
C  15.40400 52.43800 28.55900
C  13.97800 51.48200 30.57000
C  17.51300 52.44400 31.50300
C  17.76700 51.73300 32.80500
H  17.08100 52.41900 33.99000
N  15.24200 53.10200 25.67300
C  14.25300 53.43900 26.51500
C  13.21500 54.13700 25.82100
C  13.62000 54.22200 24.43300
C  14.85700 53.45200 24.43500
C  11.99900 54.66200 26.52500
C  12.99100 54.94000 23.28600
O  13.44100 54.92100 22.17100
C  11.83500 55.84800 23.48400
N  17.53100 51.72800 23.95200
C  16.77500 52.37500 23.00800
C  17.37500 52.30700 21.56400
C  18.82700 51.73400 21.82400
C  18.64800 51.29300 23.31600
C  16.57500 51.38900 20.54600
C  19.93700 52.70400 21.64400
C  19.77700 54.21600 21.97000
N  18.73300 50.78800 26.27600
C  19.68400 50.26600 25.40800
C  20.64000 49.48200 26.14900
C  20.30000 49.69300 27.46600
C  19.07700 50.42600 27.46800
C  21.76900 48.72900 25.63300
C  20.66100 49.38700 28.85700
O  21.61500 48.67300 29.28800
C  19.47000 50.01800 29.74400
C  18.81300 48.98700 30.59800
O  17.92300 48.18600 30.32600
O  19.45900 49.08600 31.80400
C  18.92000 48.33600 32.91500
H  13.59500 53.42000 28.52700
H  15.37900 53.72000 22.38400
H  20.50600 50.14300 23.46000
H  16.30300 50.58900 30.91500
H  15.25500 53.28000 30.54200
H  13.60800 50.83500 29.77400
H  13.29400 52.22200 30.98400
H  14.17400 50.87600 31.45400
H  17.02400 53.40200 31.68100
H  18.45800 52.60200 30.98300
H  18.84200 51.63300 32.95700
H  17.30600 50.74600 32.79900
H  11.94900 55.73400 26.71400
H  11.75700 54.22500 27.49400
H  11.22500 54.43200 25.79200
H  11.97500 56.48500 24.35700
H  10.95900 55.20200 23.54800
H  11.58100 56.39500 22.57600
H  17.41800 53.24100 21.00300
H  19.01900 50.94000 21.10200
H  17.00800 50.41400 20.31900
H  16.25000 51.84600 19.61100
H  15.63000 51.04400 20.96600
H  20.31100 52.70400 20.62000
H  20.78700 52.36800 22.23800
H  19.80500 54.79300 21.04600
H  20.65200 54.55100 22.52900
H  18.85400 54.46400 22.49400
H  22.30700 49.40000 24.96400
H  21.61500 47.88700 24.95800
H  22.43900 48.33300 26.39600
H  19.95200 50.78900 30.34600
H  19.80500 47.76400 33.19100
H  18.14600 47.57400 32.82400
H  18.72900 49.09700 33.67200

