158

Mg 46.87400 24.76700 28.74000
C  47.86500 27.28400 30.95200
C  45.89700 22.79800 31.32600
C  46.64400 22.33100 26.55600
C  48.68200 26.64300 26.24700
N  46.91100 25.02800 30.85300
C  47.23000 26.14300 31.55600
C  46.96600 25.90300 33.07900
C  46.65600 24.36000 33.16500
C  46.53600 23.98300 31.66100
C  47.59900 23.47900 33.98800
C  45.81200 26.79500 33.64300
C  45.48800 26.74200 35.14800
H  46.54500 26.17600 36.14300
N  46.16400 22.85800 28.89600
C  45.67400 22.25700 30.02000
C  44.94900 21.09400 29.64000
C  45.14800 20.90700 28.24400
C  46.04600 22.00700 27.81100
C  44.22600 20.11100 30.57900
C  44.60100 19.82300 27.29200
O  44.72400 19.96000 26.05300
C  43.73100 18.68700 27.74700
N  47.76400 24.50800 26.72500
C  47.44300 23.36100 26.05900
C  47.96900 23.37300 24.57300
C  48.35600 24.88100 24.46100
C  48.32400 25.37100 25.85700
C  49.11600 22.39000 24.25900
C  47.41300 25.72900 23.54800
C  48.06900 26.51400 22.36500
N  47.88300 26.63700 28.54500
C  48.58400 27.22900 27.55000
C  49.09900 28.54700 27.92300
C  48.78000 28.61300 29.29500
C  48.15500 27.40200 29.61800
C  49.78800 29.44800 26.94000
C  48.96800 29.45000 30.51800
O  49.42400 30.61400 30.65300
C  48.36600 28.53700 31.61500
C  49.50000 28.41400 32.48500
O  50.49500 27.69200 32.27000
O  49.27400 29.13400 33.64700
C  50.32900 29.11000 34.65100
H  45.57800 22.13100 32.13000
H  46.60900 21.45200 25.90900
H  49.14700 27.30200 25.51000
H  47.89000 26.22300 33.56000
H  45.75100 24.27200 33.76600
H  48.33800 24.02000 34.57900
H  48.14500 22.87700 33.26100
H  47.09500 22.68700 34.54200
H  44.89900 26.73000 33.05100
H  46.12600 27.83800 33.67000
H  44.62000 26.09200 35.26200
H  45.28100 27.76200 35.47200
H  44.41200 20.47000 31.59100
H  44.66300 19.11700 30.49200
H  43.18400 20.16200 30.26000
H  44.07000 18.20500 28.66400
H  43.79100 17.94300 26.95300
H  42.77400 19.14200 28.00100
H  47.17700 23.23500 23.83600
H  49.40500 24.83900 24.16800
H  49.05500 21.67800 25.08100
H  50.10800 22.83300 24.35900
H  48.86500 21.97700 23.28200
H  46.74700 26.33400 24.16300
H  46.81300 25.04500 22.94700
H  47.52900 27.46200 22.36700
H  47.89600 26.06700 21.38600
H  49.13200 26.72400 22.48200
H  50.79100 29.02200 26.90800
H  49.78800 30.47500 27.30500
H  49.25300 29.43000 25.99100
H  47.52400 29.02000 32.11100
H  50.33700 28.11700 35.10000
H  50.16600 29.94000 35.33800
H  51.28000 29.08100 34.11900
Mg 0.54700 43.28400 25.89900
C  2.56300 43.73200 28.71700
C  -1.92500 42.06200 27.95300
C  -1.15100 42.38100 23.19600
C  3.26000 44.29600 23.92800
N  0.41600 43.03800 28.07400
C  1.26700 43.37800 29.03900
C  0.62600 43.32600 30.42800
C  -0.85200 42.79000 30.10900
C  -0.82200 42.63600 28.59200
C  -1.37700 41.57000 30.84800
C  0.67900 44.65100 31.16900
C  0.95100 44.52700 32.69400
H  0.84400 43.21500 33.34900
N  -1.30100 42.39300 25.63000
C  -2.14500 42.00800 26.59200
C  -3.26100 41.23100 26.00500
C  -3.02900 41.31400 24.59200
C  -1.78700 42.09100 24.42400
C  -4.38100 40.58600 26.84500
C  -3.86500 40.78000 23.50600
O  -3.47100 40.96400 22.35000
C  -5.16600 40.03000 23.76000
N  0.92100 43.42000 23.83300
C  0.10500 42.91100 22.89300
C  0.75100 43.09100 21.48300
C  2.05400 43.86900 21.70000
C  2.11800 43.89100 23.24200
C  1.03200 41.71800 20.75300
C  2.13700 45.25000 20.97900
C  1.86800 46.52500 21.86700
N  2.50700 43.92000 26.23800
C  3.50800 44.23500 25.30900
C  4.77200 44.31100 26.03000
C  4.39700 44.11800 27.38600
C  3.00600 43.93400 27.45200
C  6.13400 44.62800 25.43000
C  4.96300 43.98100 28.63900
O  6.15300 43.88900 28.88200
C  3.80900 43.82200 29.58300
C  3.93700 42.57000 30.38800
O  3.50800 41.48200 29.95400
O  4.34100 42.80100 31.70800
C  4.58000 41.58300 32.53700
H  -2.73600 41.86500 28.65600
H  -1.56700 42.15700 22.21100
H  4.17200 44.47200 23.35300
H  1.24400 42.62300 30.98700
H  -1.56800 43.60000 30.24700
H  -0.59200 41.05900 31.40500
H  -1.67100 40.85200 30.08200
H  -2.26800 41.81800 31.42500
H  -0.25200 45.19600 31.00800
H  1.48400 45.24600 30.73900
H  0.23700 45.22100 33.13700
H  1.93500 44.97600 32.83300
H  -4.77400 41.12100 27.71000
H  -4.17700 39.52800 27.00800
H  -5.28100 40.59500 26.23000
H  -5.45000 39.52000 22.84000
H  -5.91800 40.72000 24.14400
H  -5.25200 39.24400 24.51000
H  0.00700 43.59200 20.86500
H  2.94700 43.30400 21.43500
H  1.06300 40.92500 21.50100
H  2.01600 41.73200 20.28500
H  0.33100 41.33200 20.01300
H  1.37000 45.14200 20.21100
H  3.10000 45.41100 20.49500
H  1.67400 47.30000 21.12600
H  2.71900 46.79200 22.49300
H  0.95900 46.43500 22.46200
H  6.09300 44.62700 24.34100
H  6.75100 43.78600 25.74400
H  6.59200 45.52800 25.84100
H  3.82000 44.69600 30.23400
H  5.65700 41.41700 32.51000
H  4.08600 40.63400 32.33100
H  4.37900 41.82000 33.58200

