158

Mg 41.23400 9.36800 29.82200
C  43.04600 10.55400 32.48700
C  38.93500 7.95600 31.94900
C  39.86400 7.83400 27.10700
C  43.85500 10.35800 27.71100
N  40.97300 9.30400 32.02900
C  41.90800 9.76000 32.90300
C  41.39700 9.60700 34.32300
C  40.07300 8.75100 34.13300
C  39.96500 8.61900 32.60200
C  39.97600 7.34200 34.82800
C  41.32800 10.86900 35.23800
C  40.50600 10.89400 36.53000
H  41.34300 11.14800 37.87400
N  39.56400 8.18800 29.57800
C  38.74000 7.67100 30.59300
C  37.61500 6.99700 29.97500
C  37.86400 7.05300 28.52000
C  39.16100 7.68800 28.36100
C  36.52900 6.20500 30.74900
C  37.05800 6.49000 27.41700
O  37.34300 6.61000 26.21500
C  35.74300 5.98400 27.72000
N  41.80100 9.15100 27.65300
C  40.98400 8.57400 26.76300
C  41.61800 8.61900 25.32400
C  42.72400 9.61300 25.47200
C  42.83600 9.71500 27.02700
C  41.98900 7.19100 24.82100
C  42.51400 10.99800 24.73500
C  41.93200 12.16000 25.55600
N  43.12000 10.22300 29.98000
C  44.02800 10.58500 29.09800
C  45.13300 11.24100 29.73400
C  44.83300 11.25600 31.11200
C  43.54400 10.67600 31.19000
C  46.49800 11.46600 29.08300
C  45.33700 11.53400 32.43600
O  46.44300 11.95700 32.81600
C  44.14000 11.09700 33.38300
C  44.66600 10.21300 34.38500
O  44.55900 8.99000 34.38100
O  45.19300 10.96800 35.38800
C  45.51200 10.17600 36.59200
H  38.10100 7.55800 32.53000
H  39.38400 7.43600 26.21100
H  44.70800 10.71500 27.13000
H  42.07800 8.92400 34.83300
H  39.20100 9.23300 34.57400
H  38.90800 7.17100 34.96200
H  40.56500 7.29800 35.74500
H  40.36000 6.57400 34.15800
H  41.17000 11.72900 34.58700
H  42.29900 11.13900 35.65200
H  39.99700 9.93100 36.55700
H  39.59600 11.48600 36.44000
H  36.64600 5.16300 30.44900
H  35.53000 6.64000 30.73100
H  36.60600 6.25500 31.83500
H  35.09600 5.84700 26.85400
H  35.28300 6.66700 28.43400
H  35.97000 4.98400 28.09000
H  40.79200 9.09000 24.79100
H  43.61000 9.09400 25.10600
H  41.83100 6.51300 25.65900
H  43.02700 7.06700 24.51100
H  41.27700 6.87100 24.06000
H  41.93300 10.88300 23.82000
H  43.48400 11.39400 24.43600
H  41.44400 11.86100 26.48300
H  41.23100 12.72500 24.94200
H  42.72600 12.87100 25.78400
H  46.70000 10.82300 28.22600
H  47.26800 11.36100 29.84800
H  46.49300 12.51500 28.78700
H  43.86500 12.06100 33.81100
H  45.70300 10.88900 37.39400
H  46.46900 9.70400 36.37200
H  44.77100 9.44900 36.92300
Mg 4.85200 53.16900 42.09800
C  5.01400 49.78000 41.25600
C  7.83200 53.69900 40.47300
C  4.39700 56.49300 42.58800
C  1.55500 52.56600 43.30300
N  6.17400 51.92700 40.87900
C  6.06100 50.59300 40.73900
C  7.29800 50.09800 39.93700
C  8.30800 51.18400 40.18800
C  7.38500 52.39100 40.53600
C  9.28400 51.03900 41.42800
C  6.99200 49.92200 38.41300
C  7.62100 48.79400 37.62000
H  6.92000 48.05100 36.38800
N  5.93700 54.85300 41.57800
C  7.18200 54.83500 40.96200
C  7.70500 56.20700 40.93400
C  6.66700 57.04800 41.44200
C  5.61300 56.18000 41.93800
C  9.11100 56.55100 40.49800
C  6.68500 58.53200 41.50200
O  7.71800 59.17700 41.21100
C  5.63700 59.34000 42.10300
N  3.21200 54.33500 42.80100
C  3.31400 55.69700 42.94000
C  2.09100 56.38700 43.39600
C  1.10800 55.14700 43.56800
C  1.97500 53.89900 43.22200
C  2.25100 57.15500 44.73100
C  -0.12600 55.21900 42.57900
C  -1.43700 54.54300 43.21300
N  3.47400 51.55100 42.22300
C  2.28900 51.46700 42.86000
C  1.87200 50.07700 42.95000
C  2.91200 49.36700 42.31000
C  3.83900 50.29700 41.86100
C  0.63200 49.51300 43.44600
C  3.34700 48.06300 41.90600
O  2.80200 47.02300 41.97900
C  4.80500 48.25400 41.30800
C  4.86700 47.54900 40.06700
O  4.21600 47.81100 39.07800
O  5.77600 46.49800 40.15700
C  5.83100 45.53300 39.04200
H  8.82200 53.81100 40.02500
H  4.24100 57.54900 42.81900
H  0.55900 52.42600 43.72900
H  7.58400 49.12900 40.34600
H  9.02200 51.44300 39.40600
H  10.20500 51.49000 41.06100
H  9.37500 49.99100 41.71300
H  8.97800 51.64100 42.28400
H  7.28800 50.86300 37.95200
H  5.92500 49.92400 38.19000
H  7.83100 48.07000 38.40700
H  8.61500 49.02700 37.23900
H  9.66700 55.66200 40.20100
H  9.60300 56.97300 41.37500
H  9.05300 57.29800 39.70600
H  5.80600 60.41000 42.22100
H  5.41300 58.96200 43.10100
H  4.81700 59.12800 41.41700
H  1.81500 57.05800 42.58300
H  0.86300 54.87500 44.59500
H  2.40900 58.18400 44.40800
H  3.11700 56.80700 45.29400
H  1.33300 57.03700 45.30600
H  0.24100 54.59800 41.76200
H  -0.39000 56.23500 42.28300
H  -1.69400 53.63200 42.67200
H  -2.27000 55.22400 43.38600
H  -1.21200 54.14400 44.20200
H  0.66800 49.35300 44.52300
H  0.38900 48.61000 42.88500
H  -0.14800 50.22600 43.17900
H  5.59200 47.79100 41.90300
H  6.85800 45.55600 38.67600
H  5.16800 45.72000 38.19800
H  5.36300 44.58200 39.29800

