158

Mg 8.30900 3.33300 27.73400
C  9.65300 2.15800 30.70900
C  6.47300 5.69200 29.67700
C  6.95200 4.46600 24.93800
C  9.88300 0.83800 26.01200
N  7.94000 3.62700 30.02600
C  8.78700 3.18700 30.99800
C  8.53500 3.84300 32.37400
C  7.34200 4.77600 31.97600
C  7.23000 4.69800 30.47200
C  5.96000 4.77200 32.73200
C  9.69500 4.52700 33.09600
C  10.04600 4.04100 34.56100
H  10.46700 5.06200 35.60400
N  6.90600 4.82800 27.41300
C  6.24500 5.66100 28.27700
C  5.45000 6.61400 27.41800
C  5.61500 6.27800 26.04000
C  6.56500 5.18700 26.09800
C  4.65000 7.75800 28.12800
C  5.02100 6.88200 24.87300
O  5.28100 6.64100 23.65600
C  3.85300 7.89100 25.04300
N  8.47900 2.76700 25.65600
C  7.76300 3.34400 24.74600
C  8.16000 2.80500 23.38900
C  9.40400 1.92400 23.67000
C  9.24500 1.79100 25.20100
C  7.00500 2.17700 22.59400
C  10.70200 2.67000 23.29300
C  11.04600 2.48400 21.83800
N  9.48700 1.67900 28.22400
C  10.09700 0.85000 27.39800
C  10.92800 -0.02400 28.21700
C  10.81400 0.49300 29.55200
C  9.89700 1.48700 29.47500
C  11.85400 -1.01700 27.60000
C  11.26300 0.29200 30.86500
O  12.00300 -0.52400 31.37900
C  10.61900 1.43900 31.64500
C  9.78900 0.79700 32.75100
O  8.56100 0.62100 32.79900
O  10.65000 0.60200 33.82600
C  9.95800 0.28500 35.06200
H  6.19300 6.42100 30.44100
H  6.48000 4.79600 24.01100
H  10.51200 0.16700 25.42200
H  8.05300 3.07300 32.97600
H  7.68500 5.79000 32.18200
H  5.16300 4.21600 32.23900
H  5.55700 5.77300 32.88200
H  6.06500 4.25700 33.68700
H  9.49300 5.59500 33.01500
H  10.58900 4.33500 32.50300
H  10.92300 3.42900 34.34700
H  9.19700 3.50200 34.98100
H  3.65200 7.32000 28.10200
H  4.60000 8.62200 27.46400
H  5.09800 7.96900 29.09900
H  3.09300 7.73400 25.80900
H  3.35500 7.85900 24.07400
H  4.40700 8.81700 25.20000
H  8.37600 3.53400 22.60700
H  9.34500 0.98900 23.11300
H  6.04800 2.24500 23.11100
H  7.25900 1.15600 22.30800
H  6.78200 2.75800 21.69900
H  11.46100 2.36000 24.01100
H  10.48000 3.70600 23.55100
H  10.78400 3.33800 21.21400
H  10.66600 1.55800 21.40600
H  12.12300 2.31900 21.78900
H  12.31200 -0.65100 26.68100
H  11.31600 -1.90700 27.27400
H  12.55600 -1.13600 28.42500
H  11.40300 2.12700 31.96000
H  10.58900 0.43000 35.93900
H  9.63700 -0.75600 35.10000
H  9.11800 0.97400 35.14800
Mg -2.23900 34.35100 26.63200
C  -3.75400 32.53700 29.24700
C  -0.93700 36.54700 28.99800
C  -1.28900 36.38300 24.16800
C  -4.11300 32.49900 24.43100
N  -2.51100 34.55100 28.83500
C  -3.11000 33.70800 29.71000
C  -2.80500 34.20000 31.13800
C  -2.15700 35.58200 30.99100
C  -1.82200 35.57200 29.50200
C  -3.02900 36.81700 31.40900
C  -1.92200 33.22800 32.02300
C  -2.29100 32.86000 33.49600
H  -1.19700 32.94200 34.51900
N  -1.02900 36.15100 26.55400
C  -0.54300 36.83100 27.67500
C  0.35800 37.83800 27.15400
C  0.28900 37.78000 25.71300
C  -0.67900 36.72000 25.38100
C  1.17400 38.71300 28.04800
C  1.06100 38.53000 24.70900
O  0.86800 38.38900 23.50200
C  2.04200 39.56600 25.17000
N  -2.80500 34.56600 24.61800
C  -2.24000 35.45600 23.79000
C  -2.70900 35.34800 22.30900
C  -3.50200 33.99200 22.37000
C  -3.53200 33.67500 23.88000
C  -3.48600 36.64500 21.78400
C  -2.89200 32.84400 21.49900
C  -1.42400 32.54000 21.69800
N  -3.53800 32.81800 26.79200
C  -4.22300 32.09700 25.75300
C  -5.02800 31.02200 26.30000
C  -4.83700 31.08000 27.68000
C  -3.86400 32.17300 27.89500
C  -6.04200 30.17100 25.50800
C  -5.25900 30.53600 28.96000
O  -5.97500 29.57700 29.19800
C  -4.52700 31.45900 30.09500
C  -5.62600 32.02800 30.90200
O  -6.37200 32.92000 30.57100
O  -5.55700 31.43900 32.14600
C  -6.60400 31.80400 33.12500
H  -0.46900 37.14100 29.78600
H  -0.96900 37.00500 23.32900
H  -4.67100 31.81700 23.78600
H  -3.78700 34.23600 31.61000
H  -1.20800 35.66500 31.52200
H  -3.20400 37.52400 30.59800
H  -2.60100 37.31800 32.27700
H  -3.99200 36.61100 31.87800
H  -0.91900 33.65300 32.03500
H  -1.76800 32.33200 31.42200
H  -2.71100 31.85800 33.40900
H  -3.14100 33.44000 33.85300
H  0.79600 39.67000 27.68800
H  2.19700 38.40300 27.83200
H  0.91200 38.59600 29.09900
H  1.51700 40.41800 25.60300
H  2.47800 40.09700 24.32400
H  2.76100 39.09400 25.84000
H  -1.77100 35.16700 21.78300
H  -4.49300 34.25600 22.00200
H  -4.26100 36.28900 21.10500
H  -2.78600 37.15900 21.12500
H  -3.79300 37.20300 22.66800
H  -3.08700 33.13000 20.46600
H  -3.49100 31.96500 21.73800
H  -0.99700 33.14300 20.89600
H  -1.25800 31.46300 21.66000
H  -1.16800 33.07900 22.61000
H  -6.92800 30.08400 26.13700
H  -5.63500 29.21100 25.19000
H  -6.25900 30.84300 24.67700
H  -3.90400 30.81700 30.71800
H  -7.37300 32.44000 32.68700
H  -6.07500 32.34600 33.90900
H  -6.96900 30.84800 33.50000

