158

Mg 1.36900 -1.69200 43.27400
C  4.72200 -0.83400 42.73500
C  0.36800 1.12900 41.62800
C  -1.78100 -2.90200 43.34600
C  2.37400 -4.79800 44.57600
N  2.43200 -0.13400 42.21500
C  3.82000 0.05800 42.07400
C  4.13900 1.35200 41.40600
C  2.68300 1.96400 41.24100
C  1.77100 0.89900 41.82000
C  2.36400 3.39100 41.77100
C  4.94800 1.31200 40.12900
C  4.21000 0.75600 38.88200
H  4.91000 0.04400 37.80500
N  -0.47300 -0.93600 42.64100
C  -0.71900 0.29600 42.07400
C  -2.08400 0.49500 41.83800
C  -2.67600 -0.78500 42.21600
C  -1.66000 -1.61500 42.81200
C  -2.62000 1.71100 41.14500
C  -4.08100 -1.04700 41.95200
O  -4.86300 -0.17400 41.55500
C  -4.76700 -2.31100 42.32700
N  0.39800 -3.67600 43.81000
C  -0.92100 -3.77000 43.96700
C  -1.34400 -5.17600 44.45700
C  -0.02500 -5.67700 45.02900
C  1.03200 -4.69200 44.39400
C  -2.56600 -5.38800 45.37400
C  0.20100 -7.21800 44.83100
C  0.79200 -8.00900 45.97700
N  3.07100 -2.65200 43.59900
C  3.37800 -3.87500 44.26600
C  4.81100 -4.02900 44.52500
C  5.29100 -2.87000 43.88200
C  4.24500 -2.04800 43.42300
C  5.55400 -5.06400 45.22900
C  6.56200 -2.24500 43.60600
O  7.67600 -2.64300 43.98600
C  6.27300 -0.91800 42.75800
C  7.12800 0.24400 43.34400
O  7.78900 1.03900 42.71000
O  6.94000 0.30900 44.75700
C  7.80500 1.34200 45.38200
H  0.10800 2.08100 41.15900
H  -2.82100 -3.17800 43.53400
H  2.58300 -5.77000 45.03000
H  4.56200 2.02000 42.15700
H  2.46400 1.92500 40.17400
H  1.60800 3.42600 42.55500
H  2.07600 4.00500 40.91700
H  3.28200 3.85300 42.13500
H  5.82600 0.70800 40.35700
H  5.28000 2.34400 40.01400
H  3.78200 1.66800 38.46700
H  3.42300 0.03300 39.09800
H  -3.61900 2.11400 41.31500
H  -2.57200 1.55300 40.06700
H  -1.95700 2.57200 41.23500
H  -5.84300 -2.36100 42.16100
H  -4.70500 -2.42900 43.40900
H  -4.28400 -3.16600 41.85400
H  -1.63900 -5.78400 43.60200
H  0.06800 -5.48600 46.09800
H  -2.91200 -6.39000 45.12000
H  -3.31600 -4.60200 45.28400
H  -2.31600 -5.42100 46.43400
H  0.72100 -7.45100 43.90200
H  -0.76900 -7.63500 44.55800
H  1.65700 -8.53300 45.56900
H  0.06600 -8.72200 46.36800
H  1.07200 -7.38100 46.82300
H  6.24500 -4.66200 45.97000
H  6.05300 -5.73000 44.52500
H  4.75200 -5.61400 45.72000
H  6.71600 -1.08300 41.77600
H  7.91100 1.11000 46.44200
H  7.22900 2.25600 45.23300
H  8.82900 1.37300 45.01000
Mg 27.35100 51.29300 26.15200
C  25.52200 52.43400 28.94600
C  29.79300 50.28200 28.37000
C  29.30700 50.68900 23.53200
C  25.02300 52.83900 24.04700
N  27.60900 51.33500 28.43600
C  26.75800 51.83900 29.34100
C  27.23400 51.51600 30.73800
C  28.71800 51.18200 30.51900
C  28.75800 50.91600 29.03900
C  29.76800 52.12000 31.09700
C  26.43000 50.31300 31.41900
C  25.66000 50.76400 32.70000
H  25.55900 49.67000 33.71200
N  29.23700 50.41300 25.99200
C  29.99900 50.06200 26.98000
C  31.20100 49.39600 26.44900
C  31.04600 49.47900 25.04400
C  29.82500 50.26800 24.79300
C  32.44100 48.87000 27.26100
C  31.78200 48.86300 23.86100
O  31.40600 48.79800 22.68200
C  33.17000 48.26600 24.11800
N  27.28500 51.84200 24.02700
C  28.19000 51.40000 23.14400
C  27.71800 51.67700 21.71800
C  26.21900 52.19100 21.96500
C  26.17700 52.33200 23.43000
C  28.59600 52.69600 20.91000
C  25.12900 51.17100 21.46300
C  23.95600 51.68300 20.74300
N  25.58800 52.33800 26.36900
C  24.75600 52.96500 25.39800
C  23.63100 53.48900 26.08400
C  23.95000 53.35700 27.42800
C  25.13400 52.58200 27.55500
C  22.46800 54.19400 25.47900
C  23.46200 53.71300 28.74400
O  22.44600 54.30000 29.11300
C  24.38800 52.99200 29.77500
C  24.87000 54.03900 30.74900
O  25.44100 55.09900 30.42000
O  24.52500 53.57600 31.99500
C  24.89100 54.47000 33.09300
H  30.72500 49.97700 28.85200
H  29.91800 50.41000 22.67100
H  24.16500 53.08300 23.41600
H  27.07400 52.45500 31.26800
H  28.96900 50.20900 30.94200
H  30.40700 51.55400 31.77500
H  29.49400 53.03200 31.62900
H  30.45400 52.35400 30.28300
H  27.04100 49.43600 31.63100
H  25.62400 50.05800 30.73100
H  24.65700 51.14900 32.51700
H  26.17800 51.63400 33.10500
H  33.36200 48.94200 26.68300
H  32.31700 47.84600 27.61500
H  32.59800 49.41400 28.19200
H  33.10000 47.44600 24.83300
H  33.75000 49.02000 24.65100
H  33.77400 47.90700 23.28600
H  27.76800 50.76200 21.12900
H  26.10300 53.20200 21.57500
H  29.63900 52.77200 21.21700
H  28.19400 53.70100 20.78500
H  28.60000 52.29800 19.89600
H  24.89400 50.58200 22.35000
H  25.60600 50.53300 20.71900
H  23.00700 51.29200 21.11100
H  24.06900 51.30400 19.72700
H  24.05200 52.76800 20.70400
H  22.75700 54.59900 24.50900
H  22.22300 55.11200 26.01400
H  21.55200 53.62500 25.32100
H  23.80400 52.24600 30.31400
H  25.70100 53.97100 33.62400
H  24.08400 54.58400 33.81700
H  25.00400 55.49500 32.74000

