158

Mg 9.71400 47.67900 25.69600
C  7.88600 48.04300 28.65800
C  12.39000 49.06000 27.35200
C  11.40900 47.33400 22.88900
C  6.86600 46.70300 24.08300
N  10.10200 48.38600 27.83100
C  9.24400 48.35300 28.92000
C  9.95000 48.84200 30.26200
C  11.24100 49.39900 29.64700
C  11.28800 48.84900 28.19800
C  11.28300 50.95800 29.68500
C  10.22200 47.63400 31.28500
C  9.56400 47.84700 32.71700
H  9.17900 46.67000 33.60800
N  11.65200 48.11900 25.15000
C  12.59300 48.67500 25.98600
C  13.86700 48.82800 25.28900
C  13.61400 48.28200 23.95700
C  12.20100 47.85300 23.94600
C  15.14200 49.24400 25.94000
C  14.57500 48.17500 22.80900
O  14.35200 47.77500 21.64100
C  15.98900 48.70300 22.99400
N  9.14500 47.16500 23.77500
C  10.08500 46.99100 22.74600
C  9.47800 46.45000 21.46900
C  8.09100 46.02600 21.94200
C  8.01300 46.59300 23.37900
C  9.58400 47.60300 20.43900
C  7.92600 44.47600 22.13500
C  8.87600 43.62300 23.00000
N  7.79100 47.44900 26.23000
C  6.66700 47.09900 25.42500
C  5.44300 47.28600 26.16300
C  5.88100 47.58600 27.47900
C  7.32700 47.73300 27.47300
C  4.01300 47.08700 25.71500
C  5.46500 47.88700 28.89600
O  4.35800 47.93100 29.33600
C  6.71900 48.18600 29.66000
C  6.67100 47.15900 30.71800
O  7.24300 46.02700 30.60500
O  5.98500 47.64200 31.81000
C  5.41500 46.64500 32.65100
H  13.23300 49.51500 27.87600
H  11.92300 47.19600 21.93500
H  5.95800 46.35700 23.58400
H  9.35800 49.60400 30.76800
H  12.10500 49.04400 30.20800
H  10.38100 51.27600 30.20900
H  11.24900 51.29600 28.65000
H  12.19300 51.29900 30.17900
H  11.27800 47.54400 31.53700
H  9.89700 46.71200 30.80300
H  8.60100 48.32500 32.53400
H  10.33500 48.52300 33.08800
H  15.86400 48.44600 26.11400
H  14.94100 49.50000 26.98000
H  15.75100 50.01900 25.47500
H  15.92000 49.75900 23.25600
H  16.64400 48.59700 22.12900
H  16.47200 48.16900 23.81300
H  10.07300 45.59000 21.16100
H  7.30500 46.49100 21.34800
H  10.15800 48.41300 20.88900
H  8.54800 47.82800 20.18700
H  10.10300 47.18200 19.57700
H  8.23100 44.04900 21.17900
H  6.87900 44.20000 22.26300
H  9.42900 42.90400 22.39600
H  8.31700 43.11100 23.78300
H  9.67400 44.17200 23.50000
H  3.39300 47.97500 25.58900
H  3.48200 46.58500 26.52400
H  4.09200 46.38400 24.88600
H  6.69400 49.17800 30.10900
H  4.86000 47.04400 33.49900
H  6.27000 46.12100 33.07800
H  4.79500 45.96900 32.06300
Mg -12.03600 38.72200 43.03900
C  -9.93000 36.16400 41.84700
C  -9.94000 40.93700 41.25300
C  -14.45200 41.04900 43.26200
C  -14.12900 36.30600 44.32500
N  -10.18900 38.52600 41.57100
C  -9.55600 37.39200 41.31600
C  -8.36200 37.58500 40.40600
C  -8.20600 39.14100 40.50600
C  -9.58800 39.56200 41.07800
C  -7.05200 39.62100 41.40000
C  -8.75000 37.08400 38.89800
C  -7.79000 36.00100 38.31400
H  -6.89400 36.44000 37.12900
N  -12.22500 40.75300 42.32500
C  -11.17100 41.51000 41.71700
C  -11.63200 42.88000 41.68100
C  -12.95700 42.95300 42.17400
C  -13.30000 41.56100 42.62500
C  -10.80400 44.00800 41.18700
C  -13.85800 44.16100 42.22600
O  -13.41300 45.24000 41.90700
C  -15.31400 44.04100 42.59700
N  -14.03900 38.74500 43.56900
C  -14.82700 39.77500 43.74300
C  -16.18500 39.45800 44.47200
C  -16.03600 37.96600 44.69200
C  -14.66200 37.61500 44.19200
C  -16.69400 40.30100 45.71700
C  -17.13100 37.06100 44.00300
C  -16.86400 36.45400 42.65800
N  -12.06600 36.70700 43.11500
C  -12.91100 35.84300 43.76800
C  -12.42500 34.46200 43.71400
C  -11.30200 34.60300 42.95300
C  -11.10600 35.96000 42.63000
C  -12.99900 33.18900 44.36000
C  -10.24600 33.76800 42.34800
O  -10.11000 32.52000 42.40800
C  -9.18000 34.78800 41.78900
C  -7.88100 34.68900 42.64000
O  -7.23500 33.66300 42.68100
O  -7.51400 35.84500 43.34100
C  -6.42700 35.70600 44.26900
H  -9.19100 41.66800 40.94100
H  -15.28600 41.72500 43.46200
H  -14.77200 35.52600 44.73900
H  -7.47100 37.06200 40.75400
H  -8.08200 39.65700 39.55300
H  -7.40700 39.86800 42.40100
H  -6.60500 40.41300 40.79900
H  -6.23200 38.91500 41.52500
H  -8.76800 37.85400 38.12700
H  -9.72100 36.58900 38.91300
H  -8.32100 35.12300 37.94700
H  -7.18100 35.61500 39.13100
H  -11.00400 44.18900 40.13100
H  -9.76200 43.70100 41.27700
H  -11.02100 44.92100 41.74100
H  -15.89600 43.36100 41.97500
H  -15.79300 45.01400 42.49700
H  -15.32800 43.87200 43.67400
H  -16.90900 39.69600 43.69400
H  -15.92500 37.75600 45.75500
H  -17.54100 40.95300 45.50100
H  -15.82600 40.90500 45.98100
H  -16.78000 39.68200 46.61000
H  -18.04100 37.63800 43.83400
H  -17.39200 36.25300 44.68600
H  -16.27100 35.55100 42.79900
H  -16.38400 37.16800 41.98900
H  -17.72600 36.24800 42.02400
H  -12.28800 32.38800 44.56200
H  -13.79300 32.74600 43.75900
H  -13.46600 33.37200 45.32800
H  -8.86700 34.63800 40.75600
H  -5.75500 36.55100 44.12100
H  -5.80400 34.82000 44.15000
H  -6.74500 35.89900 45.29400

