158

Mg 0.70700 8.57400 25.87900
C  1.68900 10.24600 28.71700
C  1.18300 5.61400 27.55700
C  0.32700 6.91000 22.95200
C  1.04100 11.59800 23.99800
N  1.31700 7.98900 27.88400
C  1.49500 8.85300 28.88600
C  1.55000 8.16200 30.27100
C  1.58500 6.67600 29.85100
C  1.33400 6.71900 28.32400
C  2.85800 5.90900 30.26300
C  0.37400 8.46900 31.34800
C  0.67600 8.35200 32.87800
H  1.79100 7.38400 33.28200
N  0.52400 6.53700 25.38900
C  0.74000 5.47700 26.22300
C  0.49700 4.28600 25.50900
C  0.26200 4.55900 24.06100
C  0.33400 6.04800 24.08800
C  0.57700 2.89300 26.21100
C  0.04500 3.62200 22.86300
O  -0.21300 3.97100 21.71200
C  0.05400 2.22800 23.06000
N  0.72500 9.19600 23.78300
C  0.35000 8.28100 22.85400
C  0.41000 8.86200 21.50900
C  0.15300 10.36500 21.88300
C  0.66400 10.43500 23.33300
C  1.68300 8.57900 20.71000
C  -1.35800 10.83800 21.78000
C  -1.67400 11.90800 20.66600
N  1.30300 10.56200 26.28300
C  1.31800 11.69800 25.40300
C  1.68400 12.91300 26.17800
C  1.85300 12.30700 27.56900
C  1.63800 10.94300 27.49400
C  1.73000 14.31200 25.80400
C  2.16200 12.64300 28.86200
O  2.60200 13.70700 29.30200
C  1.92100 11.35900 29.77000
C  3.02200 11.11300 30.82200
O  4.02900 10.45300 30.59900
O  2.68500 11.72100 31.98900
C  3.61500 11.51200 33.01300
H  1.22900 4.71400 28.17300
H  0.25300 6.39700 21.99000
H  1.11100 12.55400 23.47400
H  2.45900 8.40100 30.82300
H  0.72800 6.13400 30.25000
H  3.48600 6.54300 30.88900
H  3.60900 5.75800 29.48800
H  2.68800 4.92000 30.68700
H  -0.51700 7.86900 31.16000
H  -0.01900 9.47300 31.19300
H  -0.26600 8.05000 33.33500
H  1.00200 9.36700 33.10700
H  0.97700 2.15600 25.51500
H  -0.43600 2.57200 26.45500
H  1.29400 2.98400 27.02700
H  -0.80500 2.01900 23.69800
H  1.00000 1.93000 23.51400
H  -0.06200 1.72200 22.10100
H  -0.48700 8.40000 21.09800
H  0.76800 10.87100 21.13900
H  2.36000 7.95500 21.29300
H  2.30300 9.37200 20.29100
H  1.27900 7.87800 19.98000
H  -1.74600 11.27500 22.70000
H  -1.92000 9.92500 21.58200
H  -0.79000 12.25400 20.13100
H  -2.02700 12.79500 21.19300
H  -2.55500 11.63600 20.08500
H  2.08100 14.45700 24.78300
H  2.29500 14.95800 26.47500
H  0.69100 14.63300 25.73200
H  1.04900 11.76200 30.28400
H  3.98000 12.50200 33.28400
H  4.53500 10.96000 32.81600
H  3.18000 11.14700 33.94300
Mg 54.84000 23.36900 44.65700
C  52.42400 25.62400 43.43900
C  52.79900 20.77500 43.68300
C  57.51100 21.31300 44.83500
C  56.72800 26.12800 45.56400
N  52.90600 23.28100 43.59100
C  52.07800 24.29400 43.32600
C  50.77700 23.75700 42.84000
C  50.75800 22.30400 43.30100
C  52.24000 22.07000 43.55600
C  50.02000 21.82800 44.57000
C  50.45800 23.94300 41.32400
C  49.01700 24.32600 41.01200
H  48.55900 23.93600 39.63500
N  55.14600 21.36100 44.28500
C  54.14400 20.42100 43.92000
C  54.65400 19.12100 43.77600
C  56.02000 19.24700 44.14800
C  56.35200 20.64700 44.43000
C  53.90600 17.98900 43.24000
C  56.98200 18.15700 44.00900
O  56.66100 17.05100 43.61200
C  58.44900 18.27700 44.28200
N  56.89600 23.69900 44.94400
C  57.69500 22.66300 45.16500
C  59.01200 23.17100 45.76800
C  58.85400 24.73700 45.92800
C  57.41400 24.90100 45.44800
C  59.30800 22.40700 47.10100
C  59.70600 25.60900 44.87000
C  60.11500 27.03500 45.31400
N  54.68600 25.45200 44.63700
C  55.46600 26.40900 45.02900
C  54.86200 27.75400 44.94000
C  53.62800 27.46400 44.29500
C  53.63000 26.07700 44.03500
C  55.38100 29.06500 45.51900
C  52.39400 28.02100 43.78600
O  52.02300 29.17900 43.89000
C  51.60600 26.83500 43.06400
C  51.62900 27.12600 41.56900
O  52.64000 27.09500 40.86400
O  50.43700 27.56000 41.03800
C  50.42200 28.05400 39.60400
H  52.06500 19.97500 43.80200
H  58.42000 20.72700 44.99100
H  57.22100 27.01800 45.96100
H  50.07500 24.41400 43.35200
H  50.59000 21.58500 42.49900
H  49.37800 22.61500 44.96600
H  50.67700 21.53000 45.38700
H  49.33600 21.00700 44.35400
H  50.58900 23.00300 40.78700
H  51.14600 24.70800 40.96200
H  48.94700 25.40600 41.13400
H  48.29600 23.82100 41.65500
H  52.89300 18.23000 42.91900
H  53.90900 17.28900 44.07600
H  54.54600 17.43400 42.55400
H  58.80600 19.14400 43.72700
H  58.95900 17.43100 43.82200
H  58.58900 18.33500 45.36100
H  59.91100 23.01400 45.17100
H  58.76300 25.05700 46.96600
H  59.69000 23.00600 47.92800
H  60.06000 21.62300 47.01000
H  58.41400 21.86200 47.40500
H  59.16300 25.78600 43.94200
H  60.61000 25.09500 44.54400
H  61.20100 27.11600 45.25100
H  59.89900 27.19300 46.37000
H  59.65800 27.81800 44.70800
H  55.45100 28.86800 46.58900
H  54.66400 29.87400 45.38400
H  56.39800 29.28400 45.19400
H  50.56900 26.77900 43.39400
H  50.97100 28.96900 39.38000
H  49.35200 28.24700 39.52900
H  50.66700 27.30600 38.85000

