158

Mg 48.58000 34.97400 26.82400
C  46.97700 33.43500 29.45300
C  49.41100 37.68400 28.69100
C  49.77500 36.51400 24.00900
C  47.62000 32.20800 24.78300
N  48.23900 35.50200 28.83700
C  47.59600 34.70200 29.76500
C  47.85300 35.34800 31.20500
C  48.24600 36.81500 30.79700
C  48.79300 36.63900 29.34800
C  47.15400 37.94000 31.02300
C  49.00800 34.52800 31.94700
C  48.70100 34.22200 33.37600
H  47.65400 34.97800 34.22400
N  49.52000 36.77300 26.35600
C  49.76500 37.77700 27.34600
C  50.26600 38.96100 26.68500
C  50.50900 38.65000 25.31100
C  49.93000 37.25000 25.17800
C  50.61400 40.25100 27.37700
C  51.07200 39.50200 24.17800
O  51.18000 39.03300 23.06300
C  51.52200 40.91100 24.50200
N  48.42700 34.59900 24.76900
C  49.05100 35.29600 23.82300
C  48.97500 34.66500 22.44100
C  48.71000 33.16300 22.73900
C  48.15100 33.31200 24.14000
C  48.09700 35.52600 21.46500
C  49.88000 32.14400 22.79500
C  49.94600 30.95200 21.71800
N  47.50700 33.14600 26.96600
C  47.27300 32.08100 26.11500
C  46.43500 31.04200 26.81000
C  46.32300 31.57900 28.12200
C  46.96000 32.77900 28.19300
C  45.90800 29.70300 26.27300
C  45.68100 31.33200 29.40100
O  45.08200 30.37400 29.71700
C  46.08200 32.56800 30.27600
C  46.50600 32.00300 31.57800
O  47.54500 31.42100 31.83000
O  45.38500 32.03300 32.42300
C  45.55400 31.14700 33.61300
H  49.50900 38.58900 29.29500
H  50.19200 36.85700 23.06000
H  47.46900 31.41900 24.04300
H  46.98300 35.34300 31.86100
H  49.02500 37.15300 31.48100
H  46.98000 38.52400 30.11900
H  47.47800 38.76000 31.66400
H  46.24700 37.57800 31.50900
H  49.94600 35.08300 31.91500
H  49.20100 33.53900 31.53200
H  49.68500 34.29400 33.84100
H  48.39500 33.19400 33.57200
H  50.12000 41.05600 26.83300
H  51.68200 40.37100 27.55400
H  50.15400 40.22200 28.36500
H  50.69200 41.57300 24.75000
H  51.99700 41.43500 23.67200
H  52.27300 40.87600 25.29100
H  49.96600 34.56600 21.99800
H  47.94700 32.73100 22.09000
H  48.62600 35.86600 20.57500
H  47.80100 36.45200 21.95900
H  47.27500 34.88700 21.14400
H  49.94700 31.56000 23.71300
H  50.80500 32.70300 22.65300
H  49.10300 31.04000 21.03300
H  49.93600 30.01800 22.28000
H  50.89100 30.99600 21.17600
H  46.79100 29.34700 25.74100
H  45.05900 29.68600 25.59000
H  45.71600 29.02500 27.10500
H  45.20800 33.20700 30.40400
H  46.30100 31.52400 34.31100
H  45.77400 30.11300 33.34500
H  44.60400 31.15100 34.14800
Mg 0.55300 43.55800 26.28300
C  2.78500 43.85900 28.81200
C  -1.83300 42.59600 28.59300
C  -1.53600 42.79700 23.73400
C  3.03300 44.33100 23.95800
N  0.47800 43.19300 28.43300
C  1.52100 43.46400 29.31800
C  1.03300 43.45600 30.78700
C  -0.43700 42.84100 30.64400
C  -0.63800 42.90800 29.11600
C  -0.59800 41.43400 31.25100
C  1.10500 44.85400 31.39500
C  1.07100 44.95300 32.91900
H  0.69700 43.75900 33.75400
N  -1.49900 42.99900 26.15300
C  -2.25100 42.65300 27.22500
C  -3.58800 42.36300 26.72700
C  -3.54400 42.55400 25.29900
C  -2.15800 42.67400 25.00400
C  -4.70800 41.81200 27.63900
C  -4.64400 42.47400 24.28100
O  -4.42500 42.56100 23.10100
C  -6.00200 42.52500 24.83100
N  0.88300 43.26700 24.18500
C  -0.20400 42.97600 23.39200
C  0.18200 43.19700 21.95300
C  1.59800 43.83900 21.95500
C  1.90800 43.80500 23.45200
C  0.05400 41.81000 21.18500
C  1.65400 45.31300 21.35400
C  1.17900 46.53600 22.13100
N  2.55900 44.00400 26.28400
C  3.45600 44.26900 25.31500
C  4.75600 44.44200 25.84500
C  4.56800 44.26100 27.23800
C  3.17900 44.06800 27.45600
C  6.10600 44.67600 25.09100
C  5.19600 44.24000 28.58400
O  6.36500 44.33200 28.96100
C  4.02900 44.00800 29.65900
C  4.33800 42.71500 30.24300
O  4.15600 41.58700 29.81400
O  4.82000 43.00800 31.45100
C  4.98400 41.94800 32.41200
H  -2.65700 42.40500 29.28300
H  -2.20700 42.79600 22.87200
H  3.79800 44.64400 23.24500
H  1.69500 42.88500 31.43800
H  -1.24300 43.41200 31.10600
H  0.05000 41.38600 32.12700
H  -0.35400 40.61600 30.57400
H  -1.58200 41.31000 31.70300
H  0.49000 45.59200 30.88100
H  2.12500 45.19300 31.21500
H  0.30900 45.70600 33.11800
H  2.07300 45.16600 33.29100
H  -5.41500 41.23200 27.04500
H  -5.30500 42.65200 27.99400
H  -4.33100 41.39700 28.57300
H  -6.04000 42.90200 25.85300
H  -6.35800 41.49400 24.82500
H  -6.60100 43.16400 24.18200
H  -0.50100 43.98000 21.62500
H  2.27800 43.21300 21.37900
H  0.99700 41.56900 20.69400
H  -0.71800 41.95700 20.43100
H  -0.16100 40.94400 21.81200
H  1.32200 45.23800 20.31800
H  2.70900 45.46000 21.12500
H  0.46900 47.02600 21.46500
H  1.98500 47.17700 22.48900
H  0.73400 46.16400 23.05400
H  5.91400 45.03500 24.08000
H  6.89700 43.92700 25.09300
H  6.54400 45.51600 25.62900
H  4.04000 44.72500 30.48000
H  4.01700 41.85600 32.90600
H  5.77300 42.26900 33.09200
H  5.07000 40.97400 31.93100

