158

Mg 15.92300 52.92300 25.82700
C  17.79500 52.18100 28.82500
C  13.46300 54.27500 27.78900
C  14.08500 53.42400 23.01600
C  18.27900 51.24100 24.05600
N  15.63700 53.08200 28.05900
C  16.50000 52.77400 29.12600
C  15.83700 53.10000 30.47500
C  14.42500 53.70100 30.08600
C  14.47200 53.60800 28.53400
C  13.17400 52.95500 30.63800
C  16.78900 54.04400 31.38500
C  17.15100 53.42600 32.75000
H  16.10900 52.53900 33.43800
N  14.06900 53.88800 25.44600
C  13.21700 54.31800 26.40200
C  12.01200 54.88900 25.76700
C  12.28600 54.77900 24.36200
C  13.52900 54.04800 24.23200
C  10.86600 55.49700 26.46100
C  11.35000 55.15500 23.20300
O  11.71000 55.03500 22.05100
C  10.03000 55.79800 23.38900
N  16.17100 52.40200 23.83200
C  15.21400 52.61600 22.88900
C  15.64000 52.00500 21.54300
C  17.12300 51.52100 21.87200
C  17.26300 51.77100 23.28800
C  14.71000 50.88100 20.94100
C  18.22600 52.29100 21.16600
C  19.39100 51.44400 20.61600
N  17.72400 51.89300 26.28700
C  18.64900 51.25900 25.42600
C  19.69200 50.66300 26.16800
C  19.39400 51.01800 27.52000
C  18.16300 51.76600 27.54300
C  20.85200 49.98300 25.65100
C  19.85100 50.87100 28.86900
O  20.79700 50.27600 29.36300
C  18.75500 51.67300 29.86000
C  18.23700 50.59000 30.78400
O  17.14400 50.05900 30.70400
O  19.20900 50.37200 31.69600
C  18.90000 49.23200 32.60300
H  12.75400 54.71900 28.49100
H  13.61300 53.57300 22.04300
H  18.98800 50.70700 23.42000
H  15.77700 52.16100 31.02500
H  14.31100 54.74700 30.37000
H  12.40500 53.68600 30.89000
H  13.45200 52.16700 31.33800
H  12.73300 52.40900 29.80500
H  16.44500 55.07800 31.42900
H  17.75800 53.90500 30.90500
H  17.39300 54.19700 33.48100
H  18.11500 52.92000 32.78500
H  11.03600 56.57300 26.48800
H  10.78700 55.20500 27.50800
H  9.89900 55.21100 26.05000
H  10.19800 56.83400 23.68100
H  9.38500 55.19200 24.02600
H  9.59600 55.79000 22.39000
H  15.63800 52.73200 20.73000
H  17.13000 50.45400 21.65000
H  13.81500 50.92900 21.56100
H  15.05600 49.84800 20.91800
H  14.36900 51.13200 19.93600
H  18.68800 53.07300 21.76800
H  17.73400 52.87100 20.38500
H  19.23200 50.37200 20.73800
H  20.30600 51.68900 21.15400
H  19.42300 51.66200 19.54800
H  21.19200 49.33400 26.45900
H  21.76300 50.56800 25.52200
H  20.54700 49.44200 24.75500
H  19.21400 52.49800 30.40500
H  19.85900 48.94400 33.03300
H  18.74100 48.33800 32.00000
H  18.02800 49.29300 33.25400
Mg -11.04000 40.76600 41.71900
C  -10.00100 37.57300 41.07300
C  -8.36900 42.14800 40.22000
C  -12.58400 43.86800 41.96700
C  -14.29300 39.41700 42.72400
N  -9.50400 39.89100 40.49200
C  -9.06600 38.56800 40.57500
C  -7.73300 38.40600 39.93000
C  -7.15200 39.88800 40.07800
C  -8.46100 40.71400 40.24900
C  -6.01300 40.04100 41.11400
C  -7.85700 37.85900 38.43800
C  -7.13900 36.51300 38.12300
H  -6.02400 36.52400 36.97600
N  -10.45400 42.79400 41.23700
C  -9.31900 43.09100 40.65500
C  -9.24200 44.50100 40.57400
C  -10.44200 45.01900 41.04400
C  -11.26700 43.84900 41.36600
C  -8.10100 45.30900 39.96500
C  -10.75200 46.51800 41.13800
O  -9.89600 47.26900 40.78600
C  -12.13600 47.00400 41.54800
N  -13.25200 41.52700 42.04900
C  -13.47900 42.84400 42.18700
C  -14.90700 43.10600 42.66200
C  -15.46200 41.69300 42.72600
C  -14.25800 40.82300 42.50900
C  -14.92900 43.82700 44.13300
C  -16.62800 41.53500 41.75700
C  -17.75600 40.65200 42.32400
N  -11.96400 38.88100 42.01800
C  -13.21200 38.54400 42.41600
C  -13.27400 37.15800 42.54400
C  -12.01800 36.67000 42.00000
C  -11.30900 37.82500 41.66600
C  -14.40900 36.30500 42.97700
C  -11.19700 35.48100 41.65100
O  -11.37600 34.24700 41.71000
C  -9.98900 36.13100 40.79600
C  -8.76600 35.45600 41.26100
O  -8.06300 35.75900 42.26700
O  -8.56800 34.31300 40.50400
C  -7.61000 33.32600 41.06400
H  -7.37000 42.49000 39.94000
H  -13.13700 44.80500 42.05400
H  -15.19600 38.97600 43.15200
H  -7.21300 37.72900 40.60800
H  -6.75500 40.12900 39.09200
H  -5.54900 39.08700 41.36600
H  -6.31400 40.59100 42.00600
H  -5.21900 40.61500 40.63700
H  -7.53400 38.63900 37.75000
H  -8.89900 37.63900 38.20700
H  -7.89600 35.75900 37.90700
H  -6.51200 36.16800 38.94500
H  -7.30300 44.62200 39.68600
H  -7.68100 45.85200 40.81200
H  -8.51700 45.99600 39.22800
H  -12.85100 46.51000 40.89000
H  -12.27700 48.07700 41.41800
H  -12.21600 46.76100 42.60800
H  -15.25900 43.84000 41.93800
H  -15.87400 41.55000 43.72500
H  -15.07800 43.10700 44.93800
H  -15.70200 44.59100 44.05600
H  -13.94600 44.28000 44.26200
H  -16.42100 41.00800 40.82500
H  -17.05800 42.50900 41.52300
H  -18.49400 41.29800 42.80000
H  -17.35800 39.95700 43.06300
H  -18.25000 40.00000 41.60400
H  -14.69400 36.50800 44.00900
H  -14.14900 35.27800 42.71800
H  -15.25100 36.51800 42.31900
H  -10.14200 35.84900 39.75500
H  -6.60600 33.72200 41.21700
H  -7.64400 32.47200 40.38800
H  -8.00400 32.93800 42.00300

