158

Mg 47.46600 34.63000 27.61800
C  45.72500 32.89700 30.14900
C  47.62300 37.29300 29.61800
C  48.45700 36.51300 24.97900
C  46.62600 32.01200 25.46400
N  46.81400 34.93600 29.57900
C  46.28700 34.10300 30.51500
C  46.36400 34.61300 31.92500
C  46.75500 36.12800 31.68400
C  47.04700 36.20200 30.18900
C  45.81100 37.23900 32.16300
C  47.54400 33.89000 32.76400
C  47.81000 34.33900 34.22400
H  46.80300 35.30300 34.91600
N  48.18000 36.60900 27.35300
C  48.20900 37.56900 28.33200
C  48.69900 38.84100 27.72500
C  48.88900 38.55200 26.33500
C  48.48500 37.16700 26.18300
C  48.81900 40.07300 28.48700
C  49.36600 39.49400 25.18800
O  49.36500 39.26500 23.97500
C  49.93800 40.78600 25.62900
N  47.50100 34.30400 25.52300
C  48.14400 35.14000 24.68400
C  48.31700 34.53500 23.25000
C  47.61800 33.19000 23.42100
C  47.27400 33.12900 24.88600
C  47.79900 35.37100 22.06500
C  48.54500 32.01900 22.93900
C  49.63500 31.39400 23.88400
N  46.44500 32.77000 27.74800
C  46.19200 31.82800 26.77700
C  45.47000 30.69100 27.37600
C  45.22800 31.09800 28.70900
C  45.85100 32.38400 28.86400
C  44.99400 29.41100 26.59900
C  44.56800 30.71600 29.91400
O  43.80100 29.79800 30.18700
C  44.75200 31.99600 30.87400
C  45.11700 31.56800 32.24300
O  45.94600 30.72000 32.53600
O  44.20700 32.02900 33.09900
C  44.24000 31.54400 34.46000
H  47.64500 38.18800 30.24300
H  48.70300 37.09300 24.08700
H  46.40900 31.19300 24.77500
H  45.39300 34.52700 32.41200
H  47.67400 36.36500 32.22000
H  46.40800 37.90000 32.79100
H  44.98700 36.84700 32.75900
H  45.41900 37.83300 31.33700
H  48.48300 33.96500 32.21600
H  47.27600 32.83300 32.75200
H  48.85300 34.60900 34.38800
H  47.61200 33.37400 34.69000
H  48.43600 40.01100 29.50600
H  48.38400 40.89800 27.92300
H  49.87100 40.29400 28.66800
H  49.16100 41.43000 26.04100
H  50.43400 41.33200 24.82700
H  50.60800 40.60400 26.46900
H  49.37700 34.36500 23.06400
H  46.66500 33.19800 22.89200
H  47.43500 36.38900 22.20300
H  46.99800 34.87400 21.51800
H  48.55700 35.63900 21.32900
H  49.01200 32.26200 21.98500
H  47.76800 31.27800 22.75000
H  50.60900 31.17700 23.44400
H  49.28800 30.44600 24.29500
H  49.71700 32.10200 24.70800
H  43.96700 29.53500 26.25700
H  44.95200 28.47100 27.14800
H  45.54500 29.32500 25.66200
H  43.76900 32.46800 30.84500
H  44.87200 30.67500 34.64400
H  43.24600 31.20200 34.75000
H  44.48600 32.36300 35.13500
Mg 36.28500 49.56600 24.83700
C  36.51800 47.85900 27.86400
C  35.22700 52.32000 26.46200
C  36.00100 51.05400 21.85000
C  37.43900 46.61700 23.19800
N  35.84200 49.98900 26.91200
C  36.14400 49.18100 27.99300
C  35.81600 49.93200 29.31100
C  35.47800 51.35900 28.87300
C  35.46000 51.23500 27.29800
C  34.16200 51.93600 29.45000
C  36.89600 49.92600 30.48500
C  36.42100 49.42600 31.83600
H  34.93400 49.38400 32.34600
N  35.68000 51.44900 24.21100
C  35.22600 52.47300 25.02900
C  34.90200 53.61500 24.20400
C  35.08400 53.22800 22.87200
C  35.57200 51.85600 22.92000
C  34.57500 55.04500 24.74700
C  34.79500 54.07700 21.59500
O  34.79000 53.65800 20.42600
C  34.61600 55.61000 21.69700
N  36.36600 48.83600 22.73400
C  36.33500 49.72300 21.76600
C  36.75000 49.12700 20.41700
C  37.32100 47.72100 20.78700
C  36.99200 47.70200 22.33900
C  35.55200 48.95500 19.43500
C  38.83900 47.48700 20.48900
C  39.92000 48.33500 21.25200
N  36.78300 47.59300 25.39800
C  37.26000 46.51800 24.62300
C  37.54400 45.39600 25.53800
C  37.22300 45.88000 26.81600
C  36.87500 47.21700 26.69400
C  38.09900 44.05500 25.24200
C  37.10200 45.56100 28.20500
O  37.31100 44.53400 28.82600
C  36.68900 46.81900 28.96600
C  35.36700 46.44300 29.69900
O  34.31000 46.47800 29.17400
O  35.69800 45.88700 30.91900
C  34.60100 45.41700 31.81000
H  34.80200 53.19000 26.96600
H  35.94000 51.56900 20.88900
H  37.82200 45.71800 22.71000
H  34.90400 49.46500 29.68200
H  36.36000 51.97100 29.06600
H  34.46500 52.39400 30.39100
H  33.47100 51.14000 29.72700
H  33.59200 52.61500 28.81600
H  37.29800 50.90100 30.76100
H  37.71100 49.25500 30.21400
H  36.99800 50.01800 32.54600
H  36.74600 48.39500 31.97100
H  33.67200 55.49200 24.32900
H  35.43200 55.71200 24.65500
H  34.19000 54.95900 25.76300
H  33.70300 55.69900 22.28600
H  34.39700 56.18500 20.79700
H  35.50800 55.98800 22.19600
H  37.47200 49.75100 19.89000
H  36.61400 46.99800 20.38100
H  34.79500 49.72300 19.59000
H  35.00400 48.02800 19.60300
H  35.90200 49.08200 18.41100
H  38.98700 47.50700 19.41000
H  38.96400 46.41700 20.65100
H  39.46900 48.72600 22.16400
H  40.23300 49.07700 20.51800
H  40.62400 47.58200 21.60700
H  38.23000 43.45900 26.14500
H  39.07500 44.19100 24.77600
H  37.63000 43.42600 24.48600
H  37.48100 47.17500 29.62400
H  34.62500 44.32800 31.75600
H  33.62200 45.72500 31.44400
H  34.75300 45.82100 32.81100

