158

Mg 49.32100 47.02500 42.53400
C  46.05500 47.61000 41.24800
C  49.24300 43.95900 40.71300
C  52.61900 46.62000 43.00300
C  49.41000 50.32200 43.54600
N  47.81400 45.96500 41.08800
C  46.56000 46.37600 40.75100
C  45.75100 45.34600 39.89200
C  46.80800 44.15700 39.93200
C  48.03800 44.66600 40.68800
C  46.29500 42.66800 40.18600
C  45.34400 45.81200 38.42400
C  44.20900 45.02500 37.72300
H  44.48600 43.88400 36.77200
N  50.70800 45.38200 42.12200
C  50.49800 44.28700 41.29300
C  51.75700 43.55700 41.10100
C  52.76100 44.35200 41.71100
C  52.04100 45.51500 42.32400
C  51.85400 42.28800 40.34300
C  54.31300 44.02300 41.72100
O  54.68300 42.89000 41.28700
C  55.36400 44.97300 42.35100
N  50.87200 48.29000 43.15100
C  52.08600 47.84500 43.49700
C  52.93600 49.08200 44.01800
C  51.87700 50.18000 44.19800
C  50.57800 49.54200 43.61700
C  53.83300 48.91900 45.29600
C  52.23100 51.47100 43.50100
C  52.12500 52.62000 44.48600
N  48.03400 48.62000 42.52700
C  48.14400 49.80200 43.12800
C  46.94900 50.59000 43.00100
C  46.06600 49.72600 42.32900
C  46.78000 48.57800 41.96400
C  46.85700 52.03000 43.32700
C  44.78800 49.56200 41.76800
O  43.86500 50.36200 41.94900
C  44.69300 48.29800 40.89900
C  43.57000 47.57200 41.40300
O  43.27600 47.42200 42.55500
O  43.01500 46.97600 40.31200
C  41.91300 46.03800 40.51200
H  49.14600 43.07000 40.08600
H  53.68900 46.65500 43.22100
H  49.46800 51.28800 44.05200
H  44.83200 45.07400 40.41200
H  47.12500 44.09900 38.89000
H  46.74100 42.26300 41.09400
H  46.59200 42.03000 39.35400
H  45.22300 42.82100 40.31500
H  46.26200 45.75500 37.83900
H  45.02500 46.85300 38.46900
H  43.54800 45.82400 37.38900
H  43.58100 44.68100 38.54500
H  51.97800 41.44400 41.02200
H  52.74800 42.33600 39.72200
H  51.04500 42.05700 39.65000
H  56.37900 44.57800 42.31900
H  55.03600 44.88200 43.38600
H  55.26300 45.99300 41.98200
H  53.51900 49.29500 43.12300
H  51.64700 50.40500 45.24000
H  54.02600 47.84700 45.28400
H  53.40800 49.30200 46.22400
H  54.81500 49.38500 45.20500
H  51.57600 51.63500 42.64500
H  53.23700 51.50400 43.08300
H  53.13600 52.88900 44.79200
H  51.43900 52.36600 45.29400
H  51.69900 53.48000 43.96900
H  47.13100 52.33500 44.33700
H  45.79900 52.29400 43.31400
H  47.30800 52.70700 42.60200
H  44.65100 48.53700 39.83600
H  41.91700 45.69900 41.54800
H  41.94200 45.16400 39.86200
H  40.99400 46.58800 40.31300
Mg 30.33800 58.31800 40.48000
C  27.91000 56.11400 39.24300
C  32.69900 55.86800 39.64900
C  32.77400 60.66100 40.58900
C  27.94800 60.79700 40.53600
N  30.26700 56.19900 39.57000
C  29.17100 55.54700 39.12800
C  29.56500 54.22100 38.43700
C  30.94800 53.97100 39.10800
C  31.37800 55.41400 39.51800
C  30.90700 53.02000 40.35500
C  29.48400 54.44300 36.88400
C  29.10900 53.27300 35.98700
H  28.06200 53.41900 34.87600
N  32.37700 58.23600 40.31000
C  33.21200 57.14500 39.90800
C  34.58900 57.58900 39.78900
C  34.69400 58.89200 40.20700
C  33.23200 59.29900 40.36800
C  35.77000 56.79200 39.39000
C  36.04000 59.68200 40.54800
O  37.09900 59.13700 40.37500
C  35.98800 61.07800 41.08500
N  30.40000 60.39500 40.60700
C  31.50500 61.13800 40.69800
C  31.22100 62.63200 40.87900
C  29.64200 62.58500 41.00400
C  29.31200 61.14800 40.66200
C  31.99500 63.28600 42.01400
C  28.84100 63.49700 40.03300
C  27.69500 64.31000 40.57100
N  28.31600 58.46300 40.32400
C  27.44400 59.57300 40.32200
C  26.09200 59.13300 40.10800
C  26.21200 57.77600 39.64100
C  27.58900 57.44700 39.78500
C  24.87800 60.03300 40.20200
C  25.47500 56.62600 39.18300
O  24.32000 56.51400 38.80500
C  26.59500 55.54800 38.85100
C  26.10400 54.33600 39.64600
O  26.11900 54.26100 40.87200
O  25.80500 53.31200 38.73300
C  25.48600 52.09700 39.38000
H  33.51300 55.15800 39.49100
H  33.62800 61.34100 40.54800
H  27.16000 61.55200 40.58900
H  28.83400 53.48100 38.76100
H  31.68100 53.70100 38.34700
H  31.17700 53.64600 41.20600
H  31.69500 52.27300 40.26000
H  29.92500 52.55200 40.42500
H  30.51600 54.64700 36.59600
H  28.89800 55.34000 36.68300
H  28.80300 52.53500 36.72800
H  30.03700 52.93400 35.52600
H  35.39600 55.86900 38.94700
H  36.40400 56.49100 40.22400
H  36.38700 57.38900 38.71800
H  36.98100 61.26500 41.49200
H  35.19000 61.13100 41.82600
H  35.86700 61.68600 40.18800
H  31.47000 63.00900 39.88700
H  29.39700 62.79700 42.04500
H  32.51600 62.53200 42.60500
H  31.34600 63.89800 42.64000
H  32.66000 63.99300 41.51700
H  28.34100 62.96300 39.22500
H  29.53800 64.19300 39.56500
H  27.98200 65.32700 40.30300
H  27.41600 64.17300 41.61500
H  26.75600 64.18500 40.03200
H  24.79800 60.27200 41.26200
H  24.04600 59.47800 39.76800
H  25.06100 60.94300 39.63100
H  26.53100 55.26800 37.79900
H  25.10700 51.47800 38.56700
H  24.67300 52.31100 40.07300
H  26.36500 51.69000 39.87900

