158

Mg 49.97600 47.61700 43.45200
C  46.67900 47.83300 42.37300
C  50.13100 44.56800 41.88700
C  53.26500 47.49900 44.13400
C  49.89100 51.00300 44.48800
N  48.37500 46.19800 42.42100
C  47.15200 46.60400 42.01000
C  46.52900 45.51600 41.11800
C  47.55800 44.34000 41.19200
C  48.80300 45.07200 41.77800
C  47.22200 43.11300 42.07700
C  46.17100 45.92000 39.66400
C  44.79200 45.44700 39.16100
H  44.84600 44.44500 37.95100
N  51.47300 46.24700 43.02700
C  51.28300 45.04600 42.38300
C  52.61400 44.44400 42.24900
C  53.62700 45.33200 42.71800
C  52.76400 46.41700 43.34600
C  52.82500 43.04200 41.68000
C  55.15600 45.25800 42.69500
O  55.62700 44.29900 42.18400
C  56.08300 46.26200 43.33200
N  51.37000 49.16200 43.98100
C  52.57700 48.72100 44.47100
C  53.26600 49.89800 45.28700
C  52.15600 51.02500 45.36000
C  51.07500 50.39100 44.50700
C  53.82100 49.62500 46.68200
C  52.65500 52.49000 45.08900
C  52.67500 53.03500 43.71200
N  48.59100 49.20900 43.46100
C  48.69000 50.48400 43.84500
C  47.32600 51.11300 43.70200
C  46.57000 50.14800 43.07400
C  47.38700 48.97900 42.96100
C  46.94200 52.56100 44.17300
C  45.30700 49.85700 42.57800
O  44.29000 50.51100 42.46600
C  45.35000 48.40100 42.02600
C  44.35000 47.64600 42.79400
O  44.17400 47.56100 43.97300
O  43.53600 47.06200 41.85100
C  42.34500 46.40800 42.37100
H  50.26700 43.66600 41.28600
H  54.24500 47.43700 44.61100
H  49.82300 51.93000 45.06100
H  45.55400 45.26100 41.53300
H  47.83400 44.01400 40.18900
H  47.26800 42.27500 41.38100
H  46.16300 43.07000 42.33400
H  47.77300 43.01800 43.01300
H  46.97700 45.54100 39.03500
H  46.16700 47.00900 39.62400
H  44.30400 46.38800 38.90700
H  44.13700 45.02300 39.92200
H  53.20400 42.97300 40.66000
H  51.90400 42.46000 41.71700
H  53.62400 42.48700 42.17100
H  55.96300 46.34000 44.41300
H  55.85300 47.24700 42.92400
H  57.07100 45.88100 43.07300
H  53.96100 50.34100 44.57300
H  51.76500 51.11300 46.37400
H  53.24400 49.79700 47.59100
H  54.69000 50.22300 46.95700
H  54.15000 48.58700 46.66700
H  53.61400 52.64000 45.58500
H  51.93700 53.11800 45.61500
H  53.68200 53.43600 43.60400
H  51.99000 53.87300 43.58300
H  52.49600 52.31600 42.91200
H  46.98100 52.54000 45.26300
H  45.94500 52.83600 43.83100
H  47.69400 53.30300 43.90300
H  45.12200 48.29800 40.96500
H  42.49400 45.44500 42.86000
H  41.67000 46.23800 41.53100
H  41.72400 47.08800 42.95400
Mg 28.43300 57.42600 43.07600
C  26.06400 55.19300 41.66100
C  30.87900 55.48800 41.45800
C  30.66100 59.73400 43.97500
C  25.93800 59.22100 44.38900
N  28.42500 55.59500 41.56800
C  27.36700 54.88500 41.20000
C  27.74400 53.82800 40.07900
C  29.24400 53.61100 40.46500
C  29.55100 54.96800 41.20700
C  29.64900 52.45700 41.41700
C  27.59100 54.41700 38.72600
C  27.18900 53.57100 37.47100
H  28.11200 53.57300 36.23100
N  30.48500 57.59500 42.75000
C  31.27700 56.68600 42.09800
C  32.65600 57.23700 42.05000
C  32.62300 58.44000 42.83000
C  31.23000 58.59800 43.26500
C  33.68300 56.62100 41.15600
C  33.77300 59.45300 43.00000
O  34.92200 59.13700 42.54000
C  33.69000 60.68400 43.78600
N  28.26300 59.30400 43.93000
C  29.35300 60.06000 44.29400
C  28.88400 61.37700 44.97500
C  27.36600 61.23900 45.12100
C  27.18300 59.83100 44.44200
C  29.71200 61.73600 46.22500
C  26.58900 62.33800 44.45000
C  26.70500 62.46900 42.93500
N  26.46500 57.15500 43.20900
C  25.52500 57.96600 43.80900
C  24.20000 57.45500 43.71800
C  24.37800 56.35300 42.81600
C  25.74100 56.20500 42.55600
C  22.90500 58.06400 44.28000
C  23.70500 55.35400 42.05700
O  22.49300 55.15500 41.89100
C  24.79800 54.56800 41.28200
C  24.69200 53.12300 41.69300
O  24.82700 52.64600 42.80100
O  24.50400 52.30100 40.63000
C  24.68000 50.85000 40.75600
H  31.62700 54.88100 40.94400
H  31.29800 60.56100 44.29600
H  25.13900 59.79300 44.86600
H  27.16000 52.90800 40.10600
H  29.78500 53.60700 39.51800
H  28.81500 51.76700 41.54800
H  29.81000 52.88900 42.40500
H  30.46100 51.94100 40.90600
H  28.44300 55.02800 38.42900
H  26.80000 55.14200 38.91700
H  26.20200 53.77300 37.05500
H  27.00600 52.53900 37.76900
H  33.24500 56.51100 40.16400
H  33.97900 55.63000 41.50000
H  34.58700 57.22500 41.07300
H  33.16900 61.53800 43.35300
H  34.70100 61.01700 44.02200
H  33.28200 60.46500 44.77200
H  29.02800 62.25700 44.34900
H  27.09700 61.04200 46.15800
H  30.65400 61.20800 46.37200
H  29.25000 61.72600 47.21200
H  29.86800 62.80200 46.05700
H  27.01100 63.27700 44.81000
H  25.58200 62.17600 44.83600
H  27.55900 61.91200 42.54900
H  26.87200 63.52300 42.71300
H  25.82900 62.13400 42.38000
H  22.09800 57.35800 44.08100
H  22.58300 59.00100 43.82500
H  23.00300 58.30600 45.33800
H  24.74100 54.47500 40.19700
H  24.13100 50.41100 41.58900
H  25.72500 50.62200 40.96600
H  24.37300 50.28500 39.87600

