158

Mg 35.09800 2.85500 29.51100
C  33.00100 3.92600 32.12900
C  37.74300 3.04400 31.69500
C  37.32000 2.59400 26.92600
C  32.48600 3.39700 27.23000
N  35.23900 3.42700 31.70100
C  34.26400 3.72300 32.58800
C  34.81300 3.78500 34.02500
C  36.41700 3.71300 33.80300
C  36.47900 3.31300 32.34900
C  37.15300 5.06400 34.10400
C  34.32000 2.52000 34.86900
C  34.39400 2.54600 36.45000
H  35.15900 3.64400 37.04900
N  37.21400 2.58500 29.39400
C  38.04400 2.61700 30.39500
C  39.34200 2.18200 29.95600
C  39.34900 2.11600 28.54400
C  37.93900 2.39600 28.19200
C  40.52400 2.19100 30.93400
C  40.45500 1.86300 27.54700
O  40.15000 1.71900 26.39500
C  41.98700 1.63100 27.97800
N  34.91500 3.09500 27.37800
C  35.98900 2.93800 26.46400
C  35.46000 2.74200 25.04700
C  33.95700 3.00900 25.17900
C  33.73500 3.15300 26.67000
C  36.12000 3.45500 23.79100
C  32.94900 1.98300 24.51500
C  33.05100 0.53900 25.24600
N  33.18400 3.42400 29.60400
C  32.24300 3.62300 28.56500
C  31.00600 4.05400 29.16600
C  31.26100 4.06600 30.57600
C  32.61200 3.80000 30.79000
C  29.74200 4.37500 28.45700
C  30.59100 4.26800 31.86500
O  29.46600 4.44400 32.17300
C  31.73500 4.19200 32.88900
C  31.76000 5.45800 33.70000
O  32.27100 6.47500 33.32000
O  31.17000 5.26500 34.92700
C  31.20500 6.38400 35.93200
H  38.59100 2.97900 32.38000
H  37.96400 2.35100 26.07800
H  31.62500 3.36400 26.55900
H  34.48900 4.68200 34.55200
H  36.86700 2.88500 34.35000
H  37.76300 5.38000 33.25800
H  37.87900 4.93600 34.90600
H  36.50700 5.89600 34.38300
H  34.88200 1.65800 34.50700
H  33.28000 2.33400 34.60100
H  34.71200 1.57000 36.81700
H  33.39100 2.70800 36.84400
H  40.89700 3.16900 31.23700
H  41.33200 1.59000 30.51700
H  40.32600 1.54200 31.78700
H  42.58300 1.29000 27.13200
H  42.09200 0.88100 28.76200
H  42.40200 2.57700 28.32800
H  35.47500 1.65800 24.93400
H  33.71300 3.99000 24.76900
H  36.19700 2.73300 22.97800
H  37.15400 3.72900 24.00100
H  35.46400 4.31100 23.63300
H  33.19600 1.76400 23.47600
H  31.92000 2.32400 24.62400
H  33.38600 -0.15100 24.47200
H  32.11900 0.23800 25.72400
H  33.89300 0.49200 25.93600
H  29.33500 3.50300 27.94500
H  29.97100 5.12800 27.70300
H  28.96800 4.78500 29.10500
H  31.44900 3.44200 33.62600
H  31.22700 6.04400 36.96800
H  30.35800 7.04900 35.76500
H  32.07200 7.03700 35.84300
Mg 43.09600 42.28900 26.48200
C  42.50300 44.73100 28.98100
C  44.51100 40.16900 28.76400
C  43.71100 40.16100 24.02000
C  42.56100 44.89400 24.07200
N  43.64200 42.56100 28.59300
C  43.05100 43.51500 29.47100
C  43.12300 42.99000 30.87800
C  44.18200 41.79200 30.77900
C  44.03600 41.43400 29.27700
C  45.62000 42.18500 31.01100
C  41.69300 42.66300 31.39400
C  41.27800 43.22200 32.73400
H  42.13500 42.96000 33.95900
N  43.96000 40.44000 26.43700
C  44.43600 39.70000 27.46200
C  44.74000 38.38300 27.06100
C  44.41400 38.31500 25.67200
C  43.98900 39.61800 25.31300
C  45.42000 37.30000 27.96500
C  44.55100 37.09800 24.69300
O  44.57500 37.16900 23.49300
C  44.98700 35.79800 25.31600
N  43.17400 42.57300 24.37500
C  43.33800 41.46200 23.59500
C  43.11700 41.82900 22.04000
C  42.55400 43.26200 22.20800
C  42.69200 43.60700 23.65500
C  44.47600 41.78800 21.34800
C  41.17000 43.42600 21.60300
C  40.04000 42.61800 22.34500
N  42.56100 44.30900 26.47500
C  42.49800 45.23100 25.41500
C  42.14600 46.54000 25.88400
C  41.99900 46.32400 27.26100
C  42.40900 44.98900 27.57800
C  41.97500 47.83300 25.02600
C  41.64900 46.99500 28.49000
O  41.19800 48.09800 28.72800
C  41.86200 45.90300 29.71300
C  42.73000 46.57900 30.67400
O  43.88100 46.90400 30.40900
O  42.09000 46.70500 31.86100
C  42.71200 47.78300 32.78400
H  44.83800 39.44700 29.51600
H  43.90200 39.54500 23.14000
H  42.31200 45.70700 23.38700
H  43.56100 43.80600 31.45200
H  43.92400 40.87900 31.31400
H  46.39600 41.77700 30.36300
H  45.86400 42.00700 32.05800
H  45.64400 43.27000 30.91400
H  41.60300 41.58500 31.53000
H  41.01300 43.09400 30.65900
H  40.20400 43.04700 32.80200
H  41.35200 44.28900 32.52400
H  45.49400 37.70400 28.97400
H  46.45200 37.30300 27.61600
H  44.93400 36.33400 28.11000
H  45.08900 35.06400 24.51600
H  44.50000 35.29900 26.15400
H  46.03700 35.98400 25.54000
H  42.44400 41.07900 21.62600
H  43.26300 43.96500 21.77200
H  45.30500 41.68400 22.04800
H  44.65700 42.73500 20.84000
H  44.46400 41.02000 20.57500
H  41.09400 42.98900 20.60800
H  40.82300 44.45100 21.47200
H  39.15100 43.12000 22.72900
H  40.51300 41.93300 23.04800
H  39.62100 41.88200 21.65900
H  42.84900 47.99100 24.39300
H  41.78200 48.65600 25.71300
H  41.10000 47.67800 24.39600
H  40.88000 45.68700 30.13400
H  43.09300 48.58900 32.15700
H  43.55200 47.36200 33.33600
H  41.97700 48.24500 33.44400

