158

Mg 24.80600 -7.50900 48.55200
C  27.24200 -5.26700 46.91900
C  22.56600 -6.28100 46.24700
C  22.81000 -9.72000 49.83000
C  27.57900 -9.08000 50.07600
N  24.94300 -5.85700 46.77200
C  25.98500 -5.03500 46.39700
C  25.49600 -4.02800 45.32900
C  23.93400 -4.39200 45.25800
C  23.73500 -5.50800 46.24500
C  23.07200 -3.09100 45.40400
C  26.22700 -4.06800 43.94300
C  26.64600 -2.70700 43.34900
H  26.53900 -2.51000 41.86800
N  22.94500 -7.93300 48.12800
C  22.26700 -7.32000 47.08500
C  20.95100 -7.96700 47.09900
C  20.92600 -8.88200 48.20000
C  22.23800 -8.83600 48.81600
C  19.75600 -7.62100 46.11000
C  19.78800 -9.78600 48.55100
O  18.63700 -9.62200 48.07100
C  19.93100 -10.90500 49.54500
N  25.17300 -9.19100 49.76200
C  24.12600 -9.91800 50.21600
C  24.57200 -10.97600 51.18700
C  26.11500 -10.87900 51.14200
C  26.28800 -9.62600 50.29300
C  24.04500 -10.88600 52.67300
C  26.90900 -12.08300 50.56800
C  28.04600 -12.69200 51.47500
N  26.96600 -7.26800 48.62000
C  27.93300 -7.93800 49.35000
C  29.21200 -7.40000 49.10300
C  28.99300 -6.26200 48.34700
C  27.57000 -6.31600 47.91500
C  30.50300 -8.03800 49.62600
C  29.70500 -5.13900 47.67600
O  30.85800 -4.83100 47.71500
C  28.49800 -4.39200 46.74800
C  28.26800 -3.02200 47.26600
O  27.86500 -2.65500 48.36400
O  28.64600 -2.15700 46.35700
C  28.21600 -0.80700 46.56100
H  21.77200 -5.93300 45.58300
H  22.24600 -10.54300 50.27500
H  28.34300 -9.69600 50.55600
H  25.63100 -3.02400 45.73100
H  23.50200 -4.79000 44.34000
H  22.73700 -2.85700 46.41400
H  22.13900 -3.32300 44.88900
H  23.51100 -2.24700 44.87200
H  25.49500 -4.43100 43.22200
H  27.09600 -4.72600 43.91800
H  27.67000 -2.45200 43.62300
H  25.95300 -1.96800 43.75400
H  19.88800 -8.22100 45.21000
H  19.82400 -6.60000 45.73500
H  18.76200 -7.87300 46.47800
H  20.57700 -11.63400 49.05500
H  18.95000 -11.33700 49.74100
H  20.29500 -10.57300 50.51800
H  24.21500 -11.97200 50.92500
H  26.52700 -10.69000 52.13400
H  23.99500 -9.86100 53.04100
H  24.68500 -11.50300 53.30400
H  23.05100 -11.32300 52.76100
H  27.35500 -11.89300 49.59100
H  26.22000 -12.92700 50.56800
H  29.06500 -12.61700 51.09500
H  27.79900 -13.72600 51.71500
H  27.92300 -12.18200 52.43100
H  30.31800 -9.09300 49.42700
H  30.46500 -7.89700 50.70700
H  31.42400 -7.65700 49.18600
H  28.81700 -4.26700 45.71300
H  28.65200 -0.29300 47.41700
H  27.13000 -0.71500 46.53500
H  28.45500 -0.23800 45.66300
Mg 8.78600 47.79600 26.65900
C  6.83300 47.44000 29.55200
C  11.51300 48.00700 28.82000
C  10.74600 47.98400 24.00600
C  5.91700 47.56000 24.74400
N  9.08000 47.81400 28.95600
C  8.14100 47.57600 29.95200
C  8.72100 47.64600 31.34000
C  10.22700 47.97100 31.07400
C  10.27600 47.92000 29.52900
C  10.78900 49.33700 31.74000
C  8.33900 46.48600 32.37400
C  9.40300 45.98800 33.40200
H  8.89200 45.49200 34.69500
N  10.84100 47.98100 26.46400
C  11.77300 48.02200 27.44700
C  13.11900 48.11100 26.86600
C  12.99200 48.17800 25.47000
C  11.49000 48.08400 25.25000
C  14.34500 48.12800 27.86100
C  13.99500 48.25200 24.33400
O  13.66700 48.56700 23.17100
C  15.46700 48.33700 24.77800
N  8.40900 47.86200 24.69900
C  9.36200 47.96400 23.76400
C  8.77600 48.15900 22.38500
C  7.27900 47.85500 22.59500
C  7.18300 47.73900 24.08400
C  9.16900 49.52300 21.55200
C  6.57200 46.72300 21.78400
C  5.70500 47.21000 20.59200
N  6.77700 47.68700 26.98900
C  5.73000 47.54500 26.10600
C  4.53900 47.43000 26.83700
C  4.90100 47.38600 28.19900
C  6.31400 47.54500 28.25100
C  3.09900 47.35600 26.28800
C  4.35500 47.20500 29.58800
O  3.19100 47.04700 29.96000
C  5.62400 47.24600 30.47600
C  5.55300 46.02000 31.30300
O  5.83800 44.89800 30.93600
O  5.14700 46.33500 32.53600
C  4.89000 45.23500 33.47900
H  12.33200 48.09800 29.53700
H  11.31400 48.14900 23.08800
H  4.95400 47.48600 24.23400
H  8.31800 48.54800 31.80200
H  10.96000 47.21200 31.34900
H  11.82700 49.14300 32.01100
H  10.22800 49.65200 32.62000
H  10.55300 50.04800 30.94800
H  8.13000 45.61300 31.75600
H  7.44300 46.81900 32.89800
H  10.16200 46.75100 33.56900
H  9.92300 45.15800 32.92300
H  15.14200 47.43000 27.60400
H  14.13800 47.78700 28.87500
H  14.76600 49.13000 27.77200
H  15.72000 47.38000 25.23500
H  15.49900 49.08400 25.57100
H  16.13000 48.48600 23.92600
H  9.22400 47.32700 21.84100
H  6.72400 48.78400 22.46400
H  9.13500 50.48600 22.06200
H  8.58600 49.56600 20.63200
H  10.21400 49.38700 21.27300
H  6.10200 46.05900 22.50900
H  7.35400 46.15300 21.28200
H  5.93300 48.24600 20.34400
H  4.63700 47.20900 20.81100
H  5.84900 46.53900 19.74500
H  2.54500 46.54700 26.76400
H  3.11700 47.18900 25.21100
H  2.51300 48.22200 26.59500
H  5.52000 47.99000 31.26600
H  3.82100 45.07700 33.62800
H  5.31100 45.29900 34.48200
H  5.49100 44.36400 33.21600

