158

Mg 3.29900 -1.69200 43.70300
C  6.48700 -0.16700 43.35100
C  1.96600 1.27800 42.51800
C  0.34200 -3.12200 43.64200
C  4.79000 -4.50300 44.98600
N  4.19400 0.24900 42.82300
C  5.47700 0.70800 42.87900
C  5.57200 2.16000 42.38900
C  4.09400 2.56600 42.26400
C  3.37600 1.25300 42.54300
C  3.61100 3.56300 43.28000
C  6.37500 2.34400 41.07000
C  5.82900 1.62300 39.79600
H  6.58400 2.01000 38.51000
N  1.40500 -1.03500 42.99000
C  1.06900 0.21500 42.52800
C  -0.34300 0.19600 42.13600
C  -0.86100 -0.95900 42.69500
C  0.27800 -1.76500 43.18400
C  -1.06200 1.36000 41.38300
C  -2.41200 -1.25100 42.63200
O  -3.33100 -0.50200 42.18900
C  -2.91000 -2.66400 43.12200
N  2.64600 -3.51400 44.29600
C  1.38100 -3.92500 44.05400
C  1.17900 -5.43400 44.45600
C  2.64800 -5.89700 44.76700
C  3.41600 -4.56500 44.63300
C  0.16000 -5.58300 45.67900
C  3.18300 -7.13700 43.89400
C  2.92800 -8.57700 44.34000
N  5.13700 -2.23400 44.11800
C  5.63800 -3.42500 44.68600
C  7.01200 -3.29000 44.96400
C  7.43200 -2.07800 44.35800
C  6.27100 -1.47000 43.88800
C  7.80800 -4.30300 45.58200
C  8.56900 -1.30400 44.10300
O  9.75700 -1.47600 44.21400
C  7.99700 -0.00300 43.42400
C  8.45100 1.20200 44.26000
O  9.31300 1.95200 43.76900
O  7.88600 1.34900 45.52600
C  8.19300 2.61000 46.15700
H  1.54000 2.24200 42.23200
H  -0.51600 -3.78800 43.52300
H  5.11800 -5.44000 45.44000
H  6.03400 2.78100 43.15600
H  3.77500 2.91400 41.28200
H  4.44500 4.18900 43.59900
H  3.15300 3.02900 44.11200
H  2.87500 4.23300 42.83600
H  7.44000 2.17800 41.23100
H  6.54500 3.40200 40.86700
H  4.78300 1.87800 39.62600
H  5.88400 0.54300 39.93300
H  -2.10000 1.20900 41.08600
H  -0.46000 1.61400 40.51100
H  -1.13300 2.24000 42.02300
H  -2.51500 -2.90100 44.11000
H  -2.76900 -3.44900 42.37900
H  -3.96200 -2.54400 43.37900
H  0.77600 -6.09100 43.68500
H  2.80700 -6.27200 45.77800
H  -0.87600 -5.79000 45.40900
H  0.06500 -4.55700 46.03600
H  0.53900 -6.21100 46.48400
H  4.25100 -6.99100 43.73000
H  2.70700 -7.01500 42.92000
H  2.42600 -9.22700 43.62300
H  2.28500 -8.56100 45.22000
H  3.80400 -9.13400 44.67400
H  7.74900 -4.01000 46.63000
H  8.73700 -4.30700 45.01200
H  7.29300 -5.26400 45.58100
H  8.50000 0.18600 42.47600
H  8.08900 2.53900 47.23900
H  7.57600 3.34900 45.64700
H  9.18200 3.04900 46.02600
Mg 35.91000 49.92600 25.30500
C  35.54600 48.10100 28.28900
C  34.41800 52.62300 26.81600
C  35.82700 51.39800 22.23000
C  37.12600 46.92400 23.72200
N  35.03000 50.28800 27.30500
C  35.05000 49.43700 28.39600
C  34.76200 50.15100 29.72400
C  34.13000 51.52100 29.18700
C  34.47300 51.49200 27.64600
C  32.65400 51.94800 29.58500
C  35.99400 50.35700 30.62800
C  35.68100 50.60200 32.11500
H  34.24600 50.87100 32.60600
N  35.24100 51.81000 24.57900
C  34.72500 52.76200 25.42700
C  34.54300 54.01500 24.60200
C  34.89100 53.62200 23.26400
C  35.37200 52.19100 23.30100
C  34.02700 55.32300 25.18300
C  34.81800 54.43500 21.97200
O  35.17300 53.99000 20.89000
C  34.35800 55.81400 22.13500
N  36.24500 49.22800 23.23900
C  36.20000 50.03800 22.18000
C  36.75500 49.39100 20.86300
C  37.15000 47.91600 21.42400
C  36.86000 48.00700 22.87800
C  35.72200 49.23700 19.69700
C  38.70600 47.52300 21.09100
C  38.90300 46.10000 20.53400
N  36.34200 47.92300 25.82900
C  36.93700 46.88100 25.09800
C  37.01500 45.75700 26.02300
C  36.51100 46.18900 27.32700
C  36.08000 47.51300 27.15400
C  37.67800 44.44400 25.59000
C  36.29800 45.72500 28.72200
O  36.51800 44.63200 29.29400
C  35.78900 47.03200 29.43600
C  34.55500 46.73500 30.16100
O  33.41800 46.77600 29.64700
O  34.70600 46.46400 31.45500
C  33.53600 46.16400 32.28800
H  34.14400 53.54000 27.34300
H  36.02900 51.90400 21.28400
H  37.55600 46.07700 23.18300
H  34.01300 49.62200 30.31400
H  34.76000 52.34100 29.53200
H  32.06400 52.23100 28.71300
H  32.73000 52.80500 30.25400
H  32.21700 51.07000 30.06000
H  36.50300 51.23000 30.22000
H  36.61100 49.46600 30.51400
H  36.26800 51.41700 32.53900
H  36.05400 49.76500 32.70500
H  34.67600 56.13100 24.84800
H  33.88300 55.40500 26.26100
H  33.02600 55.53700 24.80900
H  33.44000 55.78400 22.72200
H  34.21200 56.31400 21.17700
H  35.03800 56.49100 22.65300
H  37.59000 49.97900 20.48400
H  36.45700 47.18500 21.00700
H  34.71100 49.22700 20.10400
H  35.98900 48.36800 19.09600
H  35.84800 50.12100 19.07100
H  39.32000 47.57200 21.99100
H  39.03000 48.13000 20.24600
H  39.63900 45.66700 21.21200
H  39.29500 46.10100 19.51700
H  37.96400 45.54800 20.49300
H  38.25900 44.63500 24.68800
H  36.82200 43.78200 25.45300
H  38.35700 44.07000 26.35600
H  36.57300 47.27800 30.15200
H  33.67900 45.20700 32.78800
H  32.61900 46.09000 31.70400
H  33.30500 47.02900 32.90900

