158

Mg 44.41100 5.03800 47.25700
C  42.10900 7.93000 46.90000
C  41.52500 3.01800 46.76000
C  46.37600 2.47500 46.98400
C  46.95700 7.19100 46.55400
N  42.06600 5.45500 47.00100
C  41.45100 6.65200 46.86100
C  39.95400 6.40700 46.61900
C  39.76200 4.85900 46.92300
C  41.24500 4.42100 46.88200
C  38.86900 4.47200 48.17000
C  39.53200 6.78500 45.20300
C  38.42300 7.80300 45.09400
H  37.60700 7.78700 43.81400
N  43.99500 3.02100 47.18800
C  42.81800 2.35300 46.90600
C  43.12400 0.97700 46.71700
C  44.52800 0.71400 46.77300
C  45.00300 2.07600 47.09300
C  42.04200 -0.13100 46.59100
C  45.27200 -0.63500 46.58600
O  44.73200 -1.64300 46.23700
C  46.82000 -0.82600 46.58900
N  46.42400 4.87300 46.75400
C  47.06300 3.69100 46.81300
C  48.56700 3.89800 47.00000
C  48.75500 5.37700 46.49200
C  47.29500 5.89400 46.64100
C  49.05500 3.59200 48.46800
C  49.34900 5.64000 45.01700
C  50.82500 5.99700 44.98100
N  44.57900 7.13200 47.03100
C  45.72200 7.85300 46.75600
C  45.39700 9.32500 46.74800
C  44.04800 9.38500 46.89900
C  43.54100 8.04700 46.93600
C  46.36100 10.42900 46.61500
C  42.85300 10.27600 46.99200
O  42.84100 11.52900 46.95700
C  41.62600 9.38500 46.95900
C  40.70500 9.58500 48.12300
O  40.59300 8.84900 49.11600
O  39.97700 10.66600 47.86300
C  38.88200 10.99500 48.70900
H  40.69900 2.31300 46.64900
H  47.15100 1.70800 46.93400
H  47.84600 7.80200 46.38100
H  39.37000 6.98900 47.33300
H  39.27400 4.21700 46.18900
H  39.54000 4.54200 49.02600
H  38.54400 3.43500 48.09400
H  38.04900 5.18200 48.28900
H  39.19800 5.93000 44.61400
H  40.46600 7.11500 44.74900
H  38.76700 8.79000 45.40300
H  37.77100 7.43300 45.88500
H  41.95900 -0.78400 47.45900
H  42.31700 -0.77400 45.75500
H  40.99300 0.13800 46.46300
H  47.02600 -1.82700 46.21000
H  47.32900 -0.53100 47.50700
H  47.22900 -0.22100 45.77900
H  49.06000 3.15100 46.37900
H  49.33800 5.93400 47.22500
H  48.12700 3.47900 49.03000
H  49.59800 4.46800 48.82100
H  49.69200 2.71200 48.37800
H  48.66500 6.40900 44.65800
H  49.30600 4.75700 44.37900
H  51.07500 6.54000 44.07000
H  51.31500 5.02500 44.92400
H  51.14900 6.48400 45.90200
H  47.35100 10.15400 46.97900
H  45.95700 11.31100 47.11200
H  46.48700 10.82900 45.60900
H  41.08600 9.66200 46.05300
H  38.99600 12.03700 49.00700
H  38.55000 10.46900 49.60400
H  37.91800 11.00300 48.20000
Mg 47.15900 16.89900 28.34600
C  45.03700 16.52300 31.12400
C  49.23400 18.64300 30.19800
C  48.64200 17.63000 25.46600
C  44.50700 15.34200 26.36700
N  46.98200 17.66600 30.40600
C  46.14500 17.24300 31.38300
C  46.75700 17.65100 32.83100
C  47.86800 18.61500 32.39000
C  48.09100 18.30600 30.90700
C  47.52300 20.10000 32.69100
C  47.17100 16.40700 33.68000
C  46.68000 16.41000 35.18500
H  46.36800 17.75300 35.78100
N  48.85600 17.89200 27.95000
C  49.64500 18.48300 28.83400
C  50.84300 18.89900 28.18200
C  50.68500 18.57700 26.80600
C  49.35600 18.06600 26.67200
C  51.89500 19.39100 29.02100
C  51.61900 18.76200 25.63300
O  51.29600 18.64400 24.46400
C  52.88900 19.46100 25.92400
N  46.68000 16.52300 26.22700
C  47.51000 16.97600 25.21200
C  46.95300 16.58800 23.80000
C  45.72800 15.73500 24.14800
C  45.63000 15.82200 25.67500
C  46.88400 17.85600 22.81900
C  45.71600 14.26400 23.53700
C  44.79000 14.09400 22.29600
N  45.07600 16.11900 28.61100
C  44.24600 15.51200 27.71900
C  43.01900 15.08800 28.44500
C  43.27500 15.45000 29.83300
C  44.57800 16.04800 29.81400
C  41.75200 14.55400 27.85500
C  42.87700 15.40100 31.24500
O  41.90600 14.91700 31.74400
C  43.93100 16.11900 32.09600
C  43.21900 17.21800 32.84300
O  43.04200 18.35300 32.40800
O  42.68700 16.78900 34.03900
C  41.87100 17.75900 34.75900
H  49.90700 19.18700 30.86400
H  49.17200 17.80900 24.52800
H  43.79800 14.76600 25.76700
H  45.92400 18.25400 33.19200
H  48.75500 18.32900 32.95500
H  48.39300 20.64300 33.05900
H  46.82200 20.19100 33.52000
H  47.18700 20.53800 31.75000
H  48.24200 16.21000 33.64700
H  46.64700 15.57400 33.21300
H  47.42000 15.82300 35.73000
H  45.75000 15.84100 35.19800
H  52.86200 19.40500 28.51900
H  52.10100 18.77600 29.89600
H  51.55500 20.39900 29.26000
H  52.71900 20.33200 26.55600
H  53.15300 19.87700 24.95200
H  53.53700 18.76100 26.45200
H  47.71700 15.88500 23.46800
H  44.81900 16.22800 23.80300
H  45.95000 17.76100 22.26600
H  47.67100 17.92800 22.06900
H  46.92900 18.78400 23.39000
H  45.44300 13.53200 24.29800
H  46.71800 14.07300 23.15500
H  45.33500 13.50800 21.55600
H  44.53000 15.05000 21.84200
H  43.93100 13.45700 22.50700
H  40.96700 14.95300 28.49900
H  41.70900 13.46500 27.85800
H  41.76000 15.02300 26.87100
H  44.31300 15.40800 32.82800
H  41.01200 18.13500 34.20400
H  42.49400 18.57600 35.12300
H  41.37000 17.38800 35.65300

