158

Mg 26.26800 0.68400 28.89800
C  28.09000 0.61300 31.96100
C  23.46300 1.14300 30.72500
C  24.64500 1.09400 26.00200
C  29.21500 -0.16200 27.24900
N  25.85800 0.71400 31.15000
C  26.78300 0.91200 32.14200
C  26.04000 1.22700 33.46700
C  24.51800 1.38400 33.02500
C  24.62200 1.08900 31.51700
C  23.56200 0.49900 33.84600
C  26.65500 2.57500 34.03700
C  27.32000 2.47500 35.41500
H  26.87500 3.38500 36.50500
N  24.26200 0.97100 28.39800
C  23.20900 1.04400 29.32200
C  21.93700 1.18900 28.60200
C  22.34600 1.38800 27.21000
C  23.83700 1.21200 27.09800
C  20.66000 1.20500 29.31400
C  21.47300 1.68800 25.98500
O  21.94100 1.78300 24.84400
C  19.99200 1.79700 26.13000
N  26.86000 0.46200 26.92400
C  25.99400 0.76600 25.85000
C  26.69300 0.45500 24.44500
C  28.16500 0.11000 24.89100
C  28.12200 0.11200 26.44500
C  25.99300 -0.57900 23.63000
C  29.37200 0.89000 24.23500
C  29.78600 2.17300 24.98500
N  28.24900 0.22600 29.43500
C  29.31700 -0.03200 28.65100
C  30.50300 -0.30000 29.41900
C  30.05000 -0.01100 30.71900
C  28.67400 0.27400 30.71600
C  31.81600 -0.65400 28.84000
C  30.50800 0.25500 32.14000
O  31.62300 0.24500 32.55000
C  29.26000 0.62600 32.97300
C  29.09800 -0.52000 33.99900
O  28.92400 -1.68500 33.72200
O  29.20300 -0.09200 35.30600
C  29.01700 -1.11200 36.38300
H  22.47100 1.24900 31.16800
H  24.14000 1.19800 25.03900
H  30.11000 -0.48500 26.71400
H  26.12600 0.28100 34.00000
H  24.17000 2.40500 33.18000
H  23.32000 -0.43000 33.33100
H  22.64100 1.06400 33.98800
H  23.92600 0.16600 34.81800
H  25.81700 3.26900 34.09800
H  27.30500 2.96700 33.25500
H  28.39000 2.58600 35.24200
H  27.15700 1.45200 35.75300
H  20.38700 2.16900 29.74400
H  20.69000 0.42200 30.07100
H  19.82800 1.00000 28.63900
H  19.65800 2.52000 26.87500
H  19.63300 0.81300 26.43000
H  19.42500 2.07400 25.24200
H  26.65600 1.38900 23.88400
H  28.27900 -0.95600 24.69600
H  26.58200 -1.47600 23.43800
H  25.64400 -0.16500 22.68400
H  25.08600 -0.84100 24.17600
H  29.06400 1.10100 23.21200
H  30.16900 0.17900 24.45300
H  30.08200 2.84200 24.17700
H  30.71400 2.02300 25.53700
H  28.96000 2.52800 25.60200
H  31.82300 -1.47000 28.11700
H  32.44500 -1.05500 29.63500
H  32.29800 0.22900 28.42200
H  29.38500 1.60300 33.43900
H  29.66300 -0.84100 37.21900
H  29.09200 -2.13900 36.02500
H  27.99200 -1.06200 36.75000
Mg -4.89400 26.31900 26.32000
C  -3.70000 27.75100 29.37800
C  -6.80700 24.23200 28.31500
C  -5.65600 24.65300 23.54500
C  -2.52900 28.19900 24.54700
N  -5.07000 25.93600 28.64500
C  -4.60900 26.75800 29.66400
C  -5.03700 26.22400 31.05600
C  -5.89700 24.97400 30.67400
C  -5.98700 25.04700 29.13000
C  -5.28400 23.62300 31.19500
C  -5.85900 27.35200 31.77000
C  -5.88400 27.33600 33.29300
H  -5.50400 26.13100 34.06700
N  -6.08300 24.64500 26.01300
C  -6.90100 24.04500 26.89500
C  -7.68200 23.12000 26.17000
C  -7.40200 23.17100 24.73600
C  -6.35300 24.20700 24.72900
C  -8.77500 22.40900 26.78200
C  -7.98400 22.45800 23.48600
O  -7.41200 22.51700 22.39500
C  -9.21000 21.58700 23.66700
N  -4.29000 26.48400 24.34700
C  -4.82500 25.74300 23.35900
C  -4.35200 26.24600 21.95200
C  -3.36700 27.40300 22.30000
C  -3.45000 27.41100 23.85700
C  -3.63100 25.18300 21.06400
C  -3.69600 28.80600 21.70100
C  -2.87000 29.31800 20.50000
N  -3.40700 27.72800 26.80100
C  -2.49500 28.33300 25.96500
C  -1.58100 29.20700 26.79500
C  -2.09200 29.04100 28.15000
C  -3.15200 28.12000 28.08000
C  -0.40200 29.98100 26.29200
C  -1.81100 29.40200 29.55200
O  -1.03200 30.15800 30.04600
C  -2.85700 28.53900 30.42200
C  -2.00300 27.73200 31.25400
O  -1.39900 26.72500 30.78600
O  -2.02000 28.11000 32.55800
C  -0.96000 27.53300 33.39900
H  -7.55300 23.64600 28.85500
H  -5.88500 24.14500 22.60600
H  -1.82900 28.74700 23.91300
H  -4.21000 25.83800 31.65200
H  -6.94900 25.02900 30.95300
H  -4.82500 23.12800 30.33900
H  -6.08700 22.98400 31.56000
H  -4.57900 23.69900 32.02300
H  -6.92000 27.39000 31.52100
H  -5.42000 28.30100 31.46200
H  -6.94500 27.53000 33.45000
H  -5.31100 28.16400 33.71100
H  -8.79700 22.32400 27.86800
H  -8.78600 21.37100 26.44900
H  -9.67300 22.88300 26.38700
H  -9.89600 22.01400 24.39800
H  -8.79600 20.63200 23.98900
H  -9.82600 21.53400 22.77000
H  -5.17700 26.65400 21.36700
H  -2.39300 27.08300 21.92800
H  -4.19700 25.07000 20.13900
H  -3.64200 24.23800 21.60700
H  -2.58700 25.38300 20.82600
H  -3.70000 29.56800 22.48000
H  -4.72300 28.89700 21.34900
H  -3.47500 29.35800 19.59400
H  -1.89400 28.84200 20.40500
H  -2.71300 30.35500 20.79600
H  -0.74300 30.92800 25.87300
H  0.13500 29.37900 25.55900
H  0.16300 30.20900 27.19600
H  -3.38000 29.27400 31.03500
H  -0.06800 27.48400 32.77400
H  -1.18400 26.48800 33.61400
H  -0.75000 28.18200 34.24800

