158

Mg 35.94000 2.69500 30.64100
C  33.21600 3.40500 33.01600
C  38.17300 2.76900 33.36900
C  38.38600 1.94300 28.57000
C  33.59700 2.92000 28.15000
N  35.66700 3.08900 32.90200
C  34.49100 3.31800 33.61400
C  34.84800 3.32500 35.13100
C  36.42500 3.52400 35.13500
C  36.83900 3.13100 33.67800
C  36.91600 4.97700 35.50600
C  34.36100 2.03000 35.84900
C  33.87000 2.15200 37.32600
H  34.30500 3.41300 38.06000
N  37.99200 2.24200 30.95200
C  38.66800 2.23100 32.16000
C  40.04700 1.78400 31.83600
C  40.12700 1.62900 30.46900
C  38.79600 1.98300 29.95600
C  41.12400 1.69600 32.86800
C  41.27100 1.22200 29.61500
O  41.19100 1.04600 28.40500
C  42.56000 0.82700 30.31300
N  36.03600 2.59400 28.62600
C  37.18000 2.25400 27.93600
C  36.92000 2.35400 26.44500
C  35.34500 2.58200 26.33200
C  34.98000 2.72300 27.81700
C  37.83700 3.45200 25.83700
C  34.54200 1.33400 25.82500
C  33.49800 1.78500 24.84400
N  33.76500 3.17400 30.55200
C  33.00700 3.18800 29.43000
C  31.69300 3.46800 29.78000
C  31.62500 3.56000 31.18300
C  33.01100 3.40000 31.60700
C  30.53000 3.50800 28.83000
C  30.83300 3.75400 32.38200
O  29.66000 3.91100 32.51200
C  31.85800 3.69100 33.64800
C  31.86600 4.96300 34.39200
O  32.58900 5.94400 34.22100
O  30.96200 4.84000 35.41800
C  30.98600 5.98700 36.37000
H  38.79400 2.79900 34.26700
H  39.17200 1.79600 27.82600
H  32.87500 2.94300 27.33100
H  34.30700 4.14300 35.60700
H  36.88500 2.91000 35.90900
H  37.41900 4.93600 36.47200
H  36.04200 5.62800 35.51100
H  37.62700 5.22800 34.72000
H  35.15300 1.30600 35.66100
H  33.54100 1.69000 35.21600
H  34.08900 1.20900 37.82700
H  32.78000 2.15400 37.31300
H  41.69000 0.76500 32.83100
H  40.69200 1.67900 33.86800
H  41.88000 2.48100 32.86800
H  42.24400 -0.12100 30.75000
H  42.93000 1.61000 30.97300
H  43.26200 0.61400 29.50700
H  37.18400 1.36600 26.06700
H  35.06700 3.48900 25.79400
H  37.20400 4.13700 25.27400
H  38.64100 3.02500 25.23600
H  38.24000 4.09200 26.62100
H  34.05200 0.77100 26.61900
H  35.15100 0.63200 25.25600
H  33.79800 1.41100 23.86500
H  33.20700 2.82600 24.98800
H  32.58300 1.25300 25.10500
H  30.40900 2.54200 28.34100
H  30.61000 4.37600 28.17500
H  29.59500 3.65000 29.37100
H  31.58800 2.97600 34.42500
H  29.97000 6.37700 36.43300
H  31.60200 6.86700 36.18800
H  31.32600 5.64200 37.34600
Mg -1.45000 35.11100 26.48800
C  -3.16500 33.32700 28.98800
C  -0.21700 37.31100 28.82600
C  0.19400 36.57100 23.95100
C  -2.65400 32.70100 24.22400
N  -1.81100 35.37300 28.67900
C  -2.46000 34.47300 29.49600
C  -2.38300 34.91600 30.96300
C  -1.66000 36.31000 30.80100
C  -1.18500 36.39300 29.36500
C  -2.45400 37.50300 31.22400
C  -1.68200 33.86900 31.87100
C  -2.53800 33.35600 33.06800
H  -1.85100 33.20800 34.41300
N  -0.31300 36.78700 26.36200
C  0.15900 37.50700 27.41900
C  0.92800 38.61800 26.86300
C  1.07500 38.46400 25.43600
C  0.28100 37.24400 25.21700
C  1.46500 39.75000 27.69000
C  1.79500 39.34300 24.43700
O  1.98900 38.96600 23.31200
C  2.37700 40.70400 24.86500
N  -1.33300 34.76400 24.33900
C  -0.56900 35.47000 23.52300
C  -0.43800 34.91900 22.13800
C  -1.23200 33.60600 22.22000
C  -1.83900 33.73400 23.66100
C  -0.93700 35.84900 20.99000
C  -0.55100 32.23500 21.90500
C  0.70400 31.96100 22.80300
N  -2.81000 33.46200 26.45100
C  -3.19000 32.64300 25.51000
C  -4.09100 31.63800 26.00700
C  -4.10600 31.88000 27.39300
C  -3.35300 33.01600 27.61500
C  -4.75100 30.52700 25.17800
C  -4.65400 31.43100 28.67400
O  -5.35000 30.49600 29.01300
C  -3.91000 32.31800 29.77200
C  -5.02100 32.92800 30.57800
O  -5.71000 33.82100 30.21800
O  -5.29700 32.14100 31.70400
C  -6.27100 32.59600 32.70400
H  0.16900 37.97000 29.60700
H  0.77200 37.00000 23.13000
H  -3.16300 32.13000 23.44400
H  -3.43200 35.01400 31.24200
H  -0.79800 36.31300 31.46800
H  -3.51800 37.33100 31.38300
H  -2.44100 38.21900 30.40200
H  -2.03900 37.91200 32.14500
H  -0.78700 34.32700 32.29200
H  -1.44600 32.98200 31.28300
H  -2.95400 32.39800 32.75600
H  -3.36600 33.99800 33.36800
H  2.54500 39.79300 27.55000
H  1.40300 39.48600 28.74500
H  0.98300 40.71800 27.55500
H  2.56500 41.25400 23.94200
H  3.28500 40.48100 25.42400
H  1.52800 41.24400 25.28600
H  0.63700 34.74100 22.10800
H  -2.00100 33.60100 21.44700
H  -1.30100 36.75500 21.47500
H  -1.68500 35.28800 20.43000
H  -0.17700 36.11900 20.25700
H  -0.13100 32.30100 20.90100
H  -1.34000 31.48500 21.86000
H  0.69800 32.46500 23.77000
H  1.65700 32.18100 22.32200
H  0.73600 30.90200 23.05600
H  -5.53100 30.96100 24.55200
H  -5.11000 29.80500 25.91200
H  -3.93300 30.07600 24.61600
H  -3.28400 31.66200 30.37500
H  -6.38800 31.87000 33.50900
H  -7.18400 32.88000 32.18000
H  -5.87000 33.52900 33.10000

