158

Mg 40.13700 8.82500 28.46500
C  42.02400 10.06300 31.03300
C  38.00900 7.44400 30.63200
C  38.21500 7.85800 25.79800
C  42.45900 9.97900 26.17800
N  40.10500 8.72600 30.57600
C  40.85400 9.44100 31.44700
C  40.29900 9.39300 32.86500
C  39.18400 8.31600 32.76600
C  39.10200 8.06300 31.19600
C  39.49600 7.03100 33.54300
C  39.75600 10.84000 33.33600
C  39.14500 11.04000 34.77600
H  39.39800 12.30600 35.49500
N  38.29200 7.79400 28.25500
C  37.59800 7.26100 29.30000
C  36.41000 6.68800 28.82300
C  36.36700 6.90000 27.43500
C  37.62600 7.57200 27.10700
C  35.29200 5.95400 29.70000
C  35.29900 6.55900 26.33700
O  35.42300 6.66100 25.13200
C  33.89900 6.16400 26.78400
N  40.33300 8.69800 26.29200
C  39.36800 8.45600 25.38800
C  39.82500 8.74000 24.00300
C  41.18200 9.41900 24.18900
C  41.35200 9.34200 25.70100
C  39.82500 7.47200 23.14700
C  41.14500 10.90600 23.60200
C  40.47900 12.03000 24.43500
N  41.90100 9.72700 28.61300
C  42.79100 10.15900 27.56100
C  43.95800 10.86200 28.18200
C  43.63300 10.84900 29.55700
C  42.47100 10.14700 29.64900
C  45.15700 11.39100 27.48100
C  44.05700 11.31000 30.88800
O  44.93900 12.07600 31.22900
C  43.00400 10.83300 31.88800
C  43.69400 9.99500 32.96700
O  44.28800 8.94600 32.76300
O  43.43500 10.53600 34.24200
C  43.70700 9.63100 35.30800
H  37.31200 7.24900 31.45000
H  37.66700 7.61600 24.88400
H  43.21200 10.33500 25.47200
H  41.18100 9.08300 33.42500
H  38.28000 8.76500 33.17600
H  40.50300 6.92100 33.94500
H  39.38500 6.14100 32.92300
H  38.80500 7.03800 34.38600
H  38.82800 11.03200 32.79800
H  40.52900 11.59400 33.18400
H  39.59900 10.21400 35.32300
H  38.07300 10.86000 34.68900
H  35.41900 6.04500 30.77800
H  35.42200 4.91100 29.41200
H  34.32400 6.42200 29.52200
H  33.49600 7.09100 27.19300
H  33.85600 5.42000 27.58000
H  33.40500 5.87200 25.85700
H  39.10800 9.46400 23.61700
H  41.94100 8.85200 23.65000
H  39.83500 6.58300 23.77900
H  40.71400 7.43600 22.51700
H  38.97100 7.44700 22.47000
H  40.73200 10.82500 22.59700
H  42.16500 11.25800 23.45000
H  40.24000 11.62200 25.41700
H  39.55600 12.36800 23.96600
H  41.19000 12.84500 24.56800
H  45.91200 11.30700 28.26300
H  44.91100 12.42900 27.25900
H  45.30100 10.69900 26.65100
H  42.56500 11.68300 32.41200
H  42.78500 9.59000 35.88800
H  44.59600 9.81400 35.91100
H  43.83100 8.62400 34.91000
Mg 46.20900 24.76900 28.53000
C  46.39700 27.21900 31.10900
C  45.06300 22.51500 30.85500
C  46.21700 22.52600 26.13000
C  48.00900 26.95500 26.48000
N  45.58600 24.93100 30.70300
C  45.83100 25.99600 31.58200
C  45.45500 25.58700 33.00500
C  45.28300 24.01300 32.88400
C  45.37000 23.78400 31.37100
C  46.29500 23.20700 33.73800
C  44.31200 26.42600 33.57500
C  44.71100 27.09100 34.86900
H  45.11700 26.28900 36.20100
N  45.63200 22.90000 28.48900
C  45.12800 22.13900 29.53000
C  44.75200 20.85200 28.96200
C  45.02500 20.82600 27.55800
C  45.64700 22.10000 27.34900
C  44.13200 19.71400 29.77000
C  44.75500 19.82800 26.52100
O  45.03100 19.95500 25.33600
C  43.87700 18.58600 26.87500
N  46.95800 24.79000 26.60500
C  46.84700 23.68500 25.77800
C  47.31500 23.99800 24.27900
C  47.98500 25.41800 24.42600
C  47.56600 25.80700 25.88000
C  48.20000 23.01600 23.46200
C  47.58800 26.49900 23.39200
C  46.08000 26.95400 23.21100
N  47.04600 26.74100 28.67400
C  47.73600 27.45300 27.75500
C  48.13700 28.72600 28.31600
C  47.65500 28.62400 29.63400
C  46.98400 27.40900 29.84300
C  49.04300 29.76700 27.72800
C  47.62900 29.34800 30.92700
O  48.02100 30.45500 31.17400
C  46.86300 28.42200 31.95900
C  47.93200 28.00000 32.86700
O  48.62300 26.94500 32.78100
O  47.94800 28.71600 34.06200
C  48.95400 28.31000 35.06600
H  44.68300 21.97100 31.72300
H  46.17400 21.85700 25.26800
H  48.56200 27.51200 25.72100
H  46.32500 25.69800 33.65400
H  44.29900 23.76200 33.27700
H  47.19100 23.75400 34.03200
H  46.62600 22.54700 32.93600
H  45.84900 22.72200 34.60600
H  43.48700 25.78400 33.88200
H  44.07300 27.20300 32.84800
H  43.84500 27.67400 35.17900
H  45.62400 27.67800 34.76400
H  44.60500 18.73500 29.69200
H  43.05800 19.71300 29.58300
H  44.33800 19.92900 30.81800
H  44.41100 17.91300 27.54600
H  43.59800 18.20200 25.89400
H  42.99000 18.92200 27.41200
H  46.33400 24.12600 23.82000
H  49.06300 25.28400 24.33300
H  49.00500 23.58500 22.99800
H  47.66200 22.36500 22.77300
H  48.78700 22.37500 24.12100
H  47.90000 25.98800 22.48100
H  48.20200 27.38700 23.54000
H  45.64600 26.50600 22.31700
H  46.03800 28.03100 23.04600
H  45.40500 26.64900 24.01000
H  49.95500 29.27000 27.39800
H  49.36400 30.42400 28.53600
H  48.54300 30.25500 26.89100
H  46.06700 28.87300 32.55300
H  48.38600 27.56900 35.62800
H  49.03900 29.24800 35.61500
H  49.88600 27.94200 34.63600

