158

Mg 53.76800 24.18000 43.99900
C  51.05700 26.20300 43.08200
C  52.39100 21.64700 42.13700
C  56.77100 22.54100 44.14000
C  55.19900 26.96900 45.59900
N  52.10500 24.07300 42.44400
C  51.11800 25.05700 42.33500
C  49.93800 24.49100 41.42400
C  50.24900 22.91800 41.37500
C  51.66400 22.85700 42.04700
C  49.21900 22.00600 41.99700
C  49.75700 25.07700 39.94400
C  51.09800 25.46000 39.38000
H  51.16200 25.99600 37.94600
N  54.38800 22.27400 43.41000
C  53.61100 21.34400 42.76400
C  54.26400 20.06900 42.86400
C  55.59100 20.33600 43.45300
C  55.61800 21.78600 43.66000
C  53.62000 18.77300 42.29400
C  56.64000 19.28400 43.65500
O  56.33600 18.08800 43.49100
C  58.08600 19.60000 44.23900
N  55.78200 24.81900 44.44900
C  56.82000 23.94300 44.51800
C  58.07200 24.64800 45.16900
C  57.46700 25.92700 45.80900
C  56.05700 25.89300 45.31100
C  58.98600 23.84500 46.17900
C  58.20200 27.27400 45.46400
C  58.29100 28.31000 46.59400
N  53.18700 26.14700 44.37500
C  53.82700 27.08900 45.19100
C  52.89800 28.21400 45.40000
C  51.83200 27.89600 44.55000
C  52.06600 26.66600 43.96400
C  53.19800 29.52000 46.16800
C  50.60600 28.43400 44.03100
O  50.10800 29.52700 44.35300
C  49.98200 27.30500 43.30500
C  49.54500 27.87600 42.05800
O  50.27800 28.39100 41.20200
O  48.15700 27.83900 41.95600
C  47.66000 28.49900 40.73200
H  51.92100 20.77700 41.67300
H  57.68900 21.97100 44.29300
H  55.59800 27.66700 46.33700
H  48.96000 24.65000 41.87700
H  50.26700 22.68600 40.31000
H  48.42600 22.64300 42.39000
H  49.65000 21.53900 42.88300
H  48.91900 21.21100 41.31500
H  49.05600 25.90800 39.88200
H  49.30700 24.30600 39.31700
H  51.63800 24.51300 39.39200
H  51.60900 26.15200 40.04900
H  54.23700 18.57200 41.41800
H  52.55100 18.88000 42.10900
H  53.84600 18.05100 43.07900
H  57.91900 20.13300 45.17500
H  58.63700 20.13900 43.46900
H  58.55600 18.63800 44.43800
H  58.60200 25.10800 44.33500
H  57.39200 25.82100 46.89100
H  59.92400 23.70000 45.64300
H  58.38100 22.99700 46.50100
H  59.08100 24.33000 47.15000
H  57.64700 27.84600 44.72000
H  59.20400 27.09300 45.07500
H  59.30600 28.66900 46.76100
H  58.02400 27.99400 47.60300
H  57.64900 29.16800 46.39500
H  52.31900 29.64800 46.79900
H  53.45000 30.28300 45.43200
H  54.13400 29.33800 46.69600
H  49.14800 26.87900 43.86400
H  47.79500 29.57400 40.85400
H  46.57500 28.42200 40.65400
H  48.19700 28.13700 39.85600
Mg 42.91000 41.93100 25.65700
C  42.18800 44.15400 28.24300
C  43.97900 39.76800 28.10000
C  44.03300 40.04400 23.20800
C  42.21800 44.51600 23.31900
N  42.98500 41.91800 27.95700
C  42.65100 42.95500 28.78900
C  42.71200 42.63200 30.28500
C  43.53900 41.26200 30.18800
C  43.57200 40.96700 28.69300
C  45.03600 41.33400 30.74600
C  41.31200 42.49500 30.99300
C  41.18300 41.80000 32.25500
H  40.45200 42.57800 33.40900
N  43.81800 40.11000 25.64700
C  44.15100 39.31800 26.76500
C  44.63200 38.06500 26.30100
C  44.51500 38.08000 24.88300
C  44.22500 39.49800 24.52800
C  44.83200 36.86700 27.19000
C  44.61300 36.97400 23.92400
O  44.43200 37.19400 22.74200
C  44.65400 35.46500 24.36500
N  43.33400 42.33500 23.58400
C  43.63200 41.29600 22.77500
C  43.54100 41.71900 21.29300
C  42.95200 43.18000 21.28600
C  42.76300 43.33700 22.84500
C  44.79800 41.50300 20.46200
C  41.72300 43.49100 20.37700
C  40.32400 43.11000 20.90700
N  42.43900 43.88300 25.66800
C  42.04800 44.80800 24.65600
C  41.47200 45.96000 25.30000
C  41.48500 45.68100 26.66200
C  42.04300 44.42600 26.85900
C  40.90600 47.15600 24.48900
C  41.08400 46.20100 27.93100
O  40.52700 47.25500 28.15100
C  41.58100 45.27600 29.07000
C  42.61100 46.02600 29.77800
O  43.72100 46.36600 29.33800
O  42.17600 46.45600 30.97700
C  43.02400 47.37700 31.65800
H  44.23800 39.07000 28.89900
H  44.24600 39.45200 22.31500
H  41.81100 45.28100 22.65500
H  43.25100 43.32800 30.92800
H  43.08200 40.46500 30.77400
H  45.34700 42.37800 30.74400
H  45.65300 40.79600 30.02700
H  45.25400 40.86100 31.70400
H  40.64900 42.05700 30.24800
H  41.04400 43.53100 31.20400
H  42.17200 41.48200 32.58400
H  40.65100 40.86500 32.07700
H  44.89600 37.16700 28.23600
H  45.71500 36.24400 27.05000
H  43.96800 36.20500 27.13300
H  44.72300 34.91300 23.42700
H  43.65700 35.34300 24.78900
H  45.45200 35.05400 24.98300
H  42.72200 41.13500 20.87400
H  43.71400 43.91700 21.03500
H  45.65200 41.25700 21.09300
H  45.08600 42.32200 19.80300
H  44.70200 40.61700 19.83600
H  41.95300 43.14300 19.37000
H  41.73000 44.58100 20.41300
H  40.52300 42.33900 21.65100
H  39.70900 42.60600 20.16200
H  39.90000 43.97800 21.41300
H  40.71000 46.91000 23.44600
H  41.67200 47.93000 24.44600
H  40.12100 47.73500 24.97500
H  40.81100 44.95200 29.77000
H  43.75700 46.75600 32.17300
H  42.43100 47.98300 32.34200
H  43.59500 47.97800 30.95000

