158

Mg 46.70700 25.18300 27.45300
C  47.77900 27.36000 30.02600
C  45.73000 23.01300 29.83400
C  46.19000 22.82300 25.03700
C  48.16700 27.22100 25.09900
N  46.86300 25.21200 29.73800
C  47.12300 26.26000 30.57200
C  46.78500 26.01800 32.03500
C  46.35500 24.47400 31.86900
C  46.36100 24.17800 30.38800
C  47.08500 23.36500 32.77300
C  45.77500 27.05100 32.65800
C  44.99900 26.69000 33.89800
H  45.27000 27.59200 35.14400
N  45.98700 23.24700 27.47400
C  45.61700 22.55000 28.55900
C  45.14800 21.22500 28.12900
C  45.13300 21.15500 26.69400
C  45.77800 22.43000 26.34000
C  44.74500 20.14700 29.14700
C  44.64300 20.00200 25.76400
O  44.66300 20.02200 24.52700
C  44.14200 18.73900 26.37700
N  47.18100 25.02100 25.46500
C  46.77700 23.99100 24.58600
C  47.18400 24.21900 23.16700
C  47.97400 25.57500 23.24700
C  47.72900 26.00300 24.66000
C  47.82100 23.04200 22.45900
C  47.49300 26.61800 22.08900
C  48.55300 27.17900 21.18500
N  47.74100 26.91900 27.49300
C  48.18700 27.67300 26.44500
C  48.88700 28.80900 26.93300
C  48.70000 28.78400 28.34100
C  47.97700 27.60800 28.60400
C  49.71800 29.77500 26.13600
C  49.17900 29.39800 29.64900
O  49.91700 30.32400 29.87900
C  48.42100 28.59400 30.68000
C  49.37700 28.22900 31.81600
O  50.25600 27.34800 31.76800
O  48.97700 28.98700 32.87300
C  49.61000 28.72400 34.10900
H  45.32400 22.41700 30.65400
H  45.92000 22.08600 24.27800
H  48.55800 28.01700 24.46200
H  47.75200 25.98500 32.53600
H  45.29200 24.33100 32.05900
H  46.37100 22.72000 33.28500
H  47.66700 23.93000 33.50100
H  47.69100 22.72400 32.13300
H  45.01000 27.32000 31.92900
H  46.39700 27.90600 32.92400
H  45.43600 25.74500 34.22100
H  43.91600 26.61300 33.80400
H  43.67100 20.03500 29.00400
H  44.71900 20.49100 30.18100
H  45.40200 19.28200 29.05400
H  44.94300 18.34400 27.00100
H  43.92700 17.96400 25.64000
H  43.16700 18.81200 26.86000
H  46.26900 24.47600 22.63400
H  49.04200 25.36700 23.31000
H  48.25800 22.32100 23.15100
H  48.57800 23.37600 21.75000
H  47.02400 22.46500 21.99000
H  47.04000 27.52400 22.49000
H  46.69500 26.24200 21.44900
H  49.49300 27.29100 21.72600
H  48.22900 28.12400 20.74800
H  48.77300 26.58200 20.30000
H  49.98800 30.70200 26.64200
H  49.13600 30.08100 25.26700
H  50.65500 29.35600 25.76900
H  47.55000 29.10500 31.09100
H  49.35800 29.63700 34.64900
H  50.68700 28.64900 33.95700
H  49.24600 27.79900 34.55600
Mg 9.97300 48.35400 24.01400
C  7.47000 49.01000 26.32100
C  12.23900 48.88900 26.52100
C  12.30200 47.26300 21.82400
C  7.51700 47.90700 21.46800
N  9.88700 48.79500 26.21500
C  8.77000 49.01600 26.85000
C  9.03300 49.22400 28.32300
C  10.53300 49.68400 28.23700
C  10.95800 49.01900 26.94600
C  10.67000 51.22500 28.10700
C  8.95500 47.91200 29.21300
C  8.33500 48.33500 30.66100
H  8.05600 47.18400 31.67500
N  11.88800 48.15600 24.08000
C  12.65700 48.48700 25.22900
C  14.06900 48.43000 24.87400
C  14.12700 47.95000 23.51800
C  12.73300 47.71100 23.08400
C  15.13100 48.91300 25.86500
C  15.38400 47.84100 22.54100
O  15.26700 47.51500 21.35000
C  16.72300 48.06300 23.13700
N  9.94200 47.81900 21.83000
C  11.04700 47.39000 21.19000
C  10.72200 46.89700 19.76800
C  9.18400 47.22500 19.61300
C  8.83300 47.73900 21.04400
C  11.59400 47.34000 18.61200
C  8.32300 45.96300 19.25700
C  7.77600 45.08700 20.32700
N  7.91800 48.47500 23.87400
C  7.04700 48.29900 22.79300
C  5.65800 48.54100 23.25700
C  5.79100 48.91300 24.59300
C  7.16700 48.78400 24.93000
C  4.42100 48.40600 22.50000
C  5.08900 49.42500 25.76700
O  3.94900 49.81800 25.93100
C  6.08400 49.26100 26.99900
C  5.70000 48.12700 27.80200
O  5.97200 46.96900 27.42100
O  4.96600 48.46000 28.93900
C  4.67300 47.25500 29.63100
H  12.97800 49.03300 27.31200
H  13.13300 46.67200 21.43200
H  6.74100 47.73500 20.72000
H  8.50200 50.08600 28.72500
H  11.16100 49.29100 29.03700
H  11.22300 51.45400 27.19600
H  11.24200 51.61800 28.94700
H  9.72700 51.76000 27.99800
H  9.91200 47.40700 29.34300
H  8.24200 47.28500 28.67800
H  7.33400 48.69100 30.41800
H  8.92100 49.13800 31.10800
H  14.91000 48.76100 26.92100
H  15.35700 49.95600 25.64100
H  16.09800 48.42600 25.74700
H  16.95400 47.20400 23.76700
H  16.68100 49.02500 23.64700
H  17.55500 47.99900 22.43600
H  10.78800 45.80900 19.73700
H  8.95500 48.03900 18.92400
H  11.07800 48.12900 18.06600
H  11.80100 46.45000 18.01700
H  12.49800 47.81900 18.98800
H  8.78600 45.40000 18.44600
H  7.40400 46.34500 18.81100
H  8.48100 45.26700 21.13900
H  7.85400 44.05800 19.97700
H  6.77700 45.39600 20.63400
H  4.60800 47.77300 21.63300
H  4.04300 49.39300 22.23200
H  3.63900 47.91700 23.08100
H  5.97500 50.18100 27.57200
H  3.62900 47.06200 29.38600
H  4.54400 47.56400 30.66800
H  5.33600 46.39500 29.53300

