158

Mg 35.60300 49.06500 25.28400
C  35.96000 47.08500 28.01500
C  34.29600 51.63000 27.02700
C  34.98400 50.82600 22.28100
C  36.94000 46.52500 23.28600
N  35.01400 49.30800 27.25100
C  35.31000 48.35200 28.26800
C  35.17600 49.07600 29.65300
C  34.48300 50.46500 29.34800
C  34.65700 50.53400 27.81400
C  33.07400 50.65900 29.81000
C  36.59700 49.29500 30.32600
C  36.59800 48.71600 31.76700
H  35.21400 48.53900 32.39000
N  34.81700 50.97100 24.74400
C  34.35000 51.84500 25.63900
C  33.98000 53.09500 25.02100
C  34.03400 52.81400 23.58400
C  34.54900 51.48500 23.46100
C  33.66300 54.35800 25.84400
C  33.64600 53.75200 22.45200
O  33.87500 53.45800 21.31200
C  32.99400 55.06200 22.62900
N  36.06900 48.75500 23.06000
C  35.66400 49.55300 22.14200
C  36.01100 48.91500 20.73000
C  36.82600 47.63400 21.03800
C  36.51500 47.59200 22.57100
C  34.76300 48.77600 19.88100
C  38.34900 47.85100 20.82400
C  39.12600 46.62600 20.33900
N  36.27600 47.16400 25.49400
C  36.76400 46.27800 24.63600
C  37.16800 45.10100 25.34500
C  36.80500 45.29800 26.65800
C  36.34000 46.60700 26.75000
C  37.76200 43.89800 24.68400
C  36.72100 44.66500 27.95300
O  36.98800 43.54800 28.36800
C  36.24200 45.84700 28.92200
C  35.07100 45.40100 29.66400
O  33.90900 45.39500 29.30400
O  35.51800 45.01500 30.89500
C  34.58700 44.18600 31.62800
H  33.98800 52.51800 27.58200
H  34.79800 51.31600 21.32300
H  37.30700 45.73100 22.63200
H  34.53600 48.36900 30.18200
H  35.10800 51.22800 29.81300
H  33.01100 51.63600 30.29000
H  32.69700 49.91200 30.50800
H  32.33500 50.66800 29.00900
H  36.76900 50.36300 30.45600
H  37.32500 48.81900 29.66900
H  37.10400 49.43400 32.41300
H  37.06200 47.73100 31.83700
H  33.60100 55.28500 25.27400
H  34.43400 54.45500 26.60800
H  32.70900 54.15100 26.33000
H  32.36900 55.23500 23.50500
H  32.41700 55.14000 21.70800
H  33.84800 55.72600 22.49500
H  36.51200 49.64800 20.09700
H  36.38900 46.73200 20.60900
H  33.84600 48.54800 20.42600
H  34.94000 47.93400 19.21200
H  34.49700 49.71100 19.38800
H  38.74100 48.18600 21.78400
H  38.47900 48.73500 20.20000
H  38.46900 45.80500 20.05300
H  39.77900 46.31000 21.15200
H  39.68600 46.99600 19.48000
H  37.27900 43.68200 23.73100
H  37.54900 42.97000 25.21400
H  38.83300 44.02400 24.52400
H  37.00600 46.11700 29.65100
H  35.15600 43.66700 32.39900
H  34.15400 43.43400 30.96900
H  33.62300 44.56300 31.97000
Mg 10.06500 47.54600 26.60600
C  8.30300 47.45900 29.53200
C  12.69500 48.93200 28.32700
C  11.70400 47.77300 23.66300
C  7.14200 46.50400 24.88400
N  10.43500 48.07200 28.67800
C  9.58800 47.97400 29.73100
C  10.26000 48.36100 31.04400
C  11.38700 49.30900 30.51800
C  11.49500 48.75100 29.02200
C  11.22000 50.79500 30.51600
C  10.88700 47.18600 31.86400
C  11.06400 47.57900 33.36900
H  11.06300 46.46400 34.40700
N  11.94900 48.27900 26.07200
C  12.96400 48.59300 26.96200
C  14.25800 48.61500 26.31500
C  13.93000 48.28900 24.96200
C  12.49400 48.16100 24.83700
C  15.56700 48.95100 27.00100
C  14.95800 48.06600 23.92700
O  14.71000 47.93100 22.71100
C  16.43600 48.00100 24.25600
N  9.36100 47.58400 24.56200
C  10.32200 47.53300 23.54400
C  9.63700 47.16300 22.24800
C  8.51300 46.24000 22.74100
C  8.29600 46.80800 24.14300
C  9.14600 48.36800 21.52800
C  8.94300 44.70300 22.78800
C  9.06400 43.85300 21.46500
N  8.09500 47.15800 27.01700
C  6.96900 46.74000 26.27100
C  5.86600 46.34700 27.10800
C  6.37300 46.71400 28.42900
C  7.68800 47.16300 28.28500
C  4.46100 45.93600 26.72300
C  5.95600 46.76900 29.78900
O  4.95600 46.37500 30.37200
C  7.27600 47.15300 30.60400
C  7.55300 45.97400 31.46900
O  7.85900 44.93500 31.00600
O  7.44800 46.30600 32.82000
C  7.60800 45.17700 33.72100
H  13.53200 49.44700 28.80300
H  12.38400 47.68300 22.81300
H  6.37400 45.96300 24.32900
H  9.54600 48.95000 31.62000
H  12.28600 49.12400 31.10600
H  10.24200 50.92700 30.97800
H  11.23000 51.08200 29.46500
H  11.93000 51.33800 31.14000
H  11.91500 47.06200 31.52500
H  10.37500 46.22600 31.80000
H  10.56700 48.47700 33.73500
H  12.07700 47.96500 33.48200
H  15.38800 49.09800 28.06600
H  15.96600 49.89100 26.62000
H  16.32600 48.19400 26.79800
H  16.58800 47.09200 24.83900
H  16.85800 48.89400 24.71600
H  17.05200 47.71300 23.40400
H  10.35000 46.68100 21.57900
H  7.70200 46.45600 22.04600
H  9.81400 48.35700 20.66700
H  9.32200 49.32700 22.01500
H  8.10900 48.24100 21.21600
H  8.29500 44.11100 23.43500
H  9.92700 44.77200 23.25200
H  8.89500 44.54300 20.63800
H  8.27500 43.10200 21.45300
H  10.12300 43.59800 21.43000
H  3.79600 45.79900 27.57500
H  4.51700 45.01000 26.15100
H  4.15200 46.67000 25.97900
H  7.10900 48.01400 31.25200
H  7.56200 44.17100 33.30500
H  6.77300 45.25800 34.41700
H  8.54100 45.16700 34.28500

