158

Mg 34.71400 2.97600 29.65900
C  32.63900 3.97700 32.17900
C  37.43300 2.98700 31.91700
C  36.95300 2.38900 27.13300
C  32.19900 3.33700 27.33300
N  34.98800 3.27800 31.85400
C  33.98100 3.79500 32.63500
C  34.38900 3.85500 34.13300
C  35.94400 3.77300 33.92500
C  36.20700 3.32600 32.49100
C  36.69800 5.08400 34.28900
C  33.78900 2.75600 35.08600
C  33.57700 3.12400 36.58000
H  34.66300 4.05500 37.12600
N  36.81600 2.49400 29.55900
C  37.73600 2.62200 30.55700
C  39.00200 2.30200 30.03800
C  38.94800 2.09400 28.71000
C  37.51300 2.40400 28.36100
C  40.25700 2.43100 30.88600
C  39.95700 1.56900 27.70200
O  39.75800 1.49900 26.45700
C  41.28900 1.04600 28.10600
N  34.64100 2.87600 27.53200
C  35.67300 2.50900 26.72000
C  35.31200 2.51500 25.32000
C  33.71600 2.40200 25.45900
C  33.44500 2.82900 26.91000
C  35.96000 3.76200 24.53400
C  33.14100 0.96400 25.16000
C  32.09300 0.92600 24.06600
N  32.83500 3.53900 29.68800
C  31.87800 3.62600 28.65700
C  30.62100 4.01800 29.22900
C  30.84300 4.20900 30.56400
C  32.25500 3.87200 30.79600
C  29.35300 4.21200 28.47000
C  30.26100 4.52500 31.86100
O  29.10200 4.69600 32.18600
C  31.36400 4.44400 32.90000
C  31.50000 5.54000 33.75800
O  32.01200 6.58100 33.40300
O  31.29500 5.29300 35.05500
C  31.54500 6.31600 36.05600
H  38.27300 2.92300 32.61200
H  37.71400 2.32500 26.35200
H  31.40100 3.47400 26.59900
H  34.23300 4.88700 34.44800
H  36.37800 2.89500 34.40200
H  36.05900 5.73800 34.88200
H  36.93900 5.59200 33.35600
H  37.63500 4.83700 34.78700
H  34.45600 1.89800 35.16300
H  32.80800 2.42000 34.75000
H  33.71100 2.21500 37.16600
H  32.56900 3.51100 36.72700
H  40.04200 2.80900 31.88500
H  40.86900 3.13300 30.31900
H  40.62200 1.40400 30.89200
H  41.19500 0.14200 28.70700
H  41.75900 1.80000 28.73800
H  41.77300 0.91400 27.13800
H  35.83100 1.66500 24.87700
H  33.23900 3.08600 24.75600
H  35.35700 4.42900 23.91800
H  36.75700 3.42200 23.87200
H  36.34600 4.46700 25.27000
H  32.59700 0.68200 26.06200
H  33.94300 0.25100 24.97100
H  32.40100 0.16600 23.34800
H  31.78500 1.82800 23.53700
H  31.23900 0.53800 24.62300
H  29.60700 4.87200 27.64100
H  28.58700 4.68400 29.08500
H  29.02400 3.20500 28.21600
H  31.02000 3.59100 33.48400
H  31.07600 5.91800 36.95600
H  30.98000 7.23800 35.92100
H  32.58400 6.64500 36.09300
Mg 6.18200 53.92400 40.92400
C  5.54800 50.42600 40.51700
C  9.56400 53.30900 40.36500
C  6.69800 57.22900 40.68700
C  2.81400 54.34900 41.29600
N  7.36500 52.09100 40.60200
C  6.94500 50.78600 40.43900
C  8.08100 49.76200 40.31700
C  9.31300 50.70000 40.63300
C  8.73600 52.18500 40.52700
C  10.11700 50.49300 41.97400
C  8.34300 49.13600 38.89100
C  8.14200 50.09600 37.62600
H  7.19400 49.62900 36.50200
N  7.88000 55.12900 40.55200
C  9.13300 54.66900 40.31500
C  9.93200 55.83000 40.00100
C  9.21000 57.01000 40.19800
C  7.85700 56.50600 40.47200
C  11.31500 55.55200 39.40900
C  9.64800 58.37400 40.01600
O  10.79100 58.58600 39.63800
C  8.81700 59.50700 40.41000
N  4.91200 55.56300 41.10300
C  5.37400 56.80100 41.03600
C  4.25200 57.85500 41.18100
C  3.02300 56.89100 41.15600
C  3.59700 55.51300 41.15300
C  4.35800 58.70600 42.41400
C  2.18300 57.00000 39.89900
C  0.66300 56.81700 40.08000
N  4.42200 52.69600 40.89600
C  3.16400 53.01000 41.19000
C  2.30600 51.85700 41.12400
C  3.19800 50.80600 40.95600
C  4.50000 51.40700 40.77100
C  0.80200 51.83900 41.29500
C  3.30600 49.37500 40.79800
O  2.44400 48.55000 40.83400
C  4.82400 49.03300 40.57500
C  4.98800 48.33200 39.27900
O  4.61900 48.71800 38.19500
O  5.61900 47.10500 39.57400
C  5.76300 46.38200 38.32600
H  10.63900 53.15100 40.25800
H  6.58200 58.31400 40.64700
H  1.75600 54.57900 41.44300
H  7.93300 48.94800 41.02700
H  10.12100 50.58600 39.91000
H  11.16900 50.51700 41.69000
H  9.76100 49.60200 42.49100
H  9.95800 51.34900 42.63000
H  7.73500 48.24400 38.74300
H  9.40000 48.89200 38.79000
H  9.09600 50.18500 37.10600
H  8.01500 51.16000 37.82800
H  11.35000 54.69200 38.74000
H  12.10200 55.62200 40.16000
H  11.66000 56.35200 38.75400
H  9.52100 60.32800 40.54600
H  8.35300 59.20000 41.34700
H  8.05100 59.70700 39.66100
H  4.22600 58.47800 40.28600
H  2.40300 57.00300 42.04600
H  5.11800 58.31900 43.09400
H  3.40500 58.74500 42.94200
H  4.67800 59.73400 42.24300
H  2.28600 56.15000 39.22500
H  2.37900 57.87500 39.28100
H  0.35100 56.39700 41.03600
H  0.28600 56.10800 39.34300
H  0.17000 57.78500 39.98500
H  0.41000 52.77900 40.90700
H  0.59400 51.68700 42.35500
H  0.47800 50.98400 40.70100
H  5.26700 48.38800 41.33400
H  6.33200 46.96900 37.60500
H  4.79200 46.07900 37.93200
H  6.30500 45.45000 38.48600

