158

Mg 7.49300 52.95800 40.90700
C  6.95300 49.43500 40.87200
C  10.67100 52.22400 39.66500
C  7.98400 56.21300 40.51300
C  4.14900 53.48800 41.49700
N  8.63000 51.05800 40.32800
C  8.20700 49.74800 40.41200
C  9.29000 48.79400 39.88500
C  10.54500 49.68800 39.92600
C  9.88000 51.11600 39.85800
C  11.38400 49.44100 41.17700
C  9.05400 48.24500 38.48600
C  8.54200 49.20900 37.41800
H  8.03200 48.53200 36.14900
N  9.10700 54.10000 40.15000
C  10.32100 53.53200 39.84100
C  11.19600 54.68700 39.50700
C  10.47200 55.91300 39.82100
C  9.11800 55.41200 40.11700
C  12.60800 54.54100 38.90400
C  11.04800 57.29000 39.72000
O  12.06400 57.53200 39.04400
C  10.42600 58.43400 40.38700
N  6.17600 54.71000 40.76100
C  6.66100 55.93400 40.86700
C  5.65800 56.91400 41.47500
C  4.41800 56.00300 41.47400
C  4.89400 54.65400 41.28600
C  6.07500 57.48700 42.80400
C  3.32800 56.34000 40.34700
C  2.33900 57.38700 40.71100
N  5.86200 51.79300 41.15900
C  4.57800 52.12900 41.53500
C  3.82100 50.93000 41.82800
C  4.71800 49.83600 41.54900
C  5.95200 50.40800 41.17100
C  2.31300 50.84400 42.14300
C  4.82900 48.40600 41.54600
O  3.91400 47.66600 41.85600
C  6.35500 48.06000 41.12800
C  6.16400 47.19200 39.92800
O  5.83600 47.55400 38.86800
O  6.67400 45.88900 40.15400
C  6.56500 44.89600 39.08100
H  11.69500 52.02400 39.34400
H  8.06700 57.29400 40.64100
H  3.12300 53.60700 41.85300
H  9.32300 47.96600 40.59300
H  11.23900 49.64000 39.08700
H  12.39500 49.26200 40.81200
H  11.26200 48.45600 41.62600
H  11.35000 50.27300 41.88000
H  8.56400 47.27600 38.39300
H  10.08900 48.05300 38.20100
H  9.30400 49.94200 37.15100
H  7.75200 49.84300 37.82200
H  12.82400 55.02700 37.95300
H  12.93600 53.50200 38.88500
H  13.32300 55.02900 39.56600
H  9.68500 58.97500 39.79800
H  11.23800 59.12300 40.61800
H  9.94900 58.11700 41.31500
H  5.61400 57.74700 40.77400
H  3.97500 56.03300 42.47000
H  6.95800 56.94700 43.14800
H  5.30800 57.46900 43.57700
H  6.29000 58.55100 42.70600
H  2.82700 55.48800 39.88700
H  3.96300 56.84800 39.62100
H  2.20400 57.38100 41.79300
H  1.41200 57.33200 40.14000
H  2.64900 58.37300 40.36500
H  2.32700 50.57700 43.20000
H  1.84600 50.07000 41.53400
H  1.93400 51.86400 42.08700
H  6.85000 47.48900 41.91300
H  7.23000 45.08700 38.23800
H  5.52400 44.74900 38.79200
H  6.89400 43.95300 39.51800
Mg -12.30100 16.79800 41.45100
C  -9.37300 14.95200 41.15300
C  -10.63200 19.54900 40.02500
C  -15.27600 18.16800 40.89100
C  -13.96100 13.77700 42.32200
N  -10.17400 17.14000 40.57600
C  -9.15600 16.25900 40.64200
C  -7.84200 16.83500 40.05400
C  -8.24700 18.36400 39.81100
C  -9.76600 18.37600 40.19000
C  -7.41400 19.37800 40.55200
C  -7.23900 16.08600 38.76200
C  -5.74600 16.28500 38.45400
H  -5.35500 16.95600 37.15900
N  -12.91700 18.63400 40.66600
C  -12.05600 19.62400 40.09800
C  -12.89800 20.70500 39.65200
C  -14.22900 20.43400 40.01100
C  -14.18400 19.02300 40.51800
C  -12.30200 21.92700 38.90400
C  -15.47100 21.37500 39.78800
O  -15.29200 22.44200 39.14400
C  -16.84400 21.12000 40.48900
N  -14.30900 16.10900 41.67800
C  -15.37300 16.90900 41.49500
C  -16.73200 16.16300 41.65900
C  -16.21700 14.83000 42.18800
C  -14.71000 14.88700 42.04800
C  -17.85400 16.83200 42.42600
C  -16.77600 13.53000 41.56000
C  -17.17100 12.35900 42.48200
N  -11.79100 14.74500 41.78200
C  -12.61700 13.64800 42.03200
C  -11.77200 12.49900 42.09200
C  -10.52300 12.94100 41.71500
C  -10.60800 14.30700 41.46400
C  -12.13800 11.15000 42.68000
C  -9.09600 12.53400 41.66200
O  -8.58400 11.46100 41.71200
C  -8.30100 13.83300 41.23400
C  -7.09400 14.13900 42.18500
O  -7.20900 14.17200 43.42800
O  -5.94000 14.37200 41.49600
C  -4.75900 14.80000 42.26100
H  -10.19100 20.48700 39.68400
H  -16.21500 18.66700 40.64300
H  -14.38400 12.84200 42.69500
H  -7.10300 16.81500 40.85500
H  -8.02200 18.65400 38.78500
H  -6.96500 18.88300 41.41300
H  -7.94400 20.28400 40.84400
H  -6.63200 19.78500 39.91100
H  -7.85000 16.43000 37.92800
H  -7.48200 15.06000 39.04100
H  -5.20700 15.35100 38.61100
H  -5.29600 16.88900 39.24200
H  -12.71800 21.89200 37.89700
H  -11.23200 22.13100 38.86500
H  -12.72000 22.82600 39.35700
H  -17.39200 22.06200 40.52000
H  -16.55000 20.85200 41.50400
H  -17.52700 20.42500 40.00100
H  -17.07500 16.01900 40.63500
H  -16.40100 14.81800 43.26200
H  -18.68800 17.13200 41.79100
H  -17.52100 17.75100 42.90800
H  -18.18300 16.19000 43.24400
H  -16.20800 13.27400 40.66600
H  -17.70600 13.98900 41.22300
H  -16.53200 11.51100 42.23400
H  -18.21400 12.15400 42.24200
H  -17.11000 12.60200 43.54300
H  -12.89100 11.19700 43.46700
H  -11.15300 10.80400 42.99300
H  -12.51000 10.38400 42.00000
H  -7.91700 13.52000 40.26300
H  -4.19200 14.02500 42.77700
H  -4.99500 15.44900 43.10500
H  -4.16600 15.40200 41.57300

