158

Mg 25.08200 1.49700 28.92400
C  27.05600 1.09600 31.82900
C  22.28500 1.70800 30.86100
C  23.41400 1.64300 26.10900
C  27.99000 0.63100 27.11100
N  24.74200 1.31500 31.12200
C  25.67600 1.32000 32.09100
C  24.99800 1.61400 33.46600
C  23.46800 1.59400 33.11600
C  23.43800 1.57100 31.60500
C  22.77600 0.33400 33.70700
C  25.43800 2.89800 34.18000
C  26.02100 2.70900 35.55300
H  25.84400 3.82800 36.58800
N  23.13800 1.55800 28.55300
C  22.10000 1.64000 29.44400
C  20.88200 1.63500 28.74000
C  21.15600 1.59200 27.38200
C  22.59300 1.54700 27.26400
C  19.57100 1.66100 29.46900
C  20.21100 1.47300 26.19900
O  20.59100 1.17400 25.11000
C  18.74300 1.68800 26.37400
N  25.67700 1.25500 26.93200
C  24.81600 1.51200 25.93600
C  25.53500 1.43800 24.58400
C  27.01900 1.34800 24.91600
C  26.89200 1.05400 26.41400
C  24.94500 0.33000 23.62600
C  27.86500 2.57600 24.62600
C  27.16700 3.95900 24.94500
N  27.16700 0.99200 29.32900
C  28.18800 0.67800 28.48500
C  29.37800 0.43200 29.26300
C  29.01600 0.67000 30.62700
C  27.65400 0.96800 30.56100
C  30.68200 -0.02800 28.66300
C  29.53400 0.76000 31.92500
O  30.65300 0.65100 32.41700
C  28.24100 1.10800 32.81200
C  28.13900 0.15600 33.94700
O  27.40700 -0.81300 34.00400
O  28.89500 0.51300 34.96200
C  28.77500 -0.10200 36.22700
H  21.42100 1.93400 31.49000
H  22.89000 1.78500 25.16200
H  28.80500 0.30000 26.46500
H  25.31100 0.76400 34.07200
H  22.94100 2.49700 33.42500
H  21.83800 0.51300 34.23300
H  23.51200 -0.24600 34.26200
H  22.53200 -0.44200 32.98100
H  24.59900 3.57200 34.35000
H  26.27000 3.36500 33.65200
H  27.09000 2.69800 35.33800
H  25.57400 1.79100 35.93400
H  18.84900 1.10400 28.87300
H  19.21700 2.68500 29.59200
H  19.62500 1.10900 30.40700
H  18.41100 1.58300 25.34100
H  18.52500 2.72600 26.62700
H  18.16100 1.10000 27.08300
H  25.33100 2.36700 24.05200
H  27.50300 0.51500 24.40600
H  24.75200 0.85000 22.68700
H  23.99600 -0.02300 24.02900
H  25.63300 -0.51400 23.62200
H  28.07100 2.57900 23.55500
H  28.89600 2.42300 24.94600
H  26.83900 4.33300 23.97500
H  27.84200 4.66800 25.42400
H  26.32200 3.81900 25.62000
H  30.92400 0.48000 27.72900
H  30.53700 -1.09100 28.47200
H  31.49900 0.13400 29.36600
H  28.42300 2.09900 33.22700
H  27.77300 0.09400 36.60800
H  29.43500 0.38600 36.94500
H  29.09100 -1.14500 36.26100
Mg -0.96600 34.29900 27.92900
C  -2.44200 31.99000 30.12500
C  0.34300 35.85000 30.56700
C  -0.03200 36.50900 25.78200
C  -2.64600 32.49000 25.23900
N  -1.19500 34.07200 30.10100
C  -1.73500 33.01300 30.82000
C  -1.78100 33.35900 32.33300
C  -0.95300 34.71900 32.40000
C  -0.59000 34.88000 30.90300
C  -1.77200 35.95000 33.01800
C  -1.12900 32.20800 33.21600
C  -1.95300 31.77700 34.43500
H  -1.32300 31.72100 35.83100
N  0.10200 35.89000 28.18200
C  0.65900 36.33700 29.29100
C  1.46600 37.47400 29.00200
C  1.42700 37.59700 27.56200
C  0.53500 36.57600 27.08500
C  2.15100 38.21800 30.04400
C  2.20700 38.53800 26.71600
O  2.08300 38.55500 25.53800
C  3.09400 39.52600 27.31600
N  -1.68500 34.68400 25.87300
C  -1.00800 35.63600 25.28500
C  -1.20700 35.53600 23.72900
C  -1.77900 34.15300 23.51800
C  -2.06500 33.73100 24.97700
C  -2.10600 36.67600 23.25800
C  -0.91200 33.22000 22.62600
C  0.16800 32.30000 23.40800
N  -2.28200 32.52600 27.69800
C  -2.81600 31.94900 26.54500
C  -3.64600 30.81300 26.94500
C  -3.61500 30.80500 28.35600
C  -2.80100 31.89200 28.73700
C  -4.42500 29.84100 26.14600
C  -3.95300 30.09200 29.52300
O  -4.65400 29.08400 29.66100
C  -3.30300 30.89900 30.75000
C  -4.45100 31.41400 31.60800
O  -5.24900 32.19800 31.19800
O  -4.54300 30.69600 32.74800
C  -5.52100 31.10000 33.77000
H  0.94000 36.17800 31.42100
H  0.34900 37.25600 25.08300
H  -2.87100 31.85400 24.38000
H  -2.78200 33.58400 32.70300
H  -0.10900 34.70800 33.09000
H  -1.14100 36.51800 33.70200
H  -2.67000 35.60600 33.53300
H  -2.16200 36.72200 32.35400
H  -0.15400 32.50300 33.60600
H  -0.98200 31.26700 32.68600
H  -2.36500 30.77800 34.29600
H  -2.78600 32.47300 34.52600
H  3.21100 38.11000 29.81600
H  1.98000 37.81000 31.04000
H  2.00100 39.29700 29.98700
H  2.70100 40.19100 28.08500
H  3.41000 40.10000 26.44500
H  3.97300 39.04400 27.74300
H  -0.23100 35.64200 23.25600
H  -2.76700 34.20900 23.06100
H  -3.14100 36.37600 23.42600
H  -1.88900 36.94900 22.22500
H  -1.96400 37.44800 24.01400
H  -0.39800 33.70500 21.79600
H  -1.61300 32.61400 22.05000
H  0.19100 32.59300 24.45800
H  1.16100 32.60300 23.07800
H  -0.14900 31.25900 23.34800
H  -3.94100 29.87200 25.17100
H  -5.42200 30.27000 26.04300
H  -4.44900 28.90900 26.71100
H  -2.62600 30.23900 31.29300
H  -5.96000 30.16400 34.11500
H  -6.37100 31.68200 33.41300
H  -4.97900 31.43400 34.65500

