158

Mg 25.90700 -0.34400 29.22600
C  27.89400 -0.58300 32.04800
C  23.19000 -0.31000 31.45000
C  24.08200 -0.09200 26.53500
C  28.73000 -1.12400 27.32500
N  25.56300 -0.54900 31.53900
C  26.53900 -0.48000 32.43300
C  25.98000 -0.22100 33.84700
C  24.45700 -0.51600 33.68700
C  24.36200 -0.54100 32.12000
C  23.96000 -1.85400 34.27400
C  26.42600 1.26300 34.42800
C  27.05600 1.38200 35.80300
H  26.07300 1.90600 36.88000
N  23.91200 -0.25900 28.98200
C  22.92800 -0.20400 30.02400
C  21.66200 -0.18200 29.36500
C  21.92900 -0.12600 27.94700
C  23.33800 -0.17200 27.75700
C  20.40400 -0.16200 30.19700
C  20.97200 -0.13500 26.86100
O  21.25600 -0.12600 25.64600
C  19.52100 -0.15100 27.22300
N  26.32800 -0.64200 27.23500
C  25.41000 -0.42500 26.29900
C  25.95400 -0.48800 24.87800
C  27.45800 -0.76500 25.15400
C  27.51100 -0.85900 26.65200
C  25.37800 -1.51600 23.88200
C  28.27900 0.41000 24.59900
C  28.24300 1.69900 25.47000
N  27.96900 -0.73700 29.55300
C  28.99700 -1.09200 28.74200
C  30.24500 -1.23300 29.51400
C  29.81400 -0.89100 30.79300
C  28.43600 -0.73900 30.75600
C  31.53600 -1.64600 28.89100
C  30.39100 -0.90200 32.13100
O  31.49300 -1.12800 32.53900
C  29.13700 -0.57100 32.99300
C  29.05800 -1.36300 34.28800
O  28.43100 -2.42000 34.38600
O  29.64000 -0.73200 35.35800
C  29.55200 -1.49300 36.61600
H  22.42500 -0.31700 32.23000
H  23.55600 0.15900 25.61100
H  29.62700 -1.17300 26.70400
H  26.47000 -0.94700 34.49600
H  23.93400 0.23200 34.28300
H  23.19500 -1.58400 35.00200
H  24.79400 -2.30100 34.81600
H  23.65900 -2.52100 33.46700
H  25.54300 1.89800 34.35800
H  27.06200 1.79300 33.71900
H  27.94600 1.99500 35.66000
H  27.45700 0.44900 36.19900
H  19.98800 -1.16800 30.15400
H  19.69600 0.66000 30.09300
H  20.56000 -0.12700 31.27500
H  19.23800 -1.06800 27.74200
H  18.88000 0.08400 26.37400
H  19.32800 0.70000 27.87600
H  25.75000 0.47300 24.40500
H  27.87400 -1.64000 24.65500
H  24.53800 -2.04700 24.33100
H  26.07000 -2.25200 23.47300
H  24.95500 -1.01000 23.01400
H  27.87500 0.69800 23.62900
H  29.30300 0.11800 24.36800
H  27.90800 1.45300 26.47800
H  27.65300 2.52400 25.07200
H  29.26700 2.04100 25.62500
H  31.23700 -2.57100 28.39900
H  32.22900 -1.86000 29.70500
H  31.82400 -0.84400 28.21100
H  29.26000 0.45300 33.34800
H  29.34900 -2.56000 36.52400
H  28.79300 -1.05600 37.26500
H  30.41500 -1.33800 37.26300
Mg 16.03200 52.44400 25.16300
C  17.80200 51.35600 27.84700
C  13.42900 53.19600 27.21900
C  14.28500 53.31500 22.43900
C  18.65600 51.36600 23.01300
N  15.59100 52.11400 27.28700
C  16.55600 51.81700 28.18900
C  16.02000 52.05700 29.59600
C  14.47500 52.47300 29.40000
C  14.50900 52.62400 27.87800
C  13.39600 51.46400 29.97700
C  16.80600 53.27500 30.20000
C  16.50300 53.44600 31.70800
H  15.74400 52.47000 32.51200
N  14.08700 53.18200 24.88100
C  13.10900 53.38300 25.86200
C  11.88300 53.86300 25.21700
C  12.09500 53.81700 23.78500
C  13.51900 53.39900 23.64200
C  10.72800 54.35700 25.98100
C  11.17200 54.19100 22.64000
O  11.43600 53.92300 21.46200
C  9.81600 54.75200 22.79500
N  16.56400 52.45700 23.04400
C  15.62600 52.92800 22.17000
C  16.21100 52.86200 20.72400
C  17.63700 52.29400 20.99400
C  17.64300 52.06400 22.44200
C  15.32700 52.01400 19.73900
C  18.76400 53.27800 20.44800
C  18.81300 54.60300 21.13500
N  17.82600 51.48000 25.28100
C  18.78700 51.06600 24.36900
C  19.94000 50.52000 25.06700
C  19.60400 50.60500 26.44400
C  18.32900 51.14100 26.52200
C  21.25900 50.07000 24.46900
C  19.98900 50.26600 27.83900
O  20.96200 49.62500 28.28300
C  18.88800 50.79800 28.75600
C  18.32200 49.75600 29.64800
O  17.64500 48.73300 29.32000
O  18.83000 50.03700 30.92200
C  18.58600 49.00900 31.92100
H  12.60700 53.57300 27.83100
H  13.68600 53.70500 21.61300
H  19.43700 51.05400 22.31600
H  16.06900 51.12500 30.15800
H  14.33500 53.42000 29.92100
H  12.67400 51.96500 30.62300
H  13.88900 50.69000 30.56500
H  12.90000 51.03300 29.10800
H  16.43300 54.13600 29.64500
H  17.86600 53.07100 30.04900
H  15.85100 54.31900 31.72400
H  17.44700 53.71100 32.18500
H  9.80500 53.81700 25.77300
H  10.55800 55.40400 25.72900
H  10.81900 54.41200 27.06600
H  10.08500 55.76700 23.08900
H  9.19800 54.18800 23.49400
H  9.16600 54.71700 21.92100
H  16.23900 53.85000 20.26400
H  17.86600 51.44400 20.35200
H  14.33500 51.81600 20.14600
H  15.83500 51.10200 19.42600
H  15.07200 52.59600 18.85300
H  18.51000 53.38100 19.39300
H  19.73700 52.82600 20.64200
H  17.85200 55.07900 21.32900
H  19.34000 55.29200 20.47400
H  19.35700 54.67600 22.07600
H  22.09900 50.69600 24.76900
H  21.17500 50.12500 23.38400
H  21.45900 49.06300 24.83600
H  19.35300 51.65400 29.24400
H  17.61700 49.05800 32.41600
H  19.34500 48.95400 32.70200
H  18.65200 48.03300 31.44000

