158

Mg 24.73300 -5.98000 46.15500
C  26.88800 -3.56300 44.45500
C  22.29400 -5.17800 43.87300
C  23.39300 -8.89900 46.82200
C  27.76800 -6.84100 47.92100
N  24.73200 -4.66100 44.24300
C  25.61200 -3.68100 43.89900
C  24.99700 -2.73800 42.91900
C  23.48800 -3.12100 42.97600
C  23.47600 -4.41800 43.71600
C  22.66700 -2.03000 43.64600
C  25.62400 -2.88700 41.50400
C  25.52200 -1.60300 40.60800
H  24.81300 -1.74900 39.26300
N  22.90900 -6.82800 45.65600
C  22.05200 -6.38800 44.68300
C  20.95800 -7.23500 44.62100
C  21.19400 -8.27400 45.54600
C  22.52500 -8.03600 46.06800
C  19.75000 -6.98600 43.71200
C  20.17900 -9.30600 45.96300
O  19.14900 -9.42800 45.37600
C  20.49300 -10.28600 47.12800
N  25.60300 -7.75400 46.99400
C  24.76200 -8.78500 47.25100
C  25.40300 -9.81900 48.29600
C  26.72300 -9.03500 48.75600
C  26.72400 -7.82800 47.78100
C  24.34500 -10.02200 49.49400
C  27.97000 -9.88100 48.78900
C  28.77100 -9.83600 50.05300
N  26.87200 -5.20300 46.36700
C  27.90800 -5.68000 47.18400
C  29.00500 -4.70700 47.06900
C  28.69200 -3.91500 45.99800
C  27.37100 -4.26000 45.53400
C  30.23200 -4.64300 47.93300
C  29.11600 -2.80500 45.22100
O  30.15500 -2.17400 45.34400
C  28.03400 -2.56600 44.11700
C  27.70300 -1.14500 44.03200
O  26.82000 -0.49900 44.66600
O  28.36000 -0.63400 42.96400
C  28.00800 0.79700 42.79400
H  21.45000 -4.81000 43.28500
H  22.94000 -9.86900 47.03800
H  28.55700 -7.06000 48.64400
H  25.18300 -1.69100 43.16000
H  23.20100 -3.40900 41.96500
H  23.24500 -1.15400 43.93700
H  22.32600 -2.32100 44.63900
H  21.83400 -1.73100 43.00900
H  25.03500 -3.68100 41.04600
H  26.68600 -3.13400 41.49300
H  26.46000 -1.22700 40.20000
H  25.08600 -0.71400 41.06300
H  19.66400 -5.91400 43.53600
H  18.87300 -7.42900 44.18300
H  19.95600 -7.33600 42.70100
H  20.99900 -9.79100 47.95800
H  21.11100 -11.10400 46.75800
H  19.59400 -10.76100 47.52000
H  25.67300 -10.76000 47.81700
H  26.61200 -8.58300 49.74200
H  23.52000 -9.32300 49.35600
H  24.79200 -9.90800 50.48200
H  23.89200 -11.01400 49.48800
H  28.65700 -9.60900 47.98700
H  27.78200 -10.94100 48.61600
H  28.87000 -10.83300 50.48400
H  28.43500 -9.14400 50.82500
H  29.80600 -9.51300 49.94300
H  30.65300 -5.61300 48.19900
H  30.05500 -4.06900 48.84300
H  31.11800 -4.09400 47.61200
H  28.44100 -2.79900 43.13400
H  28.61800 1.49600 43.36700
H  26.94900 1.01900 42.92200
H  28.29000 1.00800 41.76200
Mg 16.58900 52.37500 25.81600
C  18.19500 50.80600 28.54100
C  14.01900 53.24600 27.83000
C  15.00300 53.47300 23.07000
C  18.87300 50.65400 23.71200
N  16.14800 52.03500 27.94800
C  17.04600 51.54100 28.88800
C  16.49500 51.83400 30.33500
C  14.99300 52.31600 30.04200
C  15.01000 52.49700 28.51400
C  13.96300 51.25900 30.52900
C  17.48000 52.79900 31.18800
C  17.65900 52.55000 32.71200
H  16.43500 51.93300 33.41300
N  14.84200 53.35700 25.49400
C  13.89600 53.54400 26.45800
C  12.74100 54.26100 25.93500
C  12.95300 54.40900 24.51900
C  14.27500 53.70600 24.27800
C  11.51200 54.57400 26.65000
C  12.09900 55.09100 23.45300
O  12.49200 55.14700 22.31100
C  10.73500 55.74000 23.78800
N  16.86400 51.93600 23.63300
C  16.09900 52.72500 22.78900
C  16.60800 52.49200 21.36600
C  17.85000 51.63000 21.57100
C  17.88600 51.33400 23.07500
C  15.44900 51.87600 20.49000
C  19.14100 52.26400 20.88400
C  20.13300 53.05400 21.72500
N  18.18400 50.97700 26.04300
C  19.04400 50.46300 25.08400
C  20.13100 49.72900 25.77800
C  19.78800 49.78700 27.13300
C  18.63500 50.58100 27.22800
C  21.19700 48.91300 25.17400
C  20.10500 49.30600 28.48900
O  20.98100 48.56100 28.82500
C  19.15800 50.08300 29.47100
C  18.71100 49.25300 30.58800
O  17.83500 48.39800 30.49600
O  19.37500 49.54100 31.76600
C  19.00700 48.76800 32.92100
H  13.19100 53.68600 28.39100
H  14.54800 53.92600 22.18600
H  19.59300 50.20800 23.02300
H  16.54900 50.96400 30.98800
H  14.73200 53.29000 30.45500
H  14.33000 50.23400 30.58800
H  13.11200 51.31800 29.85100
H  13.49300 51.60100 31.45200
H  17.11100 53.80900 31.01000
H  18.48600 52.88600 30.77800
H  17.80700 53.52500 33.17700
H  18.59300 52.09100 33.03500
H  11.03400 55.50300 26.34000
H  11.73100 54.78900 27.69600
H  10.99800 53.61300 26.64600
H  10.28000 56.16400 22.89300
H  10.71900 56.59500 24.46300
H  10.04900 54.99800 24.19600
H  16.91100 53.44100 20.92300
H  17.63600 50.66700 21.10800
H  14.51000 51.76800 21.03200
H  15.75100 50.87100 20.19500
H  15.32200 52.48300 19.59300
H  18.90500 52.95100 20.07100
H  19.72600 51.46100 20.43600
H  19.78600 53.24000 22.74100
H  20.15600 54.05100 21.28600
H  21.15500 52.67600 21.72600
H  20.59900 48.08300 24.80000
H  21.98900 48.65900 25.87900
H  21.52800 49.61500 24.40900
H  19.76400 50.81500 30.00600
H  17.93700 48.61300 33.05800
H  19.39900 49.32100 33.77500
H  19.36100 47.73800 32.97800

