158

Mg 1.23500 8.23000 25.30700
C  1.65900 10.30200 28.15600
C  1.17300 5.46800 27.55200
C  0.90200 6.25100 22.69400
C  1.11200 10.96700 23.37100
N  1.53900 7.91300 27.63200
C  1.55900 8.93500 28.58600
C  1.51000 8.37300 29.99900
C  1.58200 6.80100 29.75400
C  1.43800 6.72400 28.21300
C  2.80600 6.12600 30.36300
C  0.23100 8.86700 30.87000
C  0.50200 9.50100 32.26200
H  1.66700 8.88700 33.05000
N  1.16200 6.18100 25.10000
C  1.13900 5.19500 26.14000
C  0.99600 3.90000 25.57200
C  0.98000 4.12100 24.13900
C  0.97000 5.60200 23.92900
C  0.97300 2.52700 26.43700
C  0.98800 3.05400 23.08800
O  0.91300 3.30500 21.89400
C  1.00800 1.67000 23.44600
N  0.94500 8.58200 23.34200
C  0.85400 7.61000 22.36100
C  0.69700 8.25900 20.88700
C  0.70500 9.71200 21.24300
C  0.93200 9.78200 22.72300
C  1.79800 7.71500 19.89000
C  -0.62400 10.45700 20.77700
C  -0.52400 11.27800 19.55800
N  1.52100 10.19900 25.67500
C  1.32200 11.22200 24.75000
C  1.45700 12.50200 25.40100
C  1.73800 12.18000 26.70800
C  1.56600 10.77200 26.87500
C  1.28300 13.86000 24.74500
C  2.01100 12.69800 28.03600
O  2.23100 13.87900 28.43900
C  1.96400 11.47900 29.06200
C  3.19900 11.43100 29.90400
O  4.30600 11.02300 29.66600
O  2.93000 12.12300 31.03200
C  3.91300 12.16400 32.06600
H  1.18700 4.68900 28.31700
H  0.82000 5.58100 21.83600
H  1.03400 11.77000 22.63600
H  2.44600 8.81500 30.34000
H  0.67500 6.27600 30.05100
H  3.40300 5.70200 29.55600
H  2.59200 5.37800 31.12600
H  3.28700 7.00000 30.80400
H  -0.56000 8.11700 30.87700
H  -0.17900 9.67500 30.26500
H  -0.36700 9.67200 32.89900
H  0.83700 10.48600 31.93700
H  1.99900 2.16900 26.34400
H  0.26200 1.84800 25.96600
H  0.75800 2.63300 27.50000
H  -0.04300 1.44400 23.62500
H  1.61400 1.46200 24.32800
H  1.33600 1.03800 22.62000
H  -0.28100 8.00400 20.48000
H  1.56700 10.14700 20.73700
H  2.48200 7.02000 20.37700
H  2.36100 8.52400 19.42400
H  1.30200 7.19300 19.07300
H  -1.01200 11.21000 21.46300
H  -1.41600 9.74900 20.53300
H  -1.33700 10.93300 18.92000
H  0.47800 11.27000 19.12900
H  -0.74200 12.33100 19.73600
H  0.73000 14.53900 25.39400
H  0.85400 13.66500 23.76200
H  2.24400 14.33800 24.55100
H  1.09000 11.65100 29.69000
H  3.49900 12.07200 33.07000
H  4.20900 13.20800 31.96900
H  4.71500 11.43000 31.98400
Mg -11.06900 40.63300 42.03600
C  -10.40100 37.21200 40.96200
C  -7.85500 41.47500 41.10300
C  -12.05900 43.83500 41.79300
C  -14.24600 39.58200 42.70100
N  -9.32900 39.45900 40.96900
C  -9.25700 38.06700 40.70600
C  -7.88700 37.70000 40.18400
C  -7.02300 38.99700 40.62600
C  -8.08700 40.10100 40.81500
C  -6.18200 38.69700 41.88900
C  -7.90900 37.50400 38.67400
C  -7.15300 36.22900 38.24100
H  -5.84600 36.49300 37.41700
N  -10.06600 42.38700 41.62000
C  -8.74300 42.50800 41.38500
C  -8.36000 43.90400 41.39400
C  -9.61300 44.60300 41.46500
C  -10.63400 43.60900 41.67200
C  -6.94400 44.28300 41.27600
C  -9.73500 46.14300 41.25500
O  -8.76700 46.83200 40.83800
C  -11.06700 46.77600 41.38000
N  -12.93500 41.55400 42.06300
C  -13.12700 42.89500 41.96000
C  -14.61400 43.26300 42.15600
C  -15.19200 41.87900 42.65700
C  -14.03600 40.94700 42.57100
C  -14.92900 44.51300 42.94500
C  -16.50100 41.46800 41.98100
C  -17.70200 40.89800 42.81000
N  -12.11600 38.81900 42.02200
C  -13.37800 38.51300 42.31000
C  -13.66900 37.00200 42.27600
C  -12.54600 36.55500 41.71300
C  -11.59000 37.64500 41.56400
C  -14.94000 36.28300 42.67900
C  -11.93000 35.28500 41.30000
O  -12.28300 34.13600 41.48400
C  -10.52700 35.69600 40.77000
C  -9.44300 34.96500 41.52800
O  -8.89400 35.33500 42.51400
O  -9.16700 33.81600 40.90900
C  -8.15300 32.92600 41.46000
H  -6.80500 41.68600 40.89000
H  -12.39900 44.87200 41.83800
H  -15.23100 39.28600 43.06700
H  -7.48500 36.82300 40.69100
H  -6.31300 39.23700 39.83400
H  -6.68700 38.23300 42.73600
H  -5.85200 39.67600 42.23500
H  -5.31100 38.06100 41.73400
H  -7.37800 38.32500 38.19400
H  -8.92100 37.57800 38.27700
H  -7.89400 35.58300 37.76800
H  -6.86400 35.65600 39.12100
H  -6.25800 43.62500 41.81000
H  -6.66600 45.32700 41.42600
H  -6.61900 44.26400 40.23600
H  -11.65100 46.26800 40.61300
H  -11.05400 47.86500 41.42900
H  -11.46900 46.63900 42.38400
H  -14.96500 43.31100 41.12500
H  -15.57000 41.91000 43.67900
H  -14.05700 45.14800 43.10200
H  -15.39000 44.27200 43.90300
H  -15.74900 45.07300 42.49500
H  -16.28900 40.70900 41.22700
H  -16.89000 42.32900 41.43700
H  -18.10100 39.93200 42.50200
H  -18.60000 41.50800 42.72000
H  -17.35800 40.82600 43.84200
H  -14.87000 35.74600 43.62500
H  -15.12500 35.48700 41.95800
H  -15.83000 36.91000 42.62000
H  -10.66900 35.37900 39.73700
H  -8.65800 32.02100 41.79700
H  -7.65900 33.35200 42.33300
H  -7.38400 32.72700 40.71400

