158

Mg 6.49000 53.67000 41.10400
C  5.62200 50.30000 41.14300
C  9.48900 52.75500 39.97600
C  7.04400 57.00400 40.46400
C  3.15700 54.45500 41.81800
N  7.29900 51.76500 40.33100
C  6.85600 50.49200 40.48700
C  7.77200 49.41100 40.01300
C  9.11000 50.16200 40.15500
C  8.61400 51.66200 40.09000
C  9.93200 49.88400 41.46200
C  7.55500 48.96400 38.58000
C  6.42600 49.56900 37.65200
H  5.91000 48.62500 36.56500
N  8.00600 54.78400 40.48000
C  9.17500 54.19700 40.08800
C  10.09400 55.21800 39.85800
C  9.49800 56.46000 39.93400
C  8.08000 56.12700 40.30500
C  11.66600 54.98200 39.56900
C  10.11400 57.76100 39.63200
O  11.21900 57.73900 39.08600
C  9.52400 59.07500 39.90700
N  5.25100 55.43500 41.00100
C  5.73100 56.69100 40.78500
C  4.64600 57.73700 40.88300
C  3.32800 56.93000 41.29900
C  3.98400 55.50000 41.38600
C  4.95200 58.86200 41.85100
C  2.21100 57.02400 40.22600
C  0.80400 57.28100 40.68900
N  4.65300 52.61100 41.45500
C  3.45900 53.07400 41.90500
C  2.72200 51.90300 42.33600
C  3.57400 50.82700 42.05100
C  4.74000 51.28100 41.54300
C  1.38500 51.88300 43.03900
C  3.59900 49.42100 42.13200
O  2.72200 48.62600 42.49200
C  4.95200 49.01500 41.60400
C  4.82300 47.99000 40.49500
O  4.15900 48.18300 39.48100
O  5.45200 46.77200 40.73400
C  5.19500 45.74700 39.81700
H  10.53300 52.50900 39.76800
H  7.22500 58.03600 40.15800
H  2.13500 54.74700 42.06900
H  7.74600 48.57800 40.71500
H  9.74400 49.92300 39.30200
H  11.00900 49.87400 41.29400
H  9.66200 48.91500 41.88200
H  9.70700 50.66400 42.18900
H  7.36400 47.90000 38.72000
H  8.48700 48.97200 38.01500
H  6.91200 50.44400 37.22000
H  5.58000 49.90600 38.25000
H  12.14000 55.46200 38.71300
H  11.76000 53.89800 39.51000
H  12.20100 55.41100 40.41500
H  9.03700 59.16600 40.87800
H  8.77800 59.24600 39.13100
H  10.26400 59.87500 39.93300
H  4.61800 58.17300 39.88400
H  2.96700 57.22000 42.28600
H  5.71700 58.41400 42.48600
H  4.13500 59.10700 42.52900
H  5.29000 59.69300 41.23200
H  2.11300 56.15200 39.58000
H  2.34300 57.90000 39.59000
H  0.57300 57.30600 41.75400
H  0.21200 56.45400 40.29700
H  0.58400 58.28200 40.31600
H  0.78300 51.05200 42.67200
H  0.92000 52.86000 42.91500
H  1.57300 51.77400 44.10700
H  5.62300 48.59400 42.35300
H  5.70800 44.84200 40.14300
H  5.59800 46.04700 38.84900
H  4.12000 45.59800 39.91400
Mg 0.93000 43.19400 25.62000
C  2.95700 42.59200 28.37000
C  -1.77900 42.15700 27.38800
C  -0.90200 43.21200 22.73600
C  3.70000 44.17100 23.78300
N  0.66900 42.26100 27.69200
C  1.61600 42.35600 28.70200
C  0.92100 42.18900 30.00500
C  -0.60900 41.86100 29.71500
C  -0.57600 42.02700 28.19000
C  -1.11300 40.41300 30.10000
C  1.11600 43.36700 30.96900
C  0.68500 43.09200 32.42300
H  0.20200 41.67300 32.77500
N  -1.05300 42.71100 25.17700
C  -2.04500 42.36900 25.98800
C  -3.29400 42.11500 25.34100
C  -3.04300 42.43800 23.97600
C  -1.59300 42.84900 23.94700
C  -4.57800 41.80800 26.04900
C  -4.10800 42.43500 22.88500
O  -3.82800 42.75000 21.76200
C  -5.49200 41.88000 23.10700
N  1.29600 43.71900 23.52800
C  0.36500 43.72100 22.53200
C  0.97000 44.20000 21.24700
C  2.37200 44.74100 21.67200
C  2.50400 44.29800 23.10800
C  1.08800 43.16800 20.14900
C  2.56200 46.27000 21.56000
C  1.47900 47.10100 22.15700
N  2.81900 43.16800 25.94200
C  3.84800 43.50100 25.04400
C  5.10300 43.21000 25.66200
C  4.80300 42.89300 26.95900
C  3.41600 42.87600 27.10300
C  6.41800 43.40000 24.99300
C  5.35400 42.59300 28.26100
O  6.53000 42.43600 28.61100
C  4.16000 42.51900 29.23700
C  4.29800 41.35500 30.24400
O  4.36500 40.10400 30.04900
O  4.22300 41.89400 31.49100
C  4.19700 40.88000 32.58400
H  -2.68000 42.07700 28.00100
H  -1.45300 43.15000 21.79600
H  4.56900 44.62300 23.30100
H  1.43800 41.34000 30.45300
H  -1.29400 42.56000 30.19500
H  -1.95000 40.47400 30.79500
H  -0.33800 39.88100 30.65000
H  -1.49500 39.91700 29.20700
H  0.45100 44.16800 30.64300
H  2.09400 43.82700 30.82300
H  -0.22800 43.67300 32.55400
H  1.43000 43.41200 33.15100
H  -5.36000 42.48400 25.70500
H  -4.41000 41.95600 27.11600
H  -4.89800 40.78500 25.85500
H  -5.95800 42.64200 23.73300
H  -5.53700 40.89300 23.56700
H  -6.00200 41.93600 22.14500
H  0.40600 45.07400 20.92100
H  3.23100 44.43900 21.07300
H  2.11900 43.08100 19.80600
H  0.61800 43.51200 19.22800
H  0.73900 42.16500 20.39400
H  2.74700 46.54100 20.52100
H  3.41900 46.60900 22.14300
H  0.56300 46.57500 22.42500
H  1.12100 47.81500 21.41500
H  1.77300 47.74900 22.98300
H  6.40400 44.27300 24.34100
H  6.67400 42.59900 24.30000
H  7.05200 43.65800 25.84200
H  4.18900 43.48300 29.74400
H  3.89600 39.89700 32.22200
H  3.50700 41.15200 33.38300
H  5.15100 40.74500 33.09400

