158

Mg 42.90800 4.29200 48.26600
C  40.96200 6.93000 47.71900
C  40.20200 2.16900 47.95500
C  44.97200 1.65900 48.03500
C  45.83300 6.37700 47.51300
N  40.83000 4.52700 47.60200
C  40.25100 5.72800 47.51300
C  38.76300 5.59800 47.16800
C  38.48900 4.09700 47.63900
C  39.95600 3.56900 47.77900
C  37.75800 3.89800 48.99900
C  38.29000 5.80800 45.68600
C  37.08000 6.78400 45.54800
H  36.55200 6.76800 44.15200
N  42.61300 2.30600 48.13900
C  41.42600 1.60100 48.03300
C  41.64100 0.20900 48.09700
C  43.05300 -0.01600 48.30800
C  43.64100 1.34300 48.17500
C  40.59400 -0.83200 47.68700
C  43.70000 -1.37600 48.38900
O  43.07000 -2.41500 48.57100
C  45.16600 -1.56600 48.38300
N  45.13700 4.09600 47.75000
C  45.69000 2.88300 47.80700
C  47.21700 2.91800 47.62600
C  47.42900 4.41000 47.41600
C  46.09900 5.00300 47.57800
C  47.89900 2.41600 48.92800
C  48.07800 4.77500 46.03100
C  49.53400 4.48600 45.89600
N  43.40000 6.28700 48.04900
C  44.54300 6.99100 47.78500
C  44.20900 8.42300 47.74500
C  42.78900 8.42000 47.80400
C  42.37200 7.11000 47.88200
C  45.16700 9.61600 47.63300
C  41.58500 9.31800 47.66800
O  41.41100 10.55300 47.64200
C  40.38400 8.34400 47.63800
C  39.60600 8.58700 48.83400
O  39.99700 8.35700 49.98400
O  38.27900 8.72100 48.40000
C  37.33600 8.57400 49.52700
H  39.31000 1.54300 48.02100
H  45.68400 0.84800 47.86900
H  46.66300 7.05400 47.29900
H  38.29500 6.22400 47.92700
H  37.93100 3.52500 46.89800
H  37.48900 4.87900 49.39100
H  38.35400 3.31200 49.69900
H  36.86400 3.36500 48.67700
H  38.00200 4.90100 45.15500
H  39.12900 6.17100 45.09200
H  37.45800 7.75000 45.88400
H  36.32600 6.41600 46.24400
H  40.24700 -1.47200 48.49800
H  41.00600 -1.41200 46.86100
H  39.74400 -0.37700 47.17800
H  45.67300 -0.89000 49.07200
H  45.61900 -1.32000 47.42200
H  45.47800 -2.59200 48.57800
H  47.39500 2.27700 46.76300
H  48.03600 4.92900 48.15700
H  47.17500 2.32300 49.73700
H  48.68400 3.00300 49.40300
H  48.26200 1.41000 48.71700
H  47.90200 5.82200 45.78200
H  47.53000 4.18500 45.29700
H  50.06300 5.43400 45.79900
H  49.69900 3.88800 45.00000
H  49.86900 3.95500 46.78700
H  45.13500 10.11400 46.66400
H  46.12800 9.13600 47.81600
H  44.99300 10.35400 48.41600
H  39.77200 8.59000 46.77000
H  36.94100 9.50300 49.93700
H  37.64600 7.96700 50.37700
H  36.62700 7.90900 49.03500
Mg 47.04900 25.00700 28.92700
C  47.85500 27.44700 31.36100
C  46.02700 22.99900 31.46500
C  46.54200 22.73200 26.62700
C  48.84100 26.99600 26.55100
N  47.03900 25.20700 31.18900
C  47.19600 26.34100 31.90800
C  46.98200 26.14500 33.43000
C  46.49900 24.62500 33.50000
C  46.48300 24.24500 31.92000
C  47.30400 23.67600 34.42100
C  46.01900 27.18700 33.94700
C  46.10300 27.59700 35.44000
H  46.94700 26.79100 36.39900
N  46.24400 23.10600 29.00200
C  45.89600 22.45700 30.14400
C  45.36100 21.20600 29.72600
C  45.54800 21.15700 28.34700
C  46.08500 22.37700 27.91800
C  44.86900 20.15600 30.70800
C  45.27800 19.98700 27.39300
O  45.54000 20.03100 26.21300
C  44.83300 18.68800 28.04700
N  47.53300 25.00000 26.84800
C  47.20500 23.85900 26.13300
C  47.52400 24.13800 24.66300
C  48.27300 25.50700 24.58900
C  48.17200 25.88600 26.08800
C  48.28000 22.97200 23.85500
C  47.37500 26.40500 23.64400
C  46.20200 27.20800 24.26600
N  48.08000 26.83100 28.86500
C  48.69600 27.52500 27.85000
C  49.12300 28.78200 28.32900
C  48.83800 28.79600 29.70100
C  48.22900 27.60000 29.98800
C  49.57600 29.87600 27.36600
C  48.94400 29.64700 30.83600
O  49.41100 30.80500 30.85300
C  48.33400 28.78400 32.01600
C  49.33200 28.62300 33.08200
O  50.30800 27.85500 33.06800
O  49.01800 29.54400 34.00400
C  49.98600 29.46800 35.15200
H  45.43500 22.46300 32.21000
H  46.35200 22.01300 25.82800
H  49.34200 27.55200 25.75700
H  47.98400 26.14700 33.86000
H  45.43600 24.67300 33.73500
H  48.07900 24.29400 34.87400
H  47.64900 22.84500 33.80600
H  46.66700 23.42200 35.26700
H  45.06900 26.65200 33.94400
H  45.90900 28.07200 33.32000
H  45.04600 27.63500 35.70100
H  46.48300 28.61600 35.51800
H  45.50400 19.27300 30.79100
H  43.89600 19.77000 30.40500
H  44.82800 20.57700 31.71300
H  45.56800 18.04100 28.52700
H  44.65800 18.08500 27.15600
H  43.87600 19.01500 28.45200
H  46.53300 24.16400 24.20900
H  49.32800 25.52900 24.31600
H  49.21500 23.38400 23.47600
H  47.64600 22.71400 23.00700
H  48.39000 22.14600 24.55800
H  46.92000 25.74400 22.90600
H  48.03700 27.03300 23.04700
H  46.08000 27.17500 25.34800
H  45.26900 26.84500 23.83500
H  46.43900 28.21900 23.93500
H  49.42700 29.74000 26.29500
H  50.63400 30.06300 27.54900
H  48.95700 30.74100 27.60700
H  47.46700 29.37000 32.32400
H  50.97300 29.01100 35.08600
H  49.30300 29.04700 35.88900
H  50.21400 30.48800 35.46400

