158

Mg 0.07700 7.02800 26.01400
C  0.82900 9.16800 28.63600
C  -0.43200 4.50000 28.23200
C  -0.49300 5.04400 23.47800
C  0.96400 9.64400 23.76000
N  0.11300 6.94800 28.25400
C  0.49100 7.88300 29.15400
C  0.32600 7.44700 30.63200
C  0.32400 5.85400 30.32500
C  -0.02800 5.72800 28.79100
C  1.58900 5.07100 30.62200
C  -0.85500 8.19800 31.35000
C  -0.94500 7.77900 32.83900
H  0.12100 6.91200 33.52900
N  -0.56600 5.10600 25.92300
C  -0.66000 4.23800 26.92300
C  -1.02600 2.90600 26.37000
C  -0.99000 3.06800 24.95300
C  -0.67400 4.47500 24.74600
C  -1.20000 1.64800 27.22300
C  -1.16000 1.97200 23.88200
O  -1.02200 2.21000 22.71300
C  -1.46400 0.56300 24.36700
N  0.30000 7.28200 23.90100
C  -0.01800 6.24400 23.09800
C  0.23400 6.67300 21.63400
C  0.53700 8.24200 21.69000
C  0.59300 8.43900 23.17900
C  1.15400 5.83400 20.84000
C  -0.42500 9.22300 20.89000
C  -1.87200 9.38900 21.39100
N  0.74300 8.96000 26.10300
C  1.00100 9.89200 25.13300
C  1.39200 11.14500 25.72800
C  1.39700 10.91400 27.12400
C  0.98200 9.53700 27.24200
C  1.64600 12.35200 25.00100
C  1.63300 11.48100 28.39400
O  2.01800 12.62900 28.69500
C  1.29800 10.37200 29.42100
C  2.42400 10.20200 30.31600
O  3.57500 9.95900 30.13300
O  1.92500 10.60500 31.56800
C  2.80700 10.92600 32.63900
H  -0.56400 3.65900 28.91500
H  -0.75800 4.45000 22.60000
H  1.27900 10.47300 23.12300
H  1.25600 7.67700 31.15100
H  -0.54900 5.42200 30.81500
H  1.87200 4.42000 29.79500
H  1.32400 4.43000 31.46300
H  2.43100 5.65000 31.00000
H  -1.78100 8.06900 30.79100
H  -0.56000 9.24800 31.37300
H  -1.93800 7.33700 32.91600
H  -0.86300 8.68200 33.44500
H  -0.37200 0.94500 27.31000
H  -2.07300 1.11400 26.84700
H  -1.49100 1.90800 28.24000
H  -0.62200 0.22600 24.97100
H  -1.51900 -0.07100 23.48200
H  -2.39000 0.40200 24.91900
H  -0.72400 6.60100 21.11900
H  1.51500 8.52200 21.29800
H  1.17000 4.84000 21.28900
H  2.13300 6.31300 20.84500
H  0.92400 5.84800 19.77500
H  -0.63000 8.69400 19.95900
H  0.06000 10.18600 20.72800
H  -2.51100 8.64200 20.92100
H  -2.23700 10.40400 21.23400
H  -1.85900 9.21200 22.46600
H  1.94800 13.27600 25.49500
H  0.70400 12.73000 24.60500
H  2.38300 12.25500 24.20300
H  0.38700 10.66900 29.94200
H  2.76000 10.04600 33.28000
H  2.35200 11.79800 33.10900
H  3.79900 11.15900 32.25200
Mg -4.84500 25.19800 25.56800
C  -3.34400 26.12600 28.62500
C  -6.79400 22.88500 27.56700
C  -5.72600 23.62000 22.88300
C  -2.56800 27.21900 23.88500
N  -4.92800 24.53700 27.89200
C  -4.29500 25.19100 28.87400
C  -4.87500 24.87900 30.26100
C  -5.72500 23.61500 29.84400
C  -5.88500 23.70800 28.31700
C  -5.11600 22.27900 30.27100
C  -5.75200 26.12400 30.79200
C  -5.55200 26.46500 32.32500
H  -4.69700 25.57000 33.16200
N  -6.26400 23.66300 25.21600
C  -6.95000 22.89800 26.11800
C  -7.95500 22.17000 25.44200
C  -7.60000 22.26500 24.06500
C  -6.48300 23.19000 23.95400
C  -9.06200 21.40300 26.19500
C  -8.32300 21.63400 22.87700
O  -7.98300 21.84200 21.72500
C  -9.62800 20.84900 23.10700
N  -4.14000 25.31600 23.63100
C  -4.62100 24.47900 22.67300
C  -3.96900 24.83700 21.28700
C  -3.26200 26.23000 21.50000
C  -3.34200 26.30000 23.05700
C  -2.90500 23.74500 20.81600
C  -3.98900 27.38700 20.76600
C  -3.09200 28.60300 20.54000
N  -3.22800 26.38000 26.07200
C  -2.46700 27.21300 25.28600
C  -1.61900 28.01200 26.11700
C  -1.91700 27.59100 27.40300
C  -2.92400 26.61100 27.35300
C  -0.76500 29.07600 25.63800
C  -1.63400 27.86000 28.76100
O  -0.82400 28.63200 29.33300
C  -2.49200 26.85400 29.62600
C  -1.56300 26.19100 30.52400
O  -1.03100 25.10400 30.29900
O  -1.50900 26.90600 31.73200
C  -0.54800 26.27600 32.71600
H  -7.49500 22.20000 28.05000
H  -6.13200 23.12000 22.00100
H  -1.96200 27.84800 23.23000
H  -4.19200 24.55700 31.04700
H  -6.66500 23.63900 30.39500
H  -5.86200 21.86800 30.95100
H  -4.11500 22.35600 30.69600
H  -4.97000 21.64000 29.40100
H  -6.82100 25.91400 30.74300
H  -5.67700 27.02400 30.18200
H  -6.51600 26.67500 32.79000
H  -5.09600 27.45500 32.31300
H  -9.73200 20.66800 25.74900
H  -9.72300 22.12000 26.68300
H  -8.56600 20.89700 27.02400
H  -9.29200 19.95200 23.62600
H  -9.94900 20.63500 22.08700
H  -10.30100 21.39500 23.76800
H  -4.78600 24.81200 20.56600
H  -2.24000 26.25900 21.12200
H  -1.95900 24.17400 20.48400
H  -3.39800 23.07600 20.11000
H  -2.55100 23.12100 21.63700
H  -4.93400 27.67500 21.22500
H  -4.18300 26.92800 19.79600
H  -2.95600 28.75600 19.46900
H  -2.15900 28.44300 21.08000
H  -3.58800 29.52200 20.85100
H  -0.56600 29.80500 26.42400
H  -1.23900 29.59200 24.80300
H  0.20700 28.61600 25.45800
H  -3.08900 27.55000 30.21500
H  -0.52900 25.18700 32.77000
H  -0.71300 26.64800 33.72800
H  0.47700 26.57000 32.49100

