158

Mg 34.74900 2.78400 29.11300
C  33.04200 3.87700 32.04100
C  37.61300 2.34200 31.02500
C  36.50200 2.03200 26.25900
C  31.95500 3.40200 27.24500
N  35.32000 3.22300 31.30400
C  34.40300 3.49500 32.36000
C  35.00700 3.42500 33.70000
C  36.49200 3.04500 33.36100
C  36.49100 2.84000 31.79100
C  37.57900 4.05100 33.77500
C  34.23600 2.48000 34.64600
C  34.30400 2.86600 36.13700
H  35.43800 3.67400 36.79700
N  36.71900 2.13400 28.72800
C  37.76100 2.06200 29.62600
C  39.02300 1.67000 28.95500
C  38.69600 1.47400 27.51400
C  37.23400 1.91000 27.47700
C  40.25700 1.43100 29.66000
C  39.56500 1.01300 26.30200
O  39.13000 0.84500 25.14200
C  41.04800 0.66300 26.51000
N  34.34300 2.86200 27.03400
C  35.17700 2.40100 26.00000
C  34.41100 2.26200 24.68700
C  32.92100 2.49400 25.14200
C  33.11400 2.93900 26.56600
C  34.92300 3.29500 23.58000
C  31.92100 1.37400 24.85800
C  30.94900 1.48700 23.65200
N  32.94500 3.60200 29.46700
C  31.87200 3.69800 28.64400
C  30.68200 4.08400 29.34500
C  31.11100 4.25800 30.70800
C  32.51200 3.93100 30.73300
C  29.36900 4.24600 28.71500
C  30.67800 4.59200 32.06800
O  29.63200 4.85600 32.53500
C  31.92100 4.36300 32.93400
C  32.24500 5.63700 33.66400
O  32.87100 6.56400 33.22400
O  31.59200 5.50000 34.91800
C  31.79500 6.59600 35.84200
H  38.54200 2.24300 31.59100
H  37.06900 1.65400 25.40600
H  31.01700 3.45700 26.68900
H  34.77900 4.44600 34.00800
H  36.75000 2.08500 33.80800
H  38.32900 3.48700 34.32900
H  37.21900 4.87900 34.38600
H  38.04000 4.60400 32.95700
H  34.82500 1.56600 34.57900
H  33.21100 2.34000 34.30300
H  34.14100 1.88400 36.58100
H  33.40400 3.43500 36.36800
H  41.13800 1.44900 29.01800
H  40.30100 0.51400 30.24800
H  40.36800 2.24000 30.38200
H  41.51100 1.58900 26.85100
H  41.53100 0.23400 25.63200
H  41.03300 -0.07100 27.31600
H  34.60500 1.27600 24.26400
H  32.55000 3.41100 24.68400
H  35.54900 2.72200 22.89600
H  35.71000 3.91900 24.00200
H  34.04100 3.78000 23.16100
H  31.31000 1.15900 25.73500
H  32.51800 0.50900 24.56900
H  31.01100 0.52600 23.14200
H  31.37500 2.24600 22.99600
H  29.89600 1.76200 23.70700
H  29.53000 4.47600 27.66200
H  28.88500 5.15500 29.07200
H  28.70100 3.38900 28.80300
H  31.68400 3.49900 33.55500
H  32.50300 6.34800 36.63300
H  30.83300 6.82900 36.29700
H  31.97700 7.55000 35.34700
Mg 35.91400 48.95400 25.24300
C  36.28900 47.14700 28.07300
C  34.48000 51.53000 26.92400
C  35.26900 50.52500 22.23900
C  37.08800 46.30700 23.31200
N  35.46700 49.23300 27.29400
C  35.76000 48.38900 28.36500
C  35.28600 48.94300 29.68500
C  34.56900 50.27100 29.22300
C  34.81900 50.38000 27.70800
C  33.11900 50.43800 29.76400
C  36.48600 49.11600 30.66400
C  36.25000 48.55600 32.08100
H  34.79600 48.43600 32.59100
N  34.96300 50.76900 24.68900
C  34.52500 51.71600 25.54100
C  34.03000 52.85800 24.82300
C  34.21600 52.56100 23.44600
C  34.84300 51.25800 23.41400
C  33.44700 54.17600 25.45000
C  34.02400 53.41800 22.23600
O  34.32000 53.13500 21.07700
C  33.27400 54.74900 22.41900
N  36.10400 48.50600 23.00200
C  35.84900 49.32100 22.06000
C  36.09300 48.73700 20.63400
C  36.67900 47.42700 20.97600
C  36.58300 47.32500 22.50600
C  34.92700 48.63000 19.60100
C  38.19200 47.25800 20.52100
C  39.33000 47.71200 21.36000
N  36.51600 47.09000 25.58600
C  37.05600 46.14500 24.72500
C  37.35200 44.94200 25.53300
C  37.11300 45.32500 26.81600
C  36.59600 46.59200 26.80300
C  37.94500 43.68600 25.14400
C  37.08100 44.84500 28.22300
O  37.31200 43.75800 28.74500
C  36.63700 46.07600 29.07100
C  35.40400 45.65300 29.86700
O  34.19200 45.76800 29.56400
O  35.84100 44.98600 30.94400
C  34.87400 44.34500 31.76600
H  34.08900 52.40300 27.45200
H  35.10300 50.99200 21.26600
H  37.63900 45.53700 22.76800
H  34.51900 48.34500 30.17700
H  35.14000 51.13200 29.57100
H  32.80600 49.46600 30.14700
H  32.48400 50.61300 28.89500
H  33.08900 51.19300 30.55000
H  36.85700 50.14100 30.67400
H  37.27900 48.49800 30.24300
H  36.78500 49.22300 32.75800
H  36.74100 47.58500 32.02200
H  32.40300 53.95500 25.22500
H  33.86700 55.05600 24.96400
H  33.60200 54.33000 26.51800
H  33.93200 55.45000 22.93300
H  32.38100 54.38000 22.92400
H  32.94500 55.28500 21.52900
H  36.96900 49.23300 20.21600
H  36.13600 46.58500 20.54700
H  35.40000 48.66500 18.62000
H  34.21200 49.45300 19.61600
H  34.41300 47.67300 19.68500
H  38.36400 47.76700 19.57300
H  38.28700 46.18300 20.37200
H  39.02600 48.04300 22.35300
H  39.69500 48.54100 20.75400
H  40.14200 46.99000 21.45200
H  37.32700 42.83500 25.43000
H  38.97300 43.51500 25.46300
H  37.98200 43.74000 24.05600
H  37.43500 46.33300 29.76700
H  35.26600 44.30600 32.78200
H  34.77900 43.27400 31.58800
H  33.87700 44.78600 31.79000

