158

Mg -1.57100 18.38600 26.89100
C  -2.32500 16.35600 29.75600
C  -2.39500 21.17000 28.76200
C  -1.17100 20.16300 23.99800
C  -1.32900 15.38100 25.03000
N  -2.27400 18.67800 29.02200
C  -2.25600 17.74000 30.05200
C  -2.48800 18.40100 31.38400
C  -2.93600 19.91800 30.99200
C  -2.54400 19.97100 29.46900
C  -4.42400 20.34800 31.15500
C  -1.28200 18.25600 32.40600
C  -1.64200 17.72400 33.86800
H  -0.43400 17.53700 34.86200
N  -1.79400 20.31400 26.41500
C  -2.02600 21.33000 27.36100
C  -1.95400 22.60300 26.70200
C  -1.46200 22.32500 25.36500
C  -1.40700 20.91100 25.22300
C  -2.25800 23.95600 27.35600
C  -1.18900 23.30800 24.21700
O  -0.90300 22.93500 23.06100
C  -1.06600 24.77800 24.50400
N  -1.07000 17.86400 24.82500
C  -1.02300 18.78600 23.81800
C  -0.94200 18.08200 22.40600
C  -0.95100 16.60300 22.79800
C  -1.14700 16.56200 24.34100
C  -2.14700 18.58000 21.43000
C  0.41000 15.87300 22.33200
C  0.15100 14.49600 21.76800
N  -1.72800 16.27600 27.29100
C  -1.58900 15.20400 26.40600
C  -1.93200 14.02000 27.11000
C  -2.16900 14.37900 28.40600
C  -2.02900 15.78200 28.45100
C  -2.16100 12.64500 26.48900
C  -2.56100 13.84500 29.69300
O  -2.70500 12.68900 29.98700
C  -2.61200 15.15000 30.68800
C  -1.53300 14.81300 31.67200
O  -0.33300 14.64100 31.36700
O  -1.98800 14.60600 32.92800
C  -1.26700 13.63400 33.75500
H  -2.45900 22.04300 29.41600
H  -1.16300 20.60200 22.99800
H  -1.33700 14.49200 24.39600
H  -3.33500 17.89000 31.84200
H  -2.25200 20.60000 31.49800
H  -4.77400 20.71200 30.18900
H  -4.54200 21.10500 31.93100
H  -4.96400 19.45400 31.46600
H  -0.78000 19.21500 32.53700
H  -0.49500 17.64200 31.96800
H  -2.15000 16.76300 33.78700
H  -2.31800 18.41800 34.36700
H  -3.15100 24.34300 26.86600
H  -1.30800 24.48300 27.44200
H  -2.52300 23.85800 28.40900
H  -1.26400 25.38100 23.61800
H  -0.13900 25.00100 25.03100
H  -1.92600 25.06800 25.10700
H  -0.00800 18.41000 21.95100
H  -1.73300 16.12900 22.20500
H  -2.90100 17.79400 21.37500
H  -1.77000 18.75000 20.42200
H  -2.63000 19.49800 21.76500
H  1.10500 15.82700 23.16900
H  0.82800 16.54700 21.58400
H  0.86900 14.34100 20.96200
H  -0.87500 14.43800 21.40500
H  0.24400 13.70000 22.50600
H  -2.18900 12.59200 25.40100
H  -3.10700 12.20200 26.80000
H  -1.46300 11.94300 26.94600
H  -3.52600 15.23700 31.27500
H  -0.60200 14.25200 34.35900
H  -0.64700 12.93500 33.19500
H  -1.89300 13.08500 34.45800
Mg 40.49900 9.21800 30.25900
C  42.62600 10.32800 32.81800
C  38.27000 8.34100 32.64500
C  38.65900 8.00900 27.80600
C  43.22000 9.62800 28.02400
N  40.46600 9.34700 32.44200
C  41.36200 9.91900 33.25500
C  40.84700 9.91500 34.70000
C  39.62800 9.09900 34.63200
C  39.44200 8.90500 33.11800
C  39.65700 7.73900 35.47100
C  40.59300 11.32900 35.29300
C  40.14800 11.33500 36.72400
H  40.86000 12.21800 37.77400
N  38.66500 8.39200 30.21700
C  37.82200 8.13700 31.29000
C  36.56400 7.57500 30.80200
C  36.70300 7.51000 29.39900
C  38.00400 8.05000 29.07000
C  35.49800 7.08600 31.72600
C  35.65100 7.08100 28.41400
O  35.61000 7.25300 27.24700
C  34.48200 6.34900 28.96100
N  40.82900 8.99800 28.21900
C  39.90200 8.39000 27.40700
C  40.33300 8.28200 25.89900
C  41.78000 9.02300 25.98500
C  41.98300 9.16800 27.50300
C  40.54600 6.77100 25.55900
C  41.77600 10.42300 25.35100
C  43.10500 11.03700 24.91400
N  42.50600 9.79000 30.33000
C  43.48000 9.93800 29.35900
C  44.75200 10.37100 29.95100
C  44.46900 10.59300 31.27900
C  43.07500 10.29600 31.42500
C  45.98100 10.56800 29.11700
C  44.97000 11.03300 32.48600
O  46.07300 11.43100 32.77000
C  43.75900 11.02700 33.57100
C  44.30700 10.27800 34.73000
O  44.87800 9.23500 34.56200
O  44.00000 10.82600 35.90600
C  44.22300 10.14400 37.12000
H  37.48000 8.09600 33.35800
H  37.98800 7.52900 27.09100
H  44.11300 9.59600 27.39700
H  41.62500 9.39000 35.25400
H  38.74500 9.57200 35.06100
H  40.63400 7.40000 35.81600
H  39.30500 6.99600 34.75600
H  39.01200 7.85300 36.34200
H  39.88500 11.75700 34.58300
H  41.45300 11.98100 35.13900
H  40.24200 10.32100 37.11400
H  39.09800 11.62600 36.69000
H  35.63100 7.30000 32.78600
H  35.28700 6.02800 31.57100
H  34.58300 7.60400 31.43700
H  33.91200 7.06800 29.54900
H  34.88300 5.53200 29.56200
H  33.87700 5.89100 28.17800
H  39.53100 8.65500 25.26100
H  42.60600 8.38800 25.66400
H  40.92400 6.21200 26.41600
H  41.16600 6.59500 24.68000
H  39.53700 6.42300 25.34100
H  41.26700 11.16900 25.96100
H  41.12200 10.43900 24.47900
H  43.94600 10.35100 25.02500
H  43.27400 11.96500 25.45900
H  43.17600 11.24100 23.84600
H  45.87800 11.52900 28.61400
H  46.12500 9.77700 28.38100
H  46.87400 10.55900 29.74000
H  43.55000 12.04400 33.90300
H  43.33600 10.22400 37.74900
H  45.06400 10.57500 37.66300
H  44.48400 9.08600 37.08200

