158

Mg 43.27900 3.45200 47.35300
C  41.08000 6.16600 46.63700
C  40.50900 1.32800 46.94500
C  45.40800 0.87500 47.41300
C  46.09500 5.72400 47.14100
N  41.14700 3.73200 46.93700
C  40.41200 4.94100 46.73000
C  38.91100 4.68800 46.44200
C  38.87200 3.19700 46.88400
C  40.27700 2.71300 46.95400
C  38.10500 2.91900 48.23000
C  38.65500 4.91000 44.89900
C  37.33600 5.47900 44.47700
H  37.38500 6.57800 43.42000
N  42.97400 1.38800 47.13700
C  41.76100 0.68100 47.04700
C  41.99800 -0.76700 47.05400
C  43.43500 -0.89700 47.20300
C  44.02000 0.47300 47.22900
C  40.88100 -1.89200 47.14100
C  44.16100 -2.18500 47.33700
O  43.58200 -3.28500 47.13300
C  45.57600 -2.35900 47.57200
N  45.38100 3.32100 47.28600
C  45.94900 2.14100 47.51100
C  47.50000 2.22400 47.53300
C  47.74200 3.76200 47.44900
C  46.32400 4.35800 47.30800
C  48.18000 1.43200 48.69000
C  48.77500 4.19100 46.39600
C  48.57700 3.66100 44.89100
N  43.57900 5.48200 47.01600
C  44.75500 6.31400 46.97900
C  44.29600 7.73800 46.81800
C  42.87200 7.66200 46.77000
C  42.51600 6.29400 46.78600
C  45.17600 9.02600 46.83900
C  41.64800 8.46900 46.66300
O  41.50900 9.70100 46.59100
C  40.42900 7.52300 46.66100
C  39.48900 7.84900 47.79500
O  39.68400 7.52900 48.94900
O  38.26600 8.39500 47.33200
C  37.30100 8.61100 48.43000
H  39.53900 0.83200 46.87300
H  46.10600 0.05500 47.23500
H  46.96500 6.38300 47.10700
H  38.31300 5.34700 47.07100
H  38.27800 2.62200 46.17400
H  37.29600 2.22700 47.99400
H  37.63000 3.87600 48.44700
H  38.70100 2.69300 49.11400
H  38.92200 4.00900 44.34700
H  39.34500 5.65200 44.49600
H  36.89900 5.98800 45.33600
H  36.69200 4.65500 44.16800
H  39.90000 -1.44500 46.98100
H  40.74300 -2.24100 48.16400
H  41.14800 -2.65500 46.40900
H  46.23600 -2.25100 46.71100
H  45.67800 -3.36200 47.98500
H  46.00500 -1.70700 48.33200
H  47.80400 1.78800 46.58200
H  48.00700 4.10600 48.44900
H  47.57300 0.66500 49.17200
H  48.72200 1.99600 49.44900
H  48.87400 0.82300 48.11100
H  49.75700 3.87500 46.74700
H  48.88400 5.27300 46.47200
H  49.33800 2.98600 44.50000
H  48.42500 4.48800 44.19700
H  47.66800 3.06500 44.81400
H  45.42500 9.45100 47.81200
H  44.82100 9.70800 46.06600
H  46.17000 8.69700 46.53800
H  39.76800 7.72900 45.81900
H  36.30700 8.91100 48.09900
H  37.72000 9.25600 49.20200
H  37.16200 7.63500 48.89500
Mg 16.14800 53.37900 25.30000
C  17.54000 52.09300 28.17700
C  13.40200 54.44000 27.16000
C  14.66300 54.21800 22.31400
C  18.68200 51.71800 23.41900
N  15.63000 53.25100 27.37500
C  16.35200 52.82000 28.39200
C  15.73100 53.13800 29.73400
C  14.28900 53.45700 29.38800
C  14.42900 53.64200 27.87900
C  13.18100 52.50600 29.84200
C  16.52100 54.22300 30.55000
C  17.13900 53.73100 31.84800
H  16.19000 53.00000 32.86200
N  14.38500 54.39600 24.84500
C  13.39500 54.73100 25.77500
C  12.30300 55.37100 25.03200
C  12.61300 55.18600 23.62800
C  13.96200 54.61800 23.54300
C  11.17200 56.07600 25.80200
C  11.72900 55.42500 22.39000
O  12.00300 55.18700 21.20400
C  10.43900 56.16000 22.66400
N  16.55300 52.85900 23.07500
C  15.88800 53.45700 22.11900
C  16.41600 53.06700 20.67500
C  17.76200 52.45700 21.07800
C  17.68800 52.24700 22.63900
C  15.46200 52.12100 19.84900
C  19.00300 53.32500 20.64200
C  20.08000 52.52300 19.88700
N  17.92000 52.25600 25.63900
C  18.84800 51.71500 24.83900
C  19.90800 51.15200 25.66700
C  19.42700 51.28600 26.99000
C  18.20000 51.91600 26.93600
C  21.18700 50.51200 25.18100
C  19.74700 50.96000 28.44500
O  20.71400 50.42200 28.97100
C  18.49100 51.50900 29.21300
C  18.04300 50.49400 30.18600
O  17.20300 49.61600 30.01300
O  18.85700 50.60100 31.27300
C  18.64600 49.65200 32.35100
H  12.51200 54.77200 27.69800
H  14.31400 54.71000 21.40300
H  19.42600 51.19400 22.81600
H  15.69200 52.25500 30.37100
H  14.05900 54.39100 29.90000
H  13.49800 51.49600 30.10200
H  12.31700 52.31100 29.20800
H  12.74200 53.10700 30.63800
H  15.87700 55.07100 30.78100
H  17.33100 54.46500 29.86100
H  17.44400 54.52200 32.53300
H  18.05800 53.25600 31.50400
H  11.00700 56.99200 25.23400
H  11.46200 56.40000 26.80200
H  10.22900 55.53000 25.82600
H  9.86400 56.17300 21.73900
H  10.70200 57.19700 22.87600
H  9.88400 55.84800 23.54900
H  16.63000 53.98700 20.13000
H  17.80100 51.48200 20.59300
H  15.15400 52.69400 18.97500
H  14.72100 51.76600 20.56600
H  16.07700 51.26600 19.56700
H  19.47800 53.71400 21.54200
H  18.75700 54.19100 20.02700
H  20.71500 53.09000 19.20700
H  19.68200 51.66300 19.35000
H  20.77900 51.98400 20.52700
H  21.57200 50.94200 24.25600
H  20.84200 49.49000 25.02300
H  21.91200 50.46600 25.99400
H  18.88800 52.37600 29.74100
H  18.55000 48.64600 31.94300
H  17.67600 49.92500 32.76700
H  19.47900 49.71100 33.05100

