158

Mg 25.58300 0.32100 29.64500
C  27.60200 0.18800 32.47800
C  22.86600 0.80500 31.67400
C  23.69100 0.23800 26.83600
C  28.35800 -0.54000 27.66100
N  25.28000 0.43100 31.87000
C  26.26500 0.38900 32.82700
C  25.81700 0.90200 34.23600
C  24.22500 0.81300 34.00200
C  24.10900 0.73300 32.43300
C  23.67000 -0.41100 34.81500
C  26.29200 2.39500 34.69300
C  27.16500 2.45300 35.96800
H  26.78000 3.31000 37.24600
N  23.53800 0.43300 29.33500
C  22.57500 0.67900 30.33300
C  21.24400 0.80300 29.66900
C  21.52200 0.69100 28.26500
C  22.95200 0.39900 28.06500
C  19.97700 1.11700 30.46700
C  20.57200 0.77800 27.16500
O  20.85100 0.63000 25.99700
C  19.13100 1.20400 27.50900
N  26.00100 -0.02600 27.50500
C  25.07200 0.09100 26.54900
C  25.64200 0.07400 25.17300
C  27.15700 -0.24300 25.44200
C  27.17800 -0.24800 26.98700
C  24.91300 -0.90300 24.12900
C  28.07400 0.86600 24.96000
C  29.42800 0.37500 24.30500
N  27.54200 -0.23100 29.93500
C  28.51800 -0.58600 29.06600
C  29.72900 -0.75200 29.70600
C  29.47400 -0.50900 31.03400
C  28.08600 -0.16000 31.20400
C  31.07200 -1.07800 29.02000
C  30.11500 -0.36800 32.28800
O  31.23900 -0.46800 32.68900
C  28.88400 0.05800 33.32500
C  28.82400 -0.94700 34.52400
O  28.11400 -1.92700 34.53800
O  29.54300 -0.44800 35.62100
C  29.24800 -1.09700 36.92800
H  21.95700 1.10300 32.20000
H  23.09600 0.35600 25.92800
H  29.24100 -0.79600 27.07300
H  26.15800 0.15000 34.94800
H  23.76500 1.76200 34.27500
H  24.40500 -1.15700 35.11900
H  22.98100 -0.92300 34.14400
H  23.22200 -0.00100 35.72000
H  25.43300 3.04400 34.86600
H  26.87600 2.86600 33.90200
H  28.14600 2.87300 35.74700
H  27.41500 1.43500 36.26500
H  19.54100 1.93600 29.89400
H  20.01600 1.36200 31.52800
H  19.31100 0.28000 30.25300
H  18.50600 1.04400 26.63100
H  19.27000 2.27400 27.66600
H  18.58400 0.55300 28.19100
H  25.47500 1.07900 24.78500
H  27.48600 -1.24700 25.17300
H  24.18000 -1.52200 24.64700
H  25.59100 -1.56900 23.59600
H  24.21700 -0.43700 23.43200
H  28.34900 1.53700 25.77300
H  27.62500 1.43900 24.14800
H  29.30500 -0.67100 24.02400
H  30.23300 0.63900 24.99200
H  29.63700 0.92600 23.38800
H  31.95100 -0.75600 29.57900
H  31.12500 -0.59700 28.04400
H  31.13800 -2.16500 28.98300
H  29.25400 1.03400 33.63900
H  28.53100 -0.50200 37.49400
H  30.20800 -1.02300 37.43800
H  28.85100 -2.11200 36.88300
Mg 47.66600 35.08800 27.53500
C  45.67200 33.51200 30.09900
C  48.24000 37.63700 29.88200
C  49.09400 36.75900 25.06400
C  46.84500 32.47000 25.32600
N  47.20700 35.37000 29.80300
C  46.39200 34.59500 30.58800
C  46.64900 34.98700 32.08100
C  47.03800 36.48900 31.86800
C  47.50600 36.56000 30.41500
C  45.91100 37.43000 32.28500
C  47.75900 33.98000 32.63200
C  47.80800 33.79900 34.18600
H  47.11000 34.82700 35.03300
N  48.70100 36.74400 27.54100
C  48.87300 37.66000 28.56000
C  49.65300 38.79200 28.05900
C  49.89500 38.58300 26.71300
C  49.15000 37.30400 26.41100
C  49.98200 40.00100 29.01100
C  50.51700 39.54300 25.66200
O  50.57400 39.33800 24.49600
C  51.07600 40.81900 26.01800
N  47.69700 34.72500 25.46400
C  48.47400 35.53100 24.64300
C  48.48800 35.03100 23.20500
C  47.90000 33.57500 23.36100
C  47.47400 33.54200 24.78300
C  47.71200 35.85100 22.17200
C  48.85000 32.44100 22.86800
C  50.06700 32.10500 23.75400
N  46.59300 33.29800 27.62500
C  46.23700 32.39800 26.62000
C  45.47700 31.28200 27.18300
C  45.19000 31.73400 28.47600
C  45.87900 32.97100 28.78000
C  45.07500 30.02000 26.47000
C  44.44400 31.41400 29.67200
O  43.80400 30.43800 29.90600
C  44.62100 32.56500 30.75700
C  44.85000 32.01200 32.11700
O  45.66800 31.16000 32.40500
O  43.94400 32.54300 33.08000
C  43.91600 31.91500 34.43400
H  48.36900 38.46300 30.58500
H  49.55700 37.31100 24.24400
H  46.60300 31.60800 24.70000
H  45.72400 34.93700 32.65500
H  47.90100 36.83400 32.43700
H  46.32700 38.43300 32.37800
H  45.48500 37.03500 33.20700
H  45.20200 37.58500 31.47200
H  48.78000 34.28500 32.40100
H  47.59300 33.02300 32.13600
H  48.85600 33.74500 34.48100
H  47.37200 32.83900 34.46100
H  49.09000 40.60200 29.19000
H  50.74200 40.72600 28.71900
H  50.30000 39.65700 29.99500
H  50.34400 41.48500 26.47500
H  51.53400 41.25500 25.13000
H  51.92100 40.64500 26.68400
H  49.52800 34.89400 22.91000
H  46.96500 33.28400 22.88100
H  46.81900 35.29800 21.88300
H  48.28500 36.08800 21.27500
H  47.37800 36.77900 22.63700
H  49.15400 32.82300 21.89400
H  48.17400 31.60900 22.67000
H  51.03900 32.49200 23.44600
H  50.11100 31.01500 23.74300
H  49.96800 32.40900 24.79600
H  45.95200 29.37900 26.38500
H  44.63500 30.30000 25.51300
H  44.34300 29.44100 27.03300
H  43.63300 33.01600 30.65900
H  44.33000 32.70100 35.06600
H  44.58400 31.05700 34.49700
H  42.86700 31.69600 34.63600

