158

Mg 25.81700 -0.39300 29.98000
C  27.57900 -0.32700 32.84400
C  22.89300 0.25800 31.63400
C  24.12700 -0.41900 26.90200
C  28.81400 -1.12200 28.09700
N  25.31300 -0.02300 31.96300
C  26.21600 -0.05400 33.08000
C  25.60900 0.31400 34.38700
C  24.12400 0.54400 33.97300
C  24.07600 0.18700 32.41200
C  23.02100 -0.18900 34.79700
C  26.30500 1.56200 35.12900
C  26.82700 1.25600 36.56800
H  26.55200 2.39800 37.57300
N  23.72300 -0.19000 29.36000
C  22.68500 0.17000 30.19800
C  21.48800 0.32000 29.43100
C  21.81500 -0.04300 28.09900
C  23.26300 -0.30000 28.06700
C  20.12400 0.75700 30.04900
C  20.87400 -0.02900 26.78200
O  21.31300 -0.17200 25.68400
C  19.44100 0.27600 26.89900
N  26.39000 -0.74800 27.84600
C  25.53600 -0.54100 26.81000
C  26.21600 -0.50800 25.43500
C  27.72300 -0.59400 25.80500
C  27.65000 -0.89400 27.33900
C  25.68700 -1.61600 24.46000
C  28.56900 0.59400 25.38500
C  27.95100 1.96400 25.07700
N  27.72400 -0.71000 30.34700
C  28.86800 -1.05300 29.50900
C  30.06300 -1.08500 30.44600
C  29.57100 -0.79400 31.68400
C  28.16900 -0.60500 31.57900
C  31.50200 -1.41000 30.10200
C  30.03700 -0.67200 33.09900
O  31.19100 -0.72700 33.48600
C  28.75900 -0.36600 33.89400
C  28.62000 -1.46300 34.87500
O  27.71300 -2.25400 34.93300
O  29.62700 -1.35200 35.81100
C  29.45000 -1.99700 37.11400
H  22.01000 0.53800 32.21300
H  23.61600 -0.16200 25.97200
H  29.84200 -1.21900 27.74300
H  25.70000 -0.52900 35.07100
H  23.89500 1.60700 34.03600
H  23.40500 -0.35900 35.80300
H  22.80500 -1.15300 34.33600
H  22.09700 0.37100 34.93900
H  25.59000 2.37500 35.25700
H  27.09100 2.02400 34.53000
H  27.91600 1.21100 36.58500
H  26.53400 0.25200 36.87700
H  19.24200 0.18100 29.76900
H  19.89300 1.77300 29.72700
H  20.18500 0.84400 31.13400
H  18.89500 -0.46100 27.48700
H  19.12300 0.55600 25.89500
H  19.37700 1.21200 27.45400
H  25.97200 0.41700 24.91200
H  28.22200 -1.45500 25.36000
H  25.50600 -2.59600 24.90200
H  26.47300 -1.68100 23.70800
H  24.79300 -1.22400 23.97500
H  29.04300 0.32900 24.44000
H  29.38500 0.75900 26.08900
H  28.20000 2.36500 24.09500
H  28.41700 2.69600 25.73700
H  26.86800 2.05000 25.15500
H  31.52400 -1.90200 29.13000
H  31.91700 -2.21400 30.71000
H  32.07600 -0.48400 30.06600
H  28.94100 0.55100 34.45400
H  29.48700 -3.08600 37.07800
H  28.60800 -1.64900 37.71200
H  30.27800 -1.76200 37.78300
Mg -5.26600 24.89900 25.98500
C  -3.72700 26.53600 28.53700
C  -6.33900 22.44100 28.22600
C  -6.86100 23.37600 23.48500
C  -3.64300 27.13700 23.78600
N  -5.21500 24.76700 28.09900
C  -4.62900 25.56800 28.96200
C  -4.88000 25.23700 30.40400
C  -5.52000 23.79700 30.26500
C  -5.69100 23.62200 28.76700
C  -4.72200 22.68200 30.94500
C  -5.78000 26.27000 31.06900
C  -5.50700 26.78400 32.49400
H  -5.00200 25.71400 33.42300
N  -6.49100 23.17700 25.89100
C  -6.65900 22.21200 26.89800
C  -7.30700 21.09800 26.39100
C  -7.54300 21.40100 24.95300
C  -7.03300 22.76700 24.72100
C  -7.65100 19.94300 27.27700
C  -8.11900 20.38500 23.91300
O  -8.24400 20.76400 22.74300
C  -8.53300 19.02700 24.39700
N  -5.27000 25.26300 23.92700
C  -6.06900 24.48500 23.08800
C  -5.97900 24.91300 21.59200
C  -4.87400 26.02900 21.72200
C  -4.62700 26.23900 23.23300
C  -5.68300 23.81200 20.53500
C  -5.20400 27.28400 20.94800
C  -4.05900 27.86000 20.05100
N  -3.71000 26.36400 26.04200
C  -3.15700 27.15900 25.07200
C  -2.21300 28.05200 25.77300
C  -2.36600 27.84000 27.12900
C  -3.36900 26.84400 27.22400
C  -1.34200 29.06700 25.13600
C  -1.99100 28.26800 28.43900
O  -1.15000 29.11400 28.87800
C  -2.84700 27.41400 29.42100
C  -1.85400 26.72700 30.31700
O  -0.91800 26.08700 29.87800
O  -2.06700 27.12100 31.59300
C  -1.03400 26.71700 32.53200
H  -6.67000 21.83800 29.07400
H  -7.29700 22.83800 22.64100
H  -3.25700 27.90400 23.11100
H  -3.91800 25.19000 30.91500
H  -6.49500 23.71600 30.74600
H  -4.26800 23.11900 31.83500
H  -3.96100 22.23100 30.30800
H  -5.36600 21.83900 31.19600
H  -6.72000 25.75000 31.25300
H  -5.97400 27.14100 30.44300
H  -6.25300 27.39500 33.00200
H  -4.61600 27.37700 32.28900
H  -7.10900 19.08500 26.87900
H  -8.71000 19.69500 27.22100
H  -7.52800 19.87300 28.35800
H  -9.14500 18.55200 23.63000
H  -9.28100 19.15000 25.18000
H  -7.82300 18.27400 24.73800
H  -6.93300 25.38700 21.36300
H  -3.94900 25.53100 21.43100
H  -5.39900 22.87400 21.01300
H  -4.86200 24.11500 19.88500
H  -6.58500 23.77700 19.92300
H  -5.81300 28.00500 21.49200
H  -5.83800 26.88900 20.15400
H  -4.47700 28.41600 19.21100
H  -3.39100 27.17100 19.53400
H  -3.31500 28.38300 20.65300
H  -0.31400 28.92900 25.47000
H  -1.61000 30.04600 25.53400
H  -1.48800 29.08100 24.05600
H  -3.30700 28.16000 30.06900
H  -1.42400 27.28600 33.37500
H  -0.01400 27.08000 32.40500
H  -0.99800 25.64400 32.72100

