158

Mg 17.53900 -0.99800 27.87100
C  16.50100 0.83600 30.65000
C  19.67800 -2.78000 29.91500
C  19.29600 -2.10600 25.14600
C  15.65900 1.18400 25.76600
N  17.99200 -0.91000 29.95700
C  17.45100 -0.09200 30.96000
C  17.92700 -0.48100 32.33800
C  19.17600 -1.45900 32.07000
C  18.91200 -1.77000 30.56400
C  20.61100 -0.89900 32.36300
C  16.85900 -1.04700 33.28900
C  16.82800 -0.42600 34.67900
H  18.17600 -0.17400 35.28900
N  19.16200 -2.40900 27.57700
C  19.80300 -3.13800 28.56100
C  20.73400 -4.09400 27.91400
C  20.56000 -3.83900 26.50900
C  19.72200 -2.69100 26.36900
C  21.68100 -4.97400 28.78700
C  21.25000 -4.51700 25.45100
O  21.19400 -4.17900 24.25100
C  21.89200 -5.83800 25.75200
N  17.49700 -0.47400 25.83500
C  18.38100 -0.97800 24.94100
C  18.15500 -0.50600 23.50800
C  16.81200 0.30800 23.70700
C  16.63900 0.35000 25.18800
C  19.35200 0.31200 22.80500
C  15.49300 -0.05500 22.94000
C  15.42200 0.55400 21.47800
N  16.19700 0.51600 28.10900
C  15.46200 1.30600 27.20400
C  14.65900 2.23600 27.93700
C  14.96000 2.06900 29.34400
C  15.95300 1.03100 29.34300
C  13.82200 3.37500 27.31000
C  14.70700 2.53800 30.65800
O  14.04200 3.48300 31.02600
C  15.65700 1.68700 31.59100
C  16.44900 2.68800 32.34700
O  17.52400 3.13700 31.97600
O  15.71400 3.02500 33.45400
C  16.29500 3.98400 34.37900
H  20.30900 -3.29900 30.64000
H  19.69300 -2.54100 24.22600
H  15.08300 1.88500 25.15800
H  18.33400 0.41200 32.81400
H  19.00300 -2.36200 32.65500
H  20.95400 -1.50800 33.19900
H  20.57600 0.15600 32.63500
H  21.35000 -0.95800 31.56400
H  17.13700 -2.10000 33.30200
H  15.94400 -0.92100 32.70900
H  16.29400 -1.06400 35.38300
H  16.19400 0.45200 34.55600
H  21.59500 -4.66400 29.82800
H  22.72200 -4.78500 28.52700
H  21.32500 -5.98900 28.61000
H  21.14100 -6.51500 26.16000
H  22.84500 -5.79400 26.27900
H  22.26500 -6.18900 24.79000
H  17.86600 -1.35700 22.89000
H  17.17200 1.31500 23.49600
H  20.19100 0.50700 23.47300
H  18.95900 1.24800 22.40700
H  19.70500 -0.30200 21.97700
H  14.57800 0.22400 23.46300
H  15.63500 -1.10500 22.68300
H  14.81000 1.45600 21.47100
H  15.26200 -0.21000 20.71700
H  16.43100 0.89200 21.24100
H  12.78600 3.17800 27.58300
H  13.79100 3.35800 26.22000
H  14.21100 4.35700 27.58000
H  14.94200 1.07700 32.14200
H  17.00400 3.34000 34.90000
H  15.48500 4.23000 35.06600
H  16.63100 4.85100 33.81000
Mg 25.73700 1.69900 29.67300
C  27.87900 1.38600 32.28500
C  23.19400 2.20200 31.66400
C  23.86800 1.81100 26.88800
C  28.60400 0.89100 27.49600
N  25.62200 1.84300 31.75500
C  26.66200 1.81300 32.66500
C  26.13800 2.06000 34.09100
C  24.53600 2.03000 33.87300
C  24.40500 2.06400 32.34300
C  23.84800 0.84900 34.51800
C  26.64300 3.43100 34.77500
C  27.49000 3.29900 36.07200
H  27.35300 4.20300 37.34400
N  23.78900 2.03900 29.31700
C  22.84000 2.17400 30.31600
C  21.54300 2.20300 29.64000
C  21.73300 2.12300 28.25900
C  23.18300 2.01000 28.11000
C  20.21000 2.19300 30.34100
C  20.69100 1.88800 27.18600
O  21.00300 1.58300 26.02100
C  19.21400 2.16000 27.40700
N  26.21300 1.27400 27.39100
C  25.19500 1.46100 26.57200
C  25.77000 1.47800 25.18000
C  27.30300 1.17600 25.31400
C  27.40400 1.16300 26.84700
C  25.03800 0.53300 24.18400
C  28.33700 2.12500 24.61700
C  29.54700 1.45300 23.90000
N  27.69200 1.07600 29.75400
C  28.74200 0.85300 28.86800
C  29.95900 0.50000 29.59400
C  29.65600 0.72300 30.91200
C  28.27700 1.08800 30.97500
C  31.22000 -0.04400 29.02300
C  30.17400 0.57300 32.21200
O  31.24700 0.09300 32.54600
C  29.00700 1.06100 33.24400
C  28.62400 -0.01400 34.22700
O  28.07600 -1.05400 33.97300
O  29.13900 0.33700 35.42700
C  28.73000 -0.59200 36.48200
H  22.42800 2.61800 32.32200
H  23.27300 1.88100 25.97500
H  29.40700 0.76000 26.76900
H  26.35400 1.25700 34.79600
H  24.13600 2.90600 34.38400
H  23.19300 1.39600 35.19600
H  24.49200 0.04100 34.86600
H  23.13600 0.39300 33.82900
H  25.79000 4.05200 35.04900
H  27.28100 4.08000 34.17500
H  28.46300 3.39800 35.59200
H  27.49700 2.24800 36.36200
H  19.64700 3.09600 30.10200
H  20.32100 2.01500 31.41000
H  19.75100 1.30100 29.91500
H  19.06100 3.05800 28.00600
H  18.78400 1.30400 27.92800
H  18.70600 2.16500 26.44300
H  25.74600 2.52900 24.89400
H  27.49700 0.21300 24.84100
H  24.00900 0.89300 24.15400
H  25.03700 -0.50300 24.52100
H  25.37500 0.58100 23.14800
H  28.63400 2.83400 25.39000
H  27.81900 2.75200 23.89100
H  30.27900 1.34600 24.70100
H  30.00700 2.06400 23.12400
H  29.26500 0.49700 23.46000
H  31.54800 -0.71200 29.81900
H  31.93200 0.74500 28.77900
H  31.17100 -0.64900 28.11800
H  29.26500 1.95500 33.81000
H  27.98200 -0.03200 37.04400
H  29.59200 -0.70300 37.13900
H  28.30000 -1.53500 36.14500

