158

Mg 24.65400 -7.91000 48.04800
C  27.19600 -6.01500 46.98600
C  22.70100 -6.65300 45.47600
C  22.50600 -10.33200 48.62300
C  27.07600 -9.78900 50.13700
N  24.99400 -6.58100 46.31000
C  26.05800 -5.70400 46.29400
C  25.77600 -4.67500 45.16200
C  24.25600 -4.73000 44.96600
C  23.90900 -6.04600 45.66200
C  23.48000 -3.46000 45.28300
C  26.53300 -4.93500 43.79800
C  26.88300 -3.66600 42.99200
H  26.18900 -3.50200 41.64200
N  22.82200 -8.35600 47.29400
C  22.11700 -7.69600 46.21400
C  20.86100 -8.31300 46.04400
C  20.85900 -9.51600 46.80700
C  22.08600 -9.44000 47.63100
C  19.82100 -7.60600 45.15400
C  19.83000 -10.49100 46.71600
O  18.79500 -10.32600 46.08600
C  19.94200 -11.82800 47.46200
N  24.79300 -9.87800 49.30300
C  23.63500 -10.60700 49.39800
C  23.91600 -11.86400 50.20100
C  25.34500 -11.67600 50.81500
C  25.76500 -10.37100 50.07200
C  22.80700 -12.39500 51.18900
C  26.41000 -12.78900 50.56200
C  27.31600 -12.94400 51.77100
N  26.73200 -7.94000 48.54400
C  27.54900 -8.75600 49.29900
C  28.89300 -8.21100 49.30900
C  28.75600 -7.12000 48.41200
C  27.44800 -7.04300 47.92500
C  30.08200 -8.80600 50.06300
C  29.55000 -6.01400 47.81600
O  30.74100 -5.83800 47.83600
C  28.51200 -5.22200 46.84200
C  28.27700 -3.88900 47.40100
O  27.35200 -3.50400 48.16000
O  29.26100 -3.02200 46.82200
C  29.17000 -1.67300 47.13000
H  22.03000 -6.24400 44.71800
H  21.85400 -11.18800 48.80600
H  27.79800 -10.04200 50.91600
H  25.95400 -3.73500 45.68400
H  24.10200 -4.83100 43.89200
H  24.16400 -2.80400 45.82000
H  22.63600 -3.77800 45.89400
H  23.11900 -2.89500 44.42200
H  25.97300 -5.60900 43.14900
H  27.46900 -5.43000 44.05400
H  27.96900 -3.57300 42.96100
H  26.41000 -2.86900 43.56600
H  19.82500 -6.56000 45.46200
H  18.80500 -7.89500 45.42400
H  19.95000 -7.72000 44.07800
H  20.83600 -12.34200 47.10900
H  19.01100 -12.35600 47.25600
H  19.95800 -11.71800 48.54700
H  23.94300 -12.66400 49.46100
H  25.22400 -11.53400 51.88900
H  22.08400 -11.61200 51.41700
H  23.20800 -12.67900 52.16200
H  22.27200 -13.25700 50.78900
H  26.96800 -12.45700 49.68600
H  25.92200 -13.73700 50.33200
H  26.58800 -12.78400 52.56600
H  28.13400 -12.24700 51.95400
H  27.65700 -13.97900 51.76500
H  29.77600 -8.74100 51.10700
H  30.93800 -8.15100 49.90100
H  30.22600 -9.86100 49.82900
H  28.99100 -5.25500 45.86400
H  30.16600 -1.24600 47.24700
H  28.65400 -1.44300 48.06200
H  28.78700 -1.07700 46.30200
Mg 0.08100 43.58900 26.16400
C  2.34700 42.88700 28.81300
C  -2.31100 42.17400 28.24800
C  -2.11500 43.54400 23.72100
C  2.70700 44.19600 23.99600
N  0.09100 42.76300 28.30100
C  1.07000 42.79600 29.27700
C  0.50700 42.31600 30.58600
C  -0.95300 41.94200 30.29100
C  -1.09100 42.32600 28.85600
C  -1.46000 40.48100 30.65300
C  0.47400 43.57500 31.57500
C  -0.19600 43.45000 32.97300
H  -0.55100 42.07100 33.54400
N  -2.05800 43.08600 26.01600
C  -2.79100 42.49000 26.95500
C  -4.18100 42.25500 26.49200
C  -4.14900 42.61500 25.14000
C  -2.76900 43.11900 24.90400
C  -5.24800 41.79900 27.41300
C  -5.32300 42.66400 24.11200
O  -5.22100 42.94000 22.93700
C  -6.70300 42.36400 24.56500
N  0.27400 43.91700 24.19100
C  -0.80200 43.95400 23.38700
C  -0.42900 44.21500 21.85000
C  1.05800 44.53400 22.02100
C  1.39600 44.21100 23.49800
C  -0.68700 42.97100 20.91600
C  1.53200 45.92800 21.69500
C  1.26100 47.14000 22.57900
N  2.16000 43.67800 26.34600
C  3.08900 43.92500 25.31900
C  4.43800 43.72400 25.95500
C  4.13500 43.42900 27.30300
C  2.77900 43.28900 27.47600
C  5.74300 43.93400 25.21400
C  4.86400 43.06200 28.49700
O  6.02200 42.94600 28.75200
C  3.63200 42.89500 29.62000
C  3.85600 41.74600 30.56500
O  3.68400 40.64700 30.20100
O  4.10200 42.16200 31.91800
C  4.29600 40.95800 32.83400
H  -3.06500 41.81100 28.95000
H  -2.75200 43.43800 22.84100
H  3.42800 44.58500 23.27500
H  1.11900 41.47900 30.92200
H  -1.55400 42.60100 30.91900
H  -0.71900 39.94600 31.24600
H  -1.77000 39.80100 29.85900
H  -2.32500 40.49900 31.31700
H  -0.05900 44.32500 30.99100
H  1.47800 43.96300 31.74800
H  -1.10600 44.03300 33.11200
H  0.54900 43.92900 33.60800
H  -5.64000 42.74000 27.79900
H  -4.95900 41.08100 28.18000
H  -6.11300 41.40000 26.88300
H  -6.95600 42.82400 25.52000
H  -6.71200 41.27800 24.66100
H  -7.48400 42.67600 23.87200
H  -1.02400 45.03500 21.44800
H  1.60800 43.84700 21.37800
H  0.23500 42.70600 20.39700
H  -1.55400 43.16700 20.28500
H  -0.95200 42.11100 21.53200
H  1.11600 46.24400 20.73800
H  2.60000 45.86500 21.48800
H  0.95500 47.95900 21.92900
H  2.23800 47.40200 22.98700
H  0.63100 46.95900 23.45100
H  5.50000 44.78600 24.57900
H  6.17800 43.16700 24.57300
H  6.50400 44.16700 25.95900
H  3.66300 43.79100 30.24000
H  3.68900 40.07100 32.65600
H  4.24300 41.24300 33.88500
H  5.32300 40.60700 32.73800

