158

Mg 24.36300 -5.36300 46.68100
C  26.72900 -3.40300 44.87900
C  22.01900 -4.29100 44.36800
C  22.43000 -7.95400 47.57100
C  27.14100 -6.68400 48.43200
N  24.35500 -4.02800 44.87100
C  25.42700 -3.36800 44.36300
C  25.06800 -2.52600 43.07500
C  23.45500 -2.62700 43.08400
C  23.25700 -3.71800 44.14900
C  22.77700 -1.31500 43.38400
C  25.58900 -3.21600 41.77900
C  26.61600 -2.54000 40.93000
H  26.21900 -2.11700 39.50400
N  22.38100 -5.87700 46.27800
C  21.60500 -5.23500 45.27900
C  20.36300 -5.96400 45.25400
C  20.44200 -7.13800 46.07000
C  21.73800 -7.02300 46.70600
C  19.21200 -5.53100 44.42800
C  19.35000 -8.19200 46.22000
O  18.24400 -8.03500 45.69800
C  19.57400 -9.33100 47.04500
N  24.75800 -7.11200 47.74600
C  23.74700 -7.98300 48.10600
C  24.36400 -9.19900 48.88900
C  25.78100 -8.71000 49.22300
C  25.88800 -7.45300 48.39700
C  23.54100 -9.77800 50.09600
C  26.88500 -9.82300 49.01100
C  27.36400 -10.54100 50.28200
N  26.47700 -4.92600 46.91000
C  27.43700 -5.53900 47.63600
C  28.68700 -4.88400 47.46200
C  28.45400 -4.08000 46.30700
C  27.12000 -4.12200 46.06300
C  29.95100 -5.13200 48.23400
C  29.13700 -3.13800 45.39500
O  30.28800 -2.76600 45.41600
C  27.97900 -2.57300 44.38800
C  27.91600 -1.09700 44.58400
O  27.05800 -0.47300 45.24100
O  28.83400 -0.42100 43.81300
C  28.79400 0.99400 43.71700
H  21.24400 -4.01900 43.64900
H  21.85300 -8.84300 47.83200
H  27.74800 -7.22000 49.16400
H  25.33000 -1.46900 43.04300
H  23.05000 -3.02200 42.15200
H  22.59100 -1.43700 44.45100
H  21.85500 -1.34300 42.80200
H  23.43800 -0.45900 43.25400
H  24.71900 -3.42700 41.15800
H  26.09900 -4.15100 42.01200
H  27.49600 -3.18400 40.92400
H  26.91200 -1.56100 41.30900
H  18.50900 -4.98000 45.05200
H  18.55000 -6.35600 44.16400
H  19.46200 -4.93100 43.55300
H  18.71900 -9.98800 47.20400
H  19.84800 -8.92800 48.02000
H  20.39300 -9.94200 46.66600
H  24.27100 -9.97100 48.12400
H  25.79200 -8.32200 50.24200
H  22.63900 -9.19100 50.26600
H  24.14400 -9.71000 51.00100
H  23.37200 -10.82400 49.84000
H  27.77600 -9.28400 48.69300
H  26.64600 -10.57200 48.25600
H  27.37600 -11.62000 50.12400
H  26.79500 -10.28800 51.17700
H  28.34100 -10.18300 50.60700
H  30.69300 -5.86900 47.92500
H  29.48600 -5.39100 49.18500
H  30.41600 -4.15600 48.37600
H  28.10100 -2.77700 43.32400
H  28.85900 1.08700 42.63300
H  29.62300 1.42200 44.28000
H  27.90600 1.51000 44.08300
Mg 26.16800 50.32700 26.94600
C  24.04600 51.78900 29.56200
C  28.08500 49.14100 29.46800
C  28.26800 49.26300 24.68900
C  24.50200 52.25300 24.65100
N  25.99200 50.32200 29.26500
C  25.00000 50.91900 30.03500
C  25.19100 50.50900 31.48900
C  26.64400 50.03100 31.51200
C  27.03000 49.88700 29.98000
C  27.66500 51.01900 32.17500
C  24.04900 49.52300 31.98800
C  23.62500 49.62200 33.53100
H  24.44200 50.25200 34.67400
N  27.95500 49.30000 27.01200
C  28.57000 48.90700 28.17200
C  29.76400 48.15500 27.78100
C  29.88900 48.16200 26.38700
C  28.69100 48.86700 25.96200
C  30.60900 47.45000 28.77400
C  30.91100 47.62500 25.45400
O  30.71000 47.63900 24.19400
C  32.19900 47.03700 26.02600
N  26.34400 50.70200 25.00200
C  27.22200 50.03400 24.21600
C  26.96300 50.17200 22.71500
C  25.69200 51.02200 22.74100
C  25.51500 51.39300 24.21900
C  27.99600 50.57500 21.66300
C  24.46600 50.44500 22.08100
C  23.41500 51.40700 21.37000
N  24.56500 51.68000 27.02200
C  23.97500 52.47500 25.98300
C  22.82400 53.18200 26.44600
C  22.90500 53.00700 27.86700
C  23.96100 52.08700 28.20100
C  21.93300 53.98100 25.59700
C  22.19200 53.35200 29.12800
O  21.17200 53.98400 29.28300
C  23.01800 52.63600 30.29100
C  23.71100 53.59100 31.28400
O  24.65300 54.32500 30.99600
O  23.00100 53.68400 32.48300
C  23.65400 54.45700 33.48700
H  28.65900 48.71400 30.29300
H  28.77600 48.84200 23.81900
H  23.88000 52.65900 23.85000
H  25.17900 51.46300 32.01600
H  26.67900 49.03400 31.95100
H  27.10400 51.52800 32.95900
H  28.05800 51.82500 31.55600
H  28.42400 50.45700 32.71900
H  24.26200 48.45700 31.91500
H  23.15500 49.66300 31.38100
H  23.21500 48.63500 33.74900
H  22.83100 50.36400 33.44700
H  31.62600 47.81000 28.62200
H  30.59000 46.37900 28.57100
H  30.29000 47.59100 29.80700
H  32.69100 47.77200 26.66300
H  32.76800 46.59300 25.21000
H  31.81900 46.26400 26.69400
H  26.65300 49.14600 22.51600
H  25.74200 51.99900 22.26000
H  27.79700 51.56700 21.25800
H  27.79900 49.83400 20.88900
H  29.02100 50.49900 22.02700
H  23.90500 49.80400 22.76100
H  24.74300 49.69800 21.33700
H  23.28800 51.11700 20.32700
H  23.80700 52.42400 21.36700
H  22.45500 51.31300 21.87700
H  22.02200 53.77900 24.53000
H  22.01800 55.01600 25.92800
H  20.93600 53.69700 25.93300
H  22.35100 51.91300 30.75900
H  23.95100 55.43400 33.10500
H  24.62900 53.98400 33.61000
H  23.02100 54.48700 34.37400

