158

Mg 7.25500 2.70900 27.74400
C  8.81200 1.38100 30.58400
C  5.64200 4.88100 29.75000
C  5.44800 3.60900 24.96500
C  8.60100 0.09600 25.91200
N  7.25300 3.13200 30.04300
C  8.05900 2.43500 30.97800
C  7.87900 3.18100 32.36000
C  6.77900 4.26800 32.06700
C  6.49400 4.10200 30.55800
C  5.41000 4.08100 32.85000
C  9.24100 3.80800 32.91500
C  9.61400 3.38400 34.34300
H  10.26200 4.48600 35.21800
N  5.90000 4.08100 27.36800
C  5.42100 4.98200 28.30900
C  4.66800 5.90500 27.68100
C  4.59400 5.58700 26.28600
C  5.31800 4.30200 26.13900
C  4.07400 7.06000 28.37900
C  3.96000 6.39400 25.14400
O  3.92800 6.02700 24.00500
C  3.40300 7.68400 25.36500
N  6.93200 1.88300 25.72600
C  6.21600 2.50000 24.80900
C  6.32300 1.71500 23.50500
C  7.49200 0.72800 23.68600
C  7.63900 0.90500 25.22700
C  4.99800 0.93200 23.02500
C  8.78200 1.08100 22.92600
C  9.62400 -0.01000 22.15800
N  8.46500 1.08000 28.12300
C  8.94400 0.05500 27.27900
C  9.82800 -0.85400 28.01800
C  9.89600 -0.32100 29.25900
C  9.01600 0.88700 29.30300
C  10.42200 -2.03700 27.37700
C  10.46600 -0.51200 30.59700
O  11.24200 -1.40500 30.92700
C  9.81000 0.58000 31.45300
C  9.16200 0.03700 32.65600
O  8.14200 -0.59000 32.70500
O  9.92800 0.25400 33.75300
C  9.60500 -0.24100 35.06700
H  5.03500 5.56800 30.34500
H  4.83900 3.75500 24.07100
H  9.07300 -0.62000 25.23600
H  7.44000 2.31500 32.85500
H  7.15200 5.25700 32.33600
H  5.54200 3.44500 33.72500
H  4.61900 3.71700 32.19500
H  4.96300 5.02200 33.17200
H  9.11800 4.88700 33.00100
H  10.11500 3.53600 32.32400
H  10.36000 2.59600 34.43900
H  8.73800 2.99600 34.86400
H  4.61900 7.98500 28.18900
H  4.00200 7.03800 29.46600
H  3.02300 7.18200 28.11700
H  2.37600 7.67300 25.73100
H  3.56700 8.20900 24.42400
H  3.96500 8.23600 26.11900
H  6.40400 2.45200 22.70600
H  7.18000 -0.31000 23.57500
H  5.11900 -0.04600 22.56100
H  4.59500 1.54200 22.21600
H  4.28500 0.99700 23.84800
H  9.52500 1.54700 23.57400
H  8.56400 1.84900 22.18400
H  9.65200 -1.01300 22.58400
H  10.64400 0.36500 22.08200
H  9.26200 -0.19000 21.14600
H  11.25000 -1.65100 26.78100
H  9.84100 -2.56100 26.61800
H  10.66000 -2.76400 28.15300
H  10.63400 1.14800 31.88400
H  8.94400 -1.10700 35.04100
H  8.95900 0.52500 35.49700
H  10.51000 -0.50300 35.61500
Mg 17.27900 51.95000 27.01400
C  19.42600 50.75800 29.59200
C  15.10800 52.58200 29.44800
C  15.18900 52.84100 24.51700
C  19.62900 50.81600 24.62700
N  17.33400 51.79000 29.28700
C  18.32100 51.33700 30.08400
C  17.93600 51.37400 31.52800
C  16.38700 51.63900 31.42700
C  16.23400 52.01300 29.96500
C  15.40700 50.45900 31.71100
C  18.75700 52.48900 32.27400
C  18.40800 52.92400 33.73200
H  17.59400 52.02300 34.66300
N  15.37500 52.80500 26.94300
C  14.64800 53.00500 28.11500
C  13.31900 53.48300 27.71400
C  13.35100 53.61900 26.26100
C  14.66600 53.05100 25.80500
C  12.27200 53.92100 28.68800
C  12.36200 54.25500 25.32400
O  12.47600 54.41800 24.13500
C  11.14500 54.89000 25.96700
N  17.44000 51.84800 24.83600
C  16.38900 52.31100 24.04400
C  16.61700 52.07400 22.54500
C  18.21400 51.77100 22.59500
C  18.46800 51.42900 24.08900
C  15.70600 50.94200 22.00500
C  19.08000 52.92600 21.93800
C  20.42100 52.51500 21.46800
N  19.08200 50.87300 27.06200
C  19.95400 50.58100 26.02500
C  21.11200 49.87700 26.60100
C  20.96700 49.88900 28.00400
C  19.72300 50.57800 28.25300
C  22.28600 49.38300 25.87500
C  21.60900 49.59400 29.25600
O  22.65100 49.01600 29.46300
C  20.59600 49.91600 30.30400
C  20.14900 48.61300 30.85400
O  19.70000 47.65500 30.20100
O  20.20900 48.61700 32.22900
C  19.83300 47.42800 33.00900
H  14.41500 52.80700 30.26100
H  14.41500 53.10000 23.79100
H  20.43100 50.39100 24.01900
H  18.16900 50.38900 31.93300
H  16.07900 52.39400 32.15100
H  14.74500 50.81300 32.50200
H  15.89800 49.53600 32.01900
H  14.83900 50.25600 30.80300
H  18.57600 53.35000 31.63000
H  19.81100 52.21300 32.28700
H  17.86600 53.86900 33.70300
H  19.42300 53.03400 34.11500
H  11.30500 53.46400 28.47500
H  12.17900 54.98600 28.47700
H  12.58100 53.76600 29.72200
H  11.40600 55.71800 26.62600
H  10.60100 54.13100 26.53000
H  10.56800 55.32300 25.15000
H  16.49800 53.06200 22.10000
H  18.47600 50.86100 22.05400
H  14.95300 51.35700 21.33500
H  15.08400 50.39800 22.71500
H  16.34100 50.20300 21.51500
H  19.25400 53.68300 22.70300
H  18.64000 53.52100 21.13800
H  20.56600 51.44200 21.59600
H  21.20900 53.08700 21.95900
H  20.51300 52.81300 20.42400
H  22.64500 48.44300 26.29500
H  23.14300 50.03600 26.04300
H  22.07700 49.24800 24.81400
H  21.06700 50.52400 31.07800
H  20.48900 46.56400 32.90200
H  18.93900 46.97700 32.57800
H  19.69200 47.55400 34.08300

