158

Mg 24.16900 -7.64000 47.09400
C  26.82800 -5.67700 46.25600
C  22.35700 -6.49100 44.48600
C  21.80600 -9.87400 47.80800
C  26.43500 -9.52500 49.28500
N  24.61600 -6.29800 45.56100
C  25.65000 -5.41100 45.46800
C  25.53700 -4.49500 44.22800
C  23.98500 -4.64700 43.87100
C  23.66400 -5.99600 44.66700
C  23.08300 -3.40800 44.12300
C  26.47900 -4.75700 43.00900
C  27.23300 -3.46300 42.53600
H  26.99500 -3.05500 41.10800
N  22.34200 -8.03000 46.30700
C  21.76500 -7.45900 45.21900
C  20.40300 -7.82100 45.14100
C  20.19600 -8.77400 46.17000
C  21.50200 -8.97300 46.82100
C  19.46200 -7.20900 44.10800
C  18.91800 -9.53800 46.42500
O  17.87600 -9.34900 45.73300
C  18.67800 -10.51300 47.62800
N  24.16100 -9.55000 48.28200
C  23.01500 -10.27900 48.37100
C  23.22000 -11.46500 49.38000
C  24.62900 -11.20800 49.96000
C  25.13600 -10.04600 49.13900
C  22.12300 -11.72300 50.40200
C  25.55900 -12.44600 49.99000
C  26.33000 -12.71200 51.36500
N  26.26500 -7.63900 47.74100
C  26.99100 -8.40000 48.56500
C  28.29300 -7.79100 48.68100
C  28.29100 -6.71900 47.81900
C  27.02700 -6.70100 47.24000
C  29.34600 -8.37400 49.55500
C  29.00500 -5.57100 47.25800
O  30.10600 -5.14600 47.47000
C  28.09600 -4.89900 46.14600
C  27.78900 -3.51900 46.55400
O  27.36200 -3.12600 47.63100
O  28.05100 -2.75500 45.52000
C  27.76000 -1.31300 45.55000
H  21.81800 -5.92900 43.72000
H  21.00700 -10.53800 48.14500
H  27.13500 -10.14800 49.84700
H  25.80500 -3.50600 44.59900
H  23.86100 -4.69600 42.78900
H  23.75500 -2.64300 44.51300
H  22.25700 -3.72500 44.75900
H  22.60100 -3.05900 43.20900
H  25.87100 -5.28500 42.27600
H  27.13900 -5.57100 43.30800
H  28.30600 -3.59200 42.68000
H  26.98100 -2.57300 43.11100
H  19.40600 -7.94200 43.30300
H  19.86400 -6.25600 43.76400
H  18.52300 -7.15300 44.65700
H  19.04700 -10.18500 48.60000
H  19.27100 -11.39600 47.38800
H  17.62700 -10.79800 47.58400
H  23.37500 -12.36100 48.78000
H  24.54600 -10.77800 50.95800
H  22.38100 -11.34400 51.39100
H  21.89800 -12.78700 50.47000
H  21.21600 -11.20800 50.08500
H  26.32600 -12.20900 49.25200
H  25.06100 -13.34700 49.63200
H  26.44400 -13.77100 51.59700
H  25.75500 -12.32300 52.20600
H  27.30900 -12.23500 51.35000
H  30.32300 -7.89000 49.52800
H  29.44700 -9.41500 49.25100
H  28.76100 -8.22600 50.46300
H  28.59600 -4.99800 45.18300
H  27.98200 -0.84700 44.59100
H  28.20800 -0.86900 46.43900
H  26.68700 -1.15400 45.44100
Mg 7.56500 53.70200 41.59600
C  7.02900 50.22500 41.51400
C  10.77400 53.18300 40.49900
C  7.79800 57.01900 41.04900
C  4.35000 53.98000 42.72700
N  8.65500 51.89700 40.99200
C  8.29400 50.58300 40.95700
C  9.48300 49.63900 40.73000
C  10.64500 50.64300 40.81100
C  10.00200 52.03600 40.80800
C  11.60400 50.43700 42.00100
C  9.46100 49.00300 39.32700
C  9.08900 49.88100 38.16100
H  7.84300 49.39700 37.36300
N  9.01400 54.93100 40.66900
C  10.33700 54.52000 40.40100
C  11.13400 55.64200 40.09600
C  10.36800 56.82300 40.42100
C  8.99300 56.31400 40.70000
C  12.51100 55.58200 39.63800
C  10.91700 58.26300 40.37700
O  12.06900 58.49200 40.06600
C  9.97900 59.36900 40.55500
N  6.19400 55.21600 41.63200
C  6.45800 56.56100 41.41500
C  5.35600 57.43600 41.93200
C  4.17900 56.44000 42.08400
C  4.97700 55.11800 42.23800
C  5.78100 58.06800 43.22600
C  3.24800 56.47700 40.84900
C  1.98900 57.19900 41.10000
N  6.04900 52.40800 42.23400
C  4.77400 52.66000 42.70900
C  4.08100 51.42200 43.01300
C  4.92600 50.43400 42.65400
C  6.07200 51.08700 42.03200
C  2.75300 51.35000 43.68200
C  5.15900 49.02100 42.59500
O  4.42500 48.07200 42.89900
C  6.41200 48.89900 41.64500
C  6.07300 48.24500 40.36100
O  5.51000 48.75700 39.43000
O  6.48600 46.97300 40.50100
C  6.28500 46.10300 39.39700
H  11.84500 53.16000 40.28700
H  7.72500 58.10800 41.06200
H  3.30800 54.04900 43.04800
H  9.39800 48.81000 41.43200
H  11.30300 50.66100 39.94200
H  11.75500 51.36500 42.55200
H  12.52600 50.20900 41.46400
H  11.23900 49.54300 42.50700
H  8.75700 48.17000 39.34500
H  10.44000 48.57700 39.10700
H  9.94900 49.74600 37.50500
H  8.88400 50.92900 38.38400
H  12.64100 55.85300 38.59100
H  12.92200 54.57200 39.64900
H  13.18000 56.10900 40.31800
H  9.08400 59.30500 39.93600
H  10.56000 60.25000 40.28500
H  9.65000 59.32400 41.59400
H  5.27500 58.22900 41.18900
H  3.58400 56.58700 42.98500
H  5.54700 59.13200 43.18400
H  6.83500 57.83600 43.37700
H  5.19800 57.67000 44.05700
H  3.08700 55.49800 40.39700
H  3.73600 57.01500 40.03700
H  1.99300 57.65900 42.08800
H  1.21200 56.45300 40.93500
H  1.95800 58.02500 40.38900
H  2.50900 52.10000 44.43500
H  2.66800 50.33700 44.07500
H  1.92600 51.47700 42.98300
H  7.09800 48.20800 42.13500
H  6.64500 46.52700 38.46000
H  5.26100 45.91500 39.07400
H  6.82500 45.18400 39.62600

