158

Mg 47.96600 34.70600 26.95500
C  46.51800 33.34500 29.70200
C  48.01500 37.82300 28.60800
C  49.09300 36.05100 24.19800
C  47.33000 31.61900 25.21500
N  47.37800 35.43200 28.97300
C  46.84900 34.67400 29.94700
C  46.76500 35.40600 31.29700
C  46.98300 36.83800 30.81900
C  47.46400 36.72800 29.34500
C  45.87800 37.76000 31.02200
C  47.81400 34.88700 32.35900
C  47.41000 34.84200 33.83300
H  46.33200 35.89000 34.35900
N  48.66600 36.61800 26.48600
C  48.63100 37.74500 27.31600
C  49.35700 38.80600 26.59800
C  49.64000 38.31900 25.25000
C  49.11400 36.94700 25.24900
C  49.63400 40.09700 27.38900
C  50.32500 38.89700 24.06600
O  50.64100 38.27000 23.06000
C  50.71300 40.28800 24.13400
N  47.95700 34.02100 24.95300
C  48.61100 34.80300 24.02900
C  48.80200 34.05700 22.72000
C  48.30400 32.62700 23.05600
C  47.79300 32.74900 24.47400
C  48.13400 34.74900 21.42100
C  49.40300 31.56100 22.99200
C  50.64000 31.72200 24.01500
N  47.13300 32.86100 27.37200
C  46.90600 31.67500 26.53400
C  46.29600 30.67800 27.40400
C  46.00500 31.33400 28.61700
C  46.58900 32.60300 28.53900
C  45.94700 29.20700 27.11400
C  45.29600 31.19800 29.83700
O  44.62200 30.27500 30.28400
C  45.49700 32.52100 30.58300
C  45.65700 32.26700 32.01100
O  46.51200 31.48300 32.47300
O  44.57100 32.74700 32.70700
C  44.21000 32.35900 34.16000
H  48.20500 38.77000 29.11800
H  49.45800 36.36900 23.21900
H  47.30800 30.71200 24.60700
H  45.76300 35.32400 31.71700
H  47.85500 37.28300 31.29900
H  46.20600 38.72900 31.39600
H  45.07400 37.40400 31.66600
H  45.30900 37.94200 30.11000
H  48.78600 35.32700 32.13800
H  47.99900 33.85700 32.05500
H  48.34800 34.85600 34.38700
H  47.04000 33.87800 34.18300
H  50.24000 39.69100 28.19900
H  48.69400 40.53800 27.72000
H  50.21700 40.82600 26.82500
H  51.55400 40.30100 24.82800
H  49.86500 40.85600 24.51800
H  50.98000 40.68500 23.15500
H  49.87700 33.93700 22.59100
H  47.46900 32.38700 22.39800
H  48.86000 35.22600 20.76200
H  47.46200 35.57000 21.66900
H  47.54900 33.98400 20.91100
H  49.73200 31.52900 21.95300
H  48.92800 30.58900 23.11800
H  51.54900 31.67600 23.41600
H  50.96900 30.83100 24.55000
H  50.66700 32.58700 24.67800
H  46.19900 28.55300 27.94900
H  46.52400 28.92400 26.23300
H  44.94400 29.12100 26.69600
H  44.58300 33.11000 30.51400
H  43.17100 32.03200 34.10400
H  44.29700 33.27000 34.75200
H  44.92700 31.71700 34.67200
Mg -12.01900 38.25300 42.14600
C  -10.01300 35.55600 41.51100
C  -9.59500 40.35200 40.77500
C  -14.20500 40.75200 42.38500
C  -14.59200 35.91800 42.88500
N  -10.06900 37.93600 41.15100
C  -9.52400 36.75000 40.95000
C  -8.15300 36.87700 40.29900
C  -7.86600 38.47300 40.29300
C  -9.24100 38.99600 40.74900
C  -6.66600 38.98300 41.14100
C  -8.01500 36.23700 38.84600
C  -6.62700 35.62900 38.56100
H  -5.87900 36.34500 37.41400
N  -11.87500 40.32000 41.74200
C  -10.81400 40.97000 41.26000
C  -11.03100 42.38600 41.28500
C  -12.36200 42.61100 41.64800
C  -12.90400 41.21700 41.93000
C  -10.06600 43.51200 40.86700
C  -13.09600 43.99100 41.69500
O  -12.59800 45.08500 41.36800
C  -14.52600 43.98000 42.18000
N  -14.17000 38.29100 42.38700
C  -14.76000 39.48900 42.63700
C  -16.23300 39.32100 43.10700
C  -16.30100 37.74500 43.18800
C  -14.94500 37.24400 42.70100
C  -16.66700 40.10100 44.36600
C  -17.52200 37.13900 42.37200
C  -18.37000 36.10200 43.14600
N  -12.30200 36.07600 42.31800
C  -13.32400 35.31300 42.73000
C  -12.90200 33.90200 42.88900
C  -11.54200 34.01200 42.45500
C  -11.25200 35.33300 42.08400
C  -13.62100 32.68800 43.42800
C  -10.39400 33.19200 42.24900
O  -10.18600 31.97800 42.43000
C  -9.32100 34.22300 41.64900
C  -8.20800 34.19500 42.61100
O  -8.13900 35.03400 43.45100
O  -7.24400 33.29000 42.38900
C  -5.99800 33.23000 43.23600
H  -8.83600 40.97300 40.29400
H  -14.94400 41.49100 42.70000
H  -15.35500 35.22500 43.24700
H  -7.42000 36.38800 40.93900
H  -7.78300 38.86800 39.28100
H  -6.04800 38.14700 41.46800
H  -6.87200 39.61100 42.00800
H  -6.00900 39.58300 40.51200
H  -8.30500 37.07300 38.21000
H  -8.79900 35.48400 38.93200
H  -6.76300 34.55200 38.46000
H  -6.02100 35.67500 39.46600
H  -9.11900 43.03700 40.60900
H  -10.01400 44.21600 41.69800
H  -10.53900 44.15200 40.12300
H  -15.06500 43.24300 41.58400
H  -14.88800 44.97800 41.93400
H  -14.68900 43.84800 43.25000
H  -16.83000 39.71600 42.28500
H  -16.37900 37.42400 44.22700
H  -15.89900 40.75200 44.78400
H  -17.13400 39.54800 45.18100
H  -17.47400 40.76000 44.04500
H  -17.17100 36.61400 41.48400
H  -18.22500 37.87800 41.98700
H  -17.95800 35.80800 44.11100
H  -18.62500 35.15500 42.67100
H  -19.31800 36.54600 43.45100
H  -14.70100 32.82100 43.35300
H  -13.46200 32.51100 44.49200
H  -13.25700 31.76100 42.98500
H  -9.01300 33.81300 40.68700
H  -5.08100 33.08100 42.66600
H  -6.06300 32.41300 43.95500
H  -5.93400 34.15300 43.81100

