158

Mg 17.51100 50.69800 26.57500
C  19.65600 49.42300 29.07600
C  15.23300 51.52900 28.93700
C  15.81800 51.98000 24.09500
C  19.99700 49.59100 24.19800
N  17.35600 50.20500 28.71000
C  18.35700 49.87500 29.56300
C  18.04600 50.16700 31.07400
C  16.53800 50.55500 30.90800
C  16.39500 50.85400 29.40200
C  15.50600 49.54400 31.50500
C  18.87200 51.39300 31.65600
C  19.04600 51.49700 33.18600
H  18.11800 50.77200 34.10500
N  15.70800 51.53700 26.53800
C  14.95200 51.85600 27.59400
C  13.88600 52.64000 27.09600
C  14.09700 52.93800 25.76800
C  15.31000 52.13700 25.41800
C  12.79000 53.08800 27.96600
C  13.35800 53.85300 24.83100
O  13.72300 54.02300 23.67700
C  12.14200 54.53900 25.29800
N  17.92400 50.72400 24.39200
C  16.93400 51.27100 23.61100
C  17.28000 51.08500 22.14300
C  18.59700 50.27800 22.14200
C  18.84900 50.16600 23.67700
C  16.14500 50.50100 21.25700
C  19.82900 50.92600 21.44900
C  20.51600 50.15800 20.26200
N  19.35200 49.60100 26.59900
C  20.28500 49.31500 25.58500
C  21.55800 48.87400 26.13200
C  21.31600 48.88200 27.53400
C  20.01400 49.34600 27.75600
C  22.74000 48.62700 25.34800
C  21.90700 48.46100 28.80500
O  23.00600 47.93100 28.99200
C  20.87500 48.88400 29.94700
C  20.55300 47.62100 30.60100
O  19.85500 46.72100 30.09500
O  21.02300 47.62100 31.89800
C  20.23600 46.79200 32.80200
H  14.59600 51.90100 29.74300
H  15.21200 52.34100 23.26100
H  20.69000 49.29300 23.40800
H  18.20600 49.29100 31.70300
H  16.31200 51.47600 31.44500
H  15.97000 48.82000 32.17400
H  14.97200 49.12200 30.65300
H  14.77700 50.08200 32.11100
H  18.37500 52.30800 31.33700
H  19.88600 51.31700 31.26400
H  19.06400 52.50900 33.58900
H  19.98600 51.03500 33.49000
H  11.82400 52.72200 27.61900
H  12.99700 54.15000 28.09300
H  12.84200 52.61100 28.94500
H  11.51700 53.75900 25.73200
H  11.63500 55.01600 24.45900
H  12.28700 55.29500 26.07000
H  17.45000 52.09400 21.76900
H  18.47700 49.32200 21.63200
H  16.00200 51.18500 20.42000
H  15.17100 50.54400 21.74400
H  16.44200 49.52800 20.86500
H  20.58500 51.20200 22.18500
H  19.52200 51.89200 21.04800
H  20.83800 49.14400 20.49900
H  21.37800 50.72500 19.91100
H  19.85900 50.24200 19.39600
H  22.69000 49.35400 24.53700
H  22.62400 47.66300 24.85200
H  23.66100 48.66900 25.93000
H  21.33500 49.61200 30.61500
H  20.72400 45.84900 33.04800
H  19.28300 46.47500 32.37800
H  20.11900 47.43200 33.67600
Mg -2.22700 33.61000 26.57800
C  -4.07400 32.15100 29.38200
C  -0.76200 35.74300 28.73900
C  -1.05000 35.15200 23.91400
C  -4.46500 31.60700 24.44000
N  -2.43300 33.84400 28.83600
C  -3.16200 33.09500 29.80900
C  -2.83500 33.54300 31.24000
C  -1.85600 34.73900 30.92900
C  -1.59000 34.77600 29.35700
C  -2.28500 36.08500 31.56100
C  -2.31800 32.38300 32.14900
C  -2.81800 32.34400 33.55700
H  -1.84000 32.24400 34.78400
N  -1.04900 35.28400 26.32500
C  -0.42500 35.96100 27.35900
C  0.53200 36.96600 26.80700
C  0.56000 36.64400 25.39100
C  -0.57400 35.67700 25.16400
C  1.40400 37.98900 27.51100
C  1.38900 37.35000 24.37900
O  1.22800 37.21800 23.14200
C  2.43900 38.33400 24.84400
N  -2.92300 33.55400 24.36900
C  -2.08300 34.26300 23.51400
C  -2.38400 33.77200 22.06600
C  -3.40300 32.62500 22.24500
C  -3.53400 32.45000 23.77000
C  -2.93600 35.01500 21.29600
C  -3.04000 31.39600 21.43200
C  -2.05500 30.41500 22.05400
N  -3.83600 32.13200 26.79300
C  -4.58700 31.44500 25.86000
C  -5.54100 30.54500 26.47900
C  -5.37500 30.78000 27.86300
C  -4.32900 31.71800 28.02500
C  -6.46800 29.63800 25.73300
C  -5.83500 30.39000 29.15900
O  -6.67800 29.55700 29.45900
C  -5.03100 31.29800 30.14400
C  -6.02500 32.10400 30.85900
O  -6.95900 32.66600 30.28900
O  -5.92300 31.93800 32.22600
C  -7.09900 32.32200 33.00100
H  -0.20200 36.42500 29.38200
H  -0.40200 35.50400 23.10800
H  -5.13000 30.86900 23.98600
H  -3.79200 33.88700 31.63100
H  -0.84300 34.71200 31.33200
H  -3.14100 35.94500 32.22200
H  -2.53200 36.66700 30.67300
H  -1.46800 36.54100 32.11900
H  -1.22900 32.41000 32.11000
H  -2.64000 31.41500 31.76500
H  -3.45600 31.46300 33.62600
H  -3.45500 33.20500 33.75900
H  2.46700 37.74600 27.51200
H  1.09400 37.90700 28.55300
H  1.28400 39.05600 27.32300
H  1.94500 39.22200 25.24000
H  2.97800 38.62000 23.94100
H  3.16800 37.88600 25.51900
H  -1.46200 33.48800 21.55600
H  -4.37000 32.96000 21.87000
H  -2.85800 35.92500 21.89200
H  -3.93000 34.86700 20.87200
H  -2.37300 35.25600 20.39500
H  -2.57400 31.78300 20.52600
H  -3.88400 30.82000 21.05000
H  -1.36100 30.16900 21.25000
H  -2.58400 29.51200 22.36100
H  -1.54300 30.90000 22.88500
H  -6.96700 30.26700 24.99600
H  -7.18800 29.27400 26.46600
H  -5.94000 28.87600 25.16000
H  -4.55500 30.52800 30.75000
H  -7.77300 31.46600 33.02300
H  -7.51700 33.28700 32.71600
H  -6.67800 32.35300 34.00600

