158

Mg 34.92100 49.12700 25.92400
C  35.90300 47.14300 28.59600
C  34.05000 51.60200 28.19500
C  33.92700 50.88900 23.35900
C  35.92200 46.59100 23.84000
N  35.13100 49.37400 28.12600
C  35.50200 48.42600 29.02000
C  35.41900 48.95000 30.44100
C  34.38500 50.14800 30.29400
C  34.63700 50.49100 28.77400
C  32.84000 49.82300 30.60100
C  36.85400 49.50500 30.83300
C  37.24400 49.27900 32.30800
H  36.12200 49.11500 33.45900
N  33.97900 50.92800 25.78000
C  33.71300 51.84700 26.83000
C  33.26100 53.09800 26.23500
C  33.31700 53.01000 24.79100
C  33.74600 51.57200 24.59400
C  33.02500 54.32200 27.09700
C  32.96500 54.01900 23.72300
O  33.16500 53.75200 22.54900
C  32.49200 55.33000 24.12400
N  34.83800 48.76500 23.81300
C  34.34000 49.59000 22.94300
C  34.42600 49.10600 21.44900
C  35.32300 47.79400 21.69100
C  35.39700 47.74800 23.20300
C  33.08400 48.66800 20.75300
C  36.66200 47.74600 20.91300
C  37.85100 48.25700 21.69300
N  35.77100 47.24700 26.13100
C  36.08900 46.34600 25.17000
C  36.69400 45.16800 25.73700
C  36.56100 45.36000 27.12700
C  36.03300 46.65300 27.29200
C  37.11800 43.92600 24.93200
C  36.81900 44.80100 28.46500
O  37.30600 43.74100 28.75600
C  36.37700 45.95600 29.48100
C  35.39700 45.46200 30.47600
O  34.16100 45.37900 30.32800
O  36.05800 45.17100 31.67800
C  35.30100 44.71100 32.80800
H  33.79200 52.34700 28.95100
H  33.70400 51.48500 22.47100
H  36.28300 45.82600 23.15000
H  34.96000 48.21000 31.09700
H  34.71300 50.97100 30.92900
H  32.65800 48.75600 30.73400
H  32.22800 50.20200 29.78300
H  32.56800 50.33800 31.52200
H  37.04200 50.54400 30.56500
H  37.49600 48.82200 30.27600
H  37.91000 50.08300 32.62100
H  37.83700 48.36400 32.33900
H  32.25900 54.95000 26.64300
H  33.92000 54.93600 27.20000
H  32.62100 53.97000 28.04600
H  32.32400 55.94200 23.23800
H  33.17900 55.81300 24.81900
H  31.45900 55.29400 24.46900
H  34.98000 49.88300 20.92200
H  34.77500 46.86900 21.51300
H  32.84700 47.60500 20.72600
H  33.08800 49.06400 19.73800
H  32.23800 49.09500 21.29100
H  36.46700 48.35200 20.02800
H  36.94500 46.74300 20.59400
H  37.69200 48.61400 22.71000
H  38.29200 49.12000 21.19400
H  38.51100 47.39000 21.73900
H  37.37300 44.19900 23.90800
H  36.34400 43.16000 24.87400
H  37.91000 43.49200 25.54300
H  37.22700 46.42900 29.97100
H  35.37700 43.63500 32.96300
H  34.27900 45.09000 32.81300
H  35.73200 45.17600 33.69500
Mg -9.87900 16.83500 41.66900
C  -6.22900 16.57800 41.77700
C  -9.46700 20.33700 41.51700
C  -12.90700 16.77700 40.70700
C  -9.75700 13.26500 41.63700
N  -8.16400 18.23200 41.52500
C  -6.77200 17.90300 41.65200
C  -5.99400 19.15700 41.53800
C  -6.97300 20.24800 42.03000
C  -8.28200 19.59200 41.58900
C  -7.03100 20.55800 43.56200
C  -5.57000 19.34700 40.07900
C  -4.09100 18.83400 39.69500
H  -3.90900 18.03100 38.42300
N  -11.01900 18.36000 41.15800
C  -10.70000 19.71800 41.16900
C  -11.90000 20.37800 40.83200
C  -12.96000 19.41500 40.70800
C  -12.37100 18.07000 40.81500
C  -11.92700 21.93300 40.57700
C  -14.41100 19.71800 40.49400
O  -14.77700 20.82400 40.14100
C  -15.46100 18.66600 40.32300
N  -11.11500 15.17000 41.04100
C  -12.36400 15.51300 40.80100
C  -13.19000 14.24800 40.55700
C  -12.20100 13.07800 41.01300
C  -10.98400 13.83300 41.27900
C  -14.50800 14.26200 41.25400
C  -12.07500 11.97600 40.02100
C  -12.89400 10.67500 40.26700
N  -8.31400 15.15000 41.80900
C  -8.43600 13.78300 41.91500
C  -7.15600 13.11400 42.13300
C  -6.26500 14.18700 42.13400
C  -6.99000 15.38400 41.83300
C  -6.81500 11.72400 42.23300
C  -4.87500 14.58000 42.28000
O  -3.86600 13.97200 42.55900
C  -4.78300 16.10100 42.02000
C  -4.07500 16.80200 43.10200
O  -3.05900 17.46200 42.99400
O  -4.66200 16.63800 44.36100
C  -4.01800 17.22900 45.53500
H  -9.33800 21.42200 41.52900
H  -13.89400 16.71500 40.24200
H  -9.81500 12.19200 41.83300
H  -5.14900 19.12200 42.22600
H  -6.85000 21.15800 41.44200
H  -6.15300 20.32900 44.16600
H  -7.85200 20.05100 44.06700
H  -7.09300 21.62800 43.76400
H  -5.68800 20.41800 39.91200
H  -6.22000 18.72500 39.46300
H  -3.70000 18.32800 40.57700
H  -3.58100 19.78800 39.56200
H  -12.00700 22.47300 41.52000
H  -12.87600 22.30200 40.19000
H  -11.12200 22.35900 39.97900
H  -15.50900 18.06400 39.41600
H  -16.47100 19.07800 40.31100
H  -15.37300 17.99900 41.18000
H  -13.36700 14.25100 39.48100
H  -12.48500 12.63900 41.96900
H  -15.35500 14.39300 40.58100
H  -14.46600 15.05500 42.00000
H  -14.73200 13.33200 41.77600
H  -11.02000 11.73700 39.88600
H  -12.42800 12.34400 39.05700
H  -13.31100 10.71400 41.27400
H  -12.29800 9.77900 40.09500
H  -13.69000 10.57400 39.52900
H  -5.90400 11.62200 42.82400
H  -6.47100 11.39900 41.25100
H  -7.60700 11.03000 42.51300
H  -4.21300 16.22100 41.09800
H  -3.09300 16.66600 45.66000
H  -4.61900 17.12300 46.43800
H  -3.82800 18.29500 45.41100

