158

Mg 24.90600 1.40400 29.98500
C  27.10200 1.37200 32.62300
C  22.29100 1.81800 32.20000
C  22.76700 1.14500 27.36400
C  27.61500 0.71300 27.81900
N  24.76900 1.53500 32.16200
C  25.81800 1.56900 33.04900
C  25.33700 1.92100 34.44200
C  23.79100 1.76300 34.34900
C  23.55900 1.73600 32.86000
C  23.12200 0.55900 35.15800
C  25.84900 3.23200 35.09100
C  26.50600 3.11600 36.49200
H  26.19100 4.09000 37.62600
N  22.88200 1.45300 29.81800
C  21.96000 1.57400 30.85600
C  20.60000 1.38800 30.37400
C  20.70500 1.16000 28.98100
C  22.17500 1.20300 28.62600
C  19.47500 1.09800 31.36300
C  19.60400 0.71100 27.99500
O  19.85800 0.37400 26.87200
C  18.22700 0.66700 28.51100
N  25.11300 1.13100 27.90000
C  24.12200 1.16600 26.98100
C  24.63900 1.03500 25.55500
C  26.19800 1.20300 25.73500
C  26.34800 0.95500 27.24500
C  24.19300 -0.19800 24.76600
C  26.69700 2.58300 25.26400
C  28.18500 2.60200 24.90100
N  26.96400 1.07000 30.13900
C  27.94600 0.79600 29.22100
C  29.19400 0.60000 29.85900
C  28.94100 0.82800 31.23900
C  27.57800 1.06000 31.32100
C  30.50400 0.28900 29.20300
C  29.60800 0.88500 32.51800
O  30.78200 0.67300 32.91000
C  28.37900 1.35200 33.50100
C  28.42900 0.37600 34.65500
O  28.21800 -0.82400 34.55000
O  28.84500 1.02900 35.78300
C  28.92900 0.17700 36.93300
H  21.50400 2.26700 32.81000
H  22.08500 0.89700 26.54900
H  28.48000 0.65400 27.15500
H  25.74800 1.12800 35.06600
H  23.31300 2.69900 34.64000
H  23.94000 0.02400 35.64200
H  22.51200 -0.14300 34.59100
H  22.49800 1.02600 35.92000
H  25.05800 3.96700 35.24000
H  26.57000 3.67800 34.40600
H  27.57900 3.24200 36.34900
H  26.44300 2.14300 36.97800
H  18.98200 2.05000 31.56100
H  19.88500 0.77500 32.31900
H  18.75800 0.33700 31.05500
H  17.85900 1.58900 28.96100
H  18.27200 -0.25100 29.09600
H  17.58200 0.48100 27.65200
H  24.09100 1.78400 24.98200
H  26.52900 0.39800 25.07900
H  23.58800 0.06700 23.89900
H  23.59600 -0.83300 25.42200
H  25.10400 -0.75200 24.54200
H  26.52600 3.36000 26.00900
H  26.11500 2.88400 24.39300
H  28.81200 3.19500 25.56700
H  28.25000 2.94800 23.87000
H  28.64900 1.62800 24.73800
H  30.16500 -0.33600 28.37600
H  31.14300 -0.32700 29.83600
H  30.99500 1.17500 28.80200
H  28.61700 2.35100 33.86500
H  28.10000 0.22100 37.64000
H  29.77300 0.38500 37.59100
H  29.01600 -0.90300 36.82000
Mg 26.96200 50.86100 26.77100
C  25.04100 51.86300 29.44300
C  29.57600 50.21500 28.95500
C  28.93200 50.04400 24.10900
C  24.54400 52.05500 24.63400
N  27.29900 51.13600 28.89200
C  26.27700 51.37400 29.76700
C  26.73300 51.24400 31.26200
C  28.26200 50.92900 31.08000
C  28.42800 50.75200 29.56500
C  29.26000 51.98900 31.58100
C  25.85600 50.14800 31.97100
C  25.40100 50.41900 33.42900
H  26.50500 50.85100 34.38200
N  29.04900 50.11500 26.57000
C  29.92400 49.97900 27.62200
C  31.13300 49.44000 26.99400
C  31.02900 49.51200 25.60600
C  29.66000 49.85100 25.36200
C  32.28400 48.95400 27.95700
C  32.15200 49.33100 24.55200
O  32.02000 49.53600 23.36500
C  33.47800 48.81900 25.07100
N  26.78800 51.14100 24.64500
C  27.65900 50.62400 23.79000
C  27.12600 50.65500 22.37900
C  25.73700 51.39900 22.45300
C  25.66400 51.49700 23.96900
C  28.01800 51.33400 21.23100
C  24.66300 50.54100 21.69700
C  23.95300 49.41200 22.46300
N  25.14100 51.83100 26.92400
C  24.31200 52.25200 25.95900
C  23.10800 52.78400 26.55400
C  23.33600 52.70400 27.94400
C  24.56300 52.05000 28.13500
C  21.84600 53.36200 25.86600
C  22.73200 52.88200 29.25000
O  21.60700 53.33900 29.46800
C  23.84800 52.42900 30.32300
C  24.22300 53.54500 31.24700
O  25.02600 54.42200 30.92000
O  23.49300 53.45000 32.39800
C  23.78200 54.58400 33.34900
H  30.31800 49.95900 29.71500
H  29.36800 49.76200 23.14800
H  23.71100 52.27400 23.96200
H  26.53600 52.15700 31.82300
H  28.52400 49.95800 31.50100
H  28.75100 52.74900 32.17300
H  29.60300 52.60500 30.74900
H  30.11000 51.57100 32.12200
H  26.27200 49.14100 32.01000
H  24.96500 50.00800 31.36000
H  24.96200 49.55500 33.92800
H  24.57800 51.13300 33.39400
H  33.14000 49.62200 27.86400
H  32.62500 47.93000 27.80600
H  31.90500 48.87200 28.97500
H  34.03900 49.39200 25.80900
H  34.11800 48.76000 24.19100
H  33.14700 47.86000 25.47000
H  26.94000 49.63500 22.04200
H  25.76900 52.46200 22.21500
H  27.48300 51.95400 20.51300
H  28.31900 50.48300 20.62100
H  28.92600 51.84300 21.55300
H  25.18000 50.03500 20.88100
H  24.00800 51.16500 21.08900
H  24.12600 49.15900 23.50900
H  24.22600 48.49600 21.94100
H  22.93900 49.78100 22.31000
H  21.41800 54.14500 26.49200
H  21.13500 52.54700 25.73200
H  22.20300 53.78400 24.92600
H  23.52100 51.63200 30.99000
H  23.92200 55.46200 32.71800
H  24.71100 54.29000 33.83700
H  22.97500 54.73100 34.06800

