158

Mg 17.07500 -1.26500 27.92100
C  16.12800 0.57400 30.61100
C  19.18000 -3.24600 29.87600
C  18.65500 -2.56900 25.06100
C  15.47000 1.08500 25.82000
N  17.64900 -1.23900 30.01900
C  16.95700 -0.53600 30.95600
C  17.46500 -0.95000 32.40300
C  18.64800 -1.79700 32.05600
C  18.45600 -2.19700 30.58900
C  20.07900 -1.23500 32.31800
C  16.31500 -1.64800 33.11400
C  16.05200 -1.44000 34.65800
H  17.04800 -0.57400 35.42500
N  18.58600 -2.74200 27.58400
C  19.22600 -3.56100 28.48000
C  20.00800 -4.57100 27.78700
C  19.93000 -4.30000 26.40800
C  18.99800 -3.13900 26.28500
C  20.82800 -5.60600 28.64400
C  20.71900 -4.90800 25.18200
O  20.46300 -4.61000 24.05400
C  21.69200 -5.97300 25.34600
N  16.94500 -0.94700 25.78000
C  17.75500 -1.52900 24.81300
C  17.61600 -0.88500 23.38000
C  16.39700 0.13300 23.64500
C  16.23500 0.07000 25.20100
C  18.91300 -0.33800 22.73800
C  15.06600 -0.22900 22.89100
C  13.91500 -0.97600 23.58200
N  15.79900 0.38300 28.10800
C  15.30900 1.25600 27.21000
C  14.66800 2.42000 27.90900
C  14.93600 2.14400 29.25700
C  15.72200 0.94100 29.33000
C  13.89900 3.51100 27.28400
C  14.73800 2.52400 30.63000
O  14.08100 3.50000 31.02500
C  15.42300 1.53600 31.61400
C  16.28100 2.34100 32.49100
O  17.46600 2.59600 32.29300
O  15.54300 2.68800 33.52000
C  16.00000 3.72100 34.43000
H  19.91400 -3.84400 30.42000
H  19.09400 -2.81200 24.09100
H  15.16800 1.85800 25.11100
H  17.63200 0.05500 32.79100
H  18.69000 -2.72500 32.62700
H  20.78000 -1.28100 31.48400
H  20.49500 -1.82500 33.13400
H  20.04700 -0.17500 32.56900
H  16.36000 -2.70300 32.84300
H  15.39200 -1.25000 32.69200
H  15.99000 -2.46100 35.03400
H  15.10100 -0.91900 34.76800
H  20.43200 -5.71900 29.65300
H  21.84900 -5.24400 28.77000
H  20.85000 -6.62800 28.26300
H  21.44300 -6.66300 26.15200
H  22.70400 -5.56700 25.34100
H  21.58000 -6.67500 24.52000
H  17.29300 -1.72700 22.76800
H  16.77000 1.11800 23.36300
H  18.81600 0.69800 22.41500
H  19.23300 -0.86700 21.84000
H  19.70300 -0.48100 23.47700
H  15.25200 -0.44700 21.83900
H  14.62700 0.76900 22.88600
H  13.23900 -0.34000 24.15400
H  14.32000 -1.69000 24.29900
H  13.40200 -1.67500 22.92200
H  14.27800 3.84700 26.31900
H  13.95800 4.42300 27.87800
H  12.84000 3.25400 27.26400
H  14.67900 1.07700 32.26500
H  16.64800 4.42500 33.90900
H  16.43200 3.15600 35.25600
H  15.11800 4.25300 34.78700
Mg 16.33600 52.87100 26.84800
C  18.23700 51.57200 29.54900
C  13.94800 53.96000 29.29100
C  14.68800 54.39800 24.42200
C  18.46600 51.18300 24.64800
N  16.16400 52.79200 29.13200
C  17.16100 52.33500 30.03600
C  16.75200 52.66100 31.47400
C  15.24800 53.18600 31.32800
C  15.12100 53.32000 29.80400
C  14.11000 52.32400 31.90000
C  17.70800 53.66300 32.11200
C  17.65800 53.69700 33.61300
H  16.48400 53.04000 34.29900
N  14.56500 54.04100 26.82800
C  13.70900 54.29200 27.88200
C  12.47900 54.99300 27.41700
C  12.64200 55.02000 26.03300
C  14.01200 54.49000 25.70300
C  11.36200 55.52100 28.29100
C  11.80500 55.64000 24.97800
O  12.12700 55.69300 23.80000
C  10.34700 56.23100 25.30700
N  16.61300 52.83600 24.89200
C  15.91400 53.67000 24.07300
C  16.31900 53.37400 22.60800
C  17.66100 52.66500 22.71000
C  17.53300 52.14200 24.17100
C  15.27300 52.48200 21.92000
C  18.93100 53.68000 22.67500
C  20.23700 53.02300 22.20700
N  17.93200 51.53300 26.99100
C  18.70000 50.89000 26.01700
C  19.74400 50.08600 26.70300
C  19.67000 50.41700 28.06900
C  18.50400 51.19300 28.20600
C  20.72000 49.22100 25.89900
C  20.18900 50.16000 29.37200
O  21.17700 49.53600 29.75600
C  19.33300 50.95300 30.38000
C  18.65400 50.06700 31.32300
O  17.81800 49.17300 31.08800
O  19.06500 50.40600 32.54100
C  18.56100 49.63900 33.67300
H  13.29400 54.27900 30.10500
H  14.15000 54.87000 23.59700
H  19.28400 50.78600 24.04300
H  16.80200 51.74000 32.05500
H  15.23000 54.12800 31.87600
H  13.58900 52.85400 32.69800
H  14.52600 51.37700 32.24500
H  13.41000 52.08800 31.09800
H  17.39600 54.64300 31.75000
H  18.71700 53.30500 31.90800
H  17.52400 54.77100 33.74100
H  18.62400 53.46200 34.06100
H  10.52700 54.88000 28.00800
H  11.13000 56.54600 28.00200
H  11.48600 55.49000 29.37400
H  9.78300 55.84300 24.45900
H  10.42400 57.31700 25.36700
H  10.14400 55.62500 26.19000
H  16.43400 54.34500 22.12700
H  17.81300 51.76700 22.11200
H  15.79400 51.81500 21.23300
H  14.62600 53.20300 21.42000
H  14.72200 51.91600 22.67100
H  19.08300 54.22200 23.60800
H  18.74600 54.42200 21.89700
H  20.46600 53.54000 21.27500
H  20.09600 51.97300 21.95100
H  21.01400 53.29600 22.92200
H  21.53000 49.82300 25.48900
H  20.14200 48.79400 25.07900
H  21.09400 48.40500 26.51800
H  19.79000 51.78800 30.91000
H  17.48800 49.49300 33.54600
H  18.76200 50.14600 34.61700
H  18.97100 48.63700 33.79600

