158

Mg 25.78100 1.69000 29.73700
C  27.88300 1.19400 32.59600
C  23.16700 2.29900 31.79700
C  23.68400 1.29900 27.12900
C  28.43400 0.57700 27.72900
N  25.60200 1.68000 31.93500
C  26.56600 1.50200 32.91700
C  26.07300 2.09500 34.24200
C  24.51900 2.33700 33.96400
C  24.41300 2.04000 32.47000
C  23.51500 1.47400 34.75200
C  26.86800 3.26700 34.81300
C  27.67900 3.01400 36.05300
H  27.18700 3.75300 37.38800
N  23.73500 1.88100 29.47300
C  22.86100 2.08900 30.45300
C  21.59300 2.29300 29.91400
C  21.62600 1.94900 28.53200
C  23.04800 1.67600 28.33300
C  20.38900 2.60100 30.72800
C  20.54800 1.81300 27.57200
O  20.72700 1.36000 26.50100
C  19.11500 2.14800 27.95000
N  26.05300 1.06500 27.72400
C  25.06000 1.03700 26.79700
C  25.61900 0.83600 25.34900
C  27.08800 0.52400 25.52800
C  27.18000 0.77600 27.06100
C  24.83500 -0.15900 24.47600
C  28.05000 1.42600 24.67400
C  28.85700 0.68100 23.58400
N  27.74600 1.02600 30.10000
C  28.67700 0.57700 29.13000
C  29.93500 0.24900 29.80500
C  29.66600 0.52000 31.15000
C  28.32300 0.91000 31.30900
C  31.24800 -0.15200 29.10400
C  30.24700 0.51800 32.46100
O  31.42100 0.31400 32.78500
C  29.15200 1.00600 33.47300
C  29.00900 -0.01200 34.53800
O  28.40000 -1.05000 34.39500
O  29.71700 0.29700 35.65500
C  29.44800 -0.56500 36.80800
H  22.34500 2.56500 32.46500
H  23.05000 1.17100 26.24900
H  29.26100 0.30000 27.07200
H  26.16200 1.23200 34.90200
H  24.33400 3.38900 34.17900
H  24.11600 0.68500 35.20400
H  22.77500 0.95800 34.14000
H  23.16700 2.12300 35.55500
H  26.18600 4.09400 35.00600
H  27.61500 3.52400 34.06200
H  28.71500 3.32700 35.92300
H  27.64000 1.93600 36.20800
H  19.90400 3.40300 30.17200
H  20.59200 3.05000 31.70000
H  19.74400 1.72500 30.79000
H  18.67100 1.53600 28.73500
H  18.52300 2.02000 27.04400
H  18.90600 3.16100 28.29500
H  25.53700 1.86000 24.98500
H  27.29300 -0.53200 25.35000
H  23.88800 -0.40100 24.95900
H  25.40800 -1.07100 24.31100
H  24.57800 0.28600 23.51500
H  28.81700 1.71700 25.39200
H  27.51400 2.29800 24.30000
H  28.23600 0.69900 22.68800
H  29.30600 -0.28200 23.82900
H  29.69800 1.34600 23.38800
H  31.60000 0.67700 28.49000
H  31.13000 -1.05200 28.50100
H  31.98200 -0.38200 29.87600
H  29.43600 1.90400 34.02100
H  30.38300 -0.58400 37.36900
H  29.39800 -1.61700 36.52700
H  28.61300 -0.25400 37.43600
Mg 40.53000 9.71500 28.88600
C  42.40300 10.80500 31.78000
C  38.38300 8.22400 30.89400
C  38.91200 8.74300 26.19000
C  43.24200 10.79800 26.86100
N  40.44400 9.38400 30.99600
C  41.23400 10.02300 31.97500
C  40.51300 10.00600 33.33800
C  39.47400 8.83500 33.13800
C  39.45700 8.70700 31.59900
C  39.91200 7.46000 33.85300
C  39.89100 11.29500 33.82000
C  39.83300 11.48200 35.37400
H  40.49800 12.64300 36.06500
N  38.87200 8.59700 28.58500
C  38.01800 8.10800 29.55500
C  36.87500 7.38800 28.96400
C  36.95700 7.58500 27.50300
C  38.29200 8.32900 27.39200
C  35.85400 6.53800 29.75500
C  36.10400 6.99300 26.32700
O  36.33100 7.25300 25.18300
C  34.82300 6.28300 26.63100
N  41.16300 9.60800 26.81400
C  40.23800 9.26700 25.91100
C  40.83600 9.23300 24.51800
C  42.26200 9.91200 24.67800
C  42.25300 10.13300 26.13100
C  40.77400 7.88500 23.78000
C  42.40900 11.17000 23.88100
C  41.40600 12.29800 24.09700
N  42.41700 10.74900 29.21500
C  43.36700 11.09800 28.25100
C  44.48900 11.76500 28.96500
C  44.09800 11.76400 30.33600
C  42.86400 11.06600 30.44600
C  45.85200 12.16300 28.40800
C  44.41200 12.14600 31.68500
O  45.44500 12.67200 32.06000
C  43.28200 11.53200 32.66900
C  43.91300 10.49700 33.56200
O  44.61800 9.57400 33.18300
O  43.41600 10.65400 34.78500
C  43.85800 9.79500 35.92000
H  37.51900 7.87500 31.46200
H  38.35300 8.52900 25.27700
H  44.04900 11.21200 26.25300
H  41.17300 9.62900 34.11900
H  38.45000 8.98700 33.48100
H  40.86600 7.45900 34.38100
H  40.13500 6.73000 33.07500
H  39.04300 7.14000 34.42700
H  38.89000 11.52100 33.45300
H  40.49500 12.10600 33.41400
H  40.17800 10.60800 35.92800
H  38.80700 11.73700 35.63700
H  36.17500 6.44500 30.79300
H  35.94000 5.53100 29.34700
H  34.84000 6.91100 29.60900
H  34.22000 6.14900 25.73200
H  34.27200 6.82500 27.39900
H  35.22300 5.31100 26.92200
H  40.07800 9.80500 23.98200
H  43.06200 9.18400 24.55000
H  41.64200 7.25000 23.95800
H  40.69800 8.13400 22.72200
H  39.86200 7.32200 23.98000
H  42.34500 10.95200 22.81500
H  43.39400 11.57500 24.10900
H  40.66400 12.06300 24.85900
H  40.92700 12.42300 23.12600
H  41.84300 13.25800 24.37200
H  46.14000 11.70600 27.46100
H  46.52800 11.95500 29.23800
H  45.95500 13.24800 28.43800
H  43.04000 12.39300 33.29200
H  44.57900 9.11700 35.46200
H  42.94500 9.55500 36.46500
H  44.35900 10.55800 36.51600

