158

Mg 47.23300 24.51300 27.52100
C  48.32400 26.80400 30.04500
C  46.54700 22.25400 30.06300
C  46.50200 22.42900 25.02300
C  48.67200 26.73900 25.21700
N  47.27600 24.62500 29.83600
C  47.74100 25.69500 30.63400
C  47.57300 25.27000 32.13400
C  47.22700 23.69400 32.09600
C  46.97100 23.50000 30.56000
C  48.30400 22.73200 32.75000
C  46.57600 26.13100 32.94000
C  46.29700 25.65700 34.38800
H  46.81400 26.54500 35.60500
N  46.57900 22.62200 27.50400
C  46.40000 21.78800 28.66000
C  46.12400 20.44100 28.15800
C  46.06400 20.49400 26.70300
C  46.30300 21.88200 26.32800
C  46.01200 19.30400 29.15600
C  45.80500 19.29900 25.77400
O  45.65800 19.42900 24.54600
C  45.68900 17.89900 26.30700
N  47.68100 24.53200 25.42200
C  47.20500 23.57700 24.57800
C  47.33800 24.04500 23.13200
C  48.02500 25.44500 23.13200
C  48.11600 25.57500 24.68300
C  48.00700 23.04800 22.14900
C  47.28100 26.57400 22.45100
C  48.13700 27.71100 21.77800
N  48.31300 26.40300 27.47300
C  48.82200 27.16400 26.49900
C  49.53500 28.36300 26.99000
C  49.29000 28.17700 28.41900
C  48.57400 27.04400 28.63300
C  50.20500 29.48900 26.19500
C  49.51700 28.91200 29.62000
O  50.09500 29.91900 29.86400
C  48.81300 28.05600 30.74800
C  49.79800 27.83400 31.83500
O  50.69800 26.96300 31.80900
O  49.51000 28.60000 32.94500
C  50.37200 28.52200 34.15200
H  46.30900 21.50500 30.82200
H  46.24200 21.75700 24.20200
H  48.95600 27.52700 24.51700
H  48.55800 25.43500 32.57200
H  46.24400 23.44000 32.49200
H  48.76700 22.24600 31.89100
H  47.79700 21.99500 33.37300
H  48.92500 23.26800 33.46700
H  45.65300 26.23700 32.37100
H  46.96900 27.14500 33.01200
H  46.69600 24.66100 34.58200
H  45.23200 25.64100 34.62200
H  46.57100 19.47400 30.07600
H  46.51000 18.39700 28.81300
H  45.00400 18.95600 29.37700
H  44.96700 17.96500 27.12100
H  46.70700 17.62400 26.58600
H  45.34900 17.25200 25.49900
H  46.28900 24.19100 22.87200
H  49.05800 25.43200 22.78600
H  48.42700 23.62600 21.32600
H  47.26600 22.36700 21.73200
H  48.66300 22.30800 22.60700
H  46.67800 27.11600 23.17900
H  46.70000 26.16000 21.62800
H  47.70200 28.61600 22.20100
H  48.06800 27.54200 20.70400
H  49.19600 27.69700 22.03600
H  49.65900 29.71600 25.27900
H  51.22500 29.24200 25.90000
H  50.20100 30.30100 26.92200
H  47.95700 28.59800 31.15000
H  49.93300 27.90600 34.93700
H  50.69600 29.48700 34.54100
H  51.25900 27.96700 33.84700
Mg 17.27000 52.56500 25.73500
C  19.01700 50.99400 28.42700
C  14.88600 53.44200 27.81700
C  15.37900 53.29500 23.00700
C  19.58200 50.88100 23.45100
N  17.05900 52.29900 27.90300
C  17.95700 51.80900 28.79700
C  17.40600 51.95700 30.22700
C  15.93300 52.51400 29.96800
C  16.00300 52.86900 28.52300
C  14.73800 51.59000 30.43200
C  18.30200 52.81300 31.05500
C  18.01200 52.89800 32.57800
H  16.92900 52.01000 33.29700
N  15.44500 53.50500 25.49100
C  14.60000 53.76700 26.48100
C  13.37500 54.46300 25.97900
C  13.55400 54.40000 24.50300
C  14.85700 53.74000 24.26300
C  12.22400 54.92500 26.83100
C  12.63500 54.88700 23.43900
O  12.88900 54.90300 22.27000
C  11.28100 55.46700 23.83100
N  17.52500 52.12300 23.56100
C  16.55000 52.59800 22.67800
C  16.95200 52.36400 21.22500
C  18.36200 51.80400 21.40200
C  18.52600 51.62100 22.93200
C  16.05400 51.51300 20.31100
C  19.45400 52.66400 20.86600
C  20.64900 52.03800 20.03000
N  18.99100 51.15100 25.86100
C  19.80600 50.57000 24.85600
C  20.85100 49.80300 25.52600
C  20.59600 49.92500 26.91500
C  19.41800 50.71900 27.06500
C  22.04700 49.13700 24.90700
C  21.04100 49.55000 28.26100
O  22.05900 48.98900 28.63200
C  19.92800 50.11200 29.20700
C  19.16300 49.00600 29.78400
O  18.15300 48.43900 29.37800
O  19.56700 48.83700 31.08500
C  18.69900 48.01900 31.94200
H  14.04700 53.65600 28.48300
H  14.77500 53.50200 22.12100
H  20.29800 50.38900 22.78900
H  17.43900 50.96900 30.68500
H  15.84500 53.42200 30.56500
H  14.12700 51.31200 29.57300
H  14.12400 52.18600 31.10700
H  15.12600 50.67400 30.87900
H  17.99500 53.81200 30.74700
H  19.37900 52.64300 31.04900
H  17.94400 53.94900 32.85700
H  18.96300 52.52100 32.95500
H  12.51800 54.79900 27.87400
H  11.33200 54.31800 26.68200
H  11.91800 55.96900 26.75600
H  11.40400 56.43400 24.31800
H  10.65400 54.77900 24.39900
H  10.67000 55.69300 22.95700
H  17.03200 53.26800 20.62100
H  18.40300 50.79000 21.00300
H  15.62500 50.65500 20.82700
H  16.65000 51.17200 19.46400
H  15.21100 52.08500 19.92200
H  19.83300 53.33400 21.63800
H  18.94600 53.24400 20.09600
H  21.47300 52.64500 20.40400
H  20.51600 52.30800 18.98300
H  20.67800 50.95800 20.17600
H  22.94600 49.75300 24.91900
H  21.89600 48.67100 23.93300
H  22.24800 48.30500 25.58200
H  20.34500 50.66000 30.05200
H  18.71100 48.41600 32.95700
H  19.17300 47.03800 31.98000
H  17.67900 47.90800 31.57500

