158

Mg 37.10600 49.92000 24.50900
C  37.40500 48.38300 27.55800
C  35.56100 52.52300 26.12100
C  36.58500 51.18100 21.47900
C  38.67900 47.08400 22.98200
N  36.65000 50.46400 26.67700
C  36.83700 49.63900 27.71100
C  36.37400 50.35300 29.05800
C  35.77300 51.69100 28.52600
C  36.00600 51.59000 27.04500
C  34.30200 51.91600 28.75400
C  37.64200 50.50500 29.95400
C  37.53000 49.81400 31.35400
H  36.24600 49.86800 32.16100
N  36.16400 51.64700 23.85100
C  35.61200 52.60600 24.66000
C  35.07800 53.67500 23.87100
C  35.33100 53.31000 22.50800
C  35.98100 51.95200 22.51900
C  34.55500 54.96600 24.43300
C  34.97300 54.09400 21.25000
O  35.23100 53.69800 20.09200
C  34.51400 55.56400 21.24300
N  37.44600 49.09400 22.38800
C  37.24700 49.90400 21.36600
C  37.64400 49.18400 20.02700
C  38.55600 48.06500 20.62700
C  38.24200 48.08600 22.12000
C  36.36800 48.79700 19.25800
C  39.99900 48.12800 20.29800
C  40.98700 48.60900 21.38100
N  37.80900 48.12700 25.08800
C  38.46700 47.10200 24.42300
C  38.95500 46.12800 25.32600
C  38.53800 46.56200 26.53500
C  37.90600 47.79900 26.34800
C  39.62100 44.87000 25.13800
C  38.53700 46.15300 27.91200
O  39.01100 45.25900 28.50900
C  37.78800 47.29500 28.60400
C  36.61300 46.72900 29.42200
O  35.42100 46.65800 29.02900
O  37.08900 46.43800 30.66100
C  36.32100 45.56200 31.54800
H  35.01700 53.36200 26.56000
H  36.44200 51.59900 20.48100
H  39.34200 46.28500 22.64300
H  35.64300 49.63200 29.42600
H  36.34900 52.57200 28.80700
H  34.18800 52.78500 29.40200
H  33.91000 51.11200 29.37700
H  33.67200 52.11600 27.88700
H  37.66100 51.56500 30.20800
H  38.50700 50.18200 29.37600
H  38.17700 50.41000 31.99800
H  37.89500 48.79300 31.24300
H  35.03300 55.81700 23.94700
H  34.80700 55.11800 25.48300
H  33.47200 54.92200 24.31700
H  33.43600 55.40300 21.21200
H  34.72600 55.99300 20.26400
H  34.95800 56.20300 22.00500
H  38.20400 49.92500 19.45600
H  38.22600 47.10100 20.23900
H  35.48400 49.06900 19.83400
H  36.34300 47.74400 18.97800
H  36.40800 49.41300 18.36000
H  40.17900 48.63500 19.35000
H  40.32200 47.09300 20.18600
H  41.28400 47.79200 22.03700
H  40.49900 49.34900 22.01600
H  41.81400 49.08900 20.85700
H  40.36400 45.06700 24.36500
H  38.91800 44.07800 24.87600
H  40.17800 44.68200 26.05500
H  38.53100 47.80300 29.21900
H  35.77000 44.80800 30.98700
H  35.54100 46.03600 32.14400
H  37.02200 44.96700 32.13400
Mg -2.33400 33.97700 27.27300
C  -3.96200 32.05900 29.57000
C  -0.78300 35.68800 29.72200
C  -0.63700 35.72300 24.84900
C  -4.14300 32.42300 24.66800
N  -2.49700 33.97900 29.28000
C  -3.11100 33.03600 30.05400
C  -3.11800 33.26900 31.56600
C  -2.18500 34.55300 31.59900
C  -1.81900 34.81700 30.13000
C  -2.91500 35.75300 32.16200
C  -2.30900 31.98800 32.24000
C  -2.72600 31.46200 33.60500
H  -1.76600 31.89000 34.72100
N  -0.94400 35.54800 27.32700
C  -0.43200 36.13000 28.45800
C  0.64800 37.05800 28.09800
C  0.70200 37.08600 26.67100
C  -0.29800 36.09200 26.19100
C  1.55200 37.74000 29.12100
C  1.54800 37.94000 25.81500
O  1.43000 37.84600 24.61000
C  2.59400 38.92000 26.32100
N  -2.48500 34.12500 25.03200
C  -1.61300 34.92700 24.32200
C  -1.74100 34.71400 22.77800
C  -2.90100 33.62700 22.73700
C  -3.30100 33.44500 24.21300
C  -1.97600 36.01600 21.97700
C  -2.48400 32.27600 22.11000
C  -3.04000 31.92200 20.64000
N  -3.79500 32.58600 27.11100
C  -4.35700 31.98300 26.03400
C  -5.13300 30.84800 26.50100
C  -5.03800 30.77500 27.85500
C  -4.16100 31.86500 28.16600
C  -5.90400 29.79300 25.73800
C  -5.38400 30.06700 29.06400
O  -6.02100 29.04800 29.24200
C  -4.75100 30.91700 30.25700
C  -5.87600 31.44200 31.05500
O  -6.63000 32.35200 30.76000
O  -5.92900 30.64800 32.19200
C  -6.93000 30.98700 33.20900
H  -0.47300 36.32500 30.55300
H  0.04800 36.05200 24.06500
H  -4.69800 31.83800 23.93200
H  -4.13300 33.34100 31.95600
H  -1.26000 34.46900 32.16900
H  -3.99200 35.59600 32.22400
H  -2.82400 36.56700 31.44300
H  -2.48700 36.01300 33.13100
H  -1.26200 32.27600 32.33200
H  -2.40500 31.11800 31.59000
H  -2.70500 30.37300 33.64700
H  -3.74000 31.82700 33.76300
H  1.12500 37.53600 30.10300
H  1.42600 38.81400 28.98600
H  2.62300 37.57500 29.00300
H  3.02800 39.42600 25.45900
H  3.39000 38.32500 26.76900
H  2.24700 39.75400 26.93200
H  -0.84800 34.21700 22.40000
H  -3.75200 34.07100 22.22000
H  -1.79100 36.94000 22.52600
H  -3.00000 35.88700 21.62500
H  -1.19800 35.91300 21.22100
H  -2.93700 31.46000 22.67400
H  -1.40800 32.12300 22.19300
H  -3.56000 32.84500 20.38500
H  -3.58800 30.98100 20.68900
H  -2.20600 31.77100 19.95400
H  -5.35800 29.62700 24.80900
H  -6.86100 30.24000 25.46900
H  -6.00400 28.86900 26.30800
H  -4.16300 30.22800 30.86300
H  -6.60800 31.54000 34.09100
H  -7.22800 30.05700 33.69100
H  -7.79700 31.43900 32.72700

