158

Mg 44.41700 4.98400 48.00700
C  42.28100 7.81000 47.60700
C  41.72700 2.94500 47.52700
C  46.52800 2.39000 47.79200
C  47.16400 7.25300 48.12800
N  42.21300 5.40200 47.63900
C  41.52400 6.57000 47.58200
C  40.03800 6.40100 47.31500
C  39.93700 4.85700 47.72700
C  41.37500 4.28700 47.61700
C  39.34800 4.48500 49.04000
C  39.46300 7.11400 46.01400
C  38.40900 6.20900 45.32500
H  37.84800 6.64900 43.89800
N  44.14700 2.90600 47.76200
C  42.95900 2.28900 47.50600
C  43.25700 0.93600 47.28100
C  44.66800 0.71900 47.32800
C  45.19600 2.08700 47.68600
C  42.13600 -0.10000 47.11800
C  45.26400 -0.65100 47.15900
O  44.55300 -1.67100 46.98400
C  46.79300 -0.87000 47.24400
N  46.64400 4.82500 47.85200
C  47.22800 3.64000 47.94400
C  48.76100 3.75700 47.95400
C  48.92800 5.35600 47.97300
C  47.48700 5.83800 48.00800
C  49.49200 3.04300 49.10100
C  49.93000 5.89300 47.01400
C  50.94800 6.87900 47.64600
N  44.77700 7.07500 47.88000
C  45.85600 7.81900 47.97400
C  45.54900 9.19300 47.73700
C  44.19600 9.22900 47.64400
C  43.69200 7.95300 47.71900
C  46.57800 10.34200 47.43100
C  43.06000 10.14300 47.56700
O  43.03700 11.34900 47.59700
C  41.75800 9.22200 47.52700
C  40.86300 9.57500 48.64800
O  40.91500 9.09500 49.79900
O  39.93400 10.50000 48.27200
C  38.80200 10.82200 49.14900
H  40.94900 2.18900 47.40600
H  47.16100 1.50700 47.90300
H  48.04000 7.87500 47.93200
H  39.52700 6.99100 48.07500
H  39.33400 4.31700 46.99700
H  38.50300 3.80800 48.91700
H  38.98500 5.33000 49.62500
H  40.10800 4.04700 49.68600
H  40.27300 7.19800 45.28900
H  39.06000 8.06400 46.36600
H  37.61600 5.93100 46.02000
H  38.97400 5.30100 45.11500
H  42.08100 -0.38700 46.06800
H  41.16100 0.32000 47.36600
H  42.36400 -0.87200 47.85300
H  47.04600 -1.85900 46.86200
H  46.89800 -0.74400 48.32200
H  47.33800 -0.18100 46.59800
H  49.02900 3.37200 46.97000
H  49.35400 5.65200 48.93100
H  48.71000 2.78600 49.81500
H  50.28100 3.62300 49.58000
H  49.80100 2.11800 48.61500
H  49.45500 6.28200 46.11400
H  50.44300 5.01400 46.62300
H  50.69700 7.22400 48.64900
H  50.99600 7.85300 47.15900
H  51.95500 6.46900 47.71600
H  47.56000 10.21600 47.88700
H  46.20200 11.25300 47.89700
H  46.67600 10.57900 46.37200
H  41.16100 9.46100 46.64700
H  38.56600 11.88500 49.10000
H  38.87100 10.53700 50.19900
H  37.95200 10.28700 48.72700
Mg 53.84500 24.12200 44.81500
C  51.17500 26.25100 43.84300
C  51.90000 21.36000 43.77600
C  56.56400 22.28700 44.83000
C  55.78600 27.05300 45.08100
N  51.83500 23.85000 43.82400
C  50.95200 24.87500 43.64700
C  49.60500 24.34800 43.13300
C  49.73400 22.80700 43.51700
C  51.23400 22.62500 43.77900
C  48.88000 22.41100 44.76100
C  49.37600 24.55800 41.68500
C  47.92100 24.64700 41.22700
H  47.43100 24.05600 39.92500
N  54.21300 22.01100 44.36600
C  53.26400 21.11400 44.06000
C  53.95800 19.83200 44.03400
C  55.26500 20.04500 44.42400
C  55.44500 21.52700 44.49000
C  53.30800 18.56700 43.61200
C  56.27300 18.90500 44.72500
O  55.86600 17.73700 44.53600
C  57.68200 19.15400 45.28800
N  55.83900 24.54300 44.79900
C  56.70900 23.61700 44.97200
C  58.06700 24.26600 45.19200
C  57.86300 25.74800 45.29500
C  56.40900 25.77500 44.99100
C  58.74100 23.72600 46.47800
C  58.76500 26.63300 44.36300
C  58.74600 26.45500 42.83900
N  53.56100 26.28300 44.60900
C  54.41700 27.32900 44.87700
C  53.75200 28.57700 44.84300
C  52.42900 28.20600 44.53000
C  52.38500 26.77700 44.24800
C  54.37300 29.91000 45.03500
C  51.13800 28.67200 44.25300
O  50.69400 29.82600 44.24500
C  50.24200 27.40100 43.72900
C  49.73800 27.89300 42.43600
O  50.35600 28.07200 41.36500
O  48.40000 28.02200 42.53200
C  47.71400 28.63200 41.36100
H  51.24100 20.51200 43.57900
H  57.45900 21.66300 44.77700
H  56.49600 27.87700 45.18400
H  48.78600 24.78800 43.70200
H  49.38400 22.18600 42.69200
H  48.12600 21.63100 44.66000
H  48.35200 23.27900 45.15500
H  49.56700 22.04700 45.52500
H  50.01000 23.87300 41.12200
H  49.79500 25.53500 41.44600
H  47.55600 25.67200 41.15900
H  47.29500 24.22100 42.01200
H  53.95900 17.83000 43.14300
H  52.58500 18.85200 42.84700
H  52.73100 18.08400 44.40200
H  57.77600 18.22400 45.84900
H  57.79300 19.92500 46.05100
H  58.49500 19.17600 44.56300
H  58.62700 24.14500 44.26500
H  58.01900 26.01600 46.34000
H  59.58800 23.10100 46.19700
H  58.06800 23.10700 47.07100
H  59.12500 24.42800 47.21900
H  59.76300 26.51500 44.78500
H  58.54300 27.65600 44.66600
H  58.11600 25.65100 42.45700
H  59.73100 26.26200 42.41500
H  58.41400 27.33100 42.28100
H  53.73300 30.63600 44.53200
H  55.30900 30.17100 44.54100
H  54.49700 30.11800 46.09800
H  49.39100 27.36800 44.40800
H  46.63900 28.76200 41.48600
H  47.95500 28.15600 40.41000
H  48.08400 29.65700 41.33100

