158

Mg 35.22800 2.30200 29.79800
C  33.09800 3.65100 32.21900
C  37.61600 2.06300 32.16100
C  37.45500 1.91500 27.22900
C  32.75900 3.17200 27.38000
N  35.25300 2.82000 31.88900
C  34.28900 3.24300 32.75400
C  34.64500 3.14700 34.19800
C  36.22200 3.01000 34.10300
C  36.38900 2.62900 32.56100
C  37.07700 4.17800 34.61600
C  33.94200 1.98900 35.02800
C  33.96000 2.23100 36.57900
H  34.86500 3.32300 37.19900
N  37.30900 2.00400 29.73200
C  38.11800 1.81800 30.84800
C  39.38700 1.43300 30.40800
C  39.41600 1.41200 28.94900
C  38.00500 1.85600 28.58600
C  40.50800 1.22800 31.40400
C  40.60500 1.11600 28.02900
O  40.54200 1.21700 26.80200
C  41.90900 0.61900 28.67900
N  35.14600 2.54200 27.63400
C  36.18600 2.15700 26.82100
C  35.76200 2.15400 25.32000
C  34.18000 2.48600 25.43100
C  34.02000 2.76200 26.91300
C  36.70300 3.04900 24.42200
C  33.20500 1.31300 25.04000
C  32.21400 1.64200 23.95300
N  33.30300 3.04000 29.72300
C  32.44000 3.41500 28.66200
C  31.18700 3.97500 29.17600
C  31.44800 3.99800 30.57600
C  32.73400 3.49900 30.85700
C  30.06400 4.68200 28.42200
C  30.86600 4.46900 31.81800
O  29.84200 5.03500 32.15100
C  31.86600 4.06600 32.97000
C  32.20000 5.31300 33.75100
O  32.97500 6.21100 33.47400
O  31.52400 5.19400 34.97700
C  31.85000 6.16800 36.05500
H  38.29000 1.95700 33.01300
H  38.20800 1.65700 26.48100
H  31.93400 3.25600 26.66900
H  34.39900 4.12100 34.62100
H  36.57100 2.10900 34.60600
H  37.90900 4.48400 33.98300
H  37.53200 3.74100 35.50400
H  36.46500 5.05400 34.83500
H  34.48300 1.10700 34.68500
H  32.93700 1.81900 34.64200
H  34.04300 1.22400 36.98600
H  32.96900 2.53900 36.91400
H  41.36700 1.85800 31.17200
H  40.84800 0.19200 31.42300
H  40.17700 1.51400 32.40300
H  42.66100 0.15200 28.04400
H  41.68200 -0.10700 29.45900
H  42.37000 1.51700 29.09100
H  35.95000 1.12400 25.01600
H  33.80100 3.36300 24.90700
H  37.16600 3.82300 25.03400
H  36.07300 3.70600 23.82300
H  37.43000 2.58200 23.75800
H  32.80200 0.80200 25.91400
H  33.91700 0.68500 24.50400
H  32.73000 1.65000 22.99300
H  31.91500 2.68500 24.06500
H  31.42200 0.90000 24.05400
H  29.22700 5.03600 29.02400
H  29.77900 4.08500 27.55600
H  30.51600 5.53500 27.91700
H  31.61800 3.25000 33.64900
H  31.30000 7.10900 36.05100
H  32.91600 6.36600 35.93700
H  31.76900 5.73700 37.05200
Mg -11.56400 38.52300 42.37500
C  -9.50600 35.81200 41.86900
C  -9.08100 40.50300 40.95900
C  -13.70200 41.17700 42.22100
C  -14.08500 36.40100 43.33000
N  -9.66700 38.16100 41.18700
C  -9.00900 36.95000 41.23000
C  -7.68600 37.01000 40.48200
C  -7.40700 38.52400 40.53100
C  -8.80600 39.09700 40.88300
C  -6.23300 38.98600 41.63000
C  -7.92000 36.35000 39.07900
C  -6.81400 35.64200 38.23800
H  -6.32600 36.36500 36.96300
N  -11.38000 40.60900 41.87500
C  -10.23100 41.19200 41.36900
C  -10.52900 42.60700 41.06600
C  -11.90600 42.86300 41.35600
C  -12.35800 41.55800 41.83100
C  -9.49600 43.57800 40.29400
C  -12.72800 44.07300 41.19600
O  -12.21400 45.15500 40.72900
C  -14.27200 44.16700 41.29300
N  -13.62700 38.74800 42.57300
C  -14.25100 39.94000 42.61300
C  -15.56000 39.81900 43.34400
C  -15.78000 38.25800 43.45900
C  -14.42000 37.73300 43.02000
C  -15.49200 40.64400 44.68500
C  -17.02900 37.64200 42.65200
C  -17.79700 36.66900 43.39900
N  -11.84100 36.51500 42.66600
C  -12.85700 35.80800 43.11200
C  -12.41900 34.51800 43.46400
C  -11.06300 34.38000 42.98600
C  -10.81900 35.69200 42.41100
C  -13.30900 33.39600 44.09200
C  -9.93100 33.58500 42.82900
O  -9.88500 32.41900 43.09900
C  -8.85200 34.43000 41.98500
C  -7.62900 34.44500 42.92300
O  -7.61100 34.62400 44.11700
O  -6.55000 34.10400 42.19600
C  -5.32600 33.89800 43.00000
H  -8.37600 41.22100 40.53500
H  -14.39700 41.99800 42.40900
H  -14.80100 35.75300 43.84000
H  -6.85700 36.49100 40.96200
H  -7.01600 38.88200 39.57900
H  -5.26600 39.14000 41.15200
H  -6.12400 38.23600 42.41300
H  -6.42400 39.94800 42.10500
H  -8.22500 37.22500 38.50600
H  -8.84500 35.77400 39.10500
H  -7.22400 34.65800 38.01100
H  -5.94900 35.62000 38.90100
H  -8.64900 43.01300 39.90300
H  -9.33600 44.43600 40.94800
H  -10.00300 43.98500 39.42000
H  -14.63100 43.35200 40.66500
H  -14.70600 45.14000 41.06700
H  -14.53000 44.06100 42.34700
H  -16.30300 40.18500 42.63500
H  -15.94800 38.07400 44.52000
H  -15.93400 40.14700 45.54900
H  -15.99000 41.61300 44.65100
H  -14.43900 40.85200 44.87300
H  -16.61100 37.16800 41.76400
H  -17.74600 38.39100 42.31600
H  -18.84500 36.93900 43.27400
H  -17.70200 36.75700 44.48100
H  -17.69000 35.64700 43.03500
H  -12.71200 32.53500 44.39200
H  -14.17200 33.08100 43.50600
H  -13.81800 33.83100 44.95200
H  -8.83900 34.03500 40.97000
H  -5.48200 33.02500 43.63300
H  -5.09500 34.65400 43.75100
H  -4.47200 33.67700 42.36100

