158

Mg 40.68700 10.01900 30.24900
C  42.58100 11.39200 32.98500
C  38.68300 8.50600 32.50000
C  39.09400 8.74900 27.65800
C  43.33700 11.03400 28.13700
N  40.56600 10.07400 32.49900
C  41.40000 10.64900 33.39300
C  40.96300 10.37900 34.83900
C  39.76200 9.38500 34.65200
C  39.73600 9.25200 33.13100
C  39.84900 8.03900 35.43200
C  40.62400 11.62100 35.74000
C  41.62200 11.88000 36.88500
H  41.15300 12.34800 38.26400
N  39.13800 8.70200 30.03700
C  38.40600 8.25300 31.10100
C  37.25700 7.51700 30.54500
C  37.36900 7.56400 29.12800
C  38.56700 8.42600 28.88700
C  36.28500 6.68100 31.35700
C  36.39300 7.06900 28.02100
O  36.65400 7.17900 26.78800
C  35.04800 6.29600 28.41200
N  41.21800 9.83300 28.14400
C  40.36100 9.25500 27.31500
C  40.81400 9.33700 25.83300
C  42.26600 9.99700 25.98400
C  42.24900 10.38000 27.49500
C  40.76700 7.95800 25.11200
C  42.46400 11.29700 25.17100
C  43.90100 11.40200 24.62800
N  42.44000 11.22400 30.40500
C  43.43500 11.46700 29.47700
C  44.55800 12.15900 30.15200
C  44.19300 12.23500 31.52200
C  42.94700 11.52900 31.61000
C  45.82800 12.72600 29.57400
C  44.69100 12.66400 32.79900
O  45.73800 13.27700 32.99700
C  43.57800 12.16800 33.81300
C  44.36700 11.25000 34.73300
O  44.68400 10.09400 34.47300
O  44.66700 11.94100 35.94700
C  45.37600 11.15900 36.95300
H  38.04100 7.97900 33.20900
H  38.53000 8.48800 26.76000
H  44.17500 11.27900 27.48100
H  41.79100 9.83700 35.29500
H  38.88500 9.92700 35.00800
H  40.76100 7.94900 36.02200
H  39.62500 7.10700 34.91200
H  39.05300 8.24900 36.14600
H  39.66400 11.45300 36.22900
H  40.71400 12.44800 35.03500
H  42.35800 12.58900 36.50700
H  42.17100 10.94800 37.02300
H  36.46500 6.67300 32.43200
H  36.26400 5.70300 30.87600
H  35.28000 7.07800 31.21800
H  34.57200 6.76600 29.27300
H  35.36600 5.28700 28.67400
H  34.42600 6.11700 27.53400
H  40.05000 9.94200 25.34400
H  43.09300 9.28800 25.97100
H  39.90900 7.86700 24.44600
H  40.49200 7.20100 25.84700
H  41.73600 7.66900 24.70400
H  42.50100 12.19400 25.78900
H  41.81200 11.43700 24.30900
H  44.57000 10.54500 24.54300
H  44.44500 12.07700 25.28800
H  44.00300 11.91700 23.67300
H  46.02700 12.49400 28.52800
H  46.67600 12.45900 30.20400
H  45.78100 13.81500 29.57100
H  43.09800 13.03200 34.27200
H  46.03000 10.41600 36.49600
H  44.72900 10.68700 37.69200
H  46.01200 11.90000 37.43700
Mg 36.22800 49.44100 24.58600
C  36.62400 47.62600 27.53500
C  34.95600 52.06800 26.46300
C  35.44500 50.99600 21.68200
C  37.50500 46.84100 22.81900
N  35.67000 49.74600 26.80700
C  36.10700 48.88900 27.76400
C  35.82800 49.54300 29.15100
C  35.25700 50.91100 28.80500
C  35.33800 50.94100 27.27400
C  33.88800 51.29600 29.39000
C  37.14600 49.47900 30.04400
C  36.86700 49.45500 31.54400
H  35.43300 49.41700 32.12200
N  35.32200 51.24400 24.10400
C  34.92700 52.13100 25.03400
C  34.56800 53.35300 24.36300
C  34.55800 53.04500 22.96600
C  35.13000 51.71200 22.83000
C  34.38500 54.65200 25.06000
C  34.25300 53.99400 21.76900
O  34.33600 53.63200 20.60200
C  33.63200 55.33000 22.05600
N  36.30400 48.88100 22.48500
C  36.05900 49.77300 21.48900
C  36.43400 49.23600 20.15500
C  36.97700 47.73400 20.52700
C  36.93500 47.77900 22.01400
C  35.26000 49.15800 19.15200
C  38.37800 47.47200 19.86800
C  39.62600 48.26400 20.43800
N  36.95200 47.60600 24.99300
C  37.48300 46.69400 24.19500
C  38.01700 45.58300 25.01600
C  37.56100 45.89400 26.32100
C  37.01500 47.16800 26.27700
C  38.69700 44.34200 24.51900
C  37.59300 45.41400 27.61200
O  38.01500 44.37800 28.08000
C  36.84100 46.49100 28.44700
C  35.58800 45.97200 29.01400
O  34.63500 45.51600 28.33100
O  35.66200 46.02700 30.37700
C  34.53000 45.34400 31.04300
H  34.59300 52.93100 27.02500
H  35.18400 51.55000 20.77800
H  38.06600 45.99300 22.42100
H  35.02200 48.93200 29.55700
H  35.95400 51.69000 29.11700
H  33.30800 51.91800 28.70700
H  34.02700 51.79600 30.34800
H  33.40200 50.36500 29.68300
H  37.51200 50.47800 29.80800
H  37.83900 48.69600 29.73400
H  37.29900 50.41100 31.83900
H  37.41100 48.63600 32.01500
H  33.33000 54.78700 25.29800
H  34.82700 55.48800 24.51800
H  35.02200 54.59200 25.94300
H  34.48300 55.93600 22.36900
H  32.89400 55.05700 22.81100
H  33.06000 55.57300 21.16100
H  37.31600 49.76600 19.79400
H  36.28700 46.95600 20.19900
H  35.28500 50.14400 18.68700
H  34.34200 49.04500 19.72900
H  35.42100 48.26100 18.55300
H  38.38800 47.72200 18.80700
H  38.67600 46.42700 19.94800
H  39.41100 49.14900 21.03700
H  40.16100 48.69100 19.59000
H  40.28700 47.62300 21.02100
H  37.96000 43.69600 24.04300
H  39.28200 44.01800 25.38100
H  39.30400 44.47100 23.62300
H  37.50100 46.63200 29.30300
H  34.33200 44.38600 30.56300
H  33.64300 45.96000 30.89000
H  34.84900 45.16800 32.07000

