158

Mg 0.41500 7.45700 26.17200
C  1.18500 9.51800 28.85300
C  0.55400 4.71000 28.21200
C  0.04600 5.34700 23.56800
C  1.12100 10.12100 24.10000
N  1.21100 7.16700 28.16500
C  1.16600 8.16400 29.17800
C  1.13900 7.53600 30.58400
C  1.24900 6.02500 30.28900
C  1.02500 5.91800 28.79500
C  2.57700 5.37800 30.76400
C  -0.27800 7.88700 31.32900
C  -0.13700 8.19800 32.81200
H  0.99400 7.40800 33.54000
N  0.08800 5.27700 25.92200
C  0.13100 4.34600 26.93800
C  -0.30900 3.08600 26.38300
C  -0.61400 3.30100 25.00200
C  -0.21400 4.69800 24.78200
C  -0.54700 1.92600 27.16200
C  -1.15900 2.46900 23.94700
O  -1.55600 2.86400 22.88300
C  -1.37500 1.01600 24.22100
N  0.68900 7.69900 24.06800
C  0.39300 6.69600 23.21600
C  0.49400 7.24400 21.73000
C  0.35400 8.80500 21.98400
C  0.73400 8.90400 23.48100
C  1.80300 6.73600 20.97200
C  -1.00900 9.35500 21.59500
C  -1.16900 9.80100 20.15000
N  0.93500 9.42600 26.33000
C  1.18100 10.44900 25.43400
C  1.28700 11.79200 26.08500
C  1.26900 11.44000 27.42800
C  1.07900 10.02000 27.51300
C  1.45900 13.05700 25.30900
C  1.31300 12.00300 28.80500
O  1.38200 13.13400 29.19700
C  1.14900 10.79200 29.75300
C  2.29200 10.79800 30.75300
O  3.32200 10.15000 30.76100
O  1.89600 11.62200 31.80700
C  2.54900 11.45300 33.10400
H  0.52400 3.97200 29.01700
H  -0.13600 4.74300 22.67700
H  1.07600 10.99900 23.45300
H  1.94600 7.97300 31.17200
H  0.51400 5.48800 30.88800
H  3.33500 6.08600 31.09900
H  3.02900 4.81600 29.94700
H  2.38500 4.73800 31.62500
H  -0.83700 6.95200 31.29100
H  -0.81000 8.66700 30.78400
H  -1.07600 7.74200 33.12600
H  -0.08100 9.26600 33.02000
H  -0.49100 2.18900 28.21900
H  0.17700 1.14900 26.91800
H  -1.58000 1.57800 27.15500
H  -0.38900 0.64400 24.50000
H  -1.74100 0.57800 23.29300
H  -2.06600 0.86400 25.05000
H  -0.29000 6.82900 21.09800
H  1.16500 9.34300 21.49300
H  2.49200 7.54600 20.73400
H  1.53700 6.06000 20.15900
H  2.27300 6.15000 21.76100
H  -1.30800 10.23400 22.16700
H  -1.75400 8.56900 21.71800
H  -1.86100 9.17600 19.58700
H  -0.23100 9.90100 19.60300
H  -1.59400 10.80500 20.16800
H  2.01800 12.81300 24.40600
H  2.04700 13.76100 25.89800
H  0.42600 13.39900 25.24800
H  0.21800 11.00200 30.28100
H  1.76200 11.71800 33.81000
H  3.41700 12.10900 33.03000
H  2.88800 10.44500 33.34200
Mg -0.91700 33.52400 26.67100
C  -2.48500 31.97900 29.52200
C  0.68900 35.45300 28.80500
C  -0.14100 35.31500 24.03500
C  -2.78800 31.31900 24.63000
N  -0.96700 33.65100 28.95100
C  -1.57400 32.97400 29.91500
C  -1.08200 33.18500 31.30100
C  -0.06800 34.40000 31.12100
C  -0.05300 34.57000 29.53000
C  -0.30000 35.71600 31.98900
C  -0.43700 31.93800 31.98200
C  -1.06100 31.55700 33.38100
H  -0.26000 32.09100 34.66500
N  0.12400 35.21400 26.50800
C  0.76700 35.85800 27.46300
C  1.53500 36.92500 26.91500
C  1.23300 36.91700 25.53600
C  0.37100 35.75400 25.31300
C  2.37600 37.83900 27.77000
C  1.71400 37.80000 24.43300
O  1.36400 37.73000 23.24600
C  2.66000 38.84600 24.84400
N  -1.65800 33.49800 24.55800
C  -0.99900 34.26800 23.66800
C  -1.47500 33.91500 22.27600
C  -2.09500 32.51500 22.46900
C  -2.22300 32.41000 23.96200
C  -2.42100 34.92800 21.67900
C  -1.23600 31.27300 21.95000
C  0.22200 31.07100 22.30500
N  -2.32700 31.95400 26.97700
C  -2.94700 31.14800 26.02900
C  -3.75200 30.24500 26.72400
C  -3.68400 30.54300 28.09400
C  -2.73800 31.58000 28.23300
C  -4.77400 29.29400 26.10200
C  -4.19900 30.28800 29.46400
O  -5.00900 29.49600 29.82800
C  -3.34800 31.14800 30.46500
C  -4.33200 31.91400 31.22800
O  -5.07200 32.82300 30.75900
O  -4.29400 31.62700 32.52900
C  -5.23900 32.43400 33.28800
H  1.46500 35.89600 29.43200
H  0.08700 35.82100 23.09500
H  -3.07900 30.52900 23.93400
H  -1.94000 33.49500 31.89900
H  0.98400 34.14100 31.24600
H  -0.66800 36.46600 31.29000
H  0.68600 36.03900 32.32400
H  -0.90500 35.53000 32.87700
H  0.60600 32.17500 32.19100
H  -0.50400 31.10600 31.28000
H  -1.04300 30.47500 33.50800
H  -2.04400 32.00700 33.52000
H  3.44700 37.67300 27.88600
H  2.03600 37.82300 28.80600
H  2.02100 38.80900 27.42200
H  2.94500 39.43000 23.96900
H  3.58800 38.35300 25.13400
H  2.20100 39.52600 25.56200
H  -0.65100 33.81200 21.57100
H  -3.06800 32.47600 21.97800
H  -1.94000 35.83300 21.30700
H  -3.12500 35.18100 22.47300
H  -3.03300 34.49000 20.89100
H  -1.25600 31.44100 20.87300
H  -1.80100 30.36500 22.16300
H  0.47600 31.90200 22.96300
H  0.84100 31.22700 21.42200
H  0.30800 30.13600 22.85900
H  -4.82400 29.33000 25.01300
H  -5.81600 29.48800 26.35300
H  -4.59200 28.29800 26.50600
H  -2.80000 30.44800 31.09600
H  -6.27000 32.08300 33.23500
H  -5.20200 33.49800 33.05400
H  -5.05800 32.34600 34.35900

