158

Mg 47.78700 15.58100 28.77800
C  45.77000 15.52300 31.65300
C  50.03700 17.44100 30.49600
C  49.54300 15.93700 25.93900
C  45.18900 14.02400 27.04600
N  47.78200 16.52500 30.82300
C  46.93500 16.20800 31.87700
C  47.58300 16.70200 33.23600
C  48.83000 17.50900 32.82200
C  48.91800 17.14200 31.27800
C  48.82500 19.09400 33.18900
C  47.94100 15.52100 34.30600
C  48.06700 15.84600 35.79000
H  47.73000 17.23800 36.23100
N  49.57900 16.50500 28.25900
C  50.35300 17.22900 29.12200
C  51.61100 17.49900 28.48500
C  51.59000 17.05300 27.17300
C  50.19800 16.46400 27.05500
C  52.64000 18.25700 29.29500
C  52.69500 17.00700 26.03900
O  52.57500 16.34300 25.00000
C  53.95700 17.71000 26.30700
N  47.50400 15.01600 26.77200
C  48.28700 15.35200 25.74600
C  47.74300 14.96400 24.33900
C  46.35900 14.32200 24.72800
C  46.32600 14.42600 26.29400
C  47.62700 16.22700 23.35300
C  46.13400 12.80200 24.37800
C  45.31300 12.50300 23.17500
N  45.85800 14.88000 29.20100
C  44.98600 14.23700 28.42100
C  43.79700 13.96200 29.18300
C  44.04600 14.33400 30.49800
C  45.31500 14.96400 30.44200
C  42.62500 13.22600 28.60300
C  43.62200 14.31700 31.94000
O  42.58900 13.81500 32.44100
C  44.71400 15.12400 32.73400
C  44.00500 16.23600 33.39800
O  43.71700 17.26700 32.87200
O  43.61200 15.83000 34.61900
C  42.85400 16.84700 35.34000
H  50.72600 18.11900 31.00400
H  50.07300 16.21900 25.02700
H  44.33300 13.65500 26.47700
H  46.87300 17.42300 33.64100
H  49.71500 17.08300 33.29500
H  49.62500 19.51100 33.80100
H  47.94200 19.33500 33.78000
H  48.86200 19.55800 32.20400
H  48.82000 15.02100 33.90000
H  47.19300 14.74600 34.13800
H  49.06200 15.44000 35.97600
H  47.26000 15.25400 36.22200
H  53.00500 17.66200 30.13300
H  52.14600 19.16600 29.63800
H  53.54600 18.51200 28.74500
H  53.88200 18.79600 26.36800
H  54.62200 17.47400 25.47600
H  54.41300 17.26300 27.19000
H  48.46100 14.27500 23.89500
H  45.53900 14.84900 24.24000
H  48.50500 16.37400 22.72300
H  47.53600 17.19200 23.85000
H  46.66300 16.18800 22.84600
H  45.81200 12.21200 25.23600
H  47.11400 12.41100 24.10400
H  45.76500 11.89700 22.39100
H  44.95800 13.43400 22.73200
H  44.44600 11.96900 23.56500
H  42.47700 13.20100 27.52400
H  41.66300 13.53800 29.01100
H  42.81400 12.19300 28.89400
H  45.10700 14.35000 33.39300
H  42.07400 17.26500 34.70300
H  43.57100 17.63300 35.57700
H  42.38100 16.29200 36.15100
Mg 35.58400 48.63900 24.95700
C  35.60900 47.05300 28.03400
C  34.73900 51.53400 26.66900
C  35.08100 50.08900 21.95700
C  36.31800 45.74500 23.35100
N  35.07000 49.16600 27.11400
C  35.22100 48.36700 28.21200
C  34.93800 49.20600 29.48900
C  34.59800 50.64200 29.02400
C  34.72400 50.42600 27.54300
C  33.13000 51.13000 29.33800
C  36.07800 49.12200 30.59500
C  35.65800 48.42400 31.92000
H  34.22000 48.40900 32.34400
N  34.89100 50.58100 24.34600
C  34.69700 51.62000 25.21600
C  34.45600 52.85500 24.36000
C  34.41000 52.42100 23.01300
C  34.79600 50.98900 23.07600
C  34.21800 54.21500 25.00600
C  34.18400 53.24000 21.69300
O  34.09400 52.72400 20.57800
C  33.91000 54.68400 21.79900
N  35.55600 48.04000 22.95200
C  35.42700 48.80400 21.89000
C  35.79300 48.14600 20.55800
C  36.32500 46.77000 21.07900
C  36.03900 46.81800 22.54000
C  34.63200 47.96400 19.53100
C  37.80200 46.45900 20.71200
C  38.96800 47.30300 21.36200
N  35.82300 46.72000 25.52900
C  36.20500 45.60300 24.73800
C  36.61400 44.53800 25.65800
C  36.43200 45.07300 26.92500
C  35.85600 46.37200 26.79500
C  37.08200 43.14700 25.22500
C  36.63100 44.76300 28.33600
O  36.98300 43.69300 28.85100
C  35.99900 45.93100 29.06700
C  34.90000 45.44400 29.82700
O  33.71900 45.73600 29.66800
O  35.26700 44.60000 30.78000
C  34.30300 44.06100 31.68600
H  34.58400 52.49800 27.15800
H  35.12400 50.65400 21.02300
H  36.70200 44.88800 22.79400
H  33.95600 48.83200 29.77700
H  35.25400 51.45500 29.33600
H  32.49500 51.15000 28.45200
H  33.18300 52.15800 29.69600
H  32.62700 50.52200 30.09000
H  36.33100 50.12200 30.94800
H  36.96200 48.61300 30.20900
H  36.26400 48.83500 32.72800
H  35.95500 47.37700 31.87100
H  34.94500 55.00200 24.80500
H  34.29700 54.16500 26.09200
H  33.22400 54.57900 24.74600
H  34.87100 55.15300 22.01000
H  33.10500 54.84100 22.51600
H  33.59400 55.00900 20.80800
H  36.58800 48.68100 20.03800
H  35.96900 45.89800 20.53100
H  33.71800 48.51100 19.76000
H  34.26200 46.94600 19.41700
H  34.92000 48.21800 18.51000
H  38.00600 46.59000 19.64900
H  37.88300 45.38200 20.86400
H  39.67800 47.68400 20.62800
H  39.69600 46.64500 21.83500
H  38.79400 48.20700 21.94500
H  36.42100 42.70900 24.47700
H  36.98200 42.52600 26.11500
H  38.08700 43.22400 24.81100
H  36.83300 46.17800 29.72400
H  33.27400 44.41500 31.63800
H  34.61400 44.14900 32.72700
H  34.24600 42.97500 31.60400

