158

Mg -1.55200 17.33200 25.56100
C  -2.14800 14.82900 28.10500
C  -1.94900 19.67000 27.90500
C  -1.01500 19.50000 23.10800
C  -1.19400 14.56300 23.18000
N  -2.19500 17.18200 27.74500
C  -2.39100 16.10700 28.58300
C  -2.66500 16.58500 30.03900
C  -2.69000 18.17400 29.88500
C  -2.26200 18.38300 28.42400
C  -4.02100 18.73900 30.44700
C  -1.75300 15.97200 31.05900
C  -1.33900 16.79900 32.30900
H  -0.86500 16.00500 33.50900
N  -1.35700 19.31200 25.54300
C  -1.61200 20.13500 26.60100
C  -1.60800 21.54900 26.11700
C  -1.33700 21.49000 24.70500
C  -1.19400 20.06100 24.38400
C  -1.96100 22.75900 26.99600
C  -1.23700 22.60300 23.67800
O  -0.73800 22.47700 22.55200
C  -1.59700 24.04500 24.21400
N  -1.39900 17.01500 23.38300
C  -1.10300 18.14000 22.64600
C  -0.75100 17.79700 21.24200
C  -0.62800 16.22500 21.23400
C  -1.09800 15.88900 22.65600
C  -1.66400 18.28900 20.11700
C  0.80500 15.79500 20.91300
C  1.92800 16.16900 21.92600
N  -1.78400 15.19800 25.50900
C  -1.57400 14.24500 24.48200
C  -1.85400 12.90200 25.06400
C  -2.06900 13.13600 26.44000
C  -1.94900 14.52900 26.71800
C  -1.83200 11.56900 24.33000
C  -2.25400 12.42000 27.61900
O  -2.35600 11.22900 27.87600
C  -2.38500 13.55200 28.78100
C  -1.28100 13.20400 29.69600
O  -0.11800 13.48800 29.59300
O  -1.87000 12.54200 30.78300
C  -0.96500 11.93900 31.80300
H  -1.95600 20.50000 28.61400
H  -0.71200 20.21100 22.33700
H  -1.14700 13.73500 22.47000
H  -3.59400 16.08300 30.31000
H  -1.90600 18.61700 30.49800
H  -4.05100 18.84600 31.53100
H  -4.90700 18.11900 30.31500
H  -4.30300 19.60100 29.84200
H  -0.81800 15.71200 30.56300
H  -2.13300 15.02700 31.44600
H  -2.14000 17.48800 32.57500
H  -0.49600 17.39700 31.96200
H  -2.91000 23.16400 26.64500
H  -1.23200 23.55700 26.85700
H  -1.96000 22.46600 28.04600
H  -1.22400 24.65800 23.39400
H  -1.09400 24.35500 25.13100
H  -2.67000 24.22900 24.26600
H  0.23900 18.24200 21.13700
H  -1.29100 15.85300 20.45200
H  -1.22100 19.22300 19.77000
H  -2.59400 18.56700 20.61400
H  -1.74300 17.67400 19.22000
H  1.10400 16.39800 20.05600
H  0.96700 14.75300 20.63700
H  2.43400 17.08600 21.62500
H  2.63100 15.37100 22.16300
H  1.37200 16.36200 22.84300
H  -1.04700 11.57800 23.57400
H  -2.74600 11.46000 23.74600
H  -1.65700 10.73700 25.01200
H  -3.30400 13.49600 29.36500
H  -1.24900 10.90300 31.98600
H  -1.00700 12.33500 32.81800
H  0.07300 11.94400 31.47100
Mg 41.19400 7.74500 29.70000
C  42.51900 9.30300 32.65400
C  38.85100 6.16800 31.75400
C  40.18100 6.09400 27.06800
C  43.72300 9.23700 27.99800
N  40.66400 7.80800 31.99900
C  41.38600 8.49700 32.93700
C  40.68900 8.28000 34.34000
C  39.57600 7.15300 34.04900
C  39.69700 6.98000 32.53700
C  39.55300 5.85400 34.93600
C  40.03400 9.55500 35.06100
C  40.04100 9.40600 36.54000
H  40.15600 10.72700 37.32100
N  39.56100 6.45200 29.40600
C  38.80300 5.91200 30.39500
C  37.84400 5.06800 29.72200
C  38.12000 5.02600 28.26900
C  39.38000 5.81200 28.17700
C  36.62100 4.44500 30.49500
C  37.35800 4.39600 27.17800
O  37.71000 4.44800 26.00400
C  36.09800 3.64500 27.52100
N  41.84300 7.71900 27.80500
C  41.31200 6.88600 26.85400
C  41.96700 6.92800 25.42400
C  42.97500 8.09300 25.66300
C  42.87100 8.41600 27.19100
C  42.66200 5.58400 25.04100
C  42.72800 9.28900 24.73600
C  41.38900 10.09100 25.19300
N  42.76900 8.91700 30.17300
C  43.68200 9.46300 29.32200
C  44.66800 10.20300 30.10100
C  44.25000 10.09400 31.46500
C  43.09900 9.31900 31.41400
C  45.82000 10.87900 29.58000
C  44.52000 10.59600 32.77200
O  45.47900 11.31000 33.08100
C  43.34200 10.08200 33.58700
C  43.84000 9.33400 34.77200
O  44.35300 8.23500 34.78200
O  43.66900 10.06400 35.84700
C  44.02400 9.41200 37.15800
H  38.06400 5.68500 32.33700
H  39.78100 5.57100 26.19700
H  44.50000 9.64400 27.34800
H  41.33600 7.69100 34.98900
H  38.60400 7.62600 34.18600
H  39.88500 5.02600 34.31000
H  38.54300 5.67200 35.30400
H  40.21000 5.87800 35.80600
H  38.99800 9.73500 34.77600
H  40.66900 10.37400 34.72400
H  40.70900 8.60200 36.84800
H  39.03500 9.04100 36.74600
H  35.75800 4.97600 30.09300
H  36.60400 4.52900 31.58200
H  36.60400 3.36900 30.32200
H  36.37800 2.83500 28.19500
H  35.76700 3.19900 26.58300
H  35.29700 4.26100 27.92900
H  41.15700 7.05500 24.70500
H  44.02800 7.83500 25.55000
H  42.27900 4.74700 25.62500
H  43.74700 5.48700 25.08200
H  42.30200 5.41200 24.02700
H  42.71000 8.83600 23.74400
H  43.69200 9.79800 24.75600
H  40.86900 9.68500 26.06100
H  40.71000 9.94400 24.35300
H  41.70600 11.12700 25.30700
H  45.95800 11.91000 29.90500
H  45.85600 10.72900 28.50100
H  46.59200 10.26700 30.04800
H  42.80200 10.95600 33.95000
H  45.06500 9.10300 37.06700
H  43.43000 8.55600 37.47800
H  43.91500 10.09400 38.00100

