158

Mg 24.52000 -6.94000 46.63200
C  27.06200 -4.82300 45.46500
C  22.31500 -5.25100 44.54500
C  22.31000 -9.41600 47.15300
C  26.95700 -8.72000 48.41700
N  24.71300 -5.32600 45.12000
C  25.85900 -4.60100 44.79500
C  25.51200 -3.45900 43.88700
C  23.94400 -3.53400 43.61800
C  23.58900 -4.70600 44.50200
C  23.00600 -2.23400 43.83900
C  26.37200 -3.48900 42.54300
C  27.04400 -2.09700 42.28400
H  26.66800 -1.48900 40.95100
N  22.59300 -7.32200 45.95000
C  21.83800 -6.47800 45.11600
C  20.53400 -7.08600 44.86100
C  20.54900 -8.39000 45.54900
C  21.92200 -8.48700 46.29200
C  19.49200 -6.41000 43.99700
C  19.39700 -9.36000 45.55400
O  18.42100 -9.11600 44.80200
C  19.35400 -10.62600 46.33800
N  24.66200 -8.89700 47.53300
C  23.52400 -9.54400 47.86900
C  23.72500 -10.61700 48.93900
C  25.25600 -10.51600 49.21200
C  25.67400 -9.27400 48.42100
C  22.85200 -10.47900 50.17800
C  26.07700 -11.79800 48.94000
C  25.67700 -13.06600 49.66300
N  26.61000 -6.84700 46.97200
C  27.42700 -7.57700 47.75800
C  28.72300 -7.06000 47.74900
C  28.62900 -5.96900 46.88000
C  27.33800 -5.91400 46.38900
C  29.93000 -7.59600 48.59000
C  29.37900 -4.95000 46.23900
O  30.54400 -4.65800 46.37800
C  28.44600 -4.19600 45.24700
C  28.51800 -2.75500 45.43400
O  29.24700 -1.98800 44.88200
O  27.88000 -2.46600 46.52900
C  28.04300 -1.04600 46.94500
H  21.60600 -4.71000 43.91500
H  21.56500 -10.17200 47.40900
H  27.59600 -9.17600 49.17700
H  25.68600 -2.54900 44.46100
H  23.71800 -3.90300 42.61800
H  23.58600 -1.31900 43.71900
H  22.56600 -2.33100 44.83200
H  22.12200 -2.26500 43.20200
H  25.74200 -3.86000 41.73400
H  27.18500 -4.21500 42.54600
H  28.09600 -2.37500 42.21500
H  26.81200 -1.40100 43.09100
H  19.80200 -5.41600 43.67500
H  18.55600 -6.52200 44.54300
H  19.37500 -6.84600 43.00500
H  20.29100 -11.17900 46.28400
H  18.57800 -11.30200 45.98000
H  19.15200 -10.48600 47.40000
H  23.42700 -11.51600 48.39800
H  25.46000 -10.24600 50.24900
H  21.82600 -10.14600 50.02400
H  23.26700 -9.92400 51.01900
H  22.68100 -11.51900 50.45500
H  27.10900 -11.59800 49.22900
H  26.10700 -11.94500 47.86000
H  25.28000 -13.71800 48.88400
H  24.93300 -12.85800 50.43300
H  26.55500 -13.38500 50.22500
H  30.45700 -6.74200 49.01700
H  30.62600 -8.10600 47.92400
H  29.58500 -8.30700 49.34000
H  28.79600 -4.31100 44.22100
H  28.09900 -0.33300 46.12200
H  28.98300 -1.11800 47.49200
H  27.32700 -0.82400 47.73600
Mg 41.46100 40.61700 26.68900
C  41.02700 43.02300 29.07100
C  42.47100 38.45400 29.08700
C  42.32100 38.48700 24.28400
C  40.63700 43.00400 24.25700
N  41.79000 40.81000 28.91000
C  41.44500 41.80200 29.68300
C  41.52000 41.39100 31.11500
C  42.02900 39.91500 31.02500
C  42.08100 39.65900 29.58500
C  43.42100 39.56800 31.71600
C  40.07600 41.46100 31.79100
C  39.86500 40.84000 33.15800
H  39.34300 41.84600 34.15400
N  42.25600 38.67300 26.71100
C  42.61500 37.95900 27.79700
C  43.07200 36.67500 27.33800
C  43.09400 36.64100 25.93400
C  42.54300 37.99400 25.60900
C  43.60200 35.72200 28.31600
C  43.49200 35.53400 24.96200
O  43.26200 35.56200 23.72600
C  44.06000 34.21800 25.45700
N  41.56300 40.78200 24.63400
C  41.91000 39.74300 23.80700
C  41.89100 40.12200 22.28500
C  41.00500 41.34300 22.33000
C  40.98200 41.76700 23.82700
C  43.25200 40.46300 21.68400
C  39.63300 41.18400 21.82300
C  38.51700 40.70200 22.84100
N  40.89400 42.67900 26.61300
C  40.58400 43.48100 25.54900
C  40.32200 44.81000 26.02500
C  40.40500 44.65400 27.46700
C  40.76800 43.34100 27.74600
C  40.16000 46.06000 25.29600
C  40.33800 45.34000 28.76000
O  40.23000 46.54500 29.05200
C  40.58700 44.27700 29.81000
C  41.72900 44.81000 30.59200
O  42.78400 45.24000 30.21100
O  41.43800 44.69000 31.98200
C  42.49200 45.03300 32.94400
H  42.50600 37.73500 29.90800
H  42.44800 37.74600 23.49100
H  40.32500 43.60800 23.40300
H  42.19700 41.99600 31.71800
H  41.25500 39.27000 31.44200
H  44.22300 39.34900 31.01100
H  43.32900 38.68400 32.34800
H  43.83100 40.39700 32.29400
H  39.36400 41.00900 31.09900
H  39.72300 42.48700 31.89800
H  40.87900 40.48400 33.33900
H  39.26800 39.93000 33.11200
H  43.16400 35.79200 29.31200
H  44.68700 35.73400 28.41200
H  43.30300 34.71600 28.02100
H  43.17300 33.69900 25.81900
H  44.59200 34.43600 26.38300
H  44.62200 33.62200 24.73700
H  41.43500 39.24600 21.82500
H  41.53300 42.18100 21.87500
H  43.83400 39.54300 21.73300
H  43.75400 41.25600 22.23900
H  43.20900 40.64000 20.61000
H  39.68100 40.45700 21.01200
H  39.33600 42.16000 21.44200
H  38.73500 40.94000 23.88200
H  38.35600 39.63800 22.66500
H  37.60400 41.28000 22.69700
H  39.42800 46.12900 24.49100
H  41.08300 46.39000 24.81900
H  39.98900 46.79200 26.08400
H  39.77200 44.14600 30.52100
H  43.47600 45.20200 32.50700
H  42.56300 44.19800 33.64100
H  42.33300 45.93700 33.53200

