158

Mg 8.18400 2.94300 27.65600
C  9.32800 1.26600 30.50100
C  6.27300 4.92200 29.66900
C  6.87700 4.16200 25.01500
C  9.73000 0.38200 25.63700
N  7.76800 3.06000 29.83100
C  8.45700 2.38900 30.83400
C  8.04900 2.85500 32.23200
C  6.98500 3.98200 31.89100
C  6.90400 3.94300 30.35400
C  5.56300 3.84900 32.57700
C  9.24400 3.26900 33.12800
C  8.83900 4.16500 34.31600
H  9.77000 4.03500 35.61900
N  6.91400 4.48200 27.35300
C  6.23500 5.16700 28.25400
C  5.46600 6.18400 27.55600
C  5.76700 6.13200 26.19100
C  6.56300 4.90800 26.14700
C  4.65700 7.14200 28.25900
C  5.25100 6.91800 24.95500
O  5.66500 6.68200 23.84200
C  4.20100 7.94800 25.26800
N  8.17600 2.24400 25.58800
C  7.58900 3.04500 24.75800
C  7.78900 2.56200 23.25900
C  8.75100 1.31700 23.40500
C  8.98600 1.36200 24.95100
C  6.53900 2.22800 22.45900
C  10.06000 1.44400 22.69600
C  10.11100 0.48400 21.51900
N  9.19300 1.08700 27.96500
C  9.83000 0.28200 27.04400
C  10.61800 -0.67700 27.86300
C  10.43500 -0.30900 29.19300
C  9.60600 0.80400 29.19600
C  11.55300 -1.72100 27.38100
C  10.78200 -0.63600 30.51500
O  11.41900 -1.57500 30.97900
C  10.09900 0.37200 31.43300
C  9.14200 -0.37400 32.37100
O  8.04500 -0.90200 32.03100
O  9.64700 -0.29000 33.65600
C  8.66900 -0.90400 34.59100
H  5.59200 5.60100 30.18600
H  6.50000 4.61700 24.09800
H  10.44400 -0.15500 25.01000
H  7.59600 1.93200 32.59200
H  7.41500 4.95500 32.12600
H  4.78900 4.15600 31.87500
H  5.48500 4.70300 33.24900
H  5.49200 2.84300 32.99300
H  9.99700 3.63600 32.43000
H  9.80700 2.40600 33.48300
H  7.81400 3.98200 34.64000
H  8.81100 5.19500 33.96000
H  4.86400 8.18100 28.00000
H  4.70300 7.16600 29.34700
H  3.62900 6.93600 27.95800
H  4.66100 8.67800 25.93500
H  3.32600 7.41800 25.64200
H  3.82600 8.39800 24.34800
H  8.29400 3.35400 22.70600
H  8.16400 0.40300 23.30600
H  5.62400 2.42100 23.01800
H  6.57100 1.27200 21.93700
H  6.35000 3.01400 21.72900
H  10.92200 1.32000 23.35200
H  10.23200 2.46100 22.34600
H  10.77500 0.86100 20.74100
H  9.13500 0.26500 21.08700
H  10.51900 -0.47900 21.82700
H  12.34600 -1.62900 28.12400
H  11.89200 -1.44300 26.38300
H  11.08500 -2.70500 27.39600
H  10.95600 0.76600 31.98100
H  7.99000 -1.67800 34.23300
H  8.10000 -0.01900 34.87600
H  9.17900 -1.36100 35.43800
Mg 52.85500 24.92100 45.53800
C  50.16100 27.04400 44.48300
C  51.00000 22.29800 44.41700
C  55.70100 23.16700 45.24900
C  54.64300 27.78200 46.19700
N  50.90000 24.74600 44.49600
C  49.90500 25.69400 44.23000
C  48.74700 24.99900 43.48700
C  48.77700 23.59000 44.17700
C  50.33900 23.53400 44.30600
C  47.95300 23.53800 45.47400
C  48.83800 25.15600 41.92700
C  47.61300 25.09600 41.05800
H  47.71300 24.32500 39.77300
N  53.24400 22.90000 45.15700
C  52.36000 22.02200 44.78200
C  52.99200 20.75800 44.86100
C  54.37100 20.90800 45.09300
C  54.48400 22.36200 45.18400
C  52.11200 19.48000 44.61300
C  55.37400 19.76900 45.19000
O  55.14400 18.60700 44.81000
C  56.68200 19.93800 45.89400
N  54.85200 25.39500 45.59800
C  55.85300 24.48600 45.48800
C  57.28100 25.08700 45.70100
C  56.93100 26.53800 46.10500
C  55.37800 26.60100 45.98100
C  58.07500 24.32800 46.72200
C  57.68700 27.63500 45.36500
C  58.31000 28.61200 46.35700
N  52.43800 26.94600 45.63800
C  53.20900 27.98600 45.87900
C  52.57600 29.21100 45.84400
C  51.39000 28.87000 45.21500
C  51.31400 27.48600 45.07400
C  52.96300 30.63000 46.28100
C  50.11100 29.45300 44.75100
O  49.77000 30.63000 44.84600
C  49.28000 28.25100 44.10800
C  49.21800 28.45900 42.61900
O  50.12200 28.69900 41.85300
O  47.84400 28.57900 42.30400
C  47.56500 29.12300 40.97900
H  50.33900 21.45400 44.20900
H  56.64200 22.61300 45.25700
H  55.26700 28.57900 46.60700
H  47.81500 25.42200 43.86200
H  48.46800 22.74700 43.55900
H  48.71200 23.62000 46.25200
H  47.35600 22.62600 45.45900
H  47.33100 24.42500 45.59700
H  49.54500 24.46300 41.46900
H  49.36800 26.10500 41.85200
H  47.39500 26.12000 40.75200
H  46.77500 24.73900 41.65600
H  51.10100 19.69000 44.26200
H  52.12100 18.93600 45.55700
H  52.64700 18.87400 43.88200
H  57.20000 18.98200 45.83600
H  56.59200 20.44100 46.85700
H  57.30000 20.66900 45.37300
H  57.67900 24.99100 44.69100
H  57.14800 26.56300 47.17200
H  59.11100 24.52800 46.44600
H  58.04700 23.24200 46.80600
H  57.74500 24.75800 47.66800
H  57.00500 28.10600 44.65600
H  58.46900 27.24000 44.71700
H  59.40000 28.57900 46.32800
H  58.01800 28.41500 47.38800
H  57.91900 29.60900 46.15200
H  53.84900 30.44400 46.88700
H  52.17700 31.05900 46.90300
H  53.21400 31.21400 45.39600
H  48.24100 28.21400 44.43400
H  46.48000 29.19500 40.90700
H  47.84000 28.50500 40.12500
H  47.74200 30.19700 40.91700

