158

Mg 43.18000 42.10400 25.82100
C  41.90800 44.36300 28.36200
C  44.18200 40.00700 28.27000
C  44.44900 40.35300 23.36000
C  42.18200 44.61000 23.39400
N  43.17100 42.28500 28.09600
C  42.59800 43.25500 28.95300
C  42.69200 42.87300 30.44400
C  43.40300 41.47900 30.28200
C  43.67100 41.20000 28.79700
C  44.51100 41.32200 31.26900
C  41.27400 42.86300 31.15900
C  41.04000 42.04400 32.48500
H  40.33000 42.78800 33.58600
N  44.13300 40.38100 25.86200
C  44.45800 39.62600 26.97100
C  45.00800 38.34200 26.48600
C  45.17200 38.42300 25.06400
C  44.64900 39.78000 24.73300
C  45.35500 37.26100 27.39100
C  45.57000 37.36500 23.98100
O  45.58300 37.59600 22.76100
C  45.87600 36.01400 24.55600
N  43.35700 42.47600 23.67600
C  43.91200 41.55600 22.89900
C  43.70800 41.84900 21.43800
C  42.74100 43.06500 21.49100
C  42.67500 43.39300 22.95200
C  45.01900 42.00000 20.56800
C  41.32500 42.63600 21.04200
C  41.03000 42.41500 19.56400
N  42.40000 44.05400 25.82100
C  42.03400 44.96800 24.78100
C  41.41800 46.22900 25.27900
C  41.36800 45.97800 26.66000
C  41.85500 44.64300 26.91500
C  40.98700 47.40900 24.51100
C  40.93600 46.69600 27.85800
O  40.44900 47.75400 28.17800
C  41.18600 45.60800 28.98000
C  42.10600 46.11100 30.07500
O  43.32600 46.06200 30.03700
O  41.38400 46.55500 31.16300
C  42.06100 46.53900 32.47700
H  44.36900 39.37000 29.13700
H  44.76700 39.71900 22.52900
H  41.89500 45.34000 22.63400
H  43.28400 43.59500 31.00700
H  42.72200 40.65600 30.50000
H  44.44400 40.32400 31.70200
H  44.52600 41.92600 32.17700
H  45.54700 41.29900 30.93000
H  40.61000 42.43300 30.41000
H  40.95900 43.90600 31.17700
H  41.98100 41.61100 32.82400
H  40.32200 41.27400 32.20000
H  45.23100 37.51500 28.44400
H  46.36400 36.89500 27.20500
H  44.71200 36.41100 27.16200
H  46.25700 35.32700 23.80100
H  44.99700 35.56300 25.01700
H  46.66400 36.18100 25.29100
H  43.22100 40.97300 21.00900
H  43.12600 43.89600 20.90000
H  45.23500 43.06800 20.53700
H  44.96700 41.65900 19.53400
H  45.79500 41.46800 21.11800
H  40.68000 43.39900 21.47800
H  41.11200 41.69300 21.54600
H  40.79500 41.36300 19.40000
H  41.94200 42.72000 19.05000
H  40.19900 43.10700 19.42600
H  41.81400 47.69000 23.85800
H  40.57300 48.24200 25.07900
H  40.14400 47.31400 23.82700
H  40.33700 45.31500 29.59800
H  42.29300 47.60300 32.51600
H  42.96800 45.93600 32.53000
H  41.37100 46.34900 33.29900
Mg -1.59600 34.16900 26.55300
C  -3.43500 32.61600 29.15500
C  0.09900 36.01200 28.94200
C  -0.35800 35.94100 24.13000
C  -3.96100 32.80700 24.31800
N  -1.67900 34.30800 28.81800
C  -2.41800 33.49700 29.62900
C  -2.06500 33.69900 31.05900
C  -0.98900 34.89800 31.00600
C  -0.76900 35.04200 29.51200
C  -1.41500 36.25700 31.66900
C  -1.45000 32.38300 31.66800
C  -2.18900 31.94800 32.92700
H  -1.49200 32.03000 34.27300
N  -0.10500 35.64400 26.50500
C  0.45300 36.23100 27.57100
C  1.45000 37.16600 27.10900
C  1.33100 37.14900 25.69700
C  0.24100 36.29200 25.34900
C  2.31200 38.01400 28.07100
C  2.17800 37.88700 24.71700
O  2.00500 37.91500 23.52300
C  3.28900 38.67000 25.23400
N  -2.07100 34.28900 24.51500
C  -1.31700 35.03400 23.73200
C  -1.70800 34.92100 22.25400
C  -2.87800 33.86100 22.32200
C  -3.05100 33.69600 23.80100
C  -2.21400 36.28900 21.60500
C  -2.55300 32.49900 21.56000
C  -1.46300 31.68800 22.04800
N  -3.18900 32.89000 26.61100
C  -3.97000 32.34500 25.62700
C  -4.79500 31.30200 26.21700
C  -4.67100 31.51300 27.59300
C  -3.64800 32.46100 27.77900
C  -5.87300 30.52400 25.55300
C  -5.26100 31.05600 28.77400
O  -6.11400 30.24700 28.96200
C  -4.45900 31.70000 29.86300
C  -5.46100 32.39100 30.68500
O  -6.23400 33.23700 30.15000
O  -5.43100 32.02100 32.00300
C  -6.36500 32.58100 32.92500
H  0.57800 36.61100 29.71900
H  0.21100 36.38600 23.31100
H  -4.68900 32.29900 23.68200
H  -2.95800 33.96700 31.62400
H  -0.06400 34.66700 31.53400
H  -2.31300 36.59200 31.15100
H  -0.61400 36.99400 31.72900
H  -1.71000 36.12400 32.71000
H  -0.37100 32.53500 31.62700
H  -1.68400 31.52500 31.03700
H  -2.43100 30.88800 32.85100
H  -3.11600 32.52200 32.94800
H  3.34200 37.66300 28.00600
H  2.08200 37.90000 29.13000
H  2.22700 39.07900 27.85700
H  3.10200 39.52600 25.88200
H  3.71400 39.17200 24.36500
H  4.00200 37.94200 25.62100
H  -0.84700 34.53600 21.70900
H  -3.79500 34.35100 21.99500
H  -2.00100 36.25200 20.53700
H  -1.55100 37.09300 21.92200
H  -3.28700 36.45400 21.69900
H  -2.48100 32.68500 20.48800
H  -3.44200 31.87000 21.61900
H  -0.97100 32.17400 22.89000
H  -0.68500 31.47300 21.31500
H  -1.86600 30.72500 22.35900
H  -5.45300 29.84600 24.81000
H  -6.64100 31.17900 25.14200
H  -6.29600 29.85200 26.30100
H  -4.07300 30.82800 30.39100
H  -6.94900 31.73200 33.28100
H  -7.05900 33.37100 32.63900
H  -5.74300 32.92100 33.75400

