158

Mg 48.31500 14.28700 27.21900
C  46.36300 14.38300 30.26300
C  50.68300 16.23000 28.79400
C  50.09700 14.05900 24.48300
C  45.49000 13.00000 25.67800
N  48.41700 15.23600 29.29200
C  47.49900 15.20900 30.32800
C  48.03100 15.96700 31.52600
C  49.29700 16.70000 30.91200
C  49.52800 16.00700 29.59100
C  48.83100 18.20500 30.66500
C  48.28300 15.04200 32.72000
C  47.59600 15.31000 34.16200
H  48.45600 15.09900 35.42200
N  50.13500 15.04600 26.66600
C  50.97500 15.76100 27.52500
C  52.23200 15.97300 26.83000
C  52.20900 15.18900 25.63000
C  50.76400 14.72000 25.54400
C  53.36900 16.69000 27.50000
C  53.34800 14.83400 24.71700
O  53.17100 14.13700 23.73700
C  54.82100 15.29300 24.99000
N  47.80000 13.79600 25.28700
C  48.72200 13.83900 24.32900
C  48.21300 13.16800 22.98400
C  46.69500 12.80100 23.37900
C  46.59600 13.33400 24.82900
C  48.48000 14.11700 21.79400
C  46.36200 11.29800 23.20700
C  47.02200 10.34300 24.09900
N  46.36600 13.81100 27.82600
C  45.38200 13.20300 27.02400
C  44.30400 12.76300 27.85200
C  44.73100 13.22300 29.06600
C  45.91500 13.90100 29.01800
C  43.13600 11.88700 27.51300
C  44.21900 13.27200 30.40300
O  43.12900 12.98700 30.85900
C  45.28100 14.11600 31.26200
C  44.43200 15.28600 31.81600
O  44.30800 16.34500 31.32700
O  43.87600 14.87400 32.99500
C  42.98200 15.79800 33.72600
H  51.50000 16.77600 29.27000
H  50.76400 13.84700 23.64500
H  44.62100 12.53200 25.21300
H  47.27900 16.71300 31.78200
H  50.16000 16.64000 31.57400
H  49.50700 18.91800 31.13700
H  47.82100 18.39200 31.03000
H  48.95300 18.42000 29.60300
H  49.34400 14.90700 32.93000
H  48.03400 14.01100 32.46600
H  46.73400 14.64400 34.19700
H  47.35300 16.37200 34.15900
H  53.09600 17.68700 27.84600
H  54.27400 16.70700 26.89300
H  53.63600 16.08900 28.36900
H  55.22400 14.91500 25.93000
H  54.85100 16.37600 24.87400
H  55.34500 14.84700 24.14500
H  48.78100 12.24700 22.85500
H  46.05700 13.47000 22.80200
H  49.19600 13.72100 21.07400
H  49.02300 14.95900 22.22200
H  47.55900 14.53000 21.38200
H  46.72100 11.05700 22.20600
H  45.28700 11.13000 23.14900
H  47.52900 10.88500 24.89700
H  47.65900 9.64400 23.55600
H  46.26800 9.70200 24.55600
H  42.72500 11.37000 28.38000
H  43.52800 11.20300 26.76000
H  42.32000 12.46300 27.07600
H  45.57800 13.54400 32.14100
H  43.63300 16.64800 33.93200
H  42.56200 15.23200 34.55700
H  42.24900 16.15700 33.00300
Mg -9.45000 18.09100 42.04200
C  -5.98800 17.42200 42.25100
C  -8.73800 21.27300 41.37600
C  -12.74500 18.56200 41.67400
C  -9.94800 14.52000 41.97300
N  -7.55700 19.13000 41.59300
C  -6.33300 18.73500 42.02200
C  -5.34200 19.86500 41.70800
C  -6.27700 21.13600 41.61300
C  -7.65400 20.49500 41.56700
C  -6.04200 22.18300 42.78500
C  -4.43300 19.44600 40.49200
C  -4.99300 18.69700 39.25200
H  -4.79900 19.17600 37.79000
N  -10.60700 19.73200 41.70800
C  -10.09000 20.96000 41.42200
C  -11.16800 21.90400 41.50600
C  -12.41300 21.16900 41.52400
C  -11.98900 19.79500 41.63200
C  -10.96700 23.35500 41.24200
C  -13.85200 21.78300 41.48700
O  -13.91000 23.00000 41.41500
C  -15.13300 20.97000 41.85400
N  -11.04000 16.70300 41.80500
C  -12.35000 17.17300 41.70400
C  -13.37400 15.99800 41.88400
C  -12.45400 14.77100 41.63600
C  -11.03600 15.33700 41.85100
C  -14.30600 15.91900 43.12300
C  -12.61600 14.04400 40.22600
C  -12.61300 12.50200 40.18200
N  -8.29700 16.25200 42.15300
C  -8.61100 14.91900 42.15500
C  -7.40400 14.11700 42.41900
C  -6.38200 15.03600 42.57600
C  -6.94400 16.38100 42.36100
C  -7.14700 12.56000 42.45300
C  -4.94500 15.18400 42.84300
O  -4.10300 14.33100 43.10300
C  -4.64500 16.72900 42.57400
C  -4.01400 17.25400 43.75900
O  -2.82200 17.02100 44.07700
O  -4.80300 18.09800 44.53200
C  -4.12700 18.79000 45.63700
H  -8.36100 22.29400 41.28500
H  -13.81900 18.56300 41.47700
H  -10.12600 13.44500 41.90200
H  -4.81500 19.79000 42.65900
H  -6.15800 21.59100 40.62900
H  -6.98900 22.25600 43.31900
H  -5.70100 23.16000 42.44200
H  -5.22400 21.75600 43.36500
H  -3.61300 18.84500 40.88400
H  -4.08200 20.45500 40.27600
H  -6.07800 18.60100 39.28900
H  -4.48300 17.73500 39.29500
H  -10.96000 23.66300 40.19600
H  -10.02600 23.72400 41.65000
H  -11.62900 23.94000 41.88100
H  -14.91500 20.31100 42.69500
H  -15.36000 20.35200 40.98500
H  -16.01300 21.59300 42.01300
H  -14.02400 15.96700 41.01000
H  -12.58400 14.04200 42.43600
H  -14.43700 14.84500 43.25700
H  -15.25000 16.44300 42.97500
H  -13.88200 16.32500 44.04100
H  -11.70400 14.37800 39.73200
H  -13.47000 14.35100 39.62200
H  -13.46200 12.06400 39.65800
H  -12.82400 12.12900 41.18500
H  -11.75900 11.99400 39.73500
H  -6.38000 12.27400 41.73400
H  -8.07100 12.05800 42.16400
H  -7.07100 12.23300 43.49000
H  -3.90800 16.82000 41.77600
H  -4.51200 19.80600 45.72300
H  -3.04800 18.94000 45.62100
H  -4.26200 18.22400 46.55800

