158

Mg 35.90600 2.55900 30.69400
C  33.64700 3.71500 32.99100
C  38.35700 2.54400 33.12900
C  38.24700 1.56600 28.36100
C  33.54900 2.88200 28.14300
N  35.96000 3.08800 32.71600
C  34.91900 3.42400 33.50800
C  35.30100 3.27800 35.06500
C  36.82600 3.37600 34.86000
C  37.08700 2.97300 33.41600
C  37.48100 4.64100 35.35200
C  34.70500 2.01800 35.70800
C  34.44000 2.12100 37.26200
H  34.99200 3.34800 37.97100
N  38.05500 2.09700 30.70700
C  38.81600 2.15900 31.87500
C  40.16500 1.79400 31.57900
C  40.19500 1.35900 30.14200
C  38.82800 1.69300 29.64600
C  41.28000 1.84200 32.62000
C  41.23400 0.84200 29.31300
O  41.11600 0.50500 28.12200
C  42.59000 0.69000 29.89700
N  35.93000 2.49700 28.51500
C  36.96300 1.87800 27.80900
C  36.63300 1.56400 26.31700
C  35.12400 1.93700 26.26600
C  34.83600 2.51000 27.69800
C  37.62600 2.27200 25.33700
C  34.09500 0.84400 25.81800
C  34.37900 0.11500 24.51900
N  33.97400 3.23000 30.52600
C  33.14200 3.31600 29.42500
C  31.80900 3.72400 29.93000
C  31.93800 3.79800 31.33800
C  33.29700 3.62100 31.58900
C  30.55100 3.82500 29.03900
C  31.21700 4.07200 32.56600
O  30.04400 4.30500 32.65000
C  32.23700 3.89200 33.75000
C  31.94700 4.99100 34.67600
O  32.33000 6.15200 34.54700
O  31.14900 4.49400 35.71000
C  31.04400 5.42600 36.89000
H  39.06500 2.66900 33.95100
H  38.95300 1.30300 27.57000
H  32.75400 2.90100 27.39500
H  34.98100 4.13000 35.66400
H  37.27300 2.51600 35.35900
H  36.89000 5.08200 36.15500
H  37.62600 5.29500 34.49200
H  38.44300 4.45300 35.82900
H  35.32600 1.15300 35.47500
H  33.78200 1.77100 35.18300
H  34.81400 1.26700 37.82500
H  33.35400 2.08400 37.34600
H  41.36200 0.80800 32.95400
H  41.02100 2.53200 33.42300
H  42.16800 2.34400 32.23500
H  43.31100 0.30900 29.17400
H  42.50900 0.11000 30.81700
H  42.94500 1.68900 30.14900
H  36.71400 0.52900 25.98500
H  34.95000 2.82200 25.65400
H  37.15600 3.09900 24.80500
H  38.24600 1.63000 24.71100
H  38.26900 2.81600 26.02900
H  33.12500 1.29400 25.61000
H  34.01100 0.10800 26.61800
H  34.39800 -0.97200 24.59500
H  35.39700 0.38900 24.24100
H  33.62500 0.35500 23.77000
H  30.60700 3.06200 28.26200
H  30.34700 4.85400 28.74000
H  29.65900 3.44400 29.53600
H  31.90100 2.92800 34.13200
H  30.25500 4.93800 37.46200
H  30.71900 6.45100 36.71100
H  31.92900 5.37300 37.52400
Mg 35.42900 49.18300 25.91400
C  35.95300 47.50800 28.93800
C  34.38000 51.86900 27.60000
C  34.93000 50.57800 22.94500
C  36.50900 46.24300 24.19300
N  35.16700 49.62900 28.11500
C  35.40600 48.80900 29.09500
C  35.14100 49.55200 30.43400
C  34.38500 50.83100 29.93700
C  34.69900 50.80600 28.49000
C  32.91000 50.73000 30.19000
C  36.45900 49.82600 31.26000
C  36.54200 49.15700 32.64100
H  36.31200 50.05500 33.86400
N  34.79600 51.02600 25.30900
C  34.53000 52.01400 26.14700
C  34.21900 53.23500 25.41000
C  34.25100 52.81300 24.04000
C  34.66200 51.39600 24.06500
C  33.87300 54.62400 26.08700
C  33.96200 53.65400 22.83900
O  34.10600 53.22300 21.70200
C  33.51700 55.11500 22.93800
N  35.80300 48.54800 23.92100
C  35.41000 49.26500 22.83800
C  35.49000 48.59200 21.46300
C  36.29300 47.32300 21.94600
C  36.29100 47.35600 23.47400
C  34.09100 48.25700 20.95100
C  37.73500 47.32800 21.43900
C  37.87400 47.02900 19.91800
N  35.98500 47.23900 26.42600
C  36.38700 46.16800 25.60600
C  36.66200 45.03500 26.39700
C  36.51800 45.47100 27.71200
C  36.12500 46.83700 27.66600
C  37.22800 43.60800 26.00700
C  36.63900 45.18500 29.14400
O  37.00700 44.12100 29.64200
C  36.44300 46.51600 29.95200
C  35.46300 46.13600 30.88300
O  34.32200 45.93200 30.56900
O  36.00500 45.96600 32.14300
C  35.00200 45.36500 33.03100
H  33.90600 52.73700 28.06300
H  34.68700 50.90700 21.93200
H  36.81000 45.33500 23.66600
H  34.50100 48.99400 31.11700
H  34.80900 51.74300 30.35700
H  32.53500 49.80500 30.62700
H  32.41500 50.87500 29.23000
H  32.62800 51.58400 30.80500
H  36.53000 50.90700 31.37300
H  37.32500 49.51500 30.67600
H  37.55200 48.75300 32.69900
H  35.80100 48.35800 32.60400
H  34.76800 55.15200 25.75800
H  33.79700 54.50500 27.16700
H  33.02600 55.04300 25.54300
H  34.27900 55.73900 23.40500
H  32.62200 55.10100 23.56100
H  33.15900 55.55100 22.00500
H  35.97200 49.23400 20.72500
H  35.75700 46.42000 21.65500
H  33.33500 48.52000 21.69000
H  33.85900 47.24900 20.60800
H  33.93500 48.99400 20.16300
H  38.33400 46.69200 22.09100
H  38.06300 48.35200 21.61600
H  38.25700 47.84800 19.30900
H  36.86300 46.87900 19.53700
H  38.38200 46.07500 19.78100
H  36.45200 42.98000 25.56900
H  37.64600 43.03700 26.83600
H  38.07700 43.58400 25.32400
H  37.34700 46.92300 30.40500
H  35.00900 44.27900 32.94600
H  33.98000 45.65900 32.79200
H  35.30800 45.59000 34.05300

