158

Mg 48.13600 45.87000 43.17100
C  44.89900 46.23000 42.11000
C  48.31800 42.72000 41.83900
C  51.64400 46.20600 42.93000
C  48.08300 49.15400 44.30600
N  46.80500 44.72000 42.07900
C  45.52900 45.10200 41.70100
C  44.87700 43.94200 40.93200
C  45.83100 42.72000 41.19300
C  47.09300 43.42300 41.74900
C  45.27100 41.65400 42.14400
C  44.68800 44.29700 39.41300
C  43.43900 43.54700 38.83100
H  43.52700 43.16600 37.33000
N  49.76000 44.63300 42.57800
C  49.59700 43.32600 42.08300
C  50.90400 42.77800 41.75300
C  51.90100 43.69000 42.15500
C  51.14000 44.88600 42.55700
C  51.11200 41.36300 41.20900
C  53.37300 43.47200 42.06600
O  53.80700 42.40000 41.67900
C  54.33000 44.61000 42.44100
N  49.56300 47.45200 43.43300
C  50.92200 47.29400 43.34800
C  51.64900 48.49900 43.96400
C  50.60200 49.50200 44.27400
C  49.33200 48.65500 44.06400
C  52.63700 48.10100 45.08000
C  50.63800 50.79300 43.32700
C  51.48900 51.98300 43.87700
N  46.71200 47.33000 43.45400
C  46.78900 48.60800 43.99000
C  45.44600 49.19700 43.99900
C  44.68000 48.32500 43.22300
C  45.51900 47.23600 42.85200
C  45.15400 50.66900 44.46900
C  43.39800 48.12900 42.60000
O  42.45100 48.95900 42.66200
C  43.43200 46.77100 41.82700
C  42.43200 45.81400 42.30100
O  41.46200 45.44400 41.64400
O  42.42400 45.65200 43.62700
C  41.27000 44.92700 44.18200
H  48.42100 41.66000 41.60000
H  52.72600 46.34800 42.94000
H  48.07500 50.18900 44.65400
H  43.89800 43.74200 41.36500
H  46.06600 42.18300 40.27300
H  44.31200 41.98000 42.54600
H  45.98100 41.65800 42.97100
H  45.26700 40.62800 41.77600
H  45.54500 43.99700 38.81000
H  44.44400 45.35600 39.32600
H  42.49700 44.04100 39.07200
H  43.43900 42.66400 39.47000
H  51.58700 41.41200 40.22900
H  50.24900 40.71300 41.05900
H  51.74800 40.71000 41.80600
H  54.41000 45.36200 41.65600
H  55.35900 44.34300 42.68400
H  53.99800 44.96400 43.41600
H  52.22300 48.95800 43.15900
H  50.66200 49.81800 45.31500
H  52.48200 47.03900 45.26800
H  52.49800 48.70000 45.98000
H  53.64800 48.20500 44.68300
H  49.65600 51.25900 43.23800
H  50.98700 50.57800 42.31700
H  51.64400 51.94400 44.95500
H  50.97100 52.94000 43.81800
H  52.41500 52.07700 43.31000
H  45.93600 51.41100 44.30900
H  44.85200 50.67500 45.51700
H  44.23700 50.92900 43.94000
H  43.23900 47.16400 40.82900
H  41.48000 44.55400 45.18400
H  40.74200 44.17500 43.59600
H  40.52500 45.64700 44.52100
Mg 29.88300 58.37800 39.99100
C  26.93500 56.52500 39.36600
C  31.65800 55.51200 39.07000
C  32.80200 60.19900 40.31600
C  28.04100 61.29800 40.36700
N  29.31400 56.28000 39.33300
C  28.06300 55.81600 39.05000
C  28.07500 54.33500 38.61700
C  29.61300 53.91400 38.61300
C  30.24500 55.30500 38.99600
C  30.01900 52.69000 39.43500
C  27.31400 54.16400 37.21800
C  27.38500 55.36500 36.10900
H  27.40400 54.97900 34.64400
N  31.96200 57.90900 39.82000
C  32.44400 56.65800 39.47900
C  33.87100 56.71500 39.55100
C  34.24100 58.07100 39.80400
C  32.99200 58.83500 40.04500
C  34.78500 55.50300 39.36100
C  35.62100 58.67700 39.85700
O  36.57700 57.90900 39.71100
C  35.89800 60.15800 40.19100
N  30.35000 60.51700 40.36300
C  31.61700 60.98100 40.51800
C  31.59000 62.51300 40.58300
C  30.11500 62.83500 40.82300
C  29.43900 61.46600 40.49300
C  32.55800 63.16300 41.65800
C  29.54600 63.96100 39.95800
C  28.69500 64.81800 40.80800
N  27.89200 58.88200 40.00600
C  27.27400 60.08000 40.23000
C  25.85400 59.80000 40.28900
C  25.64400 58.44900 39.87300
C  26.93000 57.89500 39.78900
C  24.80400 60.83600 40.55300
C  24.65100 57.40300 39.61700
O  23.44300 57.38000 39.66300
C  25.46400 56.14200 39.22000
C  25.10800 55.09900 40.16700
O  25.65300 54.97800 41.28700
O  24.09700 54.29100 39.78400
C  23.40000 53.55100 40.87900
H  32.08000 54.67200 38.51500
H  33.64100 60.89700 40.33900
H  27.47100 62.23000 40.40300
H  27.57300 53.73500 39.37500
H  29.99200 53.75300 37.60300
H  30.84900 52.87000 40.11800
H  30.40800 51.93000 38.75800
H  29.12800 52.34400 39.96000
H  26.28400 53.98500 37.52800
H  27.61200 53.21400 36.77500
H  28.30200 55.92700 36.28500
H  26.62000 56.13400 36.21600
H  35.28100 55.53100 38.39100
H  34.14600 54.62400 39.26600
H  35.46000 55.43700 40.21400
H  35.51300 60.87000 39.46200
H  36.98800 60.19700 40.19700
H  35.51700 60.42100 41.17700
H  31.93100 62.93900 39.64000
H  29.87100 63.08900 41.85400
H  32.06400 63.71800 42.45500
H  33.23000 63.82500 41.11100
H  33.27800 62.50400 42.14300
H  29.00200 63.53600 39.11500
H  30.28700 64.64100 39.53700
H  28.46100 64.37800 41.77700
H  27.66800 64.84400 40.44400
H  29.08500 65.83100 40.90700
H  24.34800 61.29700 39.67600
H  25.20100 61.59400 41.22800
H  23.94200 60.36500 41.02500
H  25.30800 55.82900 38.18800
H  24.08400 52.82900 41.32400
H  22.48400 53.13500 40.46000
H  23.16800 54.31600 41.62000

