158

Mg 16.66800 52.21800 26.38000
C  18.56700 50.97000 29.05800
C  14.17100 53.04600 28.47800
C  15.27400 53.90100 23.81800
C  19.17700 51.03600 24.19900
N  16.32800 51.81500 28.44200
C  17.31000 51.51400 29.41800
C  16.81900 51.71600 30.85600
C  15.37300 52.06700 30.56100
C  15.24600 52.30800 29.08500
C  14.40100 50.98900 31.04800
C  17.52200 52.90800 31.61100
C  17.36600 52.95600 33.17000
H  16.26300 52.07900 33.74700
N  14.84300 53.15100 26.18000
C  14.05900 53.52300 27.14300
C  13.10200 54.50200 26.65300
C  13.36900 54.68400 25.29700
C  14.54300 53.89400 25.06800
C  12.03200 54.94300 27.51500
C  12.58200 55.50900 24.28300
O  12.83700 55.63100 23.05400
C  11.48100 56.41100 24.84500
N  17.03200 52.36500 24.18700
C  16.44200 53.21700 23.42600
C  17.12000 53.26600 22.07400
C  18.42600 52.37100 22.22500
C  18.24600 51.88600 23.61500
C  16.11500 52.76700 21.02100
C  19.73500 53.15500 21.96600
C  21.01100 52.42400 21.46000
N  18.41700 51.21800 26.53400
C  19.34800 50.74700 25.57600
C  20.45100 50.25200 26.20800
C  20.22900 50.30300 27.60500
C  18.96200 50.87600 27.73100
C  21.68200 49.68000 25.49800
C  20.77100 50.10500 28.87800
O  21.89800 49.68200 29.21300
C  19.70400 50.56300 29.90300
C  19.37800 49.40700 30.73900
O  18.86700 48.31900 30.46200
O  19.65400 49.72000 32.07000
C  19.26900 48.72100 33.04500
H  13.49600 53.34900 29.28000
H  14.96500 54.60400 23.04100
H  20.01200 50.71500 23.57200
H  16.96300 50.74700 31.33300
H  15.06400 53.04100 30.93800
H  13.54100 50.83500 30.39700
H  14.04500 51.38500 31.99900
H  14.90900 50.03700 31.20500
H  17.23600 53.86400 31.17300
H  18.58400 52.72400 31.45400
H  17.23200 54.00300 33.44000
H  18.28500 52.56900 33.61100
H  11.03700 54.61400 27.21600
H  12.00500 56.02600 27.63800
H  12.20500 54.62100 28.54200
H  10.64100 55.80400 25.18300
H  10.98300 56.99900 24.07400
H  11.91800 57.05500 25.60800
H  17.43700 54.29400 21.89700
H  18.43800 51.57400 21.48200
H  16.60500 52.43000 20.10700
H  15.44100 53.55400 20.68300
H  15.57600 51.90500 21.41400
H  20.07200 53.67600 22.86200
H  19.57600 53.91300 21.19900
H  21.66000 52.24600 22.31700
H  21.59100 52.94000 20.69500
H  20.67500 51.43500 21.14700
H  21.28700 49.10800 24.65800
H  22.12300 48.88800 26.10300
H  22.46400 50.38300 25.21000
H  19.97500 51.43900 30.49300
H  18.20100 48.50000 33.03500
H  19.48400 48.93800 34.09100
H  19.87200 47.87900 32.70600
Mg -11.67200 15.64400 42.11500
C  -8.79500 13.78100 41.68700
C  -10.35500 18.19700 40.51800
C  -14.79100 17.11100 41.95400
C  -13.29900 12.61100 43.26400
N  -9.69500 15.87800 41.10400
C  -8.70500 15.09200 41.18000
C  -7.47600 15.80100 40.48000
C  -7.96300 17.29100 40.35600
C  -9.46100 17.12600 40.66000
C  -7.24800 18.33700 41.28600
C  -6.97400 15.15100 39.15100
C  -5.46400 14.96500 38.91600
H  -4.97500 15.62200 37.65500
N  -12.42200 17.46200 41.44700
C  -11.70600 18.34800 40.70800
C  -12.51900 19.44600 40.29600
C  -13.82600 19.19600 40.74900
C  -13.74600 17.88600 41.45900
C  -11.96700 20.63600 39.54700
C  -14.98300 20.12800 40.57400
O  -14.86800 21.18500 39.91500
C  -16.30400 19.88700 41.19700
N  -13.76700 15.02400 42.58800
C  -14.80900 15.79600 42.35100
C  -16.17800 15.07500 42.65600
C  -15.67500 13.66400 43.13200
C  -14.18200 13.69400 42.97800
C  -17.21700 15.66700 43.61500
C  -16.31900 12.47600 42.27900
C  -16.41700 11.10000 42.93400
N  -11.18300 13.54900 42.53400
C  -11.90900 12.48500 42.96200
C  -10.93400 11.39600 43.16600
C  -9.71700 11.80000 42.61700
C  -9.91500 13.15000 42.27400
C  -11.22600 10.02300 43.69000
C  -8.34100 11.45200 42.25800
O  -7.72300 10.40600 42.32700
C  -7.64700 12.70500 41.72900
C  -6.62300 13.10100 42.72100
O  -6.71500 13.42900 43.90000
O  -5.41600 12.86500 42.11700
C  -4.23300 13.43200 42.73900
H  -9.83500 19.03300 40.04500
H  -15.83500 17.33400 41.72600
H  -13.79200 11.69100 43.58500
H  -6.72500 15.69200 41.26200
H  -7.85900 17.68200 39.34400
H  -6.18700 18.08900 41.25900
H  -7.64700 18.24500 42.29600
H  -7.41600 19.34500 40.90700
H  -7.45500 15.57600 38.27000
H  -7.49200 14.19200 39.14000
H  -5.27500 13.89200 38.90000
H  -4.92900 15.38300 39.76900
H  -12.56600 20.83900 38.65900
H  -11.03000 20.31900 39.09000
H  -11.72500 21.51500 40.14400
H  -17.00600 20.70200 41.02400
H  -16.07500 19.74600 42.25300
H  -16.75700 18.99700 40.76000
H  -16.59000 14.97500 41.65200
H  -15.92200 13.47600 44.17700
H  -17.57000 15.00900 44.40900
H  -18.07900 15.94800 43.00900
H  -16.80200 16.57500 44.05100
H  -15.75900 12.29700 41.36100
H  -17.37300 12.66700 42.07700
H  -17.23100 10.57400 42.43600
H  -16.60500 11.29400 43.99000
H  -15.51200 10.52300 42.74400
H  -11.89500 10.01100 44.55000
H  -10.37100 9.49200 44.10900
H  -11.73200 9.47700 42.89400
H  -7.17200 12.51500 40.76700
H  -3.46300 13.43700 41.96800
H  -3.86500 12.81200 43.55700
H  -4.41700 14.43300 43.13000

