158

Mg 8.59800 47.73800 25.08700
C  6.49200 47.78600 27.88900
C  11.16100 48.82200 27.21000
C  10.68400 47.95500 22.38700
C  5.94000 47.31000 22.98000
N  8.74200 48.31700 27.38500
C  7.76800 48.12400 28.30400
C  8.32500 48.42400 29.75300
C  9.78600 48.88400 29.43700
C  9.93900 48.71900 27.88400
C  10.18600 50.25300 30.06700
C  8.10900 47.24500 30.74900
C  9.10000 47.02500 31.94300
H  8.41100 46.42000 33.22300
N  10.65200 48.30300 24.78900
C  11.53000 48.67500 25.75100
C  12.82600 48.74300 25.15700
C  12.74600 48.43200 23.80600
C  11.28200 48.27500 23.59900
C  14.03700 49.13000 26.03700
C  13.80600 48.48100 22.80900
O  13.62700 48.21700 21.62800
C  15.30800 48.45400 23.19800
N  8.29700 47.77200 22.87600
C  9.36300 47.69400 22.00600
C  8.83400 47.23800 20.61000
C  7.27800 47.00800 20.85000
C  7.11900 47.33000 22.30900
C  9.40300 48.13900 19.43100
C  6.93000 45.61400 20.43400
C  5.50300 45.36300 19.88200
N  6.68900 47.46800 25.34500
C  5.66100 47.43300 24.39900
C  4.34400 47.43700 25.04100
C  4.68500 47.38700 26.37900
C  6.08900 47.43500 26.52100
C  2.94800 47.46600 24.36000
C  4.07800 47.35200 27.71100
O  2.87800 47.27700 27.98600
C  5.23600 47.58400 28.74300
C  5.16100 46.42400 29.72700
O  5.41900 45.25600 29.47200
O  4.65100 46.84800 30.94500
C  4.26400 45.75300 31.84300
H  11.93700 49.15700 27.90100
H  11.38100 47.78300 21.56400
H  5.03400 47.16700 22.38700
H  7.79600 49.29500 30.14000
H  10.48900 48.12500 29.77900
H  9.31100 50.86500 30.28300
H  10.83800 50.75100 29.35000
H  10.81800 49.94500 30.90000
H  8.14100 46.31000 30.19000
H  7.12200 47.45800 31.16000
H  9.53400 48.00300 32.15300
H  9.96400 46.42500 31.65700
H  13.86600 49.33800 27.09300
H  14.37400 50.09700 25.66200
H  14.86300 48.43700 26.19300
H  15.72200 49.29100 23.76200
H  15.91400 48.27100 22.31100
H  15.46400 47.59200 23.84700
H  9.34100 46.29400 20.41000
H  6.73300 47.67600 20.18300
H  8.57900 48.76600 19.08900
H  9.73800 47.50000 18.61400
H  10.32800 48.61400 19.75900
H  6.86000 44.97400 21.31300
H  7.60700 45.26200 19.65600
H  5.51700 44.52300 19.18800
H  4.98400 46.23300 19.48200
H  4.95900 45.04400 20.77200
H  2.43400 46.57300 24.71500
H  3.06500 47.31000 23.28800
H  2.37400 48.38000 24.51500
H  5.13500 48.54700 29.24200
H  3.67300 46.18900 32.64900
H  5.08100 45.25800 32.36700
H  3.56500 45.06700 31.36400
Mg -9.70000 41.31300 41.76900
C  -8.56200 38.04900 41.12500
C  -6.80000 42.43400 40.39100
C  -11.11600 44.19800 41.87500
C  -12.76000 39.85200 43.01000
N  -8.03400 40.34800 40.73700
C  -7.75400 38.97900 40.63800
C  -6.38200 38.71000 39.82900
C  -5.80400 40.12400 39.83300
C  -6.90800 41.00500 40.39000
C  -4.42400 40.45200 40.59900
C  -6.59700 38.04900 38.40300
C  -5.85600 36.72700 38.04000
H  -4.99100 36.86700 36.75000
N  -9.05200 43.11900 41.20500
C  -7.84800 43.39700 40.68600
C  -7.72900 44.81200 40.51800
C  -8.99400 45.39200 40.89700
C  -9.81100 44.25900 41.30300
C  -6.43900 45.49400 39.84100
C  -9.35900 46.87600 40.86600
O  -8.55800 47.72300 40.43900
C  -10.68700 47.32600 41.21200
N  -11.68900 41.92100 42.29700
C  -11.88600 43.23400 42.40100
C  -13.31500 43.50400 42.85300
C  -13.62600 42.19300 43.67300
C  -12.64200 41.25700 42.96000
C  -13.55000 44.87100 43.64500
C  -15.13300 41.71300 43.47300
C  -15.92300 41.20800 44.68100
N  -10.55300 39.30900 42.07200
C  -11.81900 38.90400 42.51200
C  -11.71500 37.40500 42.59800
C  -10.44800 37.06600 42.08000
C  -9.82800 38.27200 41.72200
C  -12.84600 36.51400 43.12500
C  -9.55200 35.97500 41.84000
O  -9.71800 34.74500 42.04300
C  -8.34600 36.53200 41.10900
C  -7.16700 35.97300 41.85400
O  -6.42700 36.54300 42.62900
O  -6.85000 34.83900 41.14600
C  -5.56200 34.23800 41.43300
H  -5.81600 42.76400 40.05400
H  -11.52000 45.20300 42.01400
H  -13.57800 39.37900 43.55900
H  -5.66400 38.10300 40.38100
H  -5.60300 40.49600 38.82900
H  -3.82900 41.13100 39.98800
H  -3.99100 39.45500 40.67200
H  -4.57500 40.75000 41.63700
H  -6.36600 38.81100 37.65900
H  -7.66100 37.88900 38.23300
H  -6.69700 36.06700 37.82600
H  -5.20300 36.40800 38.85300
H  -6.47200 46.56200 39.62600
H  -6.11000 44.98700 38.93400
H  -5.63100 45.26800 40.53700
H  -10.86500 48.38400 41.01800
H  -10.92800 47.26400 42.27300
H  -11.48400 46.79300 40.69300
H  -13.80200 43.57400 41.88100
H  -13.43000 42.35800 44.73200
H  -13.96200 45.57100 42.91900
H  -12.64600 45.35000 44.02100
H  -14.26200 44.71000 44.45500
H  -15.22000 40.87700 42.77900
H  -15.71400 42.51900 43.02500
H  -16.82300 41.82100 44.71400
H  -15.31700 41.48400 45.54400
H  -16.01000 40.12300 44.74600
H  -13.55400 37.24600 43.51300
H  -12.56600 35.82300 43.92100
H  -13.12900 35.89100 42.27600
H  -8.29700 36.22200 40.06500
H  -5.49000 33.41200 40.72600
H  -5.56100 33.76000 42.41200
H  -4.80500 35.01800 41.34700

