158

Mg 17.44900 -1.75300 27.91900
C  16.36600 0.46900 30.31400
C  19.12800 -3.48000 30.26900
C  18.94500 -3.45400 25.44200
C  16.14200 0.52200 25.40200
N  17.66900 -1.53300 29.95700
C  17.14500 -0.57500 30.82100
C  17.54500 -0.84600 32.25700
C  18.78300 -1.77400 32.13700
C  18.49200 -2.29200 30.67000
C  20.23800 -1.21600 32.44500
C  16.35800 -1.34000 33.19700
C  16.54600 -1.03200 34.77300
H  17.99400 -0.97000 35.23800
N  18.61400 -3.47500 27.91400
C  19.23800 -4.05600 28.99100
C  19.92800 -5.23200 28.51900
C  19.97800 -5.12500 27.08000
C  19.07400 -4.02700 26.73400
C  20.56800 -6.08300 29.48200
C  20.62000 -6.10700 26.08200
O  20.42800 -6.00600 24.91100
C  21.42800 -7.21200 26.65600
N  17.44300 -1.54000 25.77600
C  18.25400 -2.36100 25.00900
C  18.11700 -1.92600 23.47900
C  17.19300 -0.68200 23.52100
C  16.91400 -0.52900 25.00000
C  19.35800 -1.68600 22.74400
C  15.95800 -0.83600 22.59300
C  14.80800 -1.66500 23.20100
N  16.38500 0.02300 27.84000
C  15.84700 0.72100 26.77700
C  15.02400 1.80300 27.32200
C  15.18400 1.65400 28.67900
C  16.06700 0.59600 28.99600
C  14.16100 2.75800 26.47900
C  14.80600 2.25500 29.96800
O  13.93800 3.09200 30.23200
C  15.54000 1.54900 31.10900
C  16.38000 2.65800 31.78900
O  17.56200 2.82400 31.66400
O  15.55000 3.20800 32.79200
C  16.25800 3.97100 33.81000
H  19.80100 -3.88500 31.02800
H  19.59900 -3.85600 24.66500
H  15.84900 1.17700 24.57900
H  17.85100 0.10300 32.69600
H  18.62900 -2.63200 32.79000
H  20.17100 -0.16900 32.74100
H  20.75400 -1.36400 31.49700
H  20.77200 -1.77000 33.21700
H  16.24700 -2.42400 33.15800
H  15.42100 -0.84300 32.94700
H  16.06900 -1.84200 35.32400
H  15.95100 -0.15600 35.02800
H  20.46600 -7.14900 29.27800
H  20.20900 -5.73900 30.45200
H  21.63500 -5.89500 29.36600
H  22.17200 -6.73800 27.29600
H  22.07100 -7.72200 25.93900
H  20.76900 -7.86300 27.23100
H  17.66900 -2.70700 22.86400
H  17.64300 0.26600 23.22700
H  19.44500 -2.28600 21.83800
H  20.18700 -2.00200 23.37800
H  19.56800 -0.63000 22.57500
H  16.17400 -1.31600 21.63800
H  15.63600 0.17500 22.34200
H  13.98400 -1.06700 23.59000
H  15.13200 -2.39400 23.94400
H  14.44100 -2.31700 22.40800
H  14.12800 3.69300 27.03900
H  13.19200 2.26300 26.54500
H  14.53500 2.84300 25.45900
H  14.85200 1.03300 31.77800
H  16.71400 4.88800 33.43700
H  17.02100 3.28500 34.17700
H  15.64900 4.27100 34.66300
Mg 9.35300 48.24200 26.58900
C  7.40600 48.40400 29.47100
C  11.98600 49.25500 28.63800
C  11.39000 47.98700 23.98500
C  6.60700 47.63000 24.67600
N  9.58600 48.83100 28.82700
C  8.69400 48.70900 29.83700
C  9.36400 48.99500 31.17300
C  10.58100 49.84800 30.72300
C  10.81700 49.28300 29.29100
C  10.35000 51.38100 30.80500
C  9.71400 47.62800 31.89500
C  10.10700 47.70400 33.41000
H  9.46500 46.56300 34.33100
N  11.35000 48.33400 26.35800
C  12.26500 48.81600 27.32700
C  13.65400 48.57200 26.79900
C  13.52000 48.21200 25.46400
C  12.04900 48.15000 25.19200
C  14.95300 48.80700 27.66100
C  14.66800 47.78100 24.42700
O  14.36600 47.30800 23.33200
C  16.10800 47.77500 24.87400
N  9.09800 47.70800 24.66500
C  10.06900 47.75400 23.72400
C  9.50700 47.49900 22.33000
C  7.93600 47.45100 22.48700
C  7.88500 47.56400 24.03100
C  9.96400 48.37200 21.15700
C  7.15500 46.25200 21.83100
C  6.14700 46.67000 20.77400
N  7.40000 48.19300 26.93300
C  6.37500 47.79800 26.03900
C  5.10300 47.63200 26.75800
C  5.51000 47.92600 28.11500
C  6.88400 48.24400 28.17100
C  3.80500 47.17300 26.24500
C  4.91200 47.98600 29.45900
O  3.73200 47.78800 29.76600
C  6.20000 48.16100 30.38500
C  6.37900 46.91800 31.14300
O  6.91000 45.86400 30.73600
O  5.92100 47.02900 32.47100
C  5.97700 45.71000 33.12300
H  12.80000 49.71800 29.19900
H  12.12400 47.93900 23.17900
H  5.73900 47.32900 24.08500
H  8.61500 49.49600 31.78700
H  11.41400 49.56700 31.36700
H  9.50000 51.64100 31.43600
H  10.12900 51.71000 29.79000
H  11.25500 51.93500 31.05400
H  10.64400 47.33800 31.40600
H  8.85300 46.97200 31.76600
H  9.91300 48.74900 33.65400
H  11.18300 47.53600 33.35600
H  14.72600 48.89400 28.72300
H  15.43100 49.77300 27.49800
H  15.58400 47.91900 27.62100
H  16.34700 48.76200 25.26900
H  16.73800 47.48200 24.03400
H  16.07600 46.95900 25.59600
H  9.87600 46.51100 22.05500
H  7.52200 48.41100 22.17800
H  9.17300 48.78200 20.52900
H  10.70700 47.80200 20.60000
H  10.49700 49.20800 21.60900
H  6.56500 45.76400 22.60600
H  7.89700 45.55300 21.44300
H  5.93200 45.82400 20.12300
H  6.61000 47.56100 20.34900
H  5.20100 46.99300 21.21000
H  4.02600 46.50600 25.41200
H  3.27600 48.06500 25.91200
H  3.19100 46.56400 26.90800
H  6.06600 49.01300 31.05100
H  5.91700 45.93800 34.18700
H  6.86700 45.17400 32.79300
H  5.14500 45.08500 32.79800

