158

Mg 16.60400 -0.73300 27.85800
C  15.55400 1.16100 30.52500
C  18.42100 -2.69500 29.91600
C  18.17600 -2.02900 25.17600
C  14.99100 1.48900 25.68400
N  17.07000 -0.64100 30.02900
C  16.45100 0.16400 30.93100
C  16.88000 -0.22600 32.38500
C  17.68800 -1.57200 32.12100
C  17.80100 -1.60800 30.60900
C  19.07400 -1.63700 32.79900
C  15.80200 -0.26000 33.52500
C  16.19000 -0.95000 34.80600
H  17.36500 -0.40500 35.52600
N  17.92400 -2.19200 27.57300
C  18.42000 -2.98200 28.59900
C  19.10300 -4.14600 28.03500
C  19.13200 -3.93800 26.60800
C  18.37800 -2.74500 26.40900
C  19.73900 -5.15500 28.90000
C  19.87400 -4.67700 25.49700
O  19.78400 -4.47300 24.28500
C  20.95700 -5.73900 25.83700
N  16.71800 -0.23100 25.79800
C  17.40700 -0.95600 24.93300
C  17.31700 -0.43600 23.45400
C  16.00100 0.49400 23.59900
C  15.94400 0.63200 25.11400
C  18.66300 0.21000 23.03300
C  14.76300 -0.14800 23.01300
C  13.97700 -1.13300 23.86900
N  15.30300 0.82700 28.00400
C  14.72100 1.65700 27.03400
C  13.81500 2.63300 27.67100
C  14.13100 2.41000 29.05000
C  15.04500 1.39900 29.16800
C  13.03900 3.61000 26.98300
C  13.91000 2.91500 30.43600
O  13.12600 3.75700 30.79600
C  14.83800 2.15600 31.44000
C  15.71800 3.13200 32.14200
O  16.68500 3.69800 31.75400
O  15.15200 3.37700 33.39600
C  15.64200 4.54700 34.16200
H  19.08200 -3.27500 30.56400
H  18.67100 -2.50600 24.32700
H  14.36200 2.09500 25.02800
H  17.57100 0.59200 32.58400
H  17.13100 -2.43000 32.49600
H  19.27700 -0.77000 33.42800
H  19.83900 -1.57400 32.02400
H  19.10800 -2.56900 33.36400
H  14.84400 -0.63800 33.16800
H  15.69000 0.81300 33.68500
H  16.42500 -2.00700 34.68500
H  15.36400 -0.90600 35.51500
H  19.09300 -5.36900 29.75200
H  20.67200 -4.77800 29.31800
H  19.95400 -6.06800 28.34600
H  21.69700 -5.74000 25.03700
H  20.71900 -6.79800 25.93300
H  21.52800 -5.37100 26.69000
H  17.23400 -1.41400 22.97800
H  16.42700 1.42000 23.21100
H  18.55400 1.29000 23.12500
H  18.96100 0.06400 21.99400
H  19.42400 -0.15600 23.72200
H  15.11600 -0.76300 22.18600
H  14.05900 0.57000 22.59400
H  13.06200 -0.74400 24.31800
H  14.56300 -1.46300 24.72700
H  13.81100 -2.06200 23.32300
H  12.89700 3.36900 25.93000
H  13.49200 4.59000 27.13700
H  12.07300 3.59500 27.48800
H  14.25300 1.51900 32.10300
H  15.87700 5.42200 33.55700
H  16.45500 4.40900 34.87500
H  14.82700 4.75300 34.85600
Mg 48.03700 16.41100 28.68200
C  46.09400 16.16900 31.64100
C  50.33500 18.17300 30.39600
C  49.54800 16.70600 25.74200
C  45.18400 14.83700 27.06500
N  48.14300 17.11300 30.73500
C  47.31900 16.83700 31.78800
C  47.82400 17.32500 33.16300
C  49.04100 18.22000 32.70000
C  49.20900 17.82900 31.16300
C  48.98600 19.73000 33.03600
C  48.11000 16.03400 34.06800
C  47.94200 16.14700 35.61600
H  47.49400 17.50000 36.22900
N  49.76700 17.20900 28.13200
C  50.62200 17.90800 29.00200
C  51.90100 18.15300 28.32900
C  51.72900 17.70500 26.95700
C  50.37200 17.19600 26.91400
C  53.18400 18.74000 29.06300
C  52.69200 17.72700 25.87800
O  52.38100 17.26400 24.78400
C  54.06700 18.19600 26.07400
N  47.45000 15.75900 26.75600
C  48.30000 16.12200 25.69100
C  47.64200 15.71600 24.33900
C  46.34500 14.96800 24.75400
C  46.31400 15.19000 26.26600
C  47.52200 16.82600 23.35800
C  46.25700 13.41600 24.50500
C  46.04600 12.95600 23.06400
N  46.14900 15.53300 29.29100
C  45.12000 14.98200 28.45000
C  43.94600 14.78300 29.25800
C  44.30100 15.18000 30.53000
C  45.59500 15.67300 30.47500
C  42.57700 14.25700 28.69000
C  43.75600 15.28900 31.83000
O  42.66500 14.99800 32.38400
C  45.01900 15.77800 32.64600
C  44.57700 16.96100 33.36900
O  44.13800 18.00700 32.87600
O  44.45100 16.60700 34.70700
C  43.50300 17.24100 35.66300
H  51.07600 18.75000 30.95400
H  50.03200 16.71100 24.76300
H  44.34000 14.51200 26.45300
H  46.96800 17.86600 33.56700
H  49.94000 17.78200 33.13400
H  48.86700 20.44100 32.21800
H  49.86200 19.96600 33.64000
H  48.08400 19.89000 33.62600
H  49.13100 15.73500 33.83100
H  47.48500 15.23200 33.67500
H  48.91400 15.91600 36.05300
H  47.17400 15.38000 35.71100
H  53.93800 17.95900 29.15300
H  53.05400 19.05700 30.09700
H  53.47100 19.61900 28.48700
H  54.61500 18.04400 25.14400
H  54.38500 17.56100 26.90200
H  54.01700 19.25700 26.32000
H  48.33700 15.04000 23.84100
H  45.49100 15.51700 24.35800
H  48.21200 16.62800 22.53800
H  47.89800 17.71900 23.85800
H  46.48900 17.00200 23.06000
H  45.77000 12.85400 25.30200
H  47.26700 13.07200 24.72700
H  46.49000 11.96900 22.93000
H  46.47100 13.66400 22.35300
H  44.96200 12.93300 22.95200
H  42.20000 14.77100 27.80600
H  41.87000 14.45100 29.49800
H  42.68400 13.19100 28.48900
H  45.25500 14.99700 33.36700
H  42.80500 16.43800 35.89800
H  42.88800 17.98100 35.15000
H  43.90800 17.60100 36.60900

