158

Mg -0.02400 7.19600 26.29400
C  0.88900 9.15100 29.02800
C  0.11600 4.33200 28.22300
C  -0.32700 5.41400 23.47200
C  0.49600 10.03400 24.31700
N  0.49700 6.84100 28.32200
C  0.64600 7.77800 29.32500
C  0.59800 7.14900 30.66100
C  0.28200 5.65400 30.42500
C  0.25100 5.61000 28.89000
C  1.25100 4.54100 31.06200
C  -0.56300 7.84900 31.54500
C  -0.19200 8.13200 33.01700
H  1.01500 7.27500 33.53700
N  -0.05000 5.10400 25.91500
C  0.05400 4.10200 26.82500
C  -0.15400 2.87400 26.10500
C  -0.35000 3.19100 24.74500
C  -0.21700 4.60100 24.63500
C  -0.32700 1.52900 26.80800
C  -0.58100 2.23100 23.55600
O  -0.71300 2.55600 22.36300
C  -0.87300 0.79400 23.86300
N  0.02200 7.68600 24.27500
C  -0.20500 6.78600 23.30100
C  -0.17300 7.39600 21.88800
C  -0.24700 8.91700 22.21600
C  0.17800 8.89100 23.65300
C  0.99400 7.05500 20.93900
C  -1.59800 9.66800 21.86300
C  -2.92900 9.08800 22.40100
N  0.46900 9.25100 26.62400
C  0.63500 10.22900 25.71900
C  1.12400 11.49300 26.31700
C  1.12600 11.11100 27.68600
C  0.83400 9.71600 27.77600
C  1.45600 12.76600 25.72500
C  1.39600 11.70700 28.96600
O  1.73500 12.82000 29.35700
C  1.22200 10.41000 29.92300
C  2.35700 10.22400 30.85900
O  3.38400 9.71000 30.41300
O  2.09400 10.75600 32.11200
C  3.36100 11.10400 32.77800
H  -0.01200 3.39000 28.76100
H  -0.29700 4.96800 22.47600
H  0.61800 10.95700 23.74700
H  1.49800 7.51300 31.15700
H  -0.72200 5.45200 30.79800
H  1.83400 3.99200 30.32200
H  0.82200 3.70600 31.61600
H  2.03000 5.03300 31.64400
H  -1.45800 7.23200 31.61400
H  -0.87300 8.78500 31.08000
H  -1.10300 8.02300 33.60600
H  0.05500 9.18600 33.15200
H  -1.27400 1.22200 26.36200
H  -0.52300 1.61500 27.87700
H  0.52100 0.90400 26.53000
H  -1.71900 0.58700 24.51900
H  -0.00100 0.26900 24.25200
H  -1.05400 0.26700 22.92600
H  -1.16100 7.13700 21.50800
H  0.53500 9.45500 21.68100
H  1.44600 7.92900 20.47000
H  0.73500 6.35100 20.14800
H  1.76500 6.65700 21.59900
H  -1.77000 9.93000 20.81900
H  -1.63900 10.53900 22.51800
H  -3.60800 9.11900 21.55000
H  -3.41900 9.62600 23.21300
H  -2.95200 8.04200 22.70800
H  2.05300 12.52200 24.84700
H  1.99400 13.47100 26.35800
H  0.53200 13.25200 25.41200
H  0.44800 10.67500 30.64400
H  3.51200 10.46200 33.64500
H  3.16100 12.12600 33.10000
H  4.29000 11.07400 32.20900
Mg 41.30600 9.57600 29.94900
C  42.66400 10.66800 33.01300
C  38.89500 7.86800 31.72200
C  40.38500 8.20100 27.00900
C  44.25000 10.76800 28.35600
N  40.96900 9.19000 32.16200
C  41.52200 9.88200 33.22700
C  40.68700 9.76600 34.46200
C  39.53700 8.78000 33.99800
C  39.77800 8.59200 32.50600
C  39.33900 7.41800 34.78600
C  40.19800 11.03800 35.18100
C  40.31300 10.99800 36.71300
H  40.73700 12.20800 37.62400
N  39.74200 8.27600 29.44400
C  38.79700 7.67400 30.32400
C  37.86200 6.91800 29.49500
C  38.23100 7.06600 28.09600
C  39.52300 7.82500 28.10300
C  36.60000 6.30700 30.01400
C  37.39600 6.78500 26.85300
O  37.72400 7.18900 25.76900
C  36.26300 5.89600 27.05000
N  42.15900 9.55500 27.93600
C  41.56400 8.92200 26.90800
C  42.43000 9.07900 25.58800
C  43.44300 10.21800 26.02900
C  43.30800 10.21500 27.54900
C  42.98900 7.67700 25.20200
C  43.06700 11.69600 25.47400
C  41.59000 12.13600 25.53400
N  42.97900 10.59900 30.49800
C  44.05400 11.01900 29.70200
C  44.81200 11.97000 30.54100
C  44.37000 11.76500 31.83900
C  43.23600 10.90600 31.76100
C  46.01500 12.75900 30.02100
C  44.72700 11.95900 33.19600
O  45.74800 12.47400 33.71900
C  43.50900 11.46900 34.02300
C  43.97800 10.55500 35.09800
O  44.77800 9.64000 34.93500
O  43.55500 11.04500 36.33900
C  44.09100 10.42700 37.53700
H  38.11200 7.41000 32.33000
H  40.04500 7.97500 25.99700
H  45.04300 11.31100 27.83900
H  41.33900 9.19000 35.11900
H  38.55600 9.25600 34.00900
H  38.32400 7.09200 35.01000
H  39.88800 7.45300 35.72700
H  39.94500 6.69800 34.23500
H  39.13800 11.15400 34.95700
H  40.76600 11.86800 34.76200
H  40.64700 10.01900 37.05600
H  39.24600 10.96600 36.93400
H  36.71600 5.23900 29.83000
H  35.68400 6.63800 29.52600
H  36.60000 6.40900 31.09900
H  35.76900 5.53000 26.15000
H  35.50200 6.41000 27.63700
H  36.57600 4.94300 27.47700
H  41.72700 9.42900 24.83300
H  44.49400 10.05700 25.79200
H  43.00400 6.93900 26.00400
H  43.98200 7.84700 24.78500
H  42.33200 7.22500 24.46000
H  43.24100 11.64200 24.39900
H  43.67300 12.45100 25.97700
H  41.54400 13.20400 25.74500
H  41.14200 11.63900 26.39400
H  41.10000 11.86000 24.60000
H  46.00100 12.66400 28.93500
H  46.98300 12.38800 30.36000
H  45.91300 13.78500 30.37300
H  42.92200 12.33100 34.33900
H  43.31400 10.57700 38.28700
H  45.01000 10.84700 37.94500
H  44.14000 9.36600 37.29100

