158

Mg 24.87900 -4.64800 46.74000
C  26.82600 -2.27800 45.08300
C  22.28200 -3.75800 44.63400
C  23.26400 -7.42300 47.76100
C  27.79600 -5.64500 48.47500
N  24.59700 -3.06700 45.18800
C  25.52000 -2.17900 44.66000
C  25.01600 -1.28200 43.50000
C  23.41600 -1.72400 43.56200
C  23.39900 -2.90900 44.54700
C  22.54000 -0.48100 44.18200
C  25.73800 -1.69500 42.16100
C  26.39200 -0.54600 41.40000
H  25.89200 -0.35200 39.96900
N  22.97000 -5.37500 46.42600
C  22.07800 -4.90600 45.44600
C  20.91900 -5.79700 45.40100
C  21.13400 -6.74000 46.43000
C  22.49600 -6.53800 46.98400
C  19.76200 -5.67200 44.37700
C  20.20700 -7.93400 46.84600
O  19.17200 -8.17700 46.28200
C  20.52600 -8.83000 48.07100
N  25.46700 -6.27400 47.96300
C  24.56700 -7.23600 48.29300
C  25.28100 -8.29600 49.19700
C  26.47600 -7.49400 49.71600
C  26.60500 -6.42400 48.65800
C  24.38700 -9.09300 50.19800
C  27.76000 -8.34300 50.13200
C  28.10400 -8.30300 51.63000
N  26.94900 -4.09700 46.82600
C  27.98000 -4.60500 47.55900
C  29.13100 -3.83700 47.22900
C  28.71800 -2.89000 46.27000
C  27.36400 -3.11600 46.07500
C  30.51200 -3.99700 47.83300
C  29.25600 -1.76400 45.46800
O  30.30500 -1.21600 45.48100
C  28.02600 -1.34400 44.66700
C  27.79100 0.07000 44.97600
O  27.40600 0.48300 46.01400
O  28.07400 0.83800 43.83800
C  27.91300 2.27100 43.95700
H  21.42600 -3.41000 44.05200
H  22.92900 -8.46000 47.82700
H  28.66200 -6.01700 49.02700
H  25.11800 -0.21800 43.71400
H  22.94300 -2.07700 42.64600
H  21.81300 -0.13200 43.44900
H  23.09500 0.36600 44.58700
H  21.97000 -0.92700 44.99800
H  24.96500 -2.06900 41.49000
H  26.36000 -2.57000 42.34900
H  27.46600 -0.72100 41.33400
H  26.29400 0.40600 41.92200
H  19.21200 -6.58900 44.16300
H  20.08700 -5.21000 43.44500
H  19.04000 -4.92500 44.70400
H  21.03200 -8.24400 48.83900
H  21.22900 -9.62000 47.80900
H  19.57800 -9.13200 48.51600
H  25.52200 -9.04700 48.44400
H  26.02700 -7.04900 50.60400
H  23.32200 -8.99700 49.98900
H  24.56000 -8.77400 51.22600
H  24.76300 -10.11600 50.18800
H  28.66000 -8.02400 49.60600
H  27.53800 -9.36600 49.83000
H  27.19700 -7.96400 52.13100
H  28.87100 -7.58400 51.91700
H  28.35600 -9.30500 51.97700
H  30.75200 -5.06000 47.81700
H  30.47200 -3.68400 48.87700
H  31.30600 -3.39000 47.39800
H  28.46400 -1.47200 43.67800
H  26.95600 2.63200 43.58000
H  28.71200 2.79200 43.43000
H  27.82000 2.66900 44.96800
Mg 5.01000 53.55800 41.73500
C  4.69200 50.07300 40.53500
C  8.07100 53.58800 40.24900
C  4.87300 56.92700 41.90800
C  1.66600 53.32300 42.65500
N  6.08900 52.11100 40.27500
C  5.74200 50.75000 39.92500
C  6.81500 50.13600 38.99100
C  8.07000 51.01000 39.39100
C  7.41000 52.34000 40.04300
C  9.05300 50.20600 40.31300
C  6.42000 50.38900 37.47700
C  7.09800 49.52600 36.36100
H  6.30000 48.86000 35.20500
N  6.37900 55.02400 41.38300
C  7.52900 54.85000 40.76500
C  8.24500 56.14000 40.67500
C  7.39100 57.10600 41.18900
C  6.17300 56.39800 41.60600
C  9.55300 56.37400 40.10700
C  7.61900 58.58100 41.16200
O  8.70900 58.97500 40.75300
C  6.59600 59.56600 41.53200
N  3.55100 54.80100 42.39700
C  3.72100 56.18500 42.28000
C  2.44100 56.93700 42.42000
C  1.43400 55.86100 42.90600
C  2.22200 54.58600 42.61600
C  2.56900 58.23100 43.37300
C  0.10200 55.93100 42.25100
C  -1.08300 56.16100 43.24000
N  3.56500 52.03100 41.82500
C  2.29900 52.06500 42.27600
C  1.79900 50.72400 42.47000
C  2.72100 49.92500 41.79000
C  3.73600 50.73700 41.34700
C  0.52100 50.23600 43.13300
C  3.00400 48.53900 41.46900
O  2.38200 47.53600 41.73700
C  4.39200 48.54100 40.59000
C  4.08600 47.93300 39.32300
O  3.21200 48.25800 38.56500
O  4.92200 46.89600 39.12200
C  4.62000 46.07700 37.92500
H  9.07400 53.65000 39.82200
H  4.65800 57.99100 41.79600
H  0.65300 53.25800 43.05700
H  7.03500 49.09600 39.23100
H  8.64300 51.16700 38.47700
H  8.80300 49.15200 40.42800
H  9.00700 50.76000 41.25000
H  10.10400 50.36100 40.06700
H  6.78400 51.37800 37.19800
H  5.33700 50.34500 37.36500
H  7.33500 48.66000 36.97900
H  8.03700 49.96500 36.02400
H  10.10400 55.49800 39.76500
H  10.15100 56.92700 40.83100
H  9.51600 57.02000 39.22900
H  6.98800 60.57000 41.37300
H  6.43000 59.46200 42.60400
H  5.72600 59.44000 40.88700
H  2.11200 57.35600 41.46900
H  1.39100 55.87700 43.99500
H  3.55000 58.31700 43.84200
H  1.81200 58.06800 44.13900
H  2.28300 59.05300 42.71600
H  -0.15500 54.99800 41.75000
H  0.15500 56.70700 41.48600
H  -1.92900 55.57100 42.88600
H  -1.34600 57.21600 43.31600
H  -0.74400 55.83500 44.22300
H  -0.10300 51.11700 43.28800
H  0.68900 49.80800 44.12100
H  -0.02600 49.59900 42.43800
H  5.08600 48.01100 41.24200
H  4.16000 45.14900 38.26500
H  5.60800 45.75800 37.59300
H  3.99100 46.55300 37.17300

