158

Mg 34.78400 3.04200 29.38200
C  33.11900 4.22000 32.12900
C  37.58700 2.51400 31.24300
C  36.49200 2.13300 26.52300
C  32.15900 4.06500 27.28000
N  35.31800 3.34300 31.47800
C  34.42700 3.83100 32.39600
C  35.17900 3.86300 33.78600
C  36.66600 3.53000 33.44800
C  36.53700 3.11700 31.99000
C  37.68500 4.72800 33.48800
C  34.51300 2.98600 34.86300
C  34.01800 3.74700 36.14100
H  35.00600 4.67700 36.82900
N  36.72500 2.40700 28.92700
C  37.67700 2.20700 29.87200
C  38.93400 1.78700 29.24100
C  38.63800 1.67100 27.86100
C  37.23700 2.03700 27.73500
C  40.15400 1.46500 30.03600
C  39.49500 1.18300 26.63800
O  39.02600 0.97400 25.56200
C  40.91700 0.84300 26.84500
N  34.36300 2.99900 27.19700
C  35.33200 2.72300 26.29100
C  34.73300 2.94900 24.81400
C  33.28500 3.44200 25.09100
C  33.22500 3.49700 26.61200
C  35.58700 4.02900 24.03000
C  32.16500 2.53000 24.36900
C  31.45500 1.44100 25.17300
N  33.02200 3.84200 29.61700
C  32.06600 4.22400 28.72200
C  30.92100 4.58600 29.42300
C  31.26700 4.54500 30.71400
C  32.60000 4.12300 30.81400
C  29.58100 4.96100 28.95500
C  30.80400 4.83300 32.05300
O  29.69000 5.25300 32.43500
C  32.00400 4.68200 33.06800
C  32.27800 6.10200 33.52800
O  33.02500 6.88400 33.02100
O  31.58400 6.30300 34.68300
C  31.98700 7.50000 35.47800
H  38.45700 2.51800 31.90400
H  36.99800 1.92500 25.57800
H  31.27300 4.32200 26.69600
H  35.05300 4.91300 34.05200
H  36.90800 2.62700 34.00800
H  37.09800 5.64500 33.43700
H  38.24400 4.74400 32.55200
H  38.30100 4.68900 34.38600
H  35.15000 2.18900 35.24600
H  33.67300 2.54000 34.32900
H  33.59200 2.98500 36.79500
H  33.15700 4.39300 35.96500
H  41.04400 2.04200 29.78400
H  40.34700 0.40500 29.87600
H  40.01800 1.51500 31.11700
H  41.42500 1.73100 27.22100
H  41.36900 0.49300 25.91700
H  40.98600 0.01000 27.54400
H  34.84700 1.96900 24.35100
H  33.13300 4.49000 24.83400
H  36.66300 3.96500 24.18800
H  35.26700 4.99100 24.43100
H  35.39400 3.93200 22.96100
H  32.56100 2.10900 23.44500
H  31.41100 3.17100 23.91200
H  30.42900 1.70900 25.42400
H  31.97200 1.18900 26.09900
H  31.38000 0.49600 24.63400
H  29.86400 5.65500 28.16300
H  28.95300 5.47100 29.68500
H  29.18700 4.00600 28.60600
H  31.95200 3.94600 33.87000
H  32.31700 8.24600 34.75400
H  32.72800 7.44500 36.27600
H  31.10400 8.00000 35.87500
Mg 42.54100 41.51100 25.95500
C  41.79900 43.92700 28.44500
C  43.70600 39.50100 28.34600
C  43.42900 39.46300 23.45700
C  41.62500 43.87000 23.58800
N  42.84300 41.81500 28.08600
C  42.24500 42.70400 28.98600
C  42.35000 42.26100 30.46900
C  43.19700 40.97900 30.37500
C  43.23300 40.74100 28.83600
C  44.60800 41.12800 31.04900
C  40.98700 42.15200 31.17100
C  40.80500 42.82200 32.55000
H  39.92600 42.10000 33.64500
N  43.50300 39.61700 25.90200
C  43.87400 38.95400 26.99200
C  44.43500 37.66700 26.55500
C  44.41400 37.62300 25.13000
C  43.76700 38.92000 24.74000
C  45.06200 36.64600 27.49400
C  44.93100 36.60100 24.11600
O  44.67300 36.73000 22.93000
C  45.64500 35.43400 24.53000
N  42.70000 41.71700 23.78800
C  42.87500 40.66400 23.00100
C  42.55900 40.99000 21.54700
C  41.60400 42.17500 21.78900
C  42.01800 42.61500 23.12000
C  43.82700 41.41400 20.75400
C  40.12800 41.73200 21.79000
C  39.70600 40.21600 21.73200
N  41.84900 43.45600 25.99100
C  41.59300 44.29400 24.89800
C  41.26900 45.62900 25.37200
C  41.26600 45.50500 26.81000
C  41.65400 44.18400 27.09400
C  41.06500 46.84700 24.57500
C  41.04000 46.19700 28.01800
O  40.61600 47.31400 28.16200
C  41.23800 45.14800 29.19200
C  42.15000 45.68600 30.26700
O  43.35600 45.89500 30.21200
O  41.49200 45.85800 31.42900
C  42.32800 46.10700 32.61000
H  44.15500 38.77600 29.02700
H  43.68500 38.82600 22.60800
H  41.20700 44.50100 22.80100
H  42.93000 43.01600 31.00000
H  42.66700 40.12300 30.79300
H  44.47300 42.03200 31.64200
H  45.18600 41.42200 30.17300
H  44.96200 40.20100 31.50100
H  40.96900 41.08000 31.36300
H  40.16600 42.35200 30.48200
H  40.26900 43.72900 32.27100
H  41.73200 43.15600 33.01600
H  46.10600 36.43800 27.26000
H  44.51000 35.70600 27.46200
H  44.94000 36.95200 28.53300
H  46.10900 34.90500 23.69800
H  44.97100 34.70000 24.97300
H  46.46400 35.80500 25.14500
H  42.08700 40.14800 21.04100
H  41.75600 42.94500 21.03200
H  44.65900 41.21500 21.43000
H  43.81200 42.44800 20.41000
H  43.90300 40.84200 19.82900
H  39.62100 42.35000 21.05000
H  39.64900 42.10500 22.69600
H  39.51800 39.93200 20.69700
H  38.80500 40.11500 22.33700
H  40.42900 39.51100 22.14200
H  41.46900 46.77200 23.56600
H  41.51800 47.66700 25.13100
H  39.99300 47.02200 24.67200
H  40.27100 44.83700 29.58700
H  41.73200 45.93600 33.50600
H  42.58500 47.16700 32.60300
H  43.21700 45.47800 32.56200

