158

Mg 17.20500 -0.69900 27.79900
C  16.13300 1.07300 30.79500
C  19.55500 -2.15900 29.81600
C  18.57200 -1.52300 25.11900
C  14.84800 1.36500 26.05500
N  17.82000 -0.53900 30.05900
C  17.16400 0.10700 31.12600
C  17.71800 -0.25900 32.51300
C  18.98300 -1.17300 32.12000
C  18.71700 -1.36000 30.62500
C  20.33300 -0.56100 32.48800
C  16.59700 -0.85800 33.42000
C  16.53300 -0.36700 34.84400
H  17.85500 0.12300 35.47400
N  18.67100 -1.82300 27.54700
C  19.49400 -2.35700 28.41900
C  20.53000 -3.10900 27.68600
C  20.22500 -3.03400 26.33300
C  19.13600 -2.10400 26.26100
C  21.62900 -3.89100 28.31300
C  20.83700 -3.74600 25.18400
O  20.35100 -3.66600 24.04000
C  22.06200 -4.63400 25.33400
N  16.87900 -0.04300 25.83600
C  17.65700 -0.57600 24.86700
C  17.20700 -0.04700 23.42100
C  15.91000 0.80700 23.74200
C  15.86900 0.67800 25.29400
C  18.34100 0.75400 22.64100
C  14.59400 0.45400 23.00800
C  14.63600 0.70500 21.45300
N  15.65800 0.62400 28.27700
C  14.83100 1.40300 27.45400
C  14.08400 2.40000 28.15000
C  14.63600 2.26100 29.41100
C  15.56500 1.21000 29.49600
C  13.11700 3.46800 27.67200
C  14.56200 2.86300 30.73400
O  14.02200 3.92000 30.97000
C  15.42500 2.02700 31.74200
C  16.41800 2.96700 32.47100
O  17.56000 3.19000 32.13700
O  15.82700 3.45100 33.57300
C  16.45700 4.40000 34.43300
H  20.37200 -2.64300 30.35500
H  18.84600 -1.91200 24.13600
H  14.15300 2.02000 25.52500
H  18.08000 0.63500 33.02100
H  18.87900 -2.10100 32.68300
H  20.26200 0.41400 32.97000
H  21.00000 -0.44300 31.63300
H  20.87600 -1.20700 33.17700
H  16.70600 -1.94200 33.45800
H  15.55500 -0.69700 33.14500
H  16.20300 -1.18400 35.48500
H  15.73300 0.36600 34.94400
H  21.29900 -4.90900 28.51800
H  21.99600 -3.56600 29.28700
H  22.58100 -3.91500 27.78300
H  22.88700 -3.97600 25.60700
H  22.32400 -4.91700 24.31500
H  22.02500 -5.51100 25.98000
H  16.93300 -1.01300 22.99900
H  16.13300 1.85400 23.53600
H  18.68000 0.09100 21.84500
H  19.14400 1.08500 23.30000
H  17.84600 1.60700 22.17800
H  13.74500 1.00700 23.40800
H  14.47600 -0.62100 23.14400
H  14.29300 1.67700 21.09700
H  14.05100 -0.08600 20.98400
H  15.63900 0.59000 21.04400
H  13.19400 4.12800 28.53600
H  12.14400 2.97700 27.65600
H  13.38000 3.96000 26.73600
H  14.69000 1.64900 32.45300
H  16.37700 4.12700 35.48600
H  16.00200 5.37100 34.23600
H  17.53100 4.41200 34.24900
Mg 25.55000 1.99900 29.18800
C  27.43500 1.55700 32.17400
C  22.82400 2.57600 31.08500
C  23.87200 2.24300 26.32200
C  28.41900 0.86000 27.39000
N  25.19900 2.00600 31.39500
C  26.10700 2.01500 32.35900
C  25.46800 2.32000 33.75500
C  23.96900 2.46200 33.40700
C  23.98100 2.34000 31.87400
C  23.10800 1.41200 34.15900
C  26.23300 3.51000 34.44100
C  26.48600 3.14500 35.92900
H  26.28700 4.13500 37.05600
N  23.64100 2.28000 28.74900
C  22.60000 2.51900 29.67200
C  21.33100 2.59400 29.05500
C  21.61500 2.40600 27.65500
C  23.08300 2.28300 27.53700
C  20.07400 2.52200 29.88900
C  20.62400 2.39100 26.48600
O  20.93300 2.31300 25.31500
C  19.21000 2.37900 26.81400
N  26.05600 1.73400 27.14500
C  25.21300 2.00300 26.15300
C  25.96900 2.28200 24.78400
C  27.34900 1.72100 25.20100
C  27.32600 1.42100 26.67000
C  25.37800 1.60800 23.54500
C  28.64600 2.57700 24.83200
C  28.75700 4.05100 25.40300
N  27.47700 1.16400 29.63400
C  28.50700 0.79100 28.80700
C  29.69200 0.63700 29.53400
C  29.29700 0.87800 30.86900
C  27.98300 1.23200 30.90400
C  31.07400 0.21000 28.97800
C  29.73800 0.90900 32.32200
O  30.82600 0.64300 32.78800
C  28.53900 1.30100 33.16800
C  28.25100 0.22300 34.14800
O  27.76300 -0.80700 33.78100
O  28.55100 0.45700 35.48600
C  28.28200 -0.64600 36.39800
H  21.95900 2.94400 31.64100
H  23.27100 2.22200 25.41000
H  29.30000 0.50500 26.85100
H  25.68600 1.39100 34.28100
H  23.64800 3.44100 33.76200
H  22.74500 0.66400 33.45400
H  22.23700 1.76300 34.71200
H  23.71300 0.93800 34.93300
H  25.49000 4.30600 34.40800
H  27.20300 3.84000 34.07000
H  27.50900 2.77300 35.88700
H  26.05300 2.17800 36.18700
H  20.02900 1.53400 30.34600
H  19.12800 2.69400 29.37600
H  20.09800 3.26200 30.69000
H  19.02600 3.38200 27.19700
H  18.94100 1.58200 27.50700
H  18.65000 2.26000 25.88600
H  25.91200 3.36500 24.67800
H  27.38400 0.69000 24.85000
H  24.83600 0.69000 23.76900
H  26.17400 1.43300 22.82100
H  24.63200 2.25900 23.08900
H  28.62500 2.66200 23.74600
H  29.56100 2.03400 25.06900
H  27.91600 4.28400 26.05500
H  28.89700 4.81000 24.63300
H  29.65500 4.03900 26.02100
H  31.81400 0.22900 29.77800
H  31.45400 0.83900 28.17200
H  30.99000 -0.80100 28.57900
H  28.96800 2.20700 33.59600
H  29.02500 -1.38200 36.09200
H  27.25200 -1.00200 36.37300
H  28.59600 -0.42700 37.41900

