158

Mg 48.22500 34.66100 26.49300
C  46.32800 33.17000 29.20200
C  48.53800 37.47200 28.41300
C  49.57900 36.11500 23.83800
C  46.98300 32.07400 24.43100
N  47.62700 35.16200 28.66000
C  46.90300 34.40800 29.50200
C  46.86900 35.12400 30.82900
C  47.16300 36.61600 30.44800
C  47.85800 36.39800 29.09500
C  45.94500 37.64000 30.41400
C  47.89800 34.55400 31.81600
C  47.37200 34.39600 33.18300
H  46.49400 35.53900 33.69600
N  49.07500 36.45100 26.23500
C  49.22100 37.46400 27.14600
C  50.08200 38.50400 26.58800
C  50.33000 38.15200 25.26400
C  49.65400 36.86000 25.09800
C  50.53200 39.59700 27.42700
C  51.04800 38.87600 24.19600
O  51.24900 38.41600 23.06300
C  51.55900 40.22000 24.55400
N  48.25200 34.22400 24.33600
C  48.86600 34.97300 23.45800
C  48.88200 34.34300 22.11900
C  48.00700 33.08800 22.24800
C  47.75600 33.05300 23.75400
C  48.32700 35.32000 20.98700
C  48.64100 31.84000 21.63800
C  47.63100 30.82500 21.08900
N  47.03900 32.95100 26.71800
C  46.63500 31.99100 25.78300
C  45.77100 30.95900 26.49900
C  45.70000 31.42000 27.81000
C  46.45500 32.62200 27.91000
C  45.13400 29.67500 25.96900
C  45.13400 31.03900 29.09000
O  44.45900 30.09800 29.50700
C  45.40400 32.29200 29.93900
C  45.78700 31.86700 31.27200
O  46.84900 31.41900 31.63000
O  44.69600 31.98300 32.06300
C  44.90800 31.34200 33.33500
H  48.51000 38.42000 28.95500
H  50.03400 36.50500 22.92500
H  46.58300 31.25000 23.83700
H  45.81000 34.96700 31.03100
H  47.86500 37.11600 31.11500
H  45.09300 37.27500 30.98700
H  45.70300 37.64800 29.35100
H  46.23000 38.60800 30.82500
H  48.74000 35.24400 31.75200
H  48.29300 33.60500 31.45100
H  48.17400 34.37900 33.92200
H  46.89000 33.41800 33.17700
H  50.58400 39.36100 28.49000
H  49.88000 40.46900 27.48300
H  51.53200 39.88800 27.10700
H  50.99200 40.70600 25.34800
H  51.44400 40.85600 23.67700
H  52.59700 40.05300 24.84100
H  49.93400 34.08400 21.99700
H  46.99500 33.25300 21.87900
H  47.64200 34.84500 20.28500
H  49.20300 35.68200 20.44900
H  47.71100 35.91100 21.66500
H  49.18300 31.37900 22.46400
H  49.38800 32.09300 20.88600
H  47.66000 30.96400 20.00800
H  46.60100 31.04300 21.36900
H  47.84300 29.79700 21.38200
H  44.75100 29.04700 26.77400
H  45.82600 29.09700 25.35700
H  44.25000 29.93700 25.38800
H  44.43700 32.78900 30.02000
H  43.94500 31.18300 33.82100
H  45.57800 32.02800 33.85300
H  45.33900 30.34300 33.28000
Mg 30.26300 58.24000 40.98000
C  27.50000 56.24000 39.93500
C  32.25900 55.63600 39.97700
C  32.98100 60.34300 41.05300
C  28.06500 60.96400 41.14600
N  29.90000 56.13800 40.09900
C  28.72400 55.51200 39.72500
C  28.89600 54.07000 39.23100
C  30.43300 53.86500 39.57800
C  30.92400 55.25300 39.83500
C  30.64300 52.97600 40.78200
C  28.57800 54.01800 37.62000
C  27.56100 52.96600 36.99500
H  26.65800 53.56200 35.96100
N  32.32200 58.03000 40.75700
C  32.87300 56.88800 40.24300
C  34.21600 57.14700 39.99200
C  34.57000 58.36200 40.58300
C  33.25900 58.97900 40.82300
C  35.18700 56.29300 39.25600
C  35.93200 58.90600 40.82900
O  36.90300 58.22000 40.52700
C  36.17300 60.31800 41.46100
N  30.48100 60.37300 41.08000
C  31.70700 61.01800 41.14900
C  31.49700 62.50100 41.37800
C  29.98200 62.65100 41.61000
C  29.46700 61.26400 41.26200
C  32.42700 63.04600 42.49300
C  29.32400 63.79700 40.86600
C  28.14600 64.50500 41.65500
N  28.14600 58.63100 40.69300
C  27.40900 59.74000 40.93500
C  26.00000 59.41000 40.71000
C  25.98100 58.06700 40.31100
C  27.29900 57.61100 40.34400
C  24.77700 60.38600 40.89500
C  25.19500 56.96700 39.79000
O  24.11600 56.96500 39.31000
C  26.19800 55.74000 39.50300
C  25.83400 54.56000 40.37300
O  26.14000 54.45200 41.54200
O  25.07400 53.67000 39.65500
C  24.44700 52.54500 40.34200
H  33.01800 54.92100 39.65200
H  33.90400 60.90700 40.90000
H  27.32900 61.76100 41.27100
H  28.18100 53.49400 39.81800
H  31.03400 53.51500 38.73800
H  29.92100 53.22600 41.55900
H  31.64700 53.19300 41.14700
H  30.50300 51.90800 40.61400
H  29.55700 53.91400 37.15200
H  28.10900 54.94500 37.29200
H  26.98400 52.36800 37.70000
H  28.12300 52.20300 36.45600
H  35.55600 56.92000 38.44400
H  34.73000 55.42700 38.77700
H  35.96600 55.94300 39.93300
H  36.03800 61.12800 40.74500
H  37.18400 60.27700 41.86600
H  35.65900 60.59100 42.38300
H  31.65700 62.96900 40.40700
H  29.77600 62.77100 42.67400
H  33.22800 62.36400 42.77600
H  31.84000 63.24100 43.39100
H  32.85300 63.99500 42.16600
H  29.01500 63.39700 39.90000
H  29.99400 64.62900 40.65100
H  28.24300 65.59000 41.60700
H  28.13800 64.23700 42.71100
H  27.19200 64.14800 41.26700
H  23.83800 59.93700 40.57100
H  24.86500 61.27900 40.27600
H  24.73200 60.70100 41.93800
H  26.23100 55.49000 38.44200
H  25.34400 52.02800 40.68100
H  23.86900 51.88300 39.69800
H  23.91400 52.84900 41.24300

