158

Mg 46.84700 16.86300 28.04800
C  45.10100 16.20400 31.10500
C  49.10300 18.58200 30.02700
C  48.34300 17.90200 25.28000
C  44.16800 15.69200 26.34900
N  46.98600 17.33900 30.32800
C  46.27800 16.83700 31.42200
C  46.85400 17.38400 32.82200
C  48.00200 18.32700 32.31800
C  48.07300 18.03200 30.81000
C  48.01500 19.82700 32.82900
C  47.24500 16.15600 33.65600
C  46.55300 16.06100 35.06300
H  46.73300 17.21300 36.05900
N  48.49400 17.97200 27.69500
C  49.32100 18.51200 28.62400
C  50.50500 19.04200 27.96700
C  50.39300 18.87600 26.57600
C  49.06100 18.22600 26.43600
C  51.72200 19.51600 28.73900
C  51.30300 19.24200 25.44500
O  51.09900 19.09500 24.23100
C  52.53800 20.02200 25.73000
N  46.45000 16.68000 26.11400
C  47.09900 17.33300 25.11600
C  46.29700 17.20100 23.79200
C  45.10300 16.24600 24.07700
C  45.22500 16.22100 25.61200
C  45.96100 18.60500 23.24700
C  45.35000 14.82400 23.49300
C  44.59200 14.54600 22.23200
N  45.09000 15.94700 28.50600
C  44.09300 15.59300 27.72300
C  42.92800 15.15900 28.50400
C  43.30200 15.34800 29.87400
C  44.63300 15.82800 29.79800
C  41.65200 14.62000 27.89300
C  42.87300 15.22700 31.22300
O  41.82500 14.80900 31.64400
C  44.04700 15.82600 32.10300
C  43.50600 17.00500 32.81400
O  43.15300 18.00900 32.18200
O  43.24600 16.72200 34.13500
C  42.82100 17.91700 34.88400
H  49.83500 19.08300 30.66400
H  48.80300 18.11900 24.31300
H  43.35400 15.25500 25.76700
H  46.08200 17.98400 33.30400
H  48.85500 17.78600 32.72900
H  48.52700 20.14200 33.73800
H  46.96400 20.00400 33.05800
H  48.12200 20.46300 31.95000
H  48.29600 16.12000 33.94300
H  46.97300 15.23100 33.14800
H  47.00500 15.18700 35.53200
H  45.48200 15.86100 35.09400
H  52.59400 18.88600 28.56600
H  51.62000 19.51700 29.82400
H  51.92500 20.53800 28.41900
H  53.17100 19.64200 26.53200
H  52.34300 21.01600 26.13200
H  53.21300 20.18600 24.88900
H  46.97500 16.84000 23.01900
H  44.13000 16.66300 23.81700
H  46.49100 19.32000 23.87700
H  44.88600 18.78200 23.20700
H  46.30300 18.70300 22.21700
H  44.99200 14.07700 24.20200
H  46.43400 14.72500 23.42900
H  44.06000 13.61400 22.42400
H  45.24300 14.39300 21.37100
H  43.94800 15.36600 21.91500
H  40.95100 14.48700 28.71700
H  41.90600 13.65500 27.45500
H  41.25100 15.38100 27.22400
H  44.34400 15.12300 32.88100
H  41.89200 18.31100 34.47200
H  43.55700 18.71400 34.77600
H  42.55100 17.76700 35.93000
Mg 10.30500 46.67200 25.06200
C  7.71000 47.01300 27.61700
C  12.46000 48.21500 27.29000
C  12.54100 46.72900 22.67000
C  7.72800 46.11300 22.76800
N  10.05500 47.58900 27.18400
C  8.99700 47.42600 28.04300
C  9.34200 48.01200 29.43000
C  10.74400 48.74500 29.19300
C  11.15800 48.15100 27.86800
C  10.72000 50.31400 29.16700
C  9.42600 46.85500 30.48000
C  9.54400 47.30500 31.89100
H  8.80100 46.52100 33.05500
N  12.30100 47.04400 25.05200
C  12.98400 47.62000 26.07100
C  14.37000 47.86000 25.71400
C  14.46500 47.33300 24.34300
C  13.06000 47.01500 23.95500
C  15.38300 48.59000 26.59200
C  15.66200 47.15300 23.45100
O  15.64200 46.50200 22.40100
C  17.02900 47.63900 23.89100
N  10.11400 46.57300 22.99400
C  11.19800 46.44300 22.22000
C  10.88000 45.97000 20.82900
C  9.31100 45.91000 20.83900
C  9.03800 46.23600 22.30100
C  11.43300 46.66100 19.53800
C  8.58100 44.65300 20.18900
C  7.72000 44.98500 18.91200
N  8.14600 46.52000 25.11000
C  7.29100 46.22400 24.07100
C  5.96300 46.09400 24.65600
C  6.05500 46.41100 26.02700
C  7.43100 46.60100 26.27100
C  4.76400 45.83000 23.84200
C  5.26600 46.47200 27.23800
O  4.07600 46.33600 27.35200
C  6.32200 46.88300 28.33900
C  6.33800 45.67200 29.27300
O  7.16000 44.79500 29.21400
O  5.37900 45.82900 30.31700
C  5.33800 44.96900 31.42800
H  13.20900 48.77800 27.85000
H  13.26700 46.65100 21.85800
H  7.06500 45.88900 21.93000
H  8.66000 48.79400 29.76200
H  11.51400 48.44800 29.90600
H  11.17700 50.73200 28.27100
H  11.10100 50.82600 30.05100
H  9.69600 50.65300 29.00700
H  10.31700 46.26900 30.25300
H  8.51900 46.26100 30.37100
H  9.24200 48.35200 31.91300
H  10.60700 47.13200 32.05700
H  14.97400 49.59000 26.74000
H  16.45500 48.65000 26.40500
H  15.33000 47.97700 27.49100
H  17.67300 47.69000 23.01300
H  17.47000 47.04800 24.69400
H  16.84800 48.66200 24.22000
H  11.30500 44.97000 20.74200
H  8.97700 46.83000 20.35900
H  12.09300 47.47800 19.83000
H  10.63600 47.07700 18.92300
H  12.04400 45.95800 18.97200
H  7.83800 44.36900 20.93400
H  9.38400 43.92200 20.09400
H  8.18100 44.45900 18.07600
H  7.50600 46.04400 18.76800
H  6.79800 44.44600 19.12800
H  4.85000 44.92800 23.23600
H  4.38500 46.63100 23.20800
H  3.97900 45.61600 24.56700
H  6.27200 47.84600 28.84900
H  5.82600 44.02600 31.18200
H  4.28000 44.72400 31.52600
H  5.72500 45.48600 32.30700

