158

Mg 25.20200 1.80900 30.11900
C  27.40100 1.71400 32.85800
C  22.59000 2.17400 32.36800
C  23.18700 1.81700 27.40200
C  27.87600 0.97600 27.93500
N  25.09300 2.13300 32.32300
C  26.10100 2.10400 33.21500
C  25.67800 2.48700 34.63700
C  24.14700 2.42900 34.52100
C  23.86700 2.20100 33.02500
C  23.39400 1.39800 35.46100
C  26.28500 3.78900 35.17600
C  26.92400 3.65800 36.56700
H  26.63600 4.71800 37.59000
N  23.12500 1.85500 29.88000
C  22.29500 2.02300 31.00900
C  20.96700 1.99400 30.36600
C  21.07100 1.86600 28.92500
C  22.50900 1.78800 28.72800
C  19.64600 2.13100 31.16300
C  19.98900 1.80500 27.83500
O  20.25600 1.54800 26.66600
C  18.56400 1.98100 28.15100
N  25.53800 1.33300 28.00900
C  24.52700 1.64600 27.03500
C  25.04100 1.54500 25.56700
C  26.60900 1.38400 25.83700
C  26.71800 1.27600 27.34600
C  24.38100 0.50100 24.64500
C  27.54000 2.50800 25.14900
C  27.61600 3.81100 25.98000
N  27.17500 1.42400 30.31500
C  28.11300 1.01500 29.38100
C  29.31800 0.57600 30.07800
C  29.16600 0.99500 31.43300
C  27.78300 1.46400 31.51500
C  30.53200 -0.01200 29.42300
C  29.76100 1.13300 32.68300
O  30.92000 1.05000 33.01500
C  28.67300 1.65900 33.66500
C  28.56300 0.70500 34.75500
O  27.86000 -0.35500 34.79900
O  29.30100 1.22400 35.81800
C  29.28800 0.52300 37.11300
H  21.77200 2.36800 33.06500
H  22.54100 1.77500 26.52200
H  28.71900 0.82500 27.25700
H  26.01200 1.65800 35.26200
H  23.64900 3.35700 34.79800
H  22.87100 0.59500 34.94100
H  22.62800 1.99800 35.95200
H  24.00200 0.99600 36.27200
H  25.47400 4.51400 35.11200
H  27.09000 4.01100 34.47600
H  28.00600 3.60500 36.44400
H  26.62300 2.67300 36.92400
H  19.03100 3.01800 31.01500
H  19.73700 1.96800 32.23700
H  19.01000 1.30300 30.85000
H  18.56000 2.93800 28.67400
H  18.32200 1.16300 28.82900
H  17.91500 1.94100 27.27600
H  24.89300 2.56200 25.20200
H  26.85400 0.40900 25.41800
H  23.96400 0.98900 23.76400
H  23.57000 -0.00900 25.16500
H  25.09400 -0.28400 24.39500
H  27.38800 2.54900 24.07000
H  28.57000 2.16700 25.25100
H  27.37900 4.62900 25.29900
H  28.63800 3.99400 26.31100
H  26.89100 3.86400 26.79200
H  30.85000 -0.84100 30.05500
H  31.36400 0.68400 29.31400
H  30.47300 -0.50600 28.45300
H  28.97000 2.61700 34.09400
H  28.47500 0.82800 37.77300
H  30.16700 0.83200 37.67900
H  29.54200 -0.53400 37.04500
Mg 46.97300 16.79400 28.47000
C  45.27200 16.84200 31.44200
C  49.45600 18.67500 30.21700
C  48.72000 17.40500 25.63700
C  44.47200 15.30500 26.79200
N  47.25500 17.63400 30.60800
C  46.51300 17.42000 31.68800
C  47.09500 17.94700 32.97600
C  48.16500 18.97300 32.45900
C  48.28300 18.46500 30.95500
C  47.79200 20.38300 32.61000
C  47.70000 16.78800 33.87900
C  47.32000 16.70400 35.34600
H  46.97400 18.07900 36.02400
N  48.88000 17.75100 28.00000
C  49.68000 18.51000 28.83600
C  50.80100 18.94800 28.09600
C  50.65300 18.52800 26.71900
C  49.42600 17.86100 26.72900
C  51.95200 19.84000 28.66400
C  51.52600 18.86500 25.52900
O  51.35600 18.36400 24.45900
C  52.63800 19.74100 25.72100
N  46.69400 16.27900 26.48500
C  47.49300 16.68800 25.49800
C  46.94100 16.27600 24.12700
C  45.61100 15.56900 24.48700
C  45.59800 15.56300 25.99500
C  46.66800 17.51600 23.17300
C  45.44400 14.11300 23.96500
C  44.47200 13.84100 22.78900
N  45.29600 16.14100 28.94600
C  44.33300 15.47300 28.16600
C  43.23400 15.18300 28.97900
C  43.51100 15.70900 30.26700
C  44.81200 16.20000 30.21600
C  42.05700 14.39300 28.57700
C  43.03700 15.84300 31.59900
O  41.98500 15.41700 32.07300
C  44.19700 16.53100 32.43000
C  43.64000 17.74000 33.17400
O  43.57300 18.91400 32.77800
O  43.03300 17.26500 34.32200
C  42.23100 18.25500 35.01900
H  50.26700 19.16700 30.75700
H  49.15600 17.63600 24.66300
H  43.60100 14.97600 26.22100
H  46.31800 18.43500 33.56500
H  49.16300 18.83800 32.87500
H  48.62000 20.88000 33.11500
H  46.84500 20.42600 33.14800
H  47.78700 21.00900 31.71800
H  48.78200 16.76800 33.74900
H  47.35700 15.87700 33.38900
H  48.30300 16.45300 35.74300
H  46.61100 15.91500 35.59800
H  51.89400 20.82000 28.19100
H  52.91300 19.32500 28.65100
H  51.70600 19.94500 29.72100
H  52.30500 20.77800 25.76800
H  53.17600 19.62200 24.78100
H  53.28700 19.42200 26.53700
H  47.70000 15.64600 23.66300
H  44.67400 16.03400 24.18000
H  45.63800 17.55200 22.81800
H  47.35000 17.42900 22.32700
H  46.81100 18.52600 23.55700
H  45.08200 13.40400 24.71000
H  46.43700 13.74400 23.70800
H  45.04400 13.38800 21.98000
H  43.83300 14.68400 22.52600
H  43.76800 13.09600 23.15900
H  41.61000 14.79800 27.66900
H  41.26900 14.23800 29.31400
H  42.44500 13.45600 28.17900
H  44.65600 15.82300 33.12000
H  41.82000 17.67300 35.84400
H  41.35900 18.48400 34.40700
H  42.75200 19.16700 35.31200

