158

Mg -2.41700 16.94300 26.58700
C  -2.82900 14.90000 29.55900
C  -3.54700 19.59200 28.48900
C  -2.51100 18.63400 23.80900
C  -2.34300 13.78700 24.77600
N  -3.23100 17.19200 28.78300
C  -3.19100 16.26400 29.82000
C  -3.74500 16.92200 31.10400
C  -3.96400 18.43700 30.68900
C  -3.52900 18.43400 29.22500
C  -5.43700 18.93400 30.91700
C  -2.94600 16.63200 32.40200
C  -3.01400 17.52800 33.69000
H  -2.65800 16.92300 35.07000
N  -2.88500 18.91300 26.26100
C  -3.21300 19.90100 27.12400
C  -3.24800 21.11900 26.49200
C  -3.03300 20.87400 25.07600
C  -2.75500 19.47200 24.98900
C  -3.42500 22.40300 27.13200
C  -2.94700 21.88700 23.87000
O  -2.63900 21.54900 22.73800
C  -3.19200 23.31200 24.14400
N  -2.39800 16.30500 24.61000
C  -2.26100 17.24800 23.59500
C  -2.23400 16.56300 22.20800
C  -1.90300 15.06400 22.59600
C  -2.28200 15.01700 24.08000
C  -3.70900 16.74500 21.61300
C  -0.39200 14.74100 22.35100
C  0.72600 15.42100 23.16300
N  -2.45300 14.80600 26.99000
C  -2.37800 13.75700 26.15700
C  -2.34600 12.59800 26.98000
C  -2.58700 12.99700 28.26500
C  -2.67400 14.33200 28.26500
C  -2.31800 11.22300 26.52800
C  -2.71000 12.49500 29.58100
O  -2.65300 11.35000 29.94400
C  -2.97600 13.71600 30.52200
C  -1.99000 13.60700 31.59600
O  -0.92900 14.20200 31.56400
O  -2.49000 12.97000 32.72100
C  -1.62700 12.90900 33.91800
H  -3.88000 20.43800 29.09300
H  -2.37100 19.27700 22.93700
H  -2.29200 12.91700 24.11800
H  -4.67800 16.36900 31.21300
H  -3.31200 19.15500 31.18600
H  -5.88800 18.37300 31.73500
H  -6.04200 18.71000 30.03800
H  -5.42100 20.02300 30.95500
H  -1.90800 16.58400 32.07300
H  -3.28400 15.64300 32.71000
H  -4.05800 17.83900 33.74000
H  -2.32200 18.33900 33.46200
H  -3.63700 22.23800 28.18800
H  -4.15900 23.08600 26.70300
H  -2.49100 22.96400 27.08900
H  -3.18600 23.86600 23.20500
H  -2.44600 23.70900 24.83300
H  -4.15700 23.60200 24.55900
H  -1.42000 16.99500 21.62800
H  -2.52700 14.35300 22.05500
H  -3.51500 17.18200 20.63300
H  -4.44900 17.38900 22.08900
H  -4.23200 15.80200 21.45500
H  -0.18200 14.96800 21.30600
H  -0.21100 13.66800 22.41600
H  1.31000 16.11900 22.56400
H  1.43400 14.66800 23.51000
H  0.20500 15.86300 24.01200
H  -1.67600 11.05100 25.66400
H  -3.31300 10.79300 26.41500
H  -1.82500 10.63100 27.30000
H  -3.97100 13.67300 30.96300
H  -0.66800 12.45800 33.66500
H  -2.08900 12.28800 34.68500
H  -1.38800 13.91700 34.25700
Mg 27.02200 50.29500 25.93500
C  24.81900 51.13300 28.60100
C  29.04600 48.73200 28.29300
C  29.19000 49.74600 23.47100
C  24.81000 51.71800 23.73200
N  26.92100 49.99800 28.15000
C  25.94500 50.38100 29.02700
C  26.26100 49.97000 30.48300
C  27.71500 49.49900 30.31200
C  27.93700 49.38200 28.79300
C  28.96200 50.20800 31.09600
C  25.15500 49.02100 31.05800
C  24.52100 49.47600 32.39100
H  25.36900 50.06600 33.57900
N  28.86500 49.37500 25.86400
C  29.52000 48.72800 26.93500
C  30.79900 48.17500 26.37900
C  30.86000 48.57300 25.00500
C  29.61700 49.18900 24.71200
C  31.66800 47.29400 27.16000
C  32.02600 48.34800 23.94700
O  32.04600 48.51700 22.73600
C  33.32000 47.81400 24.59600
N  26.98200 50.66000 23.92000
C  28.02000 50.34700 23.11100
C  27.63400 50.63100 21.63100
C  26.22700 51.25100 21.74400
C  25.96400 51.16000 23.20900
C  28.62600 51.43600 20.75000
C  25.15000 50.62000 20.81000
C  24.07600 51.52600 20.22000
N  25.18900 51.29900 26.08600
C  24.43600 51.78100 25.11500
C  23.29000 52.49400 25.63900
C  23.40400 52.25400 27.01700
C  24.61100 51.55600 27.24900
C  22.33900 53.31800 24.81400
C  22.75000 52.52100 28.30700
O  21.79000 53.16500 28.66100
C  23.74000 51.84800 29.41400
C  24.25000 52.93400 30.23700
O  25.29300 53.52800 29.99900
O  23.48700 53.13100 31.33000
C  23.96900 54.06000 32.31400
H  29.79000 48.34900 28.99500
H  29.86400 49.59300 22.62600
H  24.06100 52.08100 23.02500
H  26.17800 50.93000 30.99100
H  27.74100 48.47300 30.67900
H  29.52800 50.83000 30.40200
H  29.57900 49.43300 31.55100
H  28.58300 50.87700 31.86900
H  25.57900 48.02000 31.13100
H  24.36400 48.90400 30.31800
H  24.03600 48.59400 32.81100
H  23.61200 50.07300 32.31700
H  31.76500 46.28500 26.75800
H  31.28500 47.25400 28.18000
H  32.64900 47.76400 27.23100
H  34.11000 48.05300 23.88400
H  33.20800 46.75900 24.84600
H  33.43300 48.51100 25.42600
H  27.62100 49.63000 21.19900
H  26.28700 52.32300 21.55400
H  29.17500 52.07000 21.44600
H  28.04800 52.10800 20.11500
H  29.34800 50.84800 20.18400
H  24.57100 49.86600 21.34200
H  25.42500 50.01000 19.94900
H  23.94000 51.14700 19.20600
H  24.53100 52.50700 20.08700
H  23.22700 51.49000 20.90200
H  22.91200 53.72900 23.98300
H  21.88900 54.02600 25.51100
H  21.61500 52.74900 24.23100
H  23.27000 51.11400 30.06800
H  24.35700 54.95100 31.82100
H  24.81000 53.52400 32.75100
H  23.27400 54.23400 33.13600

