158

Mg 47.25100 25.48000 27.84100
C  47.98100 27.62900 30.32900
C  46.73100 23.12900 30.34600
C  46.43600 23.13700 25.45700
C  48.45200 27.58500 25.46300
N  47.01000 25.52700 30.16800
C  47.30000 26.58800 30.91800
C  47.19800 26.20200 32.46400
C  46.98000 24.62700 32.46800
C  46.84600 24.40700 30.90900
C  48.21400 23.77000 32.96200
C  46.24300 27.08300 33.26000
C  46.04400 26.38600 34.73700
H  46.23600 27.33600 35.87200
N  46.51000 23.41900 27.91300
C  46.43500 22.66500 29.03100
C  45.89800 21.34100 28.63100
C  45.59800 21.46000 27.22400
C  46.15500 22.73500 26.81300
C  45.67800 20.19500 29.64800
C  44.93700 20.46600 26.32000
O  44.73200 20.77000 25.15000
C  44.72500 19.03000 26.75200
N  47.46700 25.36000 25.72800
C  47.11600 24.29000 24.98600
C  47.34600 24.56800 23.51400
C  47.94300 26.03300 23.52900
C  47.87500 26.39000 24.98300
C  48.18400 23.55600 22.76800
C  47.10500 27.08800 22.67400
C  47.73600 27.61300 21.38000
N  48.15800 27.20200 27.81500
C  48.53300 28.00500 26.77400
C  49.16300 29.20400 27.27600
C  49.02400 29.06100 28.69900
C  48.37400 27.82700 28.97600
C  49.84500 30.18200 26.36000
C  49.26400 29.67500 29.96800
O  49.78000 30.69300 30.30700
C  48.48300 28.87200 31.07600
C  49.39200 28.59200 32.31100
O  50.43500 27.86300 32.16600
O  48.90600 29.34100 33.39900
C  49.60700 29.29100 34.70200
H  46.80700 22.30400 31.05800
H  46.21900 22.37800 24.70200
H  48.92300 28.15700 24.66100
H  48.13900 26.37000 32.98800
H  46.07900 24.31900 32.99900
H  48.05500 22.73800 33.27600
H  48.70000 24.32800 33.76300
H  49.00100 23.68100 32.21300
H  45.30700 27.02200 32.70400
H  46.57500 28.12000 33.21100
H  46.84800 25.65900 34.85500
H  45.03700 25.97100 34.77200
H  46.03400 19.24400 29.25300
H  44.61800 20.00500 29.81500
H  46.17100 20.28800 30.61500
H  44.23200 18.96400 27.72200
H  45.66800 18.48600 26.81000
H  44.06200 18.56100 26.02500
H  46.38700 24.51300 22.99900
H  48.98600 26.18800 23.25300
H  48.71900 22.81900 23.36700
H  48.95100 24.04700 22.16800
H  47.54100 22.98300 22.10000
H  46.78300 27.84900 23.38500
H  46.19300 26.62600 22.29700
H  47.26500 27.02700 20.59100
H  48.74700 27.20600 21.39000
H  47.57000 28.68000 21.23100
H  49.83500 29.99000 25.28700
H  50.90000 30.14900 26.63300
H  49.58200 31.22900 26.51300
H  47.66800 29.52600 31.38700
H  49.26200 30.07100 35.38000
H  50.69300 29.28800 34.61400
H  49.24000 28.33200 35.06900
Mg 35.95400 48.67100 26.09900
C  36.36100 46.75800 29.06900
C  34.74800 51.29500 27.93900
C  35.31900 50.13600 23.33600
C  36.45300 45.45600 24.39500
N  35.64100 48.95300 28.28200
C  35.99400 48.06100 29.28000
C  35.59400 48.70800 30.64600
C  34.68600 49.92400 30.25600
C  34.99800 50.12500 28.75600
C  33.20100 49.73300 30.55000
C  36.89700 49.04200 31.37300
C  37.12600 48.49800 32.77700
H  36.90600 49.49600 33.93500
N  35.32300 50.60000 25.69700
C  34.94100 51.54400 26.60400
C  34.63400 52.74900 25.86000
C  34.89200 52.43200 24.50400
C  35.11600 51.00900 24.46600
C  34.24600 54.05200 26.48700
C  35.01100 53.34700 23.29200
O  35.28600 52.96800 22.16000
C  34.86400 54.88800 23.41600
N  36.09900 47.92300 24.13100
C  35.68800 48.79100 23.17400
C  35.74100 48.12500 21.81600
C  36.11700 46.63100 22.11000
C  36.28600 46.65600 23.63300
C  34.46600 48.14000 20.96800
C  37.53500 46.25300 21.49700
C  37.75000 46.53900 19.99100
N  36.41500 46.53700 26.53600
C  36.61300 45.45500 25.76200
C  36.77500 44.23800 26.62200
C  36.78100 44.73700 27.88800
C  36.49000 46.09800 27.85200
C  36.76400 42.75800 26.16300
C  36.98400 44.32400 29.31200
O  37.31900 43.29100 29.89400
C  36.65300 45.62300 30.05100
C  35.47300 45.14900 30.88900
O  34.30700 45.10500 30.51000
O  35.89200 44.96100 32.20900
C  34.79800 44.85500 33.20000
H  34.22100 52.01400 28.56900
H  35.06500 50.64400 22.40300
H  36.60900 44.46900 23.95600
H  35.04000 47.95600 31.20800
H  35.21900 50.70700 30.79600
H  32.57000 50.31200 29.87600
H  33.02900 50.02000 31.58800
H  33.05600 48.65700 30.45100
H  37.06000 50.11900 31.41700
H  37.74400 48.67700 30.79300
H  38.16300 48.17300 32.86200
H  36.51800 47.59800 32.87000
H  34.34100 53.93300 27.56600
H  33.23400 54.29600 26.16400
H  34.93900 54.80300 26.10600
H  35.66300 55.29600 24.03500
H  33.83800 55.13400 23.69100
H  34.91900 55.19700 22.37200
H  36.51500 48.65000 21.25700
H  35.32400 45.94900 21.80300
H  34.83100 48.33000 19.95800
H  33.73300 48.88100 21.28600
H  33.97000 47.18800 20.77800
H  37.82200 45.24200 21.78600
H  38.19800 47.00800 21.92000
H  36.81300 46.70800 19.46200
H  38.20800 45.63600 19.58700
H  38.48900 47.32100 19.81300
H  37.82200 42.54800 26.00700
H  36.23200 42.78300 25.21200
H  36.18400 42.08400 26.79400
H  37.53000 45.78300 30.67900
H  35.27900 44.83200 34.17700
H  34.16300 43.99600 32.98000
H  34.16000 45.71100 32.97900

