158

Mg 40.95600 8.81400 29.38900
C  42.78500 10.22600 32.11800
C  38.91500 7.23600 31.69000
C  39.28800 7.43200 26.90900
C  43.56900 9.70700 27.25200
N  40.74300 8.96000 31.65900
C  41.65800 9.47900 32.55400
C  41.37700 9.03300 33.95300
C  40.35400 7.85300 33.70100
C  39.98700 8.01000 32.27100
C  40.73800 6.40300 34.15500
C  40.85800 10.16700 34.91400
C  40.47500 9.63200 36.27500
H  41.24600 10.29200 37.50100
N  39.21100 7.71900 29.27900
C  38.50300 7.19700 30.32900
C  37.37100 6.34400 29.83800
C  37.35700 6.61300 28.40700
C  38.66900 7.20300 28.11300
C  36.58300 5.48900 30.75700
C  36.31900 6.34700 27.42900
O  36.51300 6.38900 26.23200
C  34.94400 6.05800 27.79200
N  41.44400 8.53400 27.39800
C  40.50800 8.01600 26.53000
C  40.95800 8.23600 25.02000
C  42.38100 8.94400 25.17500
C  42.48300 9.13100 26.68900
C  41.08400 6.99600 24.12900
C  42.52100 10.33700 24.37100
C  41.84000 11.50400 24.96300
N  42.75100 9.82400 29.57200
C  43.75900 10.08100 28.60000
C  44.84900 10.83700 29.21700
C  44.49000 11.00400 30.57500
C  43.24200 10.33200 30.75300
C  46.10200 11.37800 28.55400
C  44.95900 11.49700 31.91200
O  45.94700 12.16200 32.21000
C  43.88300 11.00100 32.97100
C  44.63000 10.02900 33.94900
O  44.92100 8.90400 33.78100
O  44.85300 10.72600 35.13100
C  45.66900 10.03100 36.12400
H  38.31300 6.71300 32.43500
H  38.72200 7.26800 25.99000
H  44.39700 10.02400 26.61500
H  42.29200 8.69200 34.43800
H  39.40500 8.06800 34.19300
H  41.74700 6.55900 34.53800
H  40.75900 5.56300 33.46000
H  40.29100 6.16800 35.12000
H  40.02800 10.57200 34.33600
H  41.68400 10.87600 34.94900
H  40.69500 8.57000 36.38900
H  39.42200 9.90900 36.32600
H  36.93200 5.30100 31.77300
H  36.38500 4.49000 30.36900
H  35.61500 5.98600 30.81900
H  34.96500 5.34700 28.61700
H  34.51000 5.66800 26.87100
H  34.40800 6.99900 27.91500
H  40.22400 8.89400 24.55300
H  43.20400 8.26500 24.95100
H  42.04500 6.85400 23.63700
H  40.38000 7.23400 23.33100
H  40.80900 6.10000 24.68500
H  42.19000 10.29000 23.33300
H  43.59100 10.51600 24.26400
H  42.42100 12.38400 25.23700
H  41.19700 11.18200 25.78200
H  41.05400 11.82300 24.27900
H  45.90900 11.59300 27.50300
H  46.83400 10.59600 28.75900
H  46.46100 12.26000 29.08500
H  43.59200 11.91900 33.48200
H  45.24200 9.11900 36.54400
H  46.08100 10.55800 36.98500
H  46.56400 9.69500 35.60000
Mg 26.48300 50.93100 26.31000
C  24.71700 52.06500 28.92000
C  28.73800 49.70500 28.39300
C  28.00600 49.81900 23.66400
C  24.21600 52.73100 24.08900
N  26.86400 51.18800 28.47000
C  25.82200 51.40800 29.37000
C  26.16200 50.87800 30.82300
C  27.59700 50.32500 30.68300
C  27.76600 50.41900 29.07700
C  28.69100 51.06500 31.52300
C  25.08200 49.99200 31.46100
C  24.48000 50.26600 32.83000
H  25.51300 50.91100 33.71700
N  28.14300 49.86200 26.04200
C  28.99300 49.48000 26.99100
C  30.07500 48.79600 26.38600
C  29.79000 48.67800 25.03500
C  28.59600 49.43300 24.84700
C  31.23300 48.19300 27.31400
C  30.49100 47.75100 24.06500
O  30.06700 47.62700 22.93500
C  31.69100 46.88800 24.50600
N  26.32800 51.49000 24.13000
C  27.01100 50.71400 23.21600
C  26.54200 50.86100 21.75900
C  25.28500 51.74300 21.98800
C  25.24600 52.04100 23.48700
C  27.61600 51.38200 20.77000
C  23.95200 51.05000 21.63400
C  22.74900 51.89300 21.15100
N  24.92100 52.24200 26.37900
C  24.07900 52.88900 25.46100
C  23.01100 53.60600 26.16200
C  23.25100 53.28600 27.48000
C  24.41000 52.48900 27.59200
C  21.90400 54.51400 25.61700
C  22.70300 53.41500 28.79400
O  21.78100 53.95200 29.35300
C  23.72600 52.67300 29.80500
C  24.23900 53.86000 30.55700
O  25.17800 54.54700 30.16000
O  23.49200 54.01200 31.71300
C  24.17900 54.81800 32.69200
H  29.37500 49.12000 29.05900
H  28.49500 49.31500 22.82700
H  23.53500 53.15700 23.34900
H  26.33500 51.77900 31.41100
H  27.56100 49.29800 31.04700
H  29.33500 50.43800 32.14000
H  28.28600 51.79100 32.22800
H  29.29200 51.70800 30.88000
H  25.43100 48.96400 31.35800
H  24.23100 50.11100 30.79000
H  24.17000 49.32400 33.28300
H  23.60800 50.92000 32.81400
H  31.21300 48.36000 28.39100
H  32.21000 48.60200 27.05800
H  31.13100 47.11300 27.21100
H  31.26800 46.07100 25.09000
H  32.54700 47.37300 24.97600
H  32.04200 46.50600 23.54700
H  26.21000 49.88700 21.39800
H  25.43600 52.71200 21.51300
H  28.56300 51.28600 21.30000
H  27.37500 52.41100 20.50200
H  27.58200 50.82800 19.83100
H  23.65100 50.36300 22.42500
H  24.26100 50.40600 20.81100
H  22.46400 51.58500 20.14500
H  22.94900 52.96400 21.18900
H  21.90900 51.67000 21.80800
H  21.34100 54.06400 24.79900
H  22.45500 55.35900 25.20400
H  21.35600 54.69200 26.54200
H  23.22900 52.01200 30.51500
H  23.57000 55.03600 33.57000
H  24.48700 55.76400 32.24700
H  25.11300 54.36200 33.01900

