158

Mg 44.31200 3.79700 48.26000
C  42.07200 6.43000 47.27300
C  41.84400 1.47400 47.53900
C  46.64000 1.42900 48.12600
C  46.93100 6.27700 48.03200
N  42.26200 3.98600 47.28000
C  41.45800 5.10200 47.17200
C  40.00700 4.76300 46.87500
C  40.00800 3.26000 47.19800
C  41.48200 2.85700 47.35400
C  39.04900 2.71800 48.36100
C  39.47900 5.18200 45.43600
C  38.01300 5.66700 45.34900
H  37.32900 5.34400 43.94900
N  44.23700 1.69800 48.08900
C  43.11000 0.95100 47.88400
C  43.46400 -0.46400 48.14000
C  44.85000 -0.49500 48.37300
C  45.33200 0.91200 48.20600
C  42.49900 -1.62300 47.94800
C  45.63500 -1.67900 48.76400
O  45.14100 -2.80600 48.87300
C  47.15000 -1.53900 49.08500
N  46.51000 3.88300 48.05500
C  47.18300 2.73000 48.15800
C  48.71000 2.99400 48.07600
C  48.77000 4.43300 47.53700
C  47.36000 4.93600 47.84300
C  49.47400 2.69300 49.42900
C  49.09100 4.57200 46.05200
C  50.44300 5.22400 45.66200
N  44.48000 5.93900 47.88600
C  45.60800 6.75900 47.84700
C  45.10400 8.10100 47.64800
C  43.75700 7.97000 47.46800
C  43.41000 6.67100 47.64500
C  45.95800 9.32000 47.61200
C  42.54500 8.78700 47.30200
O  42.42500 10.01300 47.17600
C  41.39500 7.74300 47.10100
C  40.28300 7.95500 48.06800
O  40.21600 7.50700 49.22200
O  39.37200 8.87300 47.52600
C  38.06900 9.10200 48.34200
H  40.96300 0.82900 47.53300
H  47.48000 0.73300 48.08100
H  47.60000 7.10300 47.78000
H  39.27400 5.20000 47.55300
H  39.70000 2.64400 46.35200
H  38.63100 3.55400 48.92200
H  39.63000 2.12700 49.06800
H  38.30300 2.16000 47.79500
H  39.60700 4.31800 44.78300
H  40.15300 5.93900 45.03600
H  38.19600 6.73700 45.44800
H  37.40800 5.23500 46.14600
H  41.53000 -1.40400 47.50000
H  42.34100 -2.18500 48.86800
H  42.86800 -2.34500 47.22000
H  47.51700 -0.76100 49.75400
H  47.59200 -1.39000 48.10000
H  47.52900 -2.44200 49.56400
H  49.18300 2.39000 47.30200
H  49.41100 5.04100 48.17700
H  50.19100 3.44000 49.76900
H  50.13000 1.86600 49.15900
H  48.82100 2.24200 50.17600
H  48.35800 5.15100 45.49000
H  49.23200 3.59500 45.59000
H  50.86900 5.89400 46.40800
H  50.21600 5.79300 44.76000
H  51.14500 4.45100 45.35100
H  45.46700 10.04000 48.26700
H  45.90300 9.69900 46.59200
H  47.03200 9.24400 47.78500
H  40.80800 7.85100 46.18800
H  37.98500 8.32300 49.10000
H  37.24200 9.14300 47.63200
H  38.30600 10.02800 48.86500
Mg 26.63600 50.22300 26.36300
C  24.54400 51.58400 28.83700
C  28.80400 49.35100 28.84900
C  28.80900 49.06400 23.99400
C  24.53400 51.50600 23.94100
N  26.68200 50.54400 28.60800
C  25.73600 51.07800 29.40400
C  26.06400 50.91600 30.83300
C  27.59300 50.51300 30.84000
C  27.70600 50.06400 29.32600
C  28.60300 51.54500 31.36000
C  25.16700 49.86400 31.61300
C  24.46800 50.40500 32.96100
H  25.41700 51.09500 33.97800
N  28.44300 49.23300 26.42600
C  29.18400 48.96500 27.54100
C  30.45400 48.26900 27.16900
C  30.48600 48.24600 25.75000
C  29.21600 48.78900 25.35200
C  31.44800 47.75400 28.20200
C  31.53400 47.70000 24.81000
O  31.47900 47.81800 23.64300
C  32.66200 46.89100 25.30600
N  26.69300 50.31900 24.28200
C  27.68000 49.77500 23.49900
C  27.36700 49.80300 21.99600
C  25.95300 50.52300 21.95300
C  25.66000 50.79000 23.53600
C  28.44400 50.61100 21.13200
C  24.85000 49.65000 21.30700
C  23.56200 50.39800 20.89600
N  24.80900 51.37100 26.32000
C  24.09800 51.79700 25.26400
C  22.96800 52.54300 25.74900
C  23.04200 52.44300 27.18300
C  24.22400 51.73500 27.45800
C  21.80400 53.04600 25.05100
C  22.49100 52.83700 28.40200
O  21.56300 53.59000 28.65400
C  23.35300 52.27300 29.54600
C  23.90300 53.38300 30.33500
O  24.96800 53.96900 30.08900
O  23.07200 53.73200 31.38700
C  23.58300 54.80000 32.20200
H  29.43900 49.05900 29.68800
H  29.46700 48.72600 23.19100
H  23.92700 51.79200 23.07900
H  25.90000 51.90300 31.26400
H  27.70800 49.73400 31.59400
H  28.09100 52.43700 31.72300
H  29.35600 51.73700 30.59700
H  29.16500 51.09300 32.17700
H  25.84200 49.03100 31.81000
H  24.42000 49.40400 30.96500
H  23.90300 49.64000 33.49400
H  23.73400 51.16300 32.69000
H  31.47200 46.68100 28.39100
H  31.38600 48.24300 29.17400
H  32.42600 48.01000 27.79500
H  33.53300 47.44400 25.65700
H  32.91200 46.24900 24.46100
H  32.41800 46.12900 26.04600
H  27.32500 48.77000 21.64900
H  26.17900 51.46200 21.44900
H  28.64400 49.99000 20.25900
H  29.30100 50.81700 21.77400
H  28.21200 51.60500 20.75000
H  24.57200 48.71500 21.79400
H  25.30100 49.24500 20.40100
H  22.85100 50.15400 21.68500
H  23.15600 50.00900 19.96200
H  23.56100 51.48700 20.84500
H  21.83600 54.13400 25.00000
H  20.91400 52.89400 25.66200
H  21.71000 52.71500 24.01600
H  22.71900 51.63500 30.16200
H  23.77500 55.70200 31.62100
H  24.48700 54.49000 32.72600
H  22.87000 54.98400 33.00600

