158

Mg 47.69600 16.96600 28.76800
C  46.08700 16.33600 31.69100
C  50.08300 18.78300 30.27200
C  49.13100 17.33500 25.67000
C  44.98800 15.42800 27.06000
N  47.99200 17.57700 30.73000
C  47.28900 17.13500 31.83900
C  47.92700 17.64700 33.11000
C  48.99300 18.62200 32.58800
C  49.04800 18.38400 31.10600
C  48.78800 20.19300 33.01300
C  48.51800 16.39900 33.96100
C  48.59600 16.53300 35.49800
H  48.20900 17.92700 36.13400
N  49.37900 17.94900 28.05700
C  50.27500 18.50700 28.87900
C  51.43600 18.95800 28.12200
C  51.09600 18.69100 26.80100
C  49.78600 17.87300 26.78800
C  52.65900 19.70100 28.68600
C  51.91400 19.00700 25.51500
O  51.46200 18.67700 24.42300
C  53.21700 19.66900 25.57200
N  47.16900 16.26900 26.60800
C  47.93300 16.57000 25.52700
C  47.35800 16.05100 24.20800
C  45.94300 15.58400 24.70800
C  45.98700 15.75500 26.19600
C  47.15700 17.17200 23.07300
C  45.69000 14.11000 24.26800
C  44.76400 14.10000 23.03700
N  45.95500 16.00400 29.21500
C  45.00900 15.40900 28.42300
C  43.94100 14.88900 29.27200
C  44.35100 15.09000 30.59400
C  45.56900 15.90900 30.45600
C  42.69000 14.19400 28.86900
C  44.08100 14.97000 31.99900
O  43.14700 14.34100 32.50100
C  45.19100 15.79100 32.76600
C  44.40800 16.79000 33.47400
O  43.67700 17.67500 32.99100
O  44.61200 16.59400 34.87100
C  43.76500 17.53200 35.62200
H  50.87200 19.38000 30.73500
H  49.53300 17.41400 24.65800
H  44.11500 15.08300 26.50000
H  47.14500 18.12900 33.69600
H  49.95400 18.24900 32.94400
H  48.37700 20.76400 32.18100
H  49.76400 20.57500 33.31200
H  48.06000 20.19700 33.82500
H  49.54700 16.24700 33.63400
H  48.10200 15.43400 33.67100
H  49.56100 16.14700 35.82500
H  47.90000 15.83000 35.95700
H  52.89600 20.60600 28.12700
H  53.45900 18.96100 28.70600
H  52.43700 19.93400 29.72800
H  53.28000 20.69100 25.94300
H  53.76400 19.54900 24.63700
H  53.86200 19.01000 26.15500
H  47.89700 15.18800 23.81700
H  45.18000 16.24700 24.29900
H  47.72300 18.09100 23.22400
H  46.12300 17.36700 22.79100
H  47.69600 16.67300 22.26800
H  45.11000 13.56400 25.01200
H  46.59000 13.49600 24.24400
H  44.71200 15.05800 22.52000
H  43.73500 14.06600 23.39400
H  44.88700 13.12800 22.55800
H  42.62900 13.41800 29.63300
H  42.68700 13.80300 27.85200
H  41.82700 14.84500 29.00900
H  45.73100 15.13200 33.44600
H  43.93700 18.54300 35.25300
H  44.11200 17.61800 36.65100
H  42.74400 17.19500 35.79700
Mg 47.57400 25.53700 28.28400
C  48.49100 27.87100 30.74900
C  46.78000 23.33200 30.78600
C  46.98600 23.17600 25.91800
C  48.88700 27.80600 25.77600
N  47.75600 25.53600 30.47700
C  48.09000 26.60600 31.30600
C  47.71200 26.45500 32.75300
C  47.41000 24.91300 32.75200
C  47.24700 24.56400 31.26400
C  48.52000 24.05700 33.36800
C  46.38100 27.24400 33.08500
C  46.47600 28.14700 34.34400
H  45.56000 27.71700 35.45700
N  47.08700 23.48800 28.33300
C  46.72600 22.83600 29.51200
C  46.27300 21.49600 29.16100
C  46.24000 21.44300 27.72100
C  46.86000 22.72500 27.24700
C  45.87500 20.50200 30.22500
C  45.67800 20.30900 26.80400
O  45.73100 20.39100 25.61900
C  45.13000 19.04900 27.40300
N  48.06300 25.44400 26.13000
C  47.60500 24.35000 25.40400
C  47.94100 24.51400 23.91000
C  48.43000 26.03300 23.92000
C  48.48200 26.51800 25.36800
C  49.01600 23.57600 23.39200
C  47.47600 26.95900 23.05700
C  48.17600 27.80800 22.02800
N  48.40400 27.38400 28.19100
C  48.96800 28.13000 27.13300
C  49.56300 29.35000 27.65500
C  49.37600 29.25200 29.12700
C  48.64200 28.06100 29.36400
C  50.36200 30.44700 26.86000
C  49.66500 29.99500 30.34000
O  50.24000 31.06400 30.40300
C  49.06100 29.12500 31.49100
C  50.15000 28.78900 32.43600
O  51.13600 28.09500 32.18300
O  49.78200 29.31700 33.67900
C  50.64600 29.04700 34.79000
H  46.33300 22.75900 31.60100
H  46.80600 22.48100 25.09600
H  49.29300 28.55400 25.09300
H  48.60100 26.64100 33.35600
H  46.49200 24.60700 33.25500
H  48.05000 23.16000 33.77100
H  49.10100 24.58200 34.12500
H  49.30300 23.71100 32.69300
H  45.64200 26.45000 33.19000
H  46.06700 27.75900 32.17700
H  46.28200 29.15900 33.99000
H  47.48500 28.21000 34.75200
H  46.38200 19.58000 29.93900
H  44.84400 20.17300 30.09100
H  46.03200 20.75200 31.27400
H  44.39800 19.19700 28.19600
H  46.02800 18.58800 27.81300
H  44.71100 18.46900 26.58000
H  46.97200 24.25200 23.48400
H  49.44000 26.03800 23.51000
H  48.49200 22.85900 22.76100
H  49.36800 23.03200 24.26900
H  49.81700 24.13500 22.90700
H  46.97700 27.62000 23.76600
H  46.69400 26.40700 22.53500
H  49.25800 27.76100 22.15000
H  47.75800 28.81400 22.06400
H  47.92700 27.37800 21.05800
H  49.84900 30.85200 25.98800
H  51.39500 30.17500 26.64500
H  50.37500 31.20700 27.64200
H  48.29600 29.78200 31.90400
H  50.24300 28.14400 35.25000
H  50.54100 29.81700 35.55400
H  51.68400 28.78000 34.59400

