158

Mg 0.75100 43.92700 26.43400
C  2.89500 44.10800 29.35700
C  -1.82700 43.07200 28.68900
C  -1.24400 43.16800 23.80800
C  3.47400 44.34300 24.40900
N  0.66600 43.54200 28.80200
C  1.57100 43.90000 29.72900
C  0.95000 43.83800 31.15900
C  -0.45700 43.03100 30.94400
C  -0.56000 43.19900 29.36500
C  -0.44900 41.57100 31.38000
C  0.84200 45.21300 31.94700
C  1.01500 45.18100 33.45500
H  0.61700 43.84800 34.09600
N  -1.25800 43.46200 26.18000
C  -2.17900 43.22700 27.30500
C  -3.49300 43.20700 26.76600
C  -3.32400 43.14100 25.34600
C  -1.92300 43.27300 25.05400
C  -4.80200 43.10500 27.57500
C  -4.43700 43.00400 24.24500
O  -4.26300 43.14600 23.01400
C  -5.84300 42.83800 24.64300
N  1.07300 43.72400 24.45100
C  0.14300 43.35000 23.58500
C  0.69800 43.50400 22.14400
C  2.06700 44.22300 22.34400
C  2.21700 44.06400 23.82400
C  0.83500 42.15000 21.35600
C  2.05700 45.73600 21.95300
C  3.48200 46.17600 21.35600
N  2.77800 44.14600 26.77000
C  3.72800 44.32600 25.78800
C  5.04100 44.32400 26.41100
C  4.72500 44.26500 27.78300
C  3.34100 44.21100 27.99200
C  6.37900 44.29500 25.78400
C  5.30000 44.10200 29.11800
O  6.47300 44.11500 29.42300
C  4.11200 44.15500 30.25400
C  4.32300 43.01800 31.16800
O  4.62900 41.88300 30.88100
O  4.27600 43.46200 32.44300
C  4.63500 42.47000 33.48200
H  -2.62900 42.81500 29.38300
H  -1.86300 42.93000 22.94100
H  4.24400 44.59000 23.67500
H  1.67400 43.21400 31.68400
H  -1.17800 43.61200 31.51800
H  -0.93800 40.90100 30.67300
H  -1.09600 41.38200 32.23600
H  0.58700 41.37200 31.65400
H  -0.06900 45.68700 31.58200
H  1.61600 45.83100 31.49200
H  0.47900 45.96600 33.98700
H  2.08200 45.37900 33.55400
H  -4.51400 43.27900 28.61200
H  -5.53000 42.31700 27.38300
H  -5.48400 43.91500 27.31500
H  -6.11500 43.77900 25.12200
H  -6.03700 42.04500 25.36600
H  -6.51100 42.77700 23.78400
H  0.03900 44.15500 21.56900
H  2.91800 43.68500 21.92500
H  0.16500 41.41000 21.79300
H  1.88000 41.87100 21.22400
H  0.49100 42.25800 20.32800
H  1.86100 46.32500 22.84900
H  1.34400 45.94400 21.15500
H  3.91700 47.11800 21.69000
H  3.37800 46.28900 20.27700
H  4.21800 45.38100 21.47800
H  6.27600 43.60900 24.94300
H  7.14500 44.06200 26.52400
H  6.71700 45.22100 25.32000
H  4.16300 45.11600 30.76700
H  5.30000 41.69500 33.10000
H  3.72000 42.04700 33.89500
H  5.15600 42.99100 34.28500
Mg -10.38600 17.29100 41.17600
C  -6.92800 16.68300 41.10100
C  -9.63400 20.54900 40.69600
C  -13.53300 17.62200 40.08800
C  -10.90600 13.82500 41.22200
N  -8.43400 18.41400 41.05600
C  -7.18700 17.99500 41.00300
C  -6.16400 19.14100 40.67200
C  -7.09800 20.40400 40.96300
C  -8.47900 19.75900 40.88100
C  -7.01400 21.18600 42.29300
C  -5.67800 18.89600 39.18900
C  -4.24800 18.53800 38.87200
H  -3.98700 17.30500 37.98700
N  -11.56700 18.94400 40.76500
C  -11.03900 20.18900 40.50900
C  -12.11400 21.05100 40.20100
C  -13.30900 20.21800 40.04400
C  -12.82400 18.84100 40.25600
C  -11.99300 22.54700 40.04900
C  -14.69500 20.74000 39.75000
O  -14.99100 21.87600 39.47900
C  -15.84500 19.81300 39.79400
N  -11.98900 15.84700 40.73000
C  -13.13600 16.27600 40.30700
C  -14.14600 15.14600 39.95600
C  -13.42500 13.94600 40.64100
C  -12.07400 14.55300 40.95600
C  -15.58400 15.09200 40.52100
C  -13.52700 12.68200 39.77600
C  -14.12500 11.45600 40.51000
N  -9.24400 15.53500 41.26100
C  -9.58200 14.21000 41.40100
C  -8.41300 13.42500 41.38000
C  -7.30500 14.32800 41.27300
C  -7.87300 15.62300 41.25500
C  -8.34300 11.86500 41.44600
C  -5.93500 14.33700 41.16600
O  -5.20000 13.34500 41.08200
C  -5.58800 15.91800 41.17200
C  -4.79000 16.33100 42.31400
O  -3.99700 17.20000 42.29000
O  -5.01700 15.58800 43.48300
C  -4.00900 15.64500 44.59000
H  -9.35200 21.59900 40.59700
H  -14.53300 17.62100 39.65000
H  -11.06200 12.74800 41.31000
H  -5.35500 19.06900 41.40000
H  -6.83600 21.12400 40.18700
H  -7.99200 21.34900 42.74400
H  -6.45900 22.10900 42.12800
H  -6.44300 20.50400 42.92500
H  -5.91500 19.84900 38.71700
H  -6.22000 18.12200 38.64600
H  -3.77600 18.39200 39.84400
H  -3.75700 19.41000 38.44100
H  -12.94400 23.06900 40.16000
H  -11.62800 22.77200 39.04700
H  -11.20600 22.81600 40.75400
H  -15.69300 19.13900 38.95200
H  -16.80800 20.31500 39.70100
H  -15.68800 19.18500 40.67100
H  -14.16500 15.12500 38.86700
H  -13.86500 13.76900 41.62300
H  -15.63400 16.05700 41.02700
H  -15.81700 14.32700 41.26100
H  -16.39100 15.10600 39.78900
H  -12.47100 12.42700 39.69200
H  -13.87600 12.71000 38.74400
H  -14.98800 11.70500 41.12700
H  -13.34600 10.87300 41.00200
H  -14.52900 10.77100 39.76500
H  -7.53700 11.62900 40.75100
H  -9.26000 11.32900 41.20100
H  -8.04800 11.60200 42.46200
H  -5.13300 16.15300 40.20900
H  -4.10700 16.50800 45.24900
H  -2.97900 15.69900 44.23900
H  -4.08500 14.65900 45.04800

