158

Mg 8.92100 3.35100 27.86000
C  10.59900 1.86900 30.63000
C  6.96500 5.05800 29.94100
C  7.42900 4.51800 25.12700
C  10.62100 1.00000 25.79300
N  8.97500 3.56400 30.07000
C  9.73700 2.90300 30.97700
C  9.24900 3.25200 32.38800
C  7.93400 4.12200 32.16300
C  7.93600 4.22100 30.66500
C  6.66100 3.55200 32.83600
C  10.38900 4.02800 33.14400
C  10.89900 3.36400 34.38700
H  11.43400 4.38700 35.45400
N  7.42000 4.58600 27.62000
C  6.78600 5.29300 28.59400
C  5.94900 6.34900 28.01600
C  6.00600 6.17700 26.63500
C  6.98700 5.01900 26.40600
C  4.99400 7.22800 28.84700
C  5.21000 6.88700 25.53500
O  5.38800 6.66800 24.37100
C  4.15600 7.95400 25.96200
N  8.75300 2.48700 25.79000
C  8.19700 3.33900 24.84700
C  8.45600 2.81200 23.41600
C  9.64900 1.85900 23.61100
C  9.67600 1.76900 25.15800
C  7.25000 2.06400 22.83600
C  10.98300 2.32900 23.06900
C  11.40800 1.52300 21.80100
N  10.34800 1.81800 28.12200
C  10.84700 0.91900 27.23000
C  11.75600 -0.08300 27.84800
C  11.69800 0.25200 29.20000
C  10.85900 1.42900 29.34500
C  12.55300 -1.15900 27.20800
C  12.14300 -0.02800 30.48600
O  12.85300 -0.91500 30.91300
C  11.51500 1.01200 31.47400
C  10.70200 0.26700 32.47300
O  9.59700 -0.13100 32.40200
O  11.49200 0.20500 33.58900
C  10.88800 -0.27900 34.81100
H  6.43200 5.72100 30.62600
H  6.97500 5.07800 24.30700
H  11.20500 0.31500 25.17500
H  9.02600 2.30200 32.87400
H  8.01100 5.15800 32.49300
H  6.12400 4.32300 33.38800
H  6.89400 2.77100 33.56000
H  5.94000 3.33300 32.04800
H  9.97100 4.95400 33.53900
H  11.13800 4.33500 32.41400
H  11.76700 2.76900 34.10200
H  10.08400 2.81300 34.85700
H  4.06500 6.66600 28.75400
H  4.89900 8.28800 28.61300
H  5.35500 7.40200 29.86100
H  3.90700 8.64700 25.15800
H  4.54400 8.62000 26.73300
H  3.32500 7.45200 26.45700
H  8.58800 3.71500 22.82100
H  9.34600 0.97200 23.05400
H  6.35500 2.35900 23.38400
H  7.39100 0.98600 22.76100
H  7.12300 2.48700 21.83900
H  11.76300 2.25900 23.82700
H  10.95300 3.35500 22.70200
H  10.63300 1.00700 21.23400
H  12.11000 0.78800 22.19300
H  12.04500 2.08100 21.11400
H  13.31900 -0.88800 26.48200
H  11.84100 -1.90400 26.85100
H  13.12000 -1.61400 28.02100
H  12.19700 1.72000 31.94500
H  9.86900 -0.63400 34.65700
H  10.75000 0.56800 35.48400
H  11.61200 -0.93700 35.29100
Mg 47.23700 16.45600 28.33900
C  44.97600 15.98300 31.09000
C  49.23300 18.21300 30.38100
C  48.90800 17.53200 25.72000
C  44.68000 15.23500 26.28600
N  47.01200 17.25100 30.44300
C  46.12500 16.71600 31.38900
C  46.53000 17.18800 32.81700
C  47.75800 18.21000 32.46800
C  47.96000 17.98900 30.98900
C  47.60000 19.74400 32.85400
C  46.81700 16.01500 33.67400
C  46.20700 16.12400 35.10200
H  46.10700 17.53200 35.86400
N  48.93600 17.42500 28.14700
C  49.66600 18.01600 29.09600
C  50.99100 18.39400 28.61400
C  50.88400 18.27700 27.18500
C  49.53800 17.68400 26.93500
C  52.13500 18.92700 29.48800
C  51.92200 18.65300 26.10100
O  51.77700 18.39800 24.95200
C  53.11300 19.37300 26.44600
N  46.82000 16.34700 26.35400
C  47.68400 16.92600 25.44700
C  47.12500 16.91700 24.00200
C  45.89200 15.94700 24.16600
C  45.79500 15.81100 25.67000
C  46.74700 18.32100 23.54200
C  46.15500 14.55800 23.53800
C  44.85900 14.00100 22.88300
N  45.26100 15.63500 28.62900
C  44.44100 15.07200 27.65800
C  43.23300 14.58200 28.32100
C  43.37400 14.87500 29.68400
C  44.62900 15.58900 29.80700
C  42.08300 13.91700 27.59900
C  42.80600 14.78000 31.01600
O  41.77700 14.24000 31.45800
C  43.80900 15.61300 31.93700
C  43.03300 16.81200 32.36900
O  42.47000 17.58300 31.59700
O  42.83400 16.88700 33.76200
C  41.99900 18.06800 34.11900
H  49.82000 18.77700 31.10900
H  49.38800 17.82400 24.78400
H  43.94000 14.79800 25.61300
H  45.72600 17.79700 33.23100
H  48.63500 17.78100 32.95300
H  46.80300 19.90000 33.58100
H  47.37500 20.35800 31.98300
H  48.57800 20.10700 33.17100
H  47.89700 15.98400 33.81200
H  46.44500 15.08200 33.24900
H  46.64000 15.36300 35.75200
H  45.20500 15.79900 34.82300
H  52.12600 20.01500 29.42100
H  53.12300 18.59800 29.16700
H  51.89500 18.79600 30.54400
H  52.97500 20.43700 26.64000
H  53.65600 19.29700 25.50400
H  53.77400 18.82600 27.11800
H  47.82900 16.54200 23.25900
H  45.07900 16.40200 23.60100
H  45.68700 18.52700 23.39500
H  47.15100 18.57600 22.56200
H  46.98600 19.11400 24.25000
H  46.70200 13.98900 24.29100
H  46.87800 14.69600 22.73400
H  44.67100 12.98800 23.23900
H  45.03900 13.95300 21.81000
H  43.90100 14.50500 23.01500
H  41.15700 13.83800 28.16900
H  42.40600 12.94600 27.22300
H  41.79900 14.50900 26.72800
H  44.03600 14.98800 32.80100
H  42.61300 18.93200 33.86300
H  41.71500 18.12400 35.16900
H  41.09300 18.18900 33.52400

