158

Mg 17.09100 -0.63300 27.67000
C  15.84400 1.23200 30.26700
C  19.07200 -2.39700 29.86800
C  18.70100 -2.09000 24.89500
C  15.43100 1.53300 25.34200
N  17.43100 -0.46600 29.78800
C  16.81700 0.27400 30.68900
C  17.18000 -0.19000 32.13600
C  18.29400 -1.23900 31.88500
C  18.21700 -1.42300 30.39500
C  19.71300 -0.84400 32.46100
C  15.95000 -0.59100 32.95300
C  15.73900 0.17500 34.32600
H  16.92000 0.78000 35.14800
N  18.59300 -2.09200 27.43300
C  19.24800 -2.68800 28.52300
C  20.15000 -3.71900 27.97000
C  20.05000 -3.66800 26.53300
C  19.06500 -2.60800 26.19400
C  20.88500 -4.69500 28.78400
C  20.58000 -4.64100 25.55500
O  20.18100 -4.69700 24.40000
C  21.74300 -5.69800 25.93800
N  17.02500 -0.38500 25.44700
C  17.85200 -1.06200 24.57700
C  17.71800 -0.57600 23.15300
C  16.69000 0.57900 23.23500
C  16.28400 0.57500 24.75600
C  19.13700 -0.14100 22.55100
C  15.47200 0.42400 22.21800
C  15.05500 1.79500 21.52200
N  15.88100 1.01900 27.64900
C  15.27700 1.76400 26.70900
C  14.52500 2.86100 27.34200
C  14.73900 2.70000 28.75700
C  15.57500 1.54100 28.88300
C  13.77600 3.85500 26.61600
C  14.42300 3.20700 30.09100
O  13.83200 4.20700 30.49900
C  15.13200 2.28900 31.12700
C  16.02500 3.04500 32.07300
O  17.20400 3.38200 31.88900
O  15.26800 3.45900 33.17300
C  15.75000 4.55200 34.03500
H  19.56000 -2.96000 30.66700
H  19.23800 -2.52800 24.05100
H  15.02500 2.22900 24.60500
H  17.62700 0.68200 32.61300
H  17.96400 -2.22200 32.22200
H  20.51100 -0.76600 31.72200
H  19.96700 -1.71700 33.06200
H  19.69500 0.10100 33.00400
H  15.82600 -1.66300 33.10700
H  15.16600 -0.28300 32.26100
H  15.31700 -0.66200 34.88300
H  14.96000 0.87500 34.02500
H  20.26400 -5.57300 28.96600
H  20.98600 -4.17000 29.73300
H  21.93400 -4.84700 28.52700
H  21.21000 -6.40700 26.57100
H  22.48500 -5.40200 26.67900
H  22.23900 -6.17900 25.09400
H  17.41600 -1.43600 22.55500
H  17.22600 1.50700 23.03800
H  19.94000 -0.11400 23.28800
H  19.10400 0.82400 22.04600
H  19.44900 -0.80900 21.74800
H  14.59000 0.01400 22.70900
H  15.80800 -0.18800 21.38100
H  15.71600 2.64700 21.68200
H  14.07200 2.07300 21.90200
H  14.88600 1.73100 20.44800
H  12.87500 3.43700 26.16600
H  14.36900 4.35700 25.85300
H  13.48300 4.63700 27.31700
H  14.37000 1.82700 31.75500
H  16.30800 4.20500 34.90400
H  14.82900 5.10300 34.22800
H  16.36700 5.14000 33.35400
Mg 25.80300 1.53900 29.38100
C  27.98700 1.17500 32.12400
C  23.17100 2.05700 31.45500
C  23.95500 1.80400 26.67500
C  28.60300 0.46900 27.39500
N  25.63500 1.59200 31.58800
C  26.63700 1.45200 32.50800
C  26.11700 1.81700 33.90000
C  24.51400 1.94300 33.63300
C  24.40400 1.86100 32.11300
C  23.55200 0.90600 34.36200
C  26.90100 2.99000 34.55600
C  27.52000 2.88800 35.98300
H  26.88500 3.72200 37.03500
N  23.85600 1.79500 29.13300
C  22.92400 1.96200 30.07100
C  21.57500 2.09300 29.45300
C  21.78400 2.11100 28.02500
C  23.21100 1.88500 27.86500
C  20.32000 2.32000 30.33400
C  20.69700 2.30700 26.99000
O  20.91100 2.02900 25.84000
C  19.28400 2.81100 27.33700
N  26.16800 1.04600 27.32300
C  25.28500 1.46700 26.40300
C  25.89100 1.59400 24.98100
C  27.29000 0.88200 25.26600
C  27.38900 0.78200 26.74900
C  25.12200 0.95300 23.80900
C  28.51200 1.67900 24.59900
C  29.77000 0.86500 24.09900
N  27.87200 0.94500 29.63900
C  28.83700 0.50000 28.79200
C  30.03600 0.20100 29.47300
C  29.75900 0.54900 30.84700
C  28.43300 0.91000 30.83800
C  31.31000 -0.26200 28.82500
C  30.28500 0.67000 32.17600
O  31.46600 0.45400 32.49300
C  29.19200 1.14100 33.11100
C  29.02100 -0.03800 34.09200
O  28.19700 -0.92600 33.85300
O  29.85700 0.02800 35.22300
C  29.45600 -0.88000 36.23400
H  22.37500 2.33300 32.14900
H  23.46400 2.07400 25.73700
H  29.38000 0.19400 26.67900
H  26.35500 0.93900 34.50100
H  23.99900 2.87100 33.88200
H  22.78500 1.53700 34.81300
H  24.13600 0.33400 35.08300
H  23.09200 0.25300 33.62100
H  26.11400 3.73100 34.70100
H  27.50800 3.53400 33.83300
H  28.57700 3.12300 35.86400
H  27.42100 1.83000 36.22700
H  19.44800 1.89000 29.84000
H  20.08800 3.38500 30.36900
H  20.42300 1.85700 31.31500
H  18.67900 1.94000 27.59000
H  18.85800 3.41200 26.53300
H  19.29300 3.36000 28.27800
H  26.09400 2.62900 24.70700
H  27.30900 -0.16200 24.95500
H  25.81700 0.30500 23.27400
H  24.76900 1.72800 23.12800
H  24.29900 0.31500 24.13000
H  28.70500 2.43400 25.36200
H  28.13100 2.19800 23.72000
H  29.50800 -0.19200 24.05300
H  30.74900 1.06100 24.53500
H  29.85700 1.04600 23.02800
H  32.18300 -0.39500 29.46300
H  31.67000 0.22700 27.91900
H  31.02900 -1.25700 28.48100
H  29.25900 2.11300 33.59900
H  30.31400 -1.04600 36.88600
H  29.23400 -1.89500 35.90600
H  28.67000 -0.47500 36.87100

