158

Mg -2.16900 17.15000 26.27900
C  -2.43200 15.05800 28.90300
C  -2.36800 19.87700 28.37900
C  -2.17300 19.07400 23.61900
C  -2.58700 14.37200 24.11300
N  -2.18500 17.46400 28.49600
C  -2.40000 16.42400 29.34500
C  -2.66700 16.91700 30.81300
C  -3.01600 18.48700 30.49000
C  -2.51900 18.64600 29.04600
C  -4.49600 18.93900 30.46200
C  -1.41600 16.76600 31.73000
C  -1.64500 17.14500 33.21800
H  -1.67400 16.04100 34.30800
N  -2.12900 19.14400 26.03400
C  -2.08500 20.17500 27.01600
C  -1.90600 21.44700 26.40400
C  -1.85900 21.20500 25.03800
C  -2.05600 19.75600 24.86300
C  -1.89100 22.73400 27.17900
C  -1.69200 22.23400 23.92300
O  -1.69200 21.93900 22.72300
C  -1.48200 23.74400 24.26600
N  -2.55100 16.80000 24.17600
C  -2.44400 17.78900 23.28100
C  -2.58300 17.36000 21.82800
C  -2.61500 15.80400 21.99100
C  -2.64800 15.62700 23.50700
C  -3.92300 17.96800 21.18000
C  -1.43900 14.93200 21.43300
C  -0.00600 15.09900 21.94100
N  -2.50700 15.23500 26.40700
C  -2.52000 14.16500 25.48300
C  -2.54300 12.91600 26.16500
C  -2.61500 13.25400 27.48400
C  -2.44900 14.63200 27.61200
C  -2.41800 11.60700 25.59800
C  -2.81300 12.69200 28.75100
O  -3.06500 11.53700 29.04400
C  -2.69300 13.85200 29.70700
C  -1.58200 13.45600 30.59400
O  -0.39400 13.63000 30.44100
O  -2.15900 12.86800 31.73400
C  -1.31100 12.35400 32.77000
H  -2.52400 20.73800 29.03200
H  -1.98800 19.72700 22.76300
H  -2.51800 13.49400 23.46600
H  -3.51900 16.34700 31.18400
H  -2.47600 19.07200 31.23400
H  -5.32700 18.23700 30.51700
H  -4.71000 19.45000 29.52300
H  -4.57800 19.72900 31.20900
H  -0.59800 17.42700 31.44400
H  -1.14500 15.71200 31.65900
H  -2.56600 17.72100 33.30900
H  -0.80100 17.73800 33.56800
H  -1.83900 22.61400 28.26100
H  -2.66400 23.44700 26.89400
H  -0.92600 23.13800 26.87500
H  -1.40400 24.36200 23.37100
H  -0.58800 23.87200 24.87500
H  -2.38600 24.06000 24.78800
H  -1.74000 17.74000 21.25100
H  -3.46900 15.29600 21.54100
H  -4.47600 18.65600 21.82000
H  -4.64800 17.17600 20.99000
H  -3.57900 18.51200 20.30000
H  -1.32700 15.33600 20.42700
H  -1.77300 13.92300 21.18800
H  0.45100 15.79700 21.24000
H  0.62700 14.21400 21.88000
H  0.01800 15.63900 22.88700
H  -3.33400 11.14400 25.23200
H  -1.94900 10.92300 26.30500
H  -1.74400 11.73500 24.75100
H  -3.63100 13.82200 30.26100
H  -0.83600 13.18900 33.28400
H  -0.51300 11.68200 32.45200
H  -1.79100 11.66900 33.46700
Mg 24.98500 -7.95000 47.51900
C  26.81900 -5.46900 46.04000
C  22.31200 -7.26100 45.09500
C  23.29300 -10.78200 48.33600
C  27.89600 -9.27700 48.85900
N  24.66100 -6.64700 45.52200
C  25.53400 -5.53000 45.41400
C  24.93500 -4.52700 44.36900
C  23.43800 -4.99500 44.20600
C  23.44100 -6.39600 45.03100
C  22.43700 -3.96100 44.71400
C  25.67400 -4.41200 43.04700
C  25.58900 -2.97000 42.39300
H  24.98200 -2.87000 41.03500
N  23.08100 -8.82900 46.94300
C  22.20400 -8.45800 45.88500
C  21.05000 -9.34200 45.90800
C  21.24700 -10.29100 46.91300
C  22.60000 -9.98700 47.49500
C  19.90100 -9.09000 45.03100
C  20.26400 -11.40500 47.29600
O  19.18100 -11.32500 46.80700
C  20.57700 -12.41200 48.38600
N  25.46700 -9.71700 48.66700
C  24.62800 -10.74700 48.71900
C  25.33100 -11.96800 49.48700
C  26.78300 -11.50400 49.78700
C  26.73200 -10.08300 49.13500
C  24.56700 -12.53100 50.77500
C  27.86900 -12.36100 49.13600
C  27.88900 -12.51500 47.53700
N  26.88900 -7.42200 47.71500
C  28.00200 -7.97300 48.25700
C  29.12900 -7.04500 48.19300
C  28.66600 -6.04000 47.40500
C  27.33200 -6.35700 47.03000
C  30.46900 -7.27900 48.87400
C  29.09700 -4.75400 46.81900
O  30.17000 -4.14700 46.90900
C  27.91900 -4.30600 45.80700
C  27.44900 -2.92000 46.09400
O  27.71400 -1.96700 45.36400
O  26.58100 -2.80400 47.18600
C  25.72100 -1.64000 47.44300
H  21.47100 -7.01300 44.44400
H  22.94400 -11.71400 48.78600
H  28.89200 -9.66000 49.09000
H  24.97200 -3.50600 44.75000
H  23.25700 -5.21200 43.15300
H  22.90300 -3.20700 45.34900
H  21.63600 -4.37300 45.32700
H  21.89200 -3.55600 43.86100
H  25.25600 -5.18700 42.40500
H  26.73100 -4.60400 43.23200
H  26.58800 -2.56200 42.23900
H  25.04900 -2.32900 43.08900
H  20.22000 -8.65200 44.08500
H  19.28700 -8.34800 45.54100
H  19.23400 -9.93300 44.85100
H  21.26400 -13.21500 48.11900
H  19.61400 -12.92200 48.39300
H  20.80400 -12.00300 49.37100
H  25.45300 -12.72000 48.70700
H  26.97000 -11.39800 50.85500
H  23.70300 -11.91200 51.01600
H  25.26600 -12.60000 51.60900
H  24.25600 -13.57500 50.71600
H  27.86300 -13.36200 49.56700
H  28.78700 -11.83200 49.39400
H  28.64700 -11.81900 47.17800
H  27.07600 -12.01700 47.00900
H  28.01200 -13.56200 47.25900
H  30.80000 -6.35100 49.34100
H  31.27800 -7.43200 48.15900
H  30.42700 -8.10100 49.58900
H  28.24200 -4.40900 44.77100
H  24.84100 -1.88200 48.03900
H  25.44900 -1.17800 46.49400
H  26.35900 -0.97000 48.01800

