158

Mg 47.08400 17.28800 28.30400
C  45.11100 17.27100 31.17800
C  49.45700 19.11600 30.09800
C  48.49600 18.25100 25.49200
C  44.41200 16.04100 26.40100
N  47.12400 18.31300 30.50700
C  46.33900 17.90000 31.47100
C  46.93600 18.36500 32.84100
C  48.15600 19.25200 32.37900
C  48.29900 18.92700 30.89700
C  48.15900 20.73000 32.58000
C  47.22600 17.20000 33.82800
C  46.89100 17.28900 35.38000
H  46.50200 18.74800 35.83600
N  48.75500 18.33600 27.84100
C  49.61500 19.00800 28.69200
C  50.73500 19.57200 28.00100
C  50.41700 19.39200 26.61300
C  49.18000 18.58100 26.58200
C  52.00000 20.11300 28.68900
C  51.20200 19.99100 25.40500
O  50.85700 19.82300 24.23600
C  52.33400 20.86500 25.69200
N  46.50200 17.26500 26.23300
C  47.22300 17.71400 25.27000
C  46.67700 17.45500 23.87400
C  45.49400 16.48800 24.14500
C  45.44400 16.59900 25.64000
C  46.13600 18.73500 23.23600
C  45.51200 15.03900 23.59700
C  44.55300 14.73200 22.40900
N  45.20900 16.60200 28.68600
C  44.20200 16.07500 27.81200
C  43.07100 15.63200 28.59000
C  43.45500 16.07400 29.95000
C  44.68800 16.69700 29.90400
C  41.82000 14.99500 28.03600
C  42.92100 16.18000 31.31800
O  41.81300 15.99900 31.74700
C  44.02700 16.83100 32.20900
C  43.39500 17.93700 32.93200
O  43.02000 18.95900 32.38000
O  42.97200 17.51900 34.10700
C  42.33100 18.44600 35.07300
H  50.28200 19.64900 30.57500
H  49.01300 18.42100 24.54500
H  43.45700 15.74400 25.96200
H  46.12500 18.89100 33.34600
H  49.02000 18.84600 32.90400
H  48.06900 21.24900 31.62600
H  49.16100 20.88300 32.98100
H  47.26700 21.08900 33.09300
H  48.30900 17.07400 33.82200
H  46.84700 16.29000 33.36300
H  47.81300 17.07500 35.92100
H  46.11600 16.56300 35.62500
H  52.83600 19.55300 28.27100
H  52.00400 19.97700 29.77100
H  52.00000 21.19800 28.58600
H  52.05400 21.85300 26.05800
H  52.81800 20.91000 24.71600
H  53.18500 20.48300 26.25500
H  47.54100 17.10400 23.30900
H  44.54400 16.96900 23.91100
H  46.83300 19.50300 23.56900
H  45.10800 18.98800 23.49400
H  46.15500 18.67700 22.14700
H  45.18900 14.40800 24.42500
H  46.53400 14.87600 23.25500
H  43.77700 15.46900 22.20200
H  44.00600 13.89100 22.83500
H  45.15300 14.39000 21.56600
H  41.00200 14.76000 28.71600
H  42.08900 13.97200 27.77100
H  41.39400 15.66400 27.28900
H  44.41300 16.09100 32.90900
H  41.26800 18.34200 34.85600
H  42.41600 19.52400 34.93500
H  42.65800 18.26500 36.09700
Mg -12.14700 37.77800 42.22400
C  -10.14300 34.89500 41.33900
C  -9.90700 39.61700 40.49200
C  -14.26300 40.22100 42.59600
C  -14.57600 35.50400 43.37100
N  -10.30300 37.20800 40.98400
C  -9.58700 36.06400 40.90900
C  -8.38600 36.22200 39.98300
C  -8.20300 37.78500 40.11100
C  -9.56300 38.24500 40.61800
C  -7.02300 38.18700 41.03500
C  -8.64200 35.60100 38.57900
C  -7.41500 35.20800 37.80300
H  -6.92600 36.05200 36.65300
N  -12.11700 39.67900 41.60800
C  -11.05800 40.30100 40.94300
C  -11.25300 41.76300 40.95400
C  -12.53700 41.96000 41.62500
C  -13.01800 40.59300 41.95700
C  -10.34800 42.78300 40.38000
C  -13.21200 43.31100 41.66500
O  -12.67400 44.31800 41.19700
C  -14.57900 43.47400 42.12100
N  -14.11000 37.92800 43.10300
C  -14.83600 39.01200 42.99400
C  -16.29100 38.91800 43.48400
C  -16.34000 37.40700 43.77100
C  -14.95600 36.86900 43.36300
C  -16.63400 40.04600 44.59400
C  -17.51100 36.66600 43.03900
C  -18.46200 35.79500 43.98200
N  -12.38600 35.56400 42.44200
C  -13.39100 34.84400 42.99000
C  -13.01400 33.41300 43.00700
C  -11.79400 33.34100 42.32300
C  -11.47600 34.70500 41.94700
C  -13.57400 32.24800 43.90300
C  -10.66800 32.45000 41.90900
O  -10.55000 31.24500 41.97900
C  -9.56500 33.40500 41.16900
C  -8.24700 33.28600 41.87100
O  -7.24700 32.98300 41.30600
O  -8.34500 33.44600 43.25600
C  -7.14100 33.08600 44.11000
H  -9.09400 40.28000 40.19000
H  -14.87000 41.10400 42.80400
H  -15.32000 34.77500 43.69800
H  -7.50300 35.77000 40.43400
H  -8.00600 38.14000 39.09900
H  -7.21500 38.93900 41.80000
H  -6.36900 38.70300 40.33200
H  -6.55100 37.30500 41.46800
H  -9.09300 36.40800 38.00100
H  -9.20500 34.66900 38.61500
H  -7.51000 34.18900 37.42600
H  -6.52300 35.20100 38.43000
H  -10.73700 43.27700 39.49000
H  -9.42400 42.29400 40.07000
H  -10.18600 43.57300 41.11400
H  -14.93800 44.46900 41.85800
H  -14.50200 43.27900 43.19100
H  -15.13100 42.71600 41.56600
H  -16.95500 39.07100 42.63300
H  -16.43500 37.31800 44.85300
H  -15.64000 40.45000 44.78400
H  -17.09200 39.53900 45.44400
H  -17.28900 40.83500 44.22400
H  -17.14400 35.95100 42.30300
H  -18.13000 37.38400 42.50000
H  -19.25900 36.33300 44.49500
H  -17.80100 35.38600 44.74600
H  -18.97000 34.97000 43.48300
H  -14.50500 32.58700 44.35800
H  -12.67500 31.95700 44.44500
H  -13.81600 31.39900 43.26400
H  -9.46800 32.99400 40.16400
H  -6.79400 32.19600 43.58500
H  -7.33500 32.91800 45.16900
H  -6.50200 33.96800 44.09500

