158

Mg 54.23700 23.51800 44.21200
C  51.80900 26.13800 43.52900
C  51.94400 21.15200 43.15200
C  56.75900 21.42700 44.11200
C  56.48600 26.12600 45.16100
N  52.18100 23.67200 43.06900
C  51.40100 24.77100 43.03300
C  49.95200 24.35100 42.68700
C  50.00400 22.82800 43.09200
C  51.50900 22.49600 43.07500
C  49.28000 22.43500 44.42300
C  49.61900 24.68500 41.16800
C  50.54800 24.28700 40.00400
H  51.14300 25.40000 39.02800
N  54.35200 21.56000 43.69300
C  53.32400 20.71500 43.37600
C  53.80900 19.38500 43.27600
C  55.20500 19.44600 43.35700
C  55.52200 20.86800 43.74400
C  53.05600 18.13500 42.95800
C  56.17400 18.37800 43.12600
O  55.82900 17.19300 42.91000
C  57.69300 18.59600 42.87600
N  56.34400 23.80300 44.31800
C  57.08600 22.70600 44.49300
C  58.42500 22.93500 45.22800
C  58.41700 24.48800 45.39200
C  56.97700 24.83900 44.86200
C  58.58000 22.00000 46.49100
C  59.53800 25.22800 44.56100
C  60.59200 25.88700 45.52600
N  54.19400 25.71700 44.40500
C  55.14200 26.55200 44.84600
C  54.53500 27.83600 45.11400
C  53.25000 27.72500 44.60700
C  53.14900 26.44000 43.99500
C  55.12800 29.04000 45.77700
C  51.97300 28.43600 44.42200
O  51.69900 29.57800 44.78400
C  51.04500 27.48700 43.60800
C  50.80800 28.04800 42.30400
O  51.68100 28.59400 41.63500
O  49.43900 28.28600 42.15800
C  48.95500 28.82800 40.88000
H  51.19700 20.36400 43.03300
H  57.46800 20.65400 44.41300
H  57.18100 26.86300 45.56900
H  49.24600 24.93400 43.27800
H  49.52800 22.23900 42.30800
H  50.02100 22.14100 45.16800
H  48.48800 21.69500 44.31200
H  48.77100 23.30400 44.83900
H  49.56000 25.76800 41.06400
H  48.57700 24.39200 41.04200
H  49.85000 23.67600 39.43200
H  51.37900 23.69700 40.39100
H  52.00400 18.31200 43.18100
H  53.31800 17.34800 43.66600
H  53.18800 17.89500 41.90300
H  58.20200 18.56400 43.84000
H  57.89500 19.56000 42.41000
H  58.07000 17.81100 42.22000
H  59.12800 22.65400 44.44400
H  58.49500 24.73900 46.45000
H  57.58400 21.89900 46.92200
H  59.27200 22.46600 47.19100
H  58.97900 21.02700 46.20400
H  59.01100 26.01300 44.01900
H  59.99900 24.58100 43.81500
H  61.60600 25.55900 45.29600
H  60.34500 25.73200 46.57600
H  60.52700 26.96600 45.38500
H  56.01800 28.65300 46.27200
H  54.44100 29.40400 46.54100
H  55.36500 29.76500 44.99900
H  50.14800 27.47400 44.22800
H  49.12000 28.24200 39.97600
H  49.38500 29.80300 40.64700
H  47.87100 28.94000 40.90100
Mg 6.22800 54.55000 41.33000
C  5.89700 51.10700 41.10200
C  9.31200 54.23100 39.99900
C  6.19900 57.76200 40.98400
C  2.81500 54.62800 42.51600
N  7.38900 52.77000 40.40500
C  7.07500 51.48500 40.43700
C  8.17000 50.69100 39.68600
C  9.38600 51.65400 39.91000
C  8.69900 52.99900 40.13500
C  10.24300 51.36600 41.16800
C  7.86000 50.28900 38.28200
C  6.91700 51.33100 37.54000
H  6.20300 50.91100 36.27800
N  7.55000 55.82000 40.63700
C  8.86000 55.54300 40.17500
C  9.67200 56.71400 40.06400
C  8.78700 57.82100 40.45100
C  7.46400 57.16700 40.70800
C  11.10200 56.77000 39.69900
C  9.13700 59.28500 40.51100
O  10.25600 59.65700 40.16300
C  8.28900 60.40200 41.09100
N  4.66400 55.98100 41.57400
C  5.02100 57.28800 41.55000
C  3.86900 58.16500 42.09600
C  2.79900 57.22100 42.55600
C  3.38100 55.86500 42.14900
C  4.33000 59.24300 43.17900
C  1.39400 57.51000 41.90000
C  1.21800 57.06000 40.45300
N  4.66600 53.24200 41.76200
C  3.44100 53.38300 42.36400
C  2.92500 52.13600 42.72500
C  3.88800 51.17900 42.28600
C  4.89500 51.89400 41.70100
C  1.53900 51.96000 43.28600
C  4.24200 49.81500 42.24000
O  3.61700 48.85200 42.73600
C  5.53700 49.73300 41.40400
C  5.12900 48.95700 40.23500
O  4.41900 49.36500 39.30300
O  5.72400 47.65700 40.37800
C  5.45800 46.71300 39.23900
H  10.33000 54.19100 39.60600
H  6.24500 58.84800 41.09800
H  1.80200 54.70600 42.91700
H  8.23300 49.75600 40.24200
H  10.06500 51.71000 39.05900
H  10.24200 52.15600 41.91900
H  11.30500 51.37200 40.92000
H  10.08900 50.37600 41.59900
H  7.42700 49.29000 38.33100
H  8.74200 50.30700 37.64200
H  7.50000 52.24800 37.45300
H  6.15600 51.74400 38.20200
H  11.42000 57.76300 39.38300
H  11.31600 56.05000 38.90900
H  11.72700 56.41200 40.51700
H  7.36700 60.66700 40.57300
H  8.90500 61.30100 41.11800
H  7.96900 60.10000 42.08800
H  3.47600 58.76100 41.27200
H  2.69700 57.29400 43.63900
H  3.97000 59.03600 44.18700
H  4.02200 60.24000 42.86600
H  5.39600 59.03100 43.25800
H  1.30900 58.59700 41.86900
H  0.61600 57.06000 42.51600
H  2.20300 57.00100 39.99000
H  0.62200 57.81100 39.93500
H  0.78700 56.06000 40.49900
H  1.57400 52.01900 44.37400
H  1.13300 50.97400 43.06500
H  0.85700 52.68300 42.83900
H  6.24700 49.17600 42.01500
H  5.88900 47.18400 38.35600
H  4.38700 46.51500 39.27800
H  5.98200 45.77600 39.43100

