158

Mg 25.58700 1.40500 29.45000
C  27.49300 1.44800 32.47900
C  22.65900 1.46500 31.38600
C  23.82100 1.47200 26.57600
C  28.53100 0.98600 27.61200
N  25.13000 1.31400 31.78000
C  26.04900 1.64300 32.69900
C  25.40100 1.94200 34.03300
C  23.92200 1.62600 33.66800
C  23.89600 1.49600 32.18600
C  23.33800 0.34300 34.34500
C  25.77200 3.26800 34.65500
C  26.32300 3.19700 36.09700
H  25.98200 4.23800 37.11900
N  23.58800 1.39700 29.02800
C  22.53400 1.44600 29.94800
C  21.32600 1.43800 29.21600
C  21.64400 1.48600 27.80100
C  23.06700 1.56800 27.77600
C  20.00200 1.60000 29.85900
C  20.71900 1.27000 26.63100
O  21.08200 1.34600 25.47000
C  19.31100 0.95200 26.91500
N  26.12600 1.40200 27.35300
C  25.19900 1.41800 26.36500
C  25.94900 1.64400 25.01000
C  27.47100 1.75200 25.42100
C  27.38200 1.25800 26.88200
C  25.55100 0.57200 23.90100
C  28.15900 3.05100 25.10200
C  27.44900 4.25400 25.61800
N  27.53100 1.13300 29.94100
C  28.64700 0.88500 29.02300
C  29.88000 0.94100 29.80500
C  29.43700 0.96500 31.17000
C  28.03600 1.18400 31.19900
C  31.27200 0.86600 29.33700
C  29.87500 0.91600 32.52700
O  30.99100 0.61200 32.92200
C  28.65400 1.38700 33.39200
C  28.63100 0.37300 34.51900
O  28.09400 -0.70300 34.40500
O  29.30900 0.87000 35.60400
C  29.44500 -0.00700 36.81200
H  21.80400 1.58200 32.05500
H  23.26900 1.57400 25.63900
H  29.41500 1.00000 26.97100
H  25.72400 1.16400 34.72400
H  23.36800 2.49200 34.02900
H  22.81500 -0.22300 33.57500
H  22.77600 0.60700 35.24100
H  24.11500 -0.33000 34.70800
H  24.99500 4.02600 34.54900
H  26.63400 3.55300 34.05100
H  27.39900 3.37100 36.10000
H  26.29200 2.27300 36.67400
H  19.40900 0.68600 29.84400
H  19.40300 2.36300 29.36200
H  20.11800 2.01400 30.86100
H  19.26700 -0.00800 27.43000
H  18.85200 0.91800 25.92700
H  18.84500 1.78500 27.44000
H  25.57200 2.58000 24.59800
H  28.04000 1.03300 24.83200
H  26.38000 0.42400 23.20900
H  24.69400 1.03100 23.40700
H  25.20800 -0.31800 24.42900
H  28.32700 3.13100 24.02800
H  29.17200 2.86800 25.46000
H  26.61200 4.09000 26.29600
H  26.99200 4.87900 24.85100
H  28.12600 4.81700 26.26100
H  31.34000 1.36900 28.37300
H  31.54300 -0.19000 29.35400
H  31.93800 1.40200 30.01200
H  28.71800 2.37700 33.84300
H  28.55600 -0.03600 37.44200
H  30.23100 0.31500 37.49500
H  29.60100 -1.04500 36.52000
Mg 27.37800 49.89900 26.33800
C  25.56700 51.23700 29.04000
C  29.50600 48.53200 28.62100
C  29.37300 49.25700 23.71000
C  25.18200 51.55300 24.16000
N  27.52400 49.94800 28.62200
C  26.66500 50.58500 29.49300
C  26.98600 50.25800 31.03600
C  28.42500 49.65500 30.81300
C  28.50900 49.27000 29.22900
C  29.66500 50.62700 31.26400
C  25.96300 49.24700 31.69000
C  25.23600 49.72700 32.94600
H  26.09000 50.25300 34.12200
N  29.15600 48.91400 26.17200
C  29.92600 48.39000 27.25300
C  31.02400 47.65400 26.71700
C  31.00100 47.82900 25.32600
C  29.84800 48.72400 25.00100
C  31.85300 46.72700 27.58600
C  31.90300 47.30200 24.17800
O  31.75300 47.62200 23.01600
C  32.96300 46.33400 24.59300
N  27.31600 50.33800 24.23000
C  28.26900 50.02900 23.34500
C  27.87600 50.39600 21.86900
C  26.44500 51.01100 22.08100
C  26.31300 50.99600 23.61400
C  28.86500 51.30100 21.02700
C  25.24100 50.28200 21.44300
C  24.24300 51.24700 20.81100
N  25.78400 51.11400 26.53700
C  24.91800 51.68300 25.53500
C  23.81000 52.42800 26.19700
C  24.10800 52.17900 27.51400
C  25.21900 51.37500 27.69800
C  22.76600 53.01700 25.51800
C  23.55900 52.49900 28.81900
O  22.59900 53.14600 29.05800
C  24.52100 51.85100 29.90300
C  25.01200 52.94300 30.80500
O  25.78800 53.80900 30.48100
O  24.34900 53.03000 32.01500
C  24.78200 54.12700 32.86600
H  30.30900 48.18700 29.27600
H  30.01100 49.12000 22.83400
H  24.39700 51.95200 23.51500
H  26.97700 51.19900 31.58600
H  28.46800 48.66000 31.25800
H  30.31500 50.72900 30.39500
H  30.11300 50.21200 32.16700
H  29.35300 51.60500 31.63200
H  26.45600 48.31400 31.96300
H  25.16000 49.13400 30.96200
H  24.61200 48.92400 33.33900
H  24.57000 50.50600 32.57600
H  31.65500 46.79200 28.65600
H  32.91400 46.92700 27.43300
H  31.52100 45.73100 27.29500
H  33.80200 46.80900 25.10100
H  33.38300 45.85500 23.70800
H  32.57300 45.42200 25.04500
H  27.84400 49.50600 21.24200
H  26.52800 52.05800 21.78800
H  29.80000 51.45100 21.56700
H  28.54000 52.26200 20.62700
H  28.98000 50.75800 20.08900
H  24.81100 49.56800 22.14500
H  25.71600 49.61800 20.72000
H  23.53500 51.58600 21.56700
H  23.74800 50.74500 19.98000
H  24.64600 52.17100 20.39700
H  22.34500 52.38000 24.74000
H  23.12900 53.92300 25.03200
H  21.92300 53.40400 26.09000
H  23.91600 51.12000 30.43900
H  24.74400 55.05200 32.29000
H  25.73800 53.90300 33.33900
H  24.03000 54.19900 33.65200

