158

Mg 47.21500 35.02400 28.03300
C  45.48200 32.98800 30.22800
C  47.34900 37.52900 30.47900
C  48.21600 37.12900 25.63900
C  46.46100 32.67400 25.39400
N  46.54400 35.25900 30.07300
C  46.05300 34.16400 30.79500
C  46.24200 34.43600 32.31700
C  46.31400 36.01100 32.31100
C  46.68700 36.35300 30.85100
C  45.18700 36.87900 32.88900
C  47.50500 33.66900 32.82600
C  47.63000 33.52500 34.31700
H  46.67500 34.34100 35.23900
N  47.90600 36.95300 28.09100
C  47.82400 37.80200 29.21300
C  48.56900 39.06900 28.83400
C  48.76700 39.05400 27.42000
C  48.27100 37.69700 26.98700
C  49.08500 40.28300 29.84800
C  49.28300 40.10300 26.47500
O  49.31700 39.90800 25.28000
C  49.57900 41.53700 26.86400
N  47.41000 34.84200 25.82800
C  47.87000 35.86900 25.09200
C  47.85600 35.54700 23.62000
C  47.63800 34.03800 23.59600
C  47.01700 33.87200 24.98300
C  46.78100 36.37800 22.90500
C  48.88000 33.12200 23.43500
C  48.58900 31.75000 22.87300
N  46.09000 33.27200 27.81900
C  45.98500 32.41600 26.75000
C  45.42200 31.12300 27.22600
C  45.12600 31.33600 28.58200
C  45.51300 32.65300 28.85900
C  45.17200 29.84200 26.40300
C  44.51300 30.80200 29.78700
O  44.13000 29.65700 30.00700
C  44.49400 31.87200 30.80600
C  45.09300 31.31900 32.02600
O  46.13100 30.71600 32.12100
O  44.28800 31.65300 33.08800
C  44.67800 31.07400 34.44200
H  47.47300 38.32100 31.22100
H  48.45800 37.93600 24.94400
H  46.25100 31.94100 24.61200
H  45.34600 34.09700 32.83500
H  47.15600 36.23900 32.96300
H  44.35200 36.23800 33.17200
H  44.88000 37.53500 32.07500
H  45.56400 37.51400 33.69100
H  48.45700 34.07100 32.48000
H  47.60300 32.65800 32.43200
H  48.62600 33.80500 34.65800
H  47.71300 32.49100 34.65200
H  50.15800 40.47100 29.81600
H  48.97700 39.90700 30.86600
H  48.44900 41.12400 29.57400
H  50.35600 41.61800 27.62400
H  48.59100 41.87500 27.17500
H  49.92200 42.13000 26.01600
H  48.81100 35.77300 23.14600
H  46.90000 33.85800 22.81400
H  47.27700 36.84100 22.05200
H  46.40200 37.30100 23.34300
H  45.94300 35.83600 22.46500
H  49.36500 32.99400 24.40300
H  49.50200 33.58600 22.67000
H  47.56100 31.38700 22.87600
H  49.05000 30.96100 23.46700
H  48.98600 31.64900 21.86300
H  45.66000 29.89200 25.43000
H  44.10800 29.62100 26.31700
H  45.60300 28.98900 26.92800
H  43.49500 32.22900 31.05700
H  44.16000 31.57700 35.25900
H  45.75500 31.18500 34.57300
H  44.40900 30.03100 34.60800
Mg -0.39500 44.07800 24.99500
C  1.72000 43.23200 27.76700
C  -3.00900 42.86800 26.91200
C  -2.35500 44.06400 22.19100
C  2.45600 44.67400 23.10600
N  -0.54900 43.03800 27.14700
C  0.36700 43.02600 28.13900
C  -0.15000 42.41800 29.45200
C  -1.69800 42.14200 29.05200
C  -1.79100 42.77600 27.55400
C  -2.17000 40.67800 29.08000
C  -0.06700 43.44000 30.65200
C  0.09400 42.98100 32.06400
H  -0.54400 41.65100 32.47700
N  -2.46800 43.85800 24.59900
C  -3.32600 43.37000 25.57300
C  -4.69000 43.45400 25.03700
C  -4.53400 43.69600 23.57700
C  -3.08100 43.82400 23.40700
C  -5.88300 43.12100 25.82400
C  -5.62200 43.81700 22.46200
O  -5.30400 44.01800 21.30900
C  -7.04500 43.84400 22.94800
N  -0.00200 44.49800 23.00600
C  -0.96600 44.39300 22.01300
C  -0.32500 44.47300 20.61400
C  1.08200 45.02600 20.93000
C  1.19900 44.73500 22.39800
C  -0.33800 43.18500 19.87200
C  1.33600 46.51400 20.68200
C  0.63800 47.52900 21.65400
N  1.66100 44.04500 25.34900
C  2.67300 44.36600 24.45700
C  3.87400 44.24700 25.14700
C  3.55800 43.85000 26.41600
C  2.20500 43.65300 26.54300
C  5.17800 44.51000 24.74200
C  4.12000 43.55200 27.72700
O  5.29100 43.46600 28.05300
C  2.94600 43.17900 28.63100
C  3.19400 41.88600 29.24100
O  3.29700 40.87600 28.57700
O  3.52100 41.90400 30.59700
C  3.94600 40.68900 31.22100
H  -3.85900 42.48800 27.48300
H  -2.87600 44.10900 21.23200
H  3.30900 44.88200 22.45700
H  0.33200 41.46400 29.66800
H  -2.27000 42.67300 29.81300
H  -1.29400 40.04400 29.21200
H  -2.74600 40.40900 28.19500
H  -2.75200 40.75100 29.99800
H  -0.92800 44.10900 30.66000
H  0.89200 43.94200 30.52100
H  -0.08100 43.81600 32.74300
H  1.16800 42.83300 32.17500
H  -5.64800 43.17800 26.88700
H  -6.47100 42.24100 25.56100
H  -6.60900 43.93400 25.80100
H  -7.71900 44.01200 22.10800
H  -7.17000 44.61700 23.70600
H  -7.29900 42.90500 23.43900
H  -0.88800 45.22900 20.06600
H  1.96300 44.58800 20.46100
H  0.63800 42.73800 19.68300
H  -0.63500 43.26900 18.82600
H  -0.99600 42.42100 20.28500
H  1.18200 46.88200 19.66800
H  2.37400 46.74800 20.91900
H  0.08500 48.22700 21.02600
H  1.35200 47.99400 22.33400
H  -0.05800 47.04200 22.33800
H  5.54800 45.41400 25.22500
H  5.21500 44.80700 23.69300
H  5.93600 43.73100 24.83000
H  3.05300 43.88700 29.45300
H  4.17300 39.83400 30.58400
H  3.22700 40.39700 31.98700
H  4.87600 40.88900 31.75200

