158

Mg 24.64300 -6.79000 47.16000
C  26.71500 -4.23100 45.95500
C  22.30800 -5.93600 44.78700
C  22.83500 -9.37000 48.15500
C  27.34400 -7.97400 49.03100
N  24.63400 -5.38400 45.47700
C  25.49500 -4.34800 45.25200
C  25.11400 -3.47900 44.12300
C  23.65600 -3.98300 43.71200
C  23.45400 -5.18300 44.68600
C  22.51400 -2.94400 43.79000
C  26.10800 -3.52700 42.89400
C  26.55100 -2.21500 42.22300
H  26.60200 -2.10700 40.68200
N  22.79100 -7.55600 46.49500
C  21.94600 -7.02300 45.55900
C  20.72500 -7.78500 45.50500
C  20.82000 -8.58500 46.67000
C  22.18400 -8.52600 47.16800
C  19.60100 -7.44400 44.49900
C  19.73100 -9.61800 47.05500
O  18.69700 -9.64900 46.33900
C  19.84900 -10.51800 48.30700
N  25.09100 -8.57300 48.24600
C  24.15300 -9.38900 48.64700
C  24.62000 -10.46300 49.65900
C  26.08800 -10.04600 49.75400
C  26.20300 -8.78200 48.94600
C  23.81600 -10.37900 50.99000
C  27.06400 -11.17900 49.28500
C  27.92700 -11.74200 50.39500
N  26.60800 -6.15200 47.61200
C  27.59800 -6.75500 48.31400
C  28.81900 -5.97400 48.32500
C  28.44500 -4.94800 47.49000
C  27.14600 -5.14700 46.98800
C  30.09700 -6.26800 48.96800
C  28.96100 -3.65300 46.80500
O  30.00000 -3.06500 46.82600
C  27.82600 -3.18200 45.85600
C  27.38100 -1.89500 46.32800
O  26.83200 -1.73100 47.39500
O  27.60000 -0.97200 45.37900
C  27.20900 0.39500 45.83200
H  21.63700 -5.45300 44.07200
H  22.24900 -10.21300 48.52600
H  28.22500 -8.28500 49.59700
H  25.16900 -2.47400 44.54100
H  23.65700 -4.37200 42.69400
H  22.99200 -1.96700 43.86000
H  21.77400 -2.99800 44.58900
H  21.98100 -2.92500 42.84000
H  25.79400 -4.20400 42.09900
H  27.01500 -4.06000 43.18100
H  27.58900 -2.10600 42.53800
H  26.15700 -1.35200 42.76000
H  19.62500 -8.25400 43.76900
H  19.70600 -6.47400 44.01400
H  18.65800 -7.41400 45.04500
H  20.27600 -10.17100 49.24800
H  20.45300 -11.35700 47.96200
H  18.85000 -10.88300 48.54400
H  24.55800 -11.47900 49.26900
H  26.23500 -9.86600 50.81900
H  23.19900 -9.48100 50.95000
H  24.48400 -10.45100 51.84800
H  23.18200 -11.26600 51.02700
H  27.72100 -10.88800 48.46600
H  26.49500 -12.01500 48.87800
H  27.92600 -11.12500 51.29400
H  28.96300 -11.83800 50.07100
H  27.63700 -12.72700 50.76300
H  30.30500 -7.33700 48.92200
H  30.15300 -5.97400 50.01600
H  30.85600 -5.71000 48.41900
H  28.14400 -3.10900 44.81600
H  27.16400 0.93700 44.88800
H  27.88200 0.84700 46.56000
H  26.19800 0.49500 46.22500
Mg 17.70300 -1.81600 27.56100
C  16.53200 0.27100 30.17500
C  19.53700 -3.57900 29.93200
C  19.09000 -3.40600 25.09200
C  15.78900 0.11100 25.37900
N  18.17000 -1.54300 29.66400
C  17.48600 -0.71700 30.55700
C  17.74600 -1.01100 31.97500
C  19.00400 -1.92800 31.84500
C  19.03200 -2.33800 30.37400
C  20.30200 -1.22900 32.31100
C  16.60300 -1.67900 32.84300
C  16.76200 -1.73100 34.39000
H  18.07800 -1.12400 34.99000
N  19.02000 -3.38300 27.50300
C  19.68800 -4.02000 28.62100
C  20.47200 -5.15000 28.09600
C  20.35700 -5.06700 26.61700
C  19.41900 -3.92300 26.31600
C  21.23300 -6.07300 28.99500
C  21.05700 -5.97600 25.59900
O  20.92100 -5.81900 24.38100
C  22.02700 -7.09000 26.11400
N  17.46500 -1.68200 25.54300
C  18.24700 -2.42600 24.68800
C  18.06200 -2.00900 23.17500
C  16.70900 -1.07800 23.31900
C  16.65900 -0.82900 24.81900
C  19.30700 -1.27700 22.56200
C  15.43300 -1.76700 22.79300
C  14.89300 -1.08800 21.53200
N  16.25900 -0.23000 27.70400
C  15.61700 0.43900 26.70700
C  14.98600 1.60700 27.29600
C  15.24700 1.59600 28.66700
C  16.03100 0.44000 28.87700
C  14.18900 2.62800 26.50600
C  15.16100 2.15800 30.00100
O  14.53900 3.22700 30.21900
C  15.74400 1.24600 31.07200
C  16.68200 2.10100 31.83000
O  17.84200 2.44100 31.56900
O  15.92700 2.44200 32.91000
C  16.62100 3.21300 33.94700
H  20.20600 -4.11100 30.61100
H  19.64400 -3.86200 24.26900
H  15.24500 0.61800 24.58000
H  18.01600 -0.04900 32.40900
H  18.83300 -2.84600 32.40700
H  20.69600 -1.78500 33.16200
H  20.23700 -0.19600 32.65300
H  21.05500 -1.24300 31.52300
H  16.48900 -2.71500 32.52500
H  15.68500 -1.10900 32.69800
H  16.61200 -2.78200 34.63800
H  15.95700 -1.07300 34.71800
H  22.21800 -5.64100 29.16700
H  21.27800 -7.13400 28.75000
H  20.72500 -6.00800 29.95800
H  22.40200 -7.78700 25.36400
H  21.29700 -7.60700 26.73600
H  22.85900 -6.76300 26.73800
H  17.83100 -2.88700 22.57100
H  17.00900 -0.08800 22.97400
H  19.19900 -0.20700 22.38400
H  19.43700 -1.69600 21.56400
H  20.27700 -1.48000 23.01700
H  14.71800 -1.78900 23.61600
H  15.61500 -2.80800 22.52900
H  15.12900 -1.68900 20.65400
H  15.39300 -0.14500 21.30700
H  13.83900 -0.82600 21.44200
H  14.91500 3.39600 26.24100
H  13.46600 3.19000 27.09800
H  13.82600 2.21700 25.56500
H  15.00100 0.72700 31.67700
H  16.49600 4.28900 33.82800
H  17.69600 3.03900 33.90300
H  16.09400 2.85400 34.83100

