158

Mg 46.94900 25.24200 28.19500
C  48.25500 27.40300 30.73300
C  46.13600 23.13100 30.72500
C  45.89500 23.17800 25.89700
C  48.32200 27.41800 25.84600
N  47.05400 25.32200 30.43600
C  47.48800 26.35900 31.22300
C  47.29700 26.04900 32.71100
C  46.73100 24.62500 32.69000
C  46.58000 24.33100 31.20900
C  47.57900 23.58000 33.47000
C  46.50000 27.12300 33.54900
C  47.15900 27.87600 34.70400
H  46.32200 28.42400 35.95800
N  46.04800 23.36300 28.32000
C  45.88400 22.58200 29.41500
C  45.22600 21.28000 29.05300
C  44.97400 21.42400 27.64000
C  45.66400 22.67900 27.21600
C  45.05900 20.19600 30.02900
C  44.21300 20.51500 26.61600
O  44.06500 20.70000 25.42900
C  43.71200 19.24100 27.20500
N  47.18400 25.25800 26.13900
C  46.52400 24.27700 25.41500
C  46.69200 24.58900 23.93400
C  47.20000 26.02100 23.90300
C  47.60000 26.25200 25.34700
C  47.51500 23.59300 23.16300
C  46.16500 27.21700 23.46000
C  46.72100 28.21900 22.47500
N  48.05500 27.07500 28.19300
C  48.44500 27.87700 27.17500
C  49.07200 29.05200 27.73200
C  49.06700 28.87200 29.12900
C  48.40800 27.69000 29.35200
C  49.62600 30.14600 26.93600
C  49.51200 29.44200 30.38400
O  50.09300 30.45700 30.60500
C  49.09000 28.47500 31.50100
C  50.32700 27.96000 32.17300
O  51.02900 27.10400 31.72100
O  50.63600 28.68700 33.35900
C  51.89200 28.46600 33.95300
H  45.76500 22.45200 31.49500
H  45.51300 22.50000 25.13000
H  48.66800 28.09800 25.06400
H  48.28700 25.98000 33.16100
H  45.79000 24.52100 33.22900
H  46.98500 22.85700 34.03000
H  48.25200 24.10400 34.14800
H  48.10500 22.96800 32.73700
H  45.59200 26.66100 33.93800
H  46.20300 27.96100 32.91900
H  47.66800 28.75000 34.29800
H  47.84900 27.12700 35.09200
H  45.67600 20.34400 30.91600
H  45.50700 19.30800 29.58400
H  44.02600 19.98700 30.30700
H  43.25700 19.43800 28.17500
H  44.57700 18.58500 27.30100
H  42.78200 18.87700 26.76700
H  45.64200 24.64200 23.64700
H  48.15700 26.18200 23.40500
H  47.04300 23.18700 22.26800
H  47.79600 22.71900 23.75000
H  48.43800 24.02800 22.78100
H  45.84100 27.77700 24.33700
H  45.28600 26.77100 22.99600
H  46.91100 29.17800 22.95700
H  46.27700 28.33300 21.48600
H  47.73500 28.06200 22.10700
H  50.57800 29.88100 26.47700
H  49.80000 31.03700 27.54000
H  48.87400 30.31600 26.16500
H  48.44100 29.03100 32.17800
H  52.75600 28.68400 33.32500
H  51.87100 27.41500 34.24100
H  51.92700 29.07600 34.85600
Mg 10.27400 48.78900 25.05900
C  8.24900 48.83000 27.84300
C  12.63600 50.29100 26.79900
C  12.27400 48.59000 22.26700
C  7.46600 48.01500 22.97000
N  10.39300 49.54000 27.09400
C  9.54100 49.28700 28.11300
C  10.11600 49.75700 29.42300
C  11.34900 50.56200 28.97800
C  11.48000 50.16500 27.50100
C  11.28900 52.11100 29.23100
C  10.31700 48.50500 30.43100
C  9.67600 48.58500 31.87400
H  10.37700 49.43500 32.93100
N  12.15600 49.43500 24.59200
C  12.98600 49.91200 25.53700
C  14.39900 49.85600 25.03400
C  14.35300 49.32600 23.72500
C  12.93700 49.15200 23.49300
C  15.54400 50.26000 25.95000
C  15.42000 49.01700 22.76500
O  15.16000 48.72000 21.60000
C  16.88200 49.11800 23.15500
N  9.87100 48.58100 22.86000
C  10.91500 48.39400 21.96500
C  10.40900 47.77900 20.63400
C  8.91000 47.40900 20.98800
C  8.68500 48.11400 22.33100
C  10.72700 48.61500 19.39800
C  8.65400 45.80900 21.06200
C  9.37100 45.03400 22.23300
N  8.23300 48.58600 25.26900
C  7.25500 48.20300 24.34800
C  5.99000 48.05400 25.10200
C  6.39100 48.32500 26.45700
C  7.72500 48.66600 26.53900
C  4.66600 47.64100 24.66200
C  5.82300 48.35800 27.81100
O  4.69700 48.15500 28.24000
C  7.10500 48.70000 28.80300
C  7.15800 47.51100 29.72800
O  7.38100 46.34300 29.40600
O  6.74000 47.81300 30.99800
C  6.62800 46.59700 31.87500
H  13.46600 50.62800 27.42400
H  12.97400 48.23900 21.50500
H  6.74500 47.50200 22.33000
H  9.31900 50.39500 29.80400
H  12.18500 50.09500 29.49700
H  10.25300 52.32500 29.49300
H  11.48400 52.60100 28.27700
H  11.96000 52.36600 30.05200
H  11.32400 48.48600 30.84900
H  10.22000 47.51900 29.97700
H  9.34700 47.60300 32.21400
H  8.84800 49.21900 31.55800
H  16.40200 49.59900 25.83200
H  15.39700 50.24100 27.03000
H  15.88100 51.27700 25.74700
H  17.05400 50.05000 23.69500
H  17.41400 48.94000 22.22100
H  17.09200 48.25300 23.78300
H  11.00100 46.86500 20.58500
H  8.25900 47.82000 20.21700
H  9.80000 48.82700 18.86600
H  11.40800 48.12000 18.70500
H  11.23000 49.50100 19.78400
H  9.08000 45.27800 20.21200
H  7.58100 45.64900 20.96000
H  8.56600 44.78800 22.92600
H  10.14200 45.62300 22.72900
H  9.86700 44.16000 21.81000
H  4.06000 47.20800 25.45800
H  4.93200 46.87800 23.93000
H  4.04100 48.40700 24.20300
H  7.02200 49.58100 29.44000
H  5.80800 45.96600 31.53400
H  6.38000 46.94700 32.87700
H  7.54500 46.02100 32.00100

