158

Mg 17.74400 -1.49000 27.37700
C  16.72000 0.35500 30.19200
C  19.84200 -3.25100 29.45200
C  19.13100 -2.80200 24.62100
C  16.16300 0.90900 25.35700
N  18.21600 -1.45800 29.54700
C  17.57900 -0.63900 30.48600
C  18.12700 -0.97800 31.94200
C  19.30700 -1.91400 31.67000
C  19.17200 -2.24900 30.17300
C  20.70000 -1.23000 31.86400
C  17.06000 -1.59700 32.84800
C  16.99800 -1.09300 34.35800
H  18.20000 -0.29300 34.79800
N  19.04900 -2.98000 27.12500
C  19.82600 -3.55800 28.07000
C  20.57500 -4.63500 27.43200
C  20.26700 -4.62700 26.05100
C  19.44400 -3.47100 25.87500
C  21.49000 -5.54600 28.18700
C  20.80100 -5.47300 24.88000
O  20.41000 -5.31400 23.71000
C  21.88700 -6.55300 25.08000
N  17.47900 -1.04700 25.23900
C  18.26900 -1.71200 24.33400
C  18.25400 -0.97900 22.96100
C  17.10000 0.06800 23.11100
C  16.91900 0.02800 24.67200
C  19.63700 -0.31500 22.71300
C  15.70300 -0.16300 22.42800
C  15.24800 0.78000 21.26400
N  16.57400 0.16800 27.64500
C  16.00900 0.98800 26.72500
C  15.26800 2.01600 27.41700
C  15.41200 1.80000 28.79900
C  16.24700 0.69400 28.88700
C  14.34500 3.06700 26.84100
C  15.10300 2.27800 30.13200
O  14.40600 3.21400 30.47600
C  16.00800 1.44900 31.08900
C  17.08200 2.38100 31.62700
O  18.07000 2.74800 31.02300
O  16.76500 2.76300 32.90100
C  17.53600 3.83700 33.46900
H  20.53100 -3.76600 30.12500
H  19.75000 -3.04400 23.75400
H  15.70200 1.81100 24.95100
H  18.43800 -0.02600 32.37100
H  19.34100 -2.81200 32.28700
H  21.33200 -1.83200 32.51700
H  20.49200 -0.39500 32.53300
H  21.23300 -1.00900 30.94000
H  17.09000 -2.68600 32.80200
H  16.13800 -1.31700 32.33800
H  16.90300 -2.05100 34.86900
H  16.07400 -0.52200 34.44400
H  21.92900 -5.04600 29.05100
H  22.36000 -5.70300 27.55100
H  21.11300 -6.51300 28.52200
H  21.46600 -7.29300 25.76100
H  22.73400 -6.07900 25.57500
H  21.97700 -7.00700 24.09300
H  17.91400 -1.63300 22.15900
H  17.40700 1.05000 22.75000
H  20.01300 -0.56100 21.72000
H  20.33600 -0.78100 23.40800
H  19.51200 0.76700 22.74700
H  14.92800 -0.06600 23.18800
H  15.54400 -1.17200 22.04700
H  16.08500 1.40900 20.96100
H  14.41200 1.42200 21.54300
H  15.10000 0.07000 20.45100
H  14.59600 3.57600 25.91000
H  14.20700 3.88100 27.55300
H  13.32500 2.68200 26.83800
H  15.30900 1.06700 31.83300
H  17.75300 4.57900 32.70100
H  18.45600 3.46100 33.91700
H  16.89700 4.32400 34.20600
Mg 26.33300 50.25100 25.54100
C  24.22200 51.83800 28.07200
C  28.49500 49.47300 27.97800
C  28.34600 49.12800 23.13300
C  24.58600 52.36100 23.14100
N  26.23100 50.60400 27.71800
C  25.29900 51.13200 28.58700
C  25.67600 50.95300 30.03900
C  27.18100 50.43200 29.95900
C  27.33900 50.18700 28.44300
C  28.23800 51.38200 30.54400
C  24.75100 50.00200 30.76500
C  24.19500 50.54200 32.00800
H  25.09700 50.94000 33.18700
N  28.07200 49.25300 25.53800
C  28.83000 49.01800 26.64700
C  29.97300 48.17900 26.32300
C  29.88100 47.93600 24.91500
C  28.73600 48.74800 24.45100
C  31.01100 47.73000 27.31800
C  30.70100 46.96200 24.03300
O  30.58100 46.97200 22.79600
C  31.57100 45.91100 24.60200
N  26.25700 50.48800 23.46000
C  27.31700 50.00900 22.72100
C  27.13400 50.40900 21.24200
C  26.10900 51.46700 21.21300
C  25.62300 51.51500 22.66800
C  28.45300 50.67300 20.47600
C  24.97300 51.31700 20.16400
C  23.80900 50.22000 20.39300
N  24.70000 51.73300 25.54300
C  24.10900 52.45800 24.46200
C  23.07200 53.30200 25.02300
C  23.06400 53.10200 26.37700
C  24.04600 52.10800 26.70500
C  22.14200 54.21400 24.29500
C  22.33200 53.41300 27.55800
O  21.28600 54.03700 27.77100
C  23.18400 52.72300 28.73800
C  23.72700 53.87500 29.62600
O  24.59400 54.68000 29.29000
O  23.18000 53.77300 30.88300
C  23.58800 54.85700 31.83600
H  29.20500 49.21600 28.76700
H  28.95300 48.67900 22.34400
H  24.10500 52.99800 22.39500
H  25.62200 51.95500 30.46400
H  27.30900 49.43500 30.38200
H  28.89800 50.88200 31.25300
H  27.73700 52.20200 31.05800
H  28.81300 51.74200 29.69000
H  25.29400 49.10200 31.05200
H  23.85400 49.63000 30.27100
H  23.43800 49.81100 32.29100
H  23.56500 51.40500 31.78900
H  30.83200 46.75900 27.77800
H  31.20500 48.49900 28.06600
H  31.94400 47.68900 26.75700
H  32.51900 46.25600 25.01400
H  31.78500 45.22900 23.78000
H  30.97000 45.28800 25.26500
H  26.84100 49.39600 20.96600
H  26.60400 52.40200 20.95300
H  28.37200 50.48100 19.40600
H  29.35500 50.20700 20.87500
H  28.85000 51.66900 20.66900
H  25.41100 51.06000 19.20000
H  24.42500 52.22000 19.89600
H  23.58000 49.86700 19.38700
H  23.02200 50.68600 20.98600
H  24.13100 49.35400 20.97000
H  21.29200 53.62200 23.95600
H  22.69200 54.62900 23.45000
H  21.67000 54.92700 24.97200
H  22.47800 52.10000 29.28600
H  23.78500 55.86900 31.48000
H  24.44800 54.49900 32.40100
H  22.77600 54.88900 32.56200

