158

Mg 25.03800 1.62400 30.29400
C  27.25800 1.36400 33.03200
C  22.40300 2.03000 32.54800
C  22.91500 1.69300 27.70500
C  27.60800 1.11800 28.09900
N  24.89100 1.68600 32.55100
C  25.92900 1.73400 33.45900
C  25.46900 1.95000 34.89100
C  23.94900 2.13400 34.69300
C  23.67400 1.82900 33.16600
C  23.11000 1.29300 35.67600
C  26.11900 3.19700 35.57300
C  26.89700 2.93400 36.87700
H  26.77500 3.98100 38.07600
N  22.95100 1.72100 30.16500
C  22.04600 1.91400 31.18400
C  20.74500 1.97000 30.67100
C  20.85800 1.89600 29.23800
C  22.33300 1.70800 29.01400
C  19.46700 2.11300 31.58800
C  19.72900 2.00600 28.21300
O  19.91900 1.93000 27.01400
C  18.30300 2.33800 28.68400
N  25.16400 1.41600 28.20200
C  24.26100 1.62000 27.29600
C  24.71400 1.62800 25.81800
C  26.28000 1.41900 25.93000
C  26.36000 1.35900 27.52400
C  24.01500 0.53600 25.01800
C  27.08100 2.66300 25.42800
C  26.85200 4.04600 26.21100
N  26.96600 1.27000 30.46300
C  27.96500 1.02800 29.46500
C  29.27400 0.88100 30.14800
C  29.00400 1.03000 31.50600
C  27.58400 1.20500 31.69000
C  30.58100 0.66600 29.35500
C  29.65200 0.99700 32.81300
O  30.81600 0.87100 33.11200
C  28.57700 1.34300 33.87300
C  28.55200 0.38100 34.89900
O  27.92200 -0.66400 34.85600
O  29.20400 0.79600 36.02800
C  29.26900 -0.16700 37.10600
H  21.62500 2.31600 33.25900
H  22.13900 1.72700 26.93800
H  28.33400 0.91300 27.31000
H  25.63300 1.02700 35.44600
H  23.64900 3.17100 34.83800
H  22.43800 2.08300 36.01100
H  23.75600 0.78700 36.39400
H  22.44500 0.57700 35.19300
H  25.36200 3.96100 35.74800
H  26.68900 3.67800 34.77800
H  27.96000 3.04000 36.65900
H  26.71200 1.97800 37.36700
H  18.87500 2.98600 31.31600
H  19.68400 1.96900 32.64700
H  18.85800 1.23700 31.36500
H  18.39200 3.23000 29.30300
H  17.99500 1.51300 29.32700
H  17.76600 2.50100 27.74900
H  24.46700 2.57200 25.33200
H  26.55500 0.51400 25.38800
H  23.50900 -0.17600 25.67100
H  24.67800 -0.12100 24.45500
H  23.35500 0.96000 24.26100
H  26.76600 2.77800 24.39000
H  28.12900 2.37700 25.33700
H  27.67400 4.21100 26.90700
H  25.86200 3.97600 26.66300
H  26.76500 4.75800 25.39100
H  30.70900 1.40800 28.56700
H  30.50400 -0.31300 28.88200
H  31.39500 0.62800 30.08000
H  28.65100 2.29800 34.39400
H  29.94500 0.14000 37.90400
H  29.53000 -1.20800 36.91400
H  28.30200 -0.14600 37.60800
Mg 1.26700 42.09100 24.52800
C  3.03300 42.12100 27.62400
C  -1.40800 40.87200 26.33900
C  -0.11700 41.46200 21.71100
C  4.49600 42.23100 22.89200
N  0.80500 41.63600 26.75600
C  1.67000 41.92000 27.81700
C  0.94900 41.77600 29.19900
C  -0.49100 41.40500 28.71500
C  -0.38000 41.25500 27.18200
C  -1.11500 40.24400 29.53900
C  1.06500 43.02700 30.03600
C  1.47300 42.79000 31.45900
H  1.18900 41.36200 32.19200
N  -0.59500 41.52400 24.06400
C  -1.52200 40.91200 24.96600
C  -2.64600 40.41000 24.19400
C  -2.37700 40.68800 22.83500
C  -1.00700 41.26100 22.80400
C  -3.91900 39.81600 24.80200
C  -3.21400 40.41800 21.59100
O  -2.78400 40.59600 20.45400
C  -4.58100 39.75300 21.64600
N  2.11100 41.82200 22.59000
C  1.19600 41.78100 21.61200
C  1.83300 41.97100 20.24000
C  3.30800 42.29200 20.60000
C  3.30900 42.10500 22.07700
C  1.64400 40.75100 19.33900
C  3.83500 43.58200 20.16000
C  3.14900 44.82700 20.69300
N  3.35500 42.29000 25.10100
C  4.52000 42.39400 24.33200
C  5.67900 42.47700 25.26600
C  5.14600 42.35700 26.51800
C  3.75000 42.29000 26.38000
C  7.08300 42.79200 24.85800
C  5.41800 42.35300 27.97000
O  6.51500 42.31000 28.50000
C  4.06400 42.23100 28.71400
C  4.32200 40.98500 29.55800
O  4.65400 39.88200 29.15300
O  4.39900 41.26300 30.87300
C  4.96500 40.28200 31.85400
H  -2.24200 40.43600 26.89300
H  -0.59200 41.31400 20.73900
H  5.40500 42.18100 22.28800
H  1.53400 41.01000 29.71000
H  -0.98500 42.37300 28.79600
H  -1.94300 40.56500 30.17100
H  -0.47400 39.83900 30.32300
H  -1.34700 39.42500 28.85900
H  0.15200 43.61600 30.11800
H  1.75700 43.70200 29.53300
H  1.12700 43.62900 32.06300
H  2.55100 42.92100 31.55200
H  -4.16300 38.82100 24.42900
H  -4.74700 40.43800 24.46200
H  -3.93700 39.69800 25.88500
H  -4.64800 38.80500 22.18000
H  -4.87200 39.51400 20.62300
H  -5.36500 40.38200 22.06700
H  1.24900 42.80300 19.84700
H  4.03100 41.57400 20.21100
H  0.71700 40.74900 18.76400
H  1.83200 39.91100 20.00800
H  2.44600 41.06300 18.67100
H  3.70000 43.58800 19.07800
H  4.88700 43.65000 20.43800
H  3.96200 45.50800 20.94400
H  2.30500 44.78100 21.38200
H  2.74000 45.30400 19.80300
H  7.18100 43.64900 24.19100
H  7.52400 41.89100 24.43300
H  7.61800 42.93200 25.79800
H  3.83800 43.10300 29.32800
H  5.04700 40.86900 32.76900
H  6.02200 40.08500 31.67300
H  4.43100 39.34300 32.00300

