158

Mg -1.92600 17.15900 25.52500
C  -2.23700 14.79200 28.05200
C  -3.23700 19.52100 27.55600
C  -1.89100 19.26700 22.90900
C  -1.33300 14.49300 23.30600
N  -2.56300 17.18400 27.58600
C  -2.63700 16.10200 28.47800
C  -3.07100 16.61200 29.92700
C  -3.70000 17.99400 29.56700
C  -3.09500 18.31000 28.16700
C  -5.28300 17.99200 29.34100
C  -1.86600 16.78800 30.90100
C  -2.24900 16.74000 32.34900
H  -1.19800 16.06600 33.27600
N  -2.32200 19.19000 25.35800
C  -2.83600 20.01900 26.28100
C  -2.85200 21.43300 25.76900
C  -2.30400 21.36000 24.41400
C  -2.18700 19.87300 24.16900
C  -3.08800 22.69000 26.63900
C  -1.88700 22.39400 23.41400
O  -1.52300 22.10800 22.32100
C  -1.95600 23.78000 23.76300
N  -1.85300 16.91200 23.36500
C  -1.78100 17.92600 22.52700
C  -1.39500 17.58000 21.08100
C  -1.21200 16.03500 21.22000
C  -1.38400 15.77500 22.70400
C  -2.43700 18.04700 19.96000
C  0.12300 15.50800 20.58800
C  1.39600 15.94000 21.26300
N  -1.88300 15.06000 25.54900
C  -1.56500 14.13000 24.58000
C  -1.65400 12.77500 25.13400
C  -1.86200 12.97200 26.52300
C  -1.94700 14.42000 26.74100
C  -1.58800 11.48600 24.48500
C  -2.01800 12.31800 27.90000
O  -1.90200 11.16000 28.27500
C  -2.21100 13.47300 28.89700
C  -1.17100 13.39900 29.93400
O  -0.06200 13.84900 29.76600
O  -1.58100 12.71500 31.06400
C  -0.55000 12.41300 31.99200
H  -3.69100 20.33800 28.12200
H  -1.76200 19.95700 22.07200
H  -1.05700 13.59700 22.74600
H  -3.80200 15.91500 30.33600
H  -3.59100 18.71600 30.37600
H  -5.64200 16.98800 29.56800
H  -5.44600 18.08900 28.26800
H  -5.77100 18.76400 29.93700
H  -1.43400 17.77500 30.73700
H  -1.06200 16.06800 30.74300
H  -3.17300 16.19300 32.53000
H  -2.28000 17.73100 32.80200
H  -3.57700 22.23500 27.50000
H  -3.74400 23.49800 26.31500
H  -2.14500 23.17800 26.88600
H  -1.86200 24.41200 22.88000
H  -1.18900 24.07000 24.48100
H  -2.92700 24.06700 24.16600
H  -0.45300 18.03000 20.76900
H  -2.06400 15.45600 20.86100
H  -2.44400 17.49400 19.02000
H  -2.30000 19.06100 19.58600
H  -3.46000 18.09800 20.33300
H  0.07300 15.96600 19.60000
H  0.17400 14.42100 20.53100
H  2.19400 16.22200 20.57600
H  1.80800 15.05600 21.75100
H  1.22400 16.70900 22.01600
H  -1.80200 10.79600 25.30100
H  -0.54500 11.35800 24.19600
H  -2.33200 11.49700 23.68800
H  -3.21000 13.30900 29.30000
H  -0.47600 11.32800 32.07200
H  -0.97500 12.63300 32.97200
H  0.45500 12.83200 31.94300
Mg 41.18700 40.74400 26.44200
C  40.38800 43.60300 28.56900
C  41.81600 39.07900 29.33100
C  42.24300 38.16600 24.59700
C  40.93400 42.90400 23.74400
N  41.04100 41.38400 28.73500
C  40.61500 42.44600 29.34800
C  40.60000 42.37700 30.83900
C  41.16800 40.94200 30.99300
C  41.34100 40.37200 29.64300
C  42.39900 40.89100 31.90600
C  39.14300 42.47000 31.33600
C  38.98000 43.17200 32.69900
H  38.23600 42.36300 33.83000
N  41.82700 38.78000 26.90500
C  42.05400 38.28600 28.14600
C  42.61000 36.95200 27.99900
C  42.56500 36.59300 26.60300
C  42.24900 37.85800 25.98400
C  43.00100 36.04600 29.22100
C  42.81400 35.29000 25.92100
O  42.88700 35.22900 24.69300
C  43.12200 34.12800 26.64200
N  41.56000 40.59800 24.54600
C  41.91600 39.38800 23.98100
C  41.97200 39.44200 22.43400
C  41.38600 40.85400 22.13300
C  41.25900 41.57000 23.52500
C  43.38600 39.08600 21.89400
C  40.03600 40.76200 21.26300
C  38.64900 41.12100 21.85400
N  40.81600 42.83900 26.30100
C  40.71700 43.52100 25.09700
C  40.43000 44.96700 25.30000
C  40.31200 45.06500 26.75000
C  40.56100 43.74600 27.27800
C  40.41000 45.97500 24.17200
C  40.03300 45.92200 27.81100
O  39.89200 47.11100 27.84700
C  40.10300 44.99500 29.09900
C  40.99400 45.55200 30.13000
O  42.18800 45.57900 30.13900
O  40.20100 46.03600 31.16500
C  40.92600 46.44900 32.40600
H  41.88700 38.56700 30.29300
H  42.47000 37.35900 23.89700
H  40.82100 43.56700 22.88400
H  41.23700 43.20900 31.14000
H  40.46600 40.26800 31.48300
H  42.57500 41.88500 32.31800
H  43.28900 40.64100 31.32800
H  42.36100 40.31900 32.83200
H  38.84600 41.45600 31.60500
H  38.45200 42.77900 30.55100
H  38.31000 44.01300 32.52100
H  39.98900 43.45300 33.00100
H  43.97200 35.67100 28.89700
H  42.27800 35.24000 29.34200
H  43.16400 36.61200 30.13800
H  42.30100 34.01400 27.35000
H  44.08400 34.24000 27.14200
H  43.07600 33.29100 25.94500
H  41.31200 38.65300 22.07200
H  42.09100 41.40300 21.50900
H  44.14800 39.59200 22.48600
H  43.55700 39.40400 20.86600
H  43.56500 38.01600 22.00300
H  39.98800 39.80800 20.73900
H  40.27100 41.42900 20.43400
H  38.81800 41.27600 22.92000
H  37.99000 40.27000 21.68400
H  38.23700 42.07300 21.52000
H  40.07800 46.90900 24.62700
H  39.75700 45.59900 23.38400
H  41.38900 46.17500 23.73800
H  39.07600 44.88200 29.44400
H  41.96100 46.72400 32.20300
H  40.84300 45.60300 33.09000
H  40.39900 47.20900 32.98200

