158

Mg 52.62400 24.87200 44.27700
C  49.61300 26.71200 43.94300
C  50.85500 22.05600 44.06300
C  55.52400 23.32800 44.09800
C  54.36400 28.00500 44.32000
N  50.38500 24.54000 44.10000
C  49.35200 25.37500 44.02000
C  48.09000 24.63800 43.78100
C  48.43700 23.19700 44.19400
C  49.98800 23.20000 44.08900
C  47.87800 22.83800 45.63600
C  47.56500 24.90700 42.32800
C  48.58200 24.65800 41.11900
H  48.28300 25.41300 39.83000
N  53.13100 23.00200 44.22800
C  52.23600 21.94600 43.99200
C  53.05700 20.76500 43.77800
C  54.37500 21.03200 44.06600
C  54.37200 22.56200 44.14000
C  52.44000 19.41600 43.42500
C  55.45100 20.03300 44.26900
O  55.20500 18.80800 44.15600
C  56.83800 20.41000 44.71900
N  54.65600 25.61900 43.85900
C  55.65100 24.73300 44.07000
C  57.02900 25.36400 44.06300
C  56.73500 26.87600 44.15900
C  55.15000 26.86200 44.11300
C  58.04700 24.65800 45.02000
C  57.32800 27.73300 43.01100
C  58.03300 29.03000 43.51000
N  52.16100 26.99700 44.25000
C  52.97900 28.11400 44.23300
C  52.10900 29.27800 44.20200
C  50.81400 28.78500 44.03300
C  50.85400 27.37300 44.01000
C  52.43200 30.66200 44.15000
C  49.37400 29.20600 44.03500
O  48.86300 30.29800 44.16600
C  48.60800 27.91800 43.66400
C  48.31800 28.25200 42.24200
O  49.11000 28.10600 41.26200
O  47.03600 28.69900 42.08600
C  46.48000 29.14100 40.77300
H  50.29300 21.12700 43.94100
H  56.43500 22.73200 44.00900
H  54.93300 28.93400 44.39700
H  47.43700 25.05800 44.54600
H  47.98200 22.51300 43.47700
H  48.33600 23.46700 46.40000
H  48.06300 21.79600 45.89700
H  46.83000 23.13700 45.63900
H  46.95600 25.79200 42.14300
H  46.86800 24.08600 42.15600
H  48.48200 23.64000 40.74200
H  49.60900 24.73700 41.47700
H  53.12100 18.86200 42.77900
H  51.44100 19.56800 43.01500
H  52.26900 18.86800 44.35100
H  57.40800 19.58400 45.14500
H  56.84600 21.28600 45.36800
H  57.42800 20.69600 43.84800
H  57.34000 25.09000 43.05500
H  56.98600 27.21200 45.16500
H  58.61900 23.94100 44.43200
H  57.48500 24.21600 45.84300
H  58.65900 25.44800 45.45600
H  56.66500 28.08100 42.21900
H  58.11300 27.18000 42.49500
H  58.08000 29.20600 44.58500
H  57.66000 29.94600 43.05200
H  59.04900 29.10600 43.12100
H  52.17600 31.14300 43.20600
H  53.52000 30.68900 44.09800
H  52.10400 31.21800 45.02900
H  47.63500 27.88100 44.15400
H  46.79700 28.53600 39.92400
H  46.77200 30.19100 40.76900
H  45.39400 29.11900 40.87000
Mg -11.60200 15.33200 41.32800
C  -8.34300 14.02600 41.23500
C  -10.42600 18.21800 39.84200
C  -14.80900 16.41900 40.87800
C  -12.78200 12.13700 42.32900
N  -9.53100 16.02300 40.65500
C  -8.38600 15.32200 40.74500
C  -7.24400 16.13200 40.07400
C  -7.83100 17.53000 39.92300
C  -9.34500 17.25800 40.10800
C  -7.26300 18.59900 40.97500
C  -6.65400 15.61600 38.72200
C  -5.14600 15.76500 38.56100
H  -4.78800 16.06000 37.12500
N  -12.43800 17.17100 40.65600
C  -11.79300 18.20300 40.13200
C  -12.75100 19.28500 39.89000
C  -13.99800 18.88600 40.33200
C  -13.81700 17.38700 40.59200
C  -12.46500 20.63400 39.39600
C  -15.31000 19.70100 40.39800
O  -15.30300 20.88300 40.04800
C  -16.59100 19.20800 40.92300
N  -13.51300 14.43600 41.67500
C  -14.71200 15.08100 41.44200
C  -15.92700 14.18000 41.69100
C  -15.26200 12.84800 42.12000
C  -13.78500 13.10300 42.02400
C  -16.92800 14.88300 42.65100
C  -15.66200 11.72300 41.10500
C  -16.16200 10.35800 41.71400
N  -10.82800 13.38500 41.69800
C  -11.38500 12.21500 42.10800
C  -10.24700 11.30700 42.43100
C  -9.06300 11.98300 42.02800
C  -9.42400 13.23600 41.59700
C  -10.42000 9.92400 42.99800
C  -7.60300 11.81700 41.98500
O  -6.85400 10.85200 42.23300
C  -7.12500 13.08300 41.31100
C  -6.08800 13.73200 42.19000
O  -6.27300 14.42400 43.21500
O  -4.82100 13.42600 41.70900
C  -3.70700 13.98000 42.39600
H  -10.02000 19.10700 39.35500
H  -15.81800 16.76200 40.63900
H  -13.13400 11.19600 42.75800
H  -6.36000 16.22500 40.70500
H  -7.61900 17.86700 38.90800
H  -8.05500 19.19400 41.42800
H  -6.63500 19.30400 40.43100
H  -6.72300 18.05000 41.74600
H  -7.08700 16.09800 37.84500
H  -6.89200 14.55400 38.67700
H  -4.66800 14.83700 38.87500
H  -4.76200 16.58900 39.16200
H  -11.52700 20.72400 38.84800
H  -12.36300 21.36300 40.20000
H  -13.33100 20.99800 38.84400
H  -16.97000 18.57400 40.12100
H  -17.14900 20.07700 41.27100
H  -16.34500 18.52600 41.73700
H  -16.38800 14.01900 40.71600
H  -15.49900 12.69300 43.17200
H  -16.93700 14.43300 43.64300
H  -17.88700 15.01100 42.14900
H  -16.53100 15.88700 42.79700
H  -14.80300 11.38500 40.52400
H  -16.47100 12.04400 40.44900
H  -17.14100 10.16500 41.27500
H  -16.08000 10.35100 42.80100
H  -15.38800 9.65500 41.40300
H  -10.72100 9.82200 44.04100
H  -9.47100 9.43600 42.77700
H  -11.05100 9.31900 42.34600
H  -6.63700 12.83800 40.36700
H  -3.54300 15.01700 42.10000
H  -2.88700 13.33800 42.07200
H  -3.87200 13.96200 43.47300

