158

Mg 1.56200 -0.59400 43.81700
C  4.96700 -0.11200 43.26600
C  0.82200 2.42800 42.15600
C  -1.73500 -1.42100 43.71900
C  2.28900 -3.93500 44.92200
N  2.71400 1.00100 42.89100
C  4.07900 0.95500 42.82200
C  4.63000 2.25500 42.23200
C  3.34200 3.18500 42.16300
C  2.21900 2.19900 42.40400
C  3.42500 4.48300 43.04000
C  5.43300 2.01500 40.86700
C  6.50400 3.07100 40.47100
H  6.63500 3.34200 39.05700
N  -0.22400 0.42800 43.13600
C  -0.35100 1.62200 42.43300
C  -1.70700 1.90800 42.15700
C  -2.45500 0.83300 42.76800
C  -1.47100 -0.14100 43.28600
C  -2.09500 3.21600 41.62400
C  -3.97100 0.78100 42.86400
O  -4.56500 1.75300 42.32500
C  -4.82400 -0.23800 43.55400
N  0.41800 -2.49300 44.24300
C  -0.98100 -2.48200 44.20500
C  -1.54500 -3.88100 44.57800
C  -0.25200 -4.41200 45.33000
C  0.90900 -3.63500 44.83700
C  -2.89200 -3.88100 45.43000
C  -0.15900 -5.96500 45.19300
C  0.01300 -6.75900 46.49500
N  3.29900 -1.75100 44.19900
C  3.41400 -3.07100 44.60100
C  4.87300 -3.30100 44.82900
C  5.56300 -2.13200 44.36000
C  4.52500 -1.26300 43.88800
C  5.45000 -4.54400 45.36600
C  6.75500 -1.51500 44.06900
O  7.87500 -1.85200 44.40000
C  6.53400 -0.20500 43.37900
C  7.12200 0.86200 44.30000
O  6.61100 1.36900 45.32600
O  8.26000 1.40100 43.73400
C  8.95600 2.49500 44.48400
H  0.75800 3.46100 41.80700
H  -2.79100 -1.68100 43.61400
H  2.53600 -4.85600 45.45400
H  5.28200 2.62100 43.02500
H  3.26200 3.57900 41.15000
H  4.43700 4.88700 43.04400
H  3.11700 4.46600 44.08600
H  2.86100 5.27800 42.55100
H  4.68800 1.87900 40.08200
H  5.81700 0.99500 40.85300
H  7.38600 2.89900 41.08800
H  6.03200 3.94900 40.91200
H  -2.59600 3.00900 40.67800
H  -1.32300 3.89100 41.25400
H  -2.82100 3.67800 42.29300
H  -5.83800 0.07400 43.80600
H  -4.51500 -0.33000 44.59600
H  -4.91200 -1.24600 43.15100
H  -1.66700 -4.42900 43.64400
H  -0.24400 -4.16500 46.39200
H  -3.59000 -4.54300 44.91900
H  -3.37000 -2.91100 45.57400
H  -2.70400 -4.34800 46.39700
H  0.70800 -6.20800 44.57900
H  -0.98700 -6.38000 44.61900
H  0.99800 -7.22200 46.54400
H  -0.85300 -7.41600 46.56800
H  0.11500 -6.08900 47.34900
H  5.23900 -5.42700 44.76200
H  5.03800 -4.82000 46.33700
H  6.53600 -4.52100 45.45800
H  7.04000 -0.19400 42.41300
H  8.45700 3.45900 44.38400
H  9.85700 2.79700 43.94900
H  9.17900 2.20900 45.51200
Mg 48.51900 35.05100 28.04400
C  47.04900 33.20400 30.55400
C  48.34900 37.79200 30.04400
C  49.89800 36.65500 25.52000
C  47.89100 32.26500 25.83300
N  47.68100 35.41700 30.12500
C  47.31400 34.48900 30.93900
C  47.10400 35.10200 32.38200
C  47.14400 36.66600 31.98000
C  47.78000 36.61400 30.60300
C  45.80600 37.50500 32.06200
C  48.23900 34.60800 33.37900
C  48.70500 35.53700 34.55700
H  47.73900 36.56400 35.14300
N  49.08700 36.99300 27.85400
C  48.92000 37.98800 28.76800
C  49.64800 39.13300 28.23800
C  50.07100 38.85600 26.88500
C  49.66000 37.45500 26.67500
C  50.00200 40.38300 29.05800
C  50.83400 39.75300 25.85900
O  51.39900 39.30200 24.87600
C  51.00500 41.19300 26.10700
N  48.80400 34.61100 25.98000
C  49.51500 35.40300 25.16100
C  49.91100 34.79000 23.87400
C  49.25700 33.32000 23.98200
C  48.54500 33.40400 25.32400
C  49.39400 35.58300 22.61200
C  50.34900 32.27400 24.06100
C  50.00300 30.87200 23.54400
N  47.68800 32.97900 28.11100
C  47.46300 32.04000 27.14900
C  46.82500 30.87000 27.77800
C  46.59700 31.31500 29.10900
C  47.12300 32.61300 29.25000
C  46.24200 29.68700 27.06000
C  46.05500 30.92900 30.42600
O  45.45400 29.91800 30.74700
C  46.48200 32.06100 31.37600
C  47.43000 31.62700 32.48000
O  48.65500 31.58900 32.37900
O  46.79600 31.27000 33.59700
C  47.55600 31.13900 34.85500
H  48.42500 38.63200 30.73700
H  50.45300 37.16200 24.72800
H  47.74300 31.43500 25.13900
H  46.14700 34.73100 32.74800
H  47.78700 37.26600 32.62400
H  45.78800 38.01100 33.02800
H  44.95100 36.83000 32.08500
H  45.91400 38.26700 31.29100
H  49.11000 34.26200 32.82200
H  47.84700 33.76900 33.95200
H  49.56700 36.06900 34.15400
H  48.96700 34.85000 35.36200
H  49.79000 41.28200 28.47900
H  50.99500 40.31300 29.50200
H  49.36000 40.42700 29.93800
H  51.54100 41.26500 27.05400
H  50.02800 41.67500 26.14900
H  51.59800 41.59200 25.28400
H  50.99400 34.72300 23.77700
H  48.64400 33.06500 23.11700
H  48.70900 36.37500 22.91400
H  48.90700 34.95400 21.86700
H  50.19200 36.03700 22.02500
H  50.70300 32.07300 25.07300
H  51.15700 32.69100 23.46100
H  50.84300 30.40700 23.02700
H  49.07000 30.87300 22.98100
H  49.76400 30.11800 24.29400
H  47.09700 29.08500 26.75000
H  45.77400 30.10100 26.16800
H  45.47100 29.13300 27.59600
H  45.59700 32.42700 31.89600
H  48.45700 31.74800 34.93900
H  47.94700 30.12200 34.89700
H  46.81100 31.35700 35.62000

