158

Mg 26.99400 50.28700 26.64800
C  24.90000 51.35300 29.28000
C  29.48000 49.86500 28.95000
C  28.97000 49.86600 24.03800
C  24.39300 51.41500 24.36000
N  27.12400 50.61600 28.92700
C  26.13500 50.92900 29.78400
C  26.53800 50.81800 31.22700
C  28.01900 50.27500 31.04000
C  28.26800 50.27700 29.53400
C  29.11900 51.07700 31.78500
C  25.65600 49.97900 32.11600
C  24.96100 50.57500 33.37700
H  24.93700 49.70400 34.70900
N  28.93200 49.88000 26.52800
C  29.82500 49.66000 27.59400
C  31.11800 49.41400 26.99700
C  30.98800 49.50400 25.53200
C  29.54500 49.78500 25.34200
C  32.30000 49.23000 27.89300
C  32.09500 49.35700 24.53800
O  31.88600 49.64600 23.36300
C  33.43500 48.94100 25.03400
N  26.63900 50.46900 24.45000
C  27.63800 50.22900 23.63300
C  27.18700 50.29300 22.18400
C  25.70300 50.66100 22.29100
C  25.52600 50.88100 23.79200
C  28.04900 51.10500 21.19800
C  24.66600 49.65100 21.71700
C  23.81400 49.97700 20.44300
N  25.02100 51.15900 26.70900
C  24.16300 51.57600 25.71500
C  22.98800 52.17600 26.27700
C  23.18500 52.01500 27.73100
C  24.47700 51.47700 27.94600
C  21.94000 53.04100 25.57500
C  22.63300 52.37200 29.02000
O  21.59700 53.01600 29.28500
C  23.65300 51.85800 30.12800
C  23.98500 53.04600 30.93200
O  24.78800 53.90100 30.60900
O  23.15000 53.14500 32.06800
C  23.35600 54.20200 32.96600
H  30.19000 49.52800 29.70900
H  29.59200 49.81400 23.14100
H  23.52900 51.66400 23.74100
H  26.57600 51.84900 31.57900
H  28.08100 49.25700 31.42400
H  29.97800 50.44100 31.99900
H  28.66000 51.43600 32.70600
H  29.33700 51.95300 31.17400
H  26.17900 49.10200 32.49900
H  24.86600 49.54200 31.50400
H  23.89500 50.64800 33.16500
H  25.28100 51.59600 33.58700
H  32.97300 50.02900 27.58100
H  32.73100 48.24200 27.73000
H  32.18300 49.37100 28.96700
H  33.99200 48.59100 24.16500
H  33.44500 48.11200 25.74200
H  33.81800 49.79800 25.58900
H  27.24000 49.34300 21.65100
H  25.49700 51.61700 21.81000
H  27.40600 51.77200 20.62400
H  28.46200 50.43600 20.44300
H  28.92700 51.62400 21.58200
H  23.83900 49.41100 22.38500
H  25.15500 48.74100 21.36700
H  24.14400 50.93200 20.03400
H  22.76800 50.12900 20.70900
H  23.72900 49.26800 19.62000
H  22.50200 53.91100 25.23400
H  21.11800 53.33600 26.22700
H  21.53500 52.44700 24.75500
H  23.22400 51.06300 30.73800
H  24.09800 53.86300 33.69000
H  22.42800 54.41900 33.49500
H  23.76900 55.11200 32.53100
Mg -11.72800 37.29500 42.92100
C  -9.60700 35.04600 41.14600
C  -10.12500 39.96700 41.35900
C  -14.40500 39.27300 43.41800
C  -13.75100 34.46000 43.75100
N  -10.15400 37.41900 41.46700
C  -9.30900 36.40100 40.92800
C  -8.06500 36.98000 40.20700
C  -8.04300 38.39500 40.76300
C  -9.55500 38.66300 41.19000
C  -7.06700 38.54400 42.02600
C  -8.00500 36.95900 38.65900
C  -6.60300 37.19200 37.98600
H  -6.05700 36.14400 37.02600
N  -12.15600 39.39500 42.62000
C  -11.33900 40.25300 41.99100
C  -11.95100 41.54800 41.98800
C  -13.13500 41.45700 42.74600
C  -13.29500 39.95500 42.91300
C  -11.36800 42.89500 41.42100
C  -14.18500 42.54900 43.03500
O  -13.96200 43.70700 42.65700
C  -15.40500 42.21100 43.82100
N  -13.83800 36.94200 43.40600
C  -14.66800 37.91400 43.66000
C  -15.95700 37.44600 44.41400
C  -15.67700 35.91000 44.61200
C  -14.30900 35.68900 43.91900
C  -16.26400 38.26200 45.74600
C  -16.74500 34.99400 44.13200
C  -17.58700 34.31300 45.21300
N  -11.58600 35.15800 42.74400
C  -12.41400 34.15200 43.24500
C  -11.75500 32.86400 43.00500
C  -10.61300 33.19700 42.26700
C  -10.61200 34.56700 42.06200
C  -12.20300 31.58100 43.51000
C  -9.41300 32.61900 41.64600
O  -9.06900 31.42300 41.61400
C  -8.70600 33.78200 40.84300
C  -7.28100 33.87900 41.08300
O  -6.42900 33.44800 40.30900
O  -7.13500 34.32800 42.35500
C  -5.76300 34.13800 42.94000
H  -9.45300 40.72000 40.94100
H  -15.36800 39.72400 43.66400
H  -14.30900 33.60200 44.13000
H  -7.17800 36.52700 40.64900
H  -7.73500 39.06400 39.96000
H  -6.26300 39.22500 41.74700
H  -6.63800 37.60600 42.37800
H  -7.66800 38.99900 42.81400
H  -8.84500 37.50600 38.23100
H  -8.13600 35.88900 38.49500
H  -5.87600 37.06800 38.78900
H  -6.79800 38.14400 37.49400
H  -11.06400 43.56900 42.22100
H  -12.00300 43.44300 40.72500
H  -10.49000 42.61500 40.83800
H  -15.82600 43.13600 44.21400
H  -15.17600 41.64700 44.72500
H  -16.10600 41.73200 43.13700
H  -16.66300 37.69700 43.62300
H  -15.45900 35.78000 45.67200
H  -16.92900 37.61800 46.32200
H  -16.78700 39.17000 45.44600
H  -15.33600 38.50900 46.26200
H  -16.36200 34.28500 43.39800
H  -17.35300 35.63300 43.49200
H  -18.63500 34.61200 45.18100
H  -17.13900 34.34600 46.20600
H  -17.72400 33.24600 45.03600
H  -11.30200 31.05200 43.82200
H  -12.71600 31.07800 42.69100
H  -12.86400 31.70000 44.36900
H  -8.82400 33.64900 39.76700
H  -5.83200 34.67700 43.88600
H  -4.99800 34.61400 42.32700
H  -5.55500 33.12000 43.27000

