158

Mg -0.24600 7.01000 25.05500
C  0.71800 8.97900 27.89200
C  0.06300 4.23700 27.09000
C  -1.23400 5.12300 22.45500
C  0.34600 9.69400 23.03500
N  0.42000 6.68300 27.25800
C  0.63100 7.65300 28.25600
C  0.74300 7.06200 29.68100
C  0.55100 5.56300 29.31400
C  0.30600 5.47900 27.78300
C  1.69300 4.56400 29.80000
C  -0.34000 7.66300 30.61800
C  0.06600 7.92400 32.07100
H  1.11800 6.97800 32.72000
N  -0.52400 4.92700 24.79200
C  -0.29900 3.96000 25.72700
C  -0.66900 2.62300 25.16200
C  -1.03700 2.90400 23.79100
C  -0.96200 4.34600 23.62500
C  -0.47600 1.32400 25.98100
C  -1.42300 1.93400 22.68700
O  -1.79700 2.24500 21.57500
C  -1.29200 0.45600 23.09000
N  -0.49600 7.38500 23.12700
C  -0.99200 6.46500 22.23900
C  -1.20400 7.11300 20.79900
C  -0.96300 8.56100 21.20100
C  -0.22600 8.51800 22.51500
C  -0.14600 6.50900 19.84200
C  -2.31200 9.37200 21.32700
C  -2.44000 10.73100 20.57300
N  0.31700 8.97100 25.33000
C  0.56400 9.96100 24.41300
C  0.92200 11.20400 25.10000
C  0.90600 10.90100 26.52800
C  0.61700 9.50700 26.59800
C  1.13800 12.52700 24.48400
C  1.08500 11.49200 27.85600
O  1.41700 12.63100 28.16400
C  0.84100 10.26800 28.80600
C  2.02400 10.27600 29.69100
O  3.11700 9.84500 29.33000
O  1.72200 10.63100 30.96200
C  2.88400 10.87400 31.74900
H  0.06000 3.43100 27.82600
H  -1.67100 4.60700 21.59700
H  0.54200 10.52000 22.34900
H  1.78000 7.20800 29.98400
H  -0.28900 5.12300 29.85000
H  2.34000 5.02100 30.54900
H  2.30900 4.21300 28.97300
H  1.13800 3.70300 30.17200
H  -1.19600 6.98800 30.64100
H  -0.61800 8.60600 30.14800
H  -0.83900 7.92000 32.67900
H  0.48200 8.93200 32.06500
H  0.21000 0.60600 25.53100
H  -1.37600 0.71100 25.93600
H  -0.10100 1.46200 26.99500
H  -2.00300 0.24100 23.88700
H  -0.26700 0.34000 23.44400
H  -1.51400 -0.14900 22.21100
H  -2.16700 6.83600 20.37200
H  -0.26000 9.03100 20.51300
H  0.78800 7.07100 19.84900
H  -0.55600 6.43700 18.83500
H  0.23500 5.52700 20.12100
H  -2.56800 9.36700 22.38700
H  -3.04700 8.72700 20.84700
H  -1.47000 11.18100 20.36000
H  -3.14200 11.33400 21.14900
H  -2.78100 10.46500 19.57200
H  1.77700 13.14700 25.11300
H  0.19400 13.07100 24.48000
H  1.64700 12.48800 23.52100
H  -0.04200 10.48300 29.40700
H  2.57200 11.15100 32.75500
H  3.56200 11.59700 31.29500
H  3.39100 9.91900 31.88300
Mg 42.70600 4.83400 47.71800
C  41.00000 7.94000 47.29900
C  39.78900 3.19200 47.43900
C  44.51000 2.02700 47.16400
C  45.79800 6.76200 47.37600
N  40.59000 5.49000 47.39000
C  40.12600 6.73500 47.30700
C  38.54000 6.80400 47.52600
C  38.18100 5.29700 47.75200
C  39.59200 4.59500 47.50500
C  37.52000 4.84600 49.07300
C  37.74700 7.55800 46.39000
C  38.09200 7.05100 44.91800
H  38.50400 8.08900 43.92400
N  42.25200 2.83500 47.52300
C  40.96200 2.33300 47.46700
C  40.98400 0.91200 47.47500
C  42.35600 0.54200 47.22000
C  43.15500 1.78200 47.28800
C  39.66700 0.12300 47.60500
C  42.73000 -0.83600 47.01900
O  41.95300 -1.78600 46.96200
C  44.11600 -1.12000 46.84700
N  44.81700 4.48100 47.17100
C  45.25500 3.17400 47.15100
C  46.79400 3.13400 47.13100
C  47.18500 4.65800 47.08300
C  45.85500 5.41200 47.16600
C  47.42400 2.34900 48.33700
C  48.06900 5.05400 45.82300
C  49.51300 5.11200 45.97600
N  43.34500 6.92100 47.46900
C  44.63600 7.53300 47.34500
C  44.41300 9.02700 47.26800
C  43.02200 9.20000 47.34400
C  42.45700 7.89400 47.33100
C  45.44400 9.93500 47.11500
C  41.97200 10.21100 47.24300
O  41.98700 11.40700 47.12100
C  40.63300 9.37800 47.31700
C  39.91800 9.84800 48.55700
O  40.16300 9.47000 49.67300
O  38.95800 10.78800 48.17600
C  38.10700 11.42300 49.18300
H  38.86200 2.62000 47.35300
H  45.25700 1.23200 47.20400
H  46.71200 7.35300 47.29500
H  38.43200 7.37600 48.44800
H  37.56500 4.92300 46.93500
H  37.10400 5.60700 49.73300
H  38.27800 4.27200 49.60500
H  36.74500 4.10300 48.88600
H  38.05000 8.60400 46.44200
H  36.68200 7.39200 46.55000
H  37.22200 6.56800 44.47300
H  38.86500 6.28800 45.00500
H  39.14400 0.21300 46.65300
H  39.00700 0.47800 48.39800
H  39.57100 -0.95500 47.73400
H  44.66600 -0.66800 47.67200
H  44.54500 -0.74800 45.91700
H  44.26400 -2.19100 46.98200
H  47.13600 2.65700 46.21300
H  47.77700 4.82600 47.98200
H  46.71300 2.15600 49.14000
H  48.27600 2.91700 48.71200
H  47.72800 1.35600 48.00300
H  47.69200 6.03900 45.55000
H  47.81300 4.33600 45.04400
H  49.80700 4.97300 47.01700
H  49.99500 6.05700 45.72600
H  50.10000 4.44600 45.34300
H  46.03000 9.97100 48.03400
H  45.09100 10.91600 46.79700
H  46.07000 9.61300 46.28200
H  39.93200 9.66500 46.53400
H  37.83600 12.46000 48.98100
H  38.56500 11.33300 50.16800
H  37.20300 10.87100 49.43800

