158

Mg 2.75000 -0.77700 44.04300
C  5.88800 0.69700 43.57000
C  1.51600 2.00400 42.16100
C  -0.31400 -2.27800 43.82900
C  4.00000 -3.60700 45.25300
N  3.67100 1.07400 42.85000
C  4.95100 1.50500 42.90100
C  5.19800 2.87000 42.31900
C  3.77900 3.37500 42.04100
C  2.94200 2.07500 42.33800
C  3.38400 4.63000 42.83300
C  6.17200 2.94500 41.11600
C  6.12200 1.81200 40.03500
H  5.97700 2.04900 38.44900
N  0.91900 -0.26900 43.04200
C  0.58900 0.94600 42.45400
C  -0.80400 0.95400 42.09700
C  -1.30800 -0.32400 42.48100
C  -0.18800 -1.05800 43.17600
C  -1.46900 2.05700 41.43000
C  -2.65700 -0.78400 42.12300
O  -3.40800 -0.13100 41.42900
C  -3.20900 -2.14600 42.52300
N  1.94000 -2.77500 44.41600
C  0.65100 -3.13500 44.36600
C  0.35700 -4.42600 45.07500
C  1.78300 -4.90800 45.45700
C  2.60500 -3.69600 45.03000
C  -0.59200 -4.36600 46.28400
C  2.27800 -6.29300 44.95600
C  2.94900 -7.23900 45.87300
N  4.48400 -1.31500 44.50800
C  4.90300 -2.51600 45.01200
C  6.35800 -2.45900 45.22900
C  6.78900 -1.14000 44.70200
C  5.61600 -0.58600 44.17300
C  7.17700 -3.60400 45.93100
C  7.91000 -0.31600 44.44500
O  9.05800 -0.47400 44.72900
C  7.36700 0.97600 43.79600
C  7.43600 2.01000 44.84100
O  6.71200 2.21000 45.74800
O  8.46600 2.83300 44.57000
C  8.84700 3.87000 45.61600
H  1.17500 2.92400 41.68200
H  -1.29700 -2.75300 43.83900
H  4.46100 -4.50300 45.67400
H  5.71000 3.48100 43.06200
H  3.70400 3.63200 40.98500
H  2.55800 4.48500 43.52900
H  3.10800 5.40300 42.11600
H  4.15200 5.02000 43.50100
H  7.09200 2.99800 41.69800
H  6.03000 3.92900 40.66900
H  5.33500 1.09900 40.27900
H  7.07400 1.29100 40.14300
H  -1.54500 1.76700 40.38200
H  -1.00400 3.03900 41.50100
H  -2.39900 2.15000 41.99100
H  -4.22300 -2.17100 42.12400
H  -3.40500 -2.08800 43.59400
H  -2.63600 -2.99300 42.14700
H  -0.01400 -5.19700 44.39900
H  1.90300 -4.80900 46.53500
H  -0.03000 -4.43700 47.21400
H  -1.41000 -5.08600 46.26500
H  -1.11800 -3.41200 46.24900
H  2.90100 -6.19800 44.06700
H  1.37300 -6.74100 44.54500
H  3.89300 -7.60400 45.46700
H  2.30100 -8.10500 46.00500
H  3.15400 -6.75500 46.82800
H  8.07900 -3.21900 46.40800
H  7.47100 -4.36300 45.20600
H  6.67100 -4.10600 46.75600
H  7.86500 1.22200 42.85900
H  8.41700 4.85700 45.44600
H  9.93500 3.88800 45.68100
H  8.44500 3.50800 46.56200
Mg 55.84300 24.38100 45.30400
C  52.91100 26.18800 44.33500
C  54.18600 21.45300 44.23600
C  58.71100 22.82200 45.55900
C  57.30400 27.44000 46.25500
N  53.79900 23.92000 44.28400
C  52.80700 24.79600 44.01200
C  51.62000 24.10200 43.42000
C  51.91400 22.61500 43.82700
C  53.44900 22.60600 44.17700
C  51.02000 22.12500 45.01200
C  51.37600 24.35100 41.89800
C  49.92400 24.58300 41.53500
H  49.70100 24.54600 40.00400
N  56.43900 22.48700 44.95900
C  55.62400 21.40900 44.57800
C  56.31100 20.23600 44.65900
C  57.59700 20.55000 45.13700
C  57.59100 21.99400 45.28800
C  55.68900 18.90200 44.23000
C  58.62300 19.43200 45.41600
O  58.29600 18.27100 45.21800
C  59.96300 19.68900 45.93000
N  57.77200 25.03000 45.78400
C  58.76900 24.18000 45.84100
C  60.06100 24.93100 46.23700
C  59.66000 26.38000 46.40700
C  58.18200 26.30700 46.06900
C  60.74600 24.35000 47.49700
C  60.37800 27.44500 45.48900
C  61.67600 28.08400 45.90900
N  55.25200 26.37200 45.35600
C  55.90200 27.45900 45.88400
C  55.01000 28.60000 45.81100
C  53.85300 28.19200 45.16600
C  54.06200 26.77400 44.98200
C  55.30200 29.95800 46.28900
C  52.51000 28.59800 44.72300
O  51.85300 29.67500 44.74500
C  51.83700 27.34500 44.09400
C  51.84000 27.79200 42.59500
O  52.87900 27.87600 41.91200
O  50.60100 28.00700 42.14200
C  50.64900 28.68500 40.81700
H  53.61000 20.55200 44.01400
H  59.66100 22.28400 45.54900
H  57.70700 28.39700 46.59300
H  50.70000 24.49300 43.85600
H  51.78900 21.99500 42.94000
H  50.17200 21.46800 44.81900
H  50.61700 22.96600 45.57600
H  51.68000 21.67300 45.75200
H  51.67900 23.43500 41.39100
H  52.09400 25.04400 41.45900
H  49.51200 25.47500 42.00700
H  49.34900 23.74600 41.92900
H  56.37700 18.47900 43.49700
H  54.81600 19.02600 43.58900
H  55.46500 18.29800 45.10900
H  60.66500 20.04600 45.17700
H  60.43100 18.82800 46.40800
H  59.99700 20.48900 46.67000
H  60.69800 24.85400 45.35600
H  59.71200 26.75900 47.42700
H  61.19700 23.41000 47.17900
H  60.00700 24.21400 48.28700
H  61.58900 24.92200 47.88500
H  59.67300 28.24800 45.27500
H  60.60000 26.93700 44.55100
H  61.59600 29.14300 45.66500
H  62.55900 27.72900 45.37700
H  61.79400 27.91100 46.97900
H  55.26200 30.61700 45.42300
H  56.27000 30.00300 46.78700
H  54.47700 30.42500 46.82700
H  50.81100 27.34000 44.46000
H  51.38700 29.47700 40.68700
H  49.70400 29.20200 40.65000
H  50.73100 28.10600 39.89700

