158

Mg 45.18600 4.30100 47.84400
C  43.05600 6.95000 47.11000
C  42.59200 2.11700 47.05700
C  47.38600 1.62300 47.47600
C  47.85300 6.50500 47.93600
N  43.10700 4.53100 47.23200
C  42.48900 5.68100 46.89000
C  41.06200 5.36000 46.44600
C  40.85400 3.82500 46.77600
C  42.24600 3.44300 46.99700
C  39.75800 3.49900 47.88700
C  40.94500 5.78400 44.97100
C  40.02200 6.91000 44.53100
H  40.34800 7.77600 43.29000
N  44.99300 2.10500 47.67000
C  43.80400 1.49300 47.31800
C  44.08100 0.08300 47.12200
C  45.55200 -0.05400 47.33700
C  46.04300 1.28700 47.48300
C  43.04300 -0.99000 46.99500
C  46.29400 -1.41600 47.33300
O  45.66500 -2.44600 47.18000
C  47.75600 -1.55500 47.53500
N  47.32500 4.13900 47.71000
C  47.98800 2.89400 47.65100
C  49.54700 3.05300 47.82700
C  49.63800 4.57400 48.23300
C  48.21900 5.15200 47.96600
C  50.23100 2.12000 48.85700
C  50.83500 5.29000 47.50500
C  51.80800 6.24800 48.32100
N  45.41800 6.29400 47.72200
C  46.58800 7.09100 47.83100
C  46.21300 8.43000 47.75700
C  44.80200 8.44800 47.44400
C  44.38000 7.13900 47.41000
C  47.13100 9.60000 47.92400
C  43.63900 9.27300 47.29200
O  43.48100 10.49500 47.38700
C  42.38300 8.29900 47.07500
C  41.50800 8.43700 48.31500
O  41.66100 7.89800 49.39900
O  40.60000 9.39000 47.99800
C  39.56400 9.68000 49.01900
H  41.70800 1.48000 46.99400
H  48.07000 0.78300 47.33500
H  48.71600 7.17400 47.97100
H  40.31400 6.00300 46.91000
H  40.52700 3.29800 45.88000
H  39.08200 4.32000 48.12300
H  40.08800 3.02500 48.81100
H  39.12600 2.73000 47.44200
H  40.53600 4.86700 44.54700
H  41.94000 5.93300 44.55100
H  39.80000 7.67600 45.27500
H  39.07900 6.41800 44.29400
H  42.97900 -1.77700 47.74500
H  43.15400 -1.47600 46.02500
H  42.04500 -0.55200 46.95600
H  48.05200 -0.91700 48.36700
H  48.30400 -1.42100 46.60200
H  47.87500 -2.60400 47.80800
H  50.04800 2.88700 46.87300
H  49.78200 4.73600 49.30200
H  49.52800 1.53000 49.44500
H  50.79000 2.74200 49.55500
H  50.90400 1.47400 48.29300
H  50.43400 5.99300 46.77600
H  51.53200 4.60300 47.02600
H  52.78000 6.18800 47.83100
H  51.86600 6.06400 49.39400
H  51.45400 7.27600 48.23900
H  47.38900 9.55900 48.98200
H  46.55200 10.46300 47.59600
H  47.95200 9.38200 47.24000
H  41.81000 8.57600 46.19100
H  39.36200 8.69400 49.43800
H  38.65200 10.12100 48.61700
H  40.01800 10.33900 49.75800
Mg 9.12800 48.89500 26.48100
C  6.95500 49.41800 29.19000
C  11.71900 50.17100 28.24600
C  11.06800 48.20500 23.86700
C  6.18600 48.43400 24.46300
N  9.28300 49.62100 28.52900
C  8.31700 49.58400 29.55300
C  8.86000 50.16700 30.90800
C  10.20800 50.79200 30.31800
C  10.43000 50.19200 28.91600
C  10.15600 52.31800 30.22800
C  9.09700 48.99300 31.94500
C  8.94500 49.50600 33.36700
H  8.46900 48.44800 34.38600
N  11.14300 49.12900 26.09600
C  12.08300 49.61400 26.97200
C  13.41400 49.42700 26.49300
C  13.23500 48.87100 25.16700
C  11.74800 48.70600 25.01300
C  14.66200 49.70800 27.28600
C  14.41500 48.28700 24.18400
O  14.12900 47.82300 23.13900
C  15.82300 48.28200 24.55800
N  8.72200 48.49400 24.40500
C  9.70100 48.01500 23.62800
C  9.13000 47.41600 22.37200
C  7.59700 47.78700 22.38200
C  7.42500 48.24300 23.87500
C  9.86600 47.99400 21.19200
C  6.69300 46.49900 22.08100
C  5.54100 46.67400 21.09000
N  7.05200 48.90300 26.68000
C  5.97600 48.75200 25.79300
C  4.75500 48.74400 26.52500
C  5.13000 49.09800 27.83200
C  6.50400 49.12200 27.90500
C  3.40800 48.29400 26.01800
C  4.55700 49.40800 29.11100
O  3.38000 49.31600 29.44500
C  5.76200 49.73300 30.00700
C  5.59000 48.82000 31.16800
O  5.94200 47.65600 31.21200
O  4.98400 49.50500 32.10100
C  4.54200 48.76600 33.22600
H  12.60800 50.59000 28.72300
H  11.75000 48.00400 23.03800
H  5.21200 48.31900 23.98200
H  8.19900 50.97400 31.22400
H  10.92900 50.50800 31.08400
H  9.92000 52.61700 29.20700
H  11.13500 52.70300 30.51300
H  9.41100 52.73100 30.91000
H  10.11000 48.59100 31.94100
H  8.41100 48.17700 31.71600
H  8.26800 50.36100 33.35300
H  9.94900 49.81200 33.65900
H  15.39900 50.45300 26.98400
H  15.26200 48.80000 27.33800
H  14.45800 49.96000 28.32600
H  16.48000 47.90100 23.77600
H  15.88700 47.64200 25.43800
H  16.14400 49.32000 24.47200
H  9.34700 46.35100 22.29700
H  7.33200 48.66400 21.79300
H  10.73600 48.62500 21.37500
H  9.30100 48.69100 20.57300
H  10.23500 47.22600 20.51200
H  6.31900 46.13000 23.03600
H  7.30600 45.71300 21.63900
H  5.32900 47.74100 21.01200
H  4.67400 46.07300 21.36500
H  5.84300 46.21200 20.15000
H  3.46400 47.32100 25.52900
H  2.98600 49.06200 25.36900
H  2.80900 48.16500 26.91900
H  5.71500 50.78700 30.28200
H  5.38600 48.61400 33.89800
H  4.07000 47.81000 33.00000
H  3.81600 49.39100 33.74600

