158

Mg -2.13800 16.78500 26.67300
C  -2.64800 14.32700 29.21100
C  -3.09600 19.19300 28.70900
C  -2.18600 18.70000 23.87200
C  -1.80200 14.02000 24.46100
N  -2.80900 16.67800 28.66600
C  -2.87400 15.65800 29.56200
C  -2.94800 16.15400 31.01700
C  -3.53700 17.63600 30.83400
C  -3.17800 17.87800 29.31200
C  -5.11900 17.81300 31.02400
C  -1.62700 16.19900 31.84900
C  -1.49200 17.17200 33.04900
H  -0.67700 16.67400 34.26500
N  -2.36900 18.70900 26.36800
C  -2.79100 19.59100 27.38100
C  -2.84700 20.91600 26.78500
C  -2.56800 20.77200 25.40800
C  -2.36500 19.33200 25.13700
C  -3.26100 22.19500 27.60600
C  -2.55400 21.83600 24.36000
O  -2.52600 21.53400 23.16000
C  -2.70200 23.27700 24.64400
N  -1.88900 16.36000 24.41700
C  -1.95600 17.35700 23.50500
C  -1.84700 16.79000 22.09000
C  -1.37700 15.28800 22.37400
C  -1.74300 15.16800 23.82500
C  -3.27300 16.78300 21.41000
C  0.11700 15.02200 22.03800
C  1.18100 15.81700 22.71700
N  -2.23600 14.56200 26.77800
C  -2.04600 13.69400 25.77600
C  -1.91000 12.34200 26.38900
C  -2.24400 12.53600 27.74400
C  -2.37600 13.88500 27.90000
C  -1.75500 11.03300 25.68200
C  -2.42100 11.89400 28.97100
O  -2.34200 10.72700 29.24200
C  -2.53200 13.01800 29.99100
C  -1.25400 12.86800 30.76100
O  -0.23800 13.51200 30.62700
O  -1.44400 12.02500 31.82500
C  -0.37800 12.15300 32.76700
H  -3.09500 20.01500 29.42800
H  -2.26400 19.29500 22.96000
H  -1.46600 13.20400 23.81800
H  -3.70100 15.64600 31.62000
H  -2.96500 18.37700 31.39200
H  -5.55400 16.99900 31.60300
H  -5.60900 17.91000 30.05500
H  -5.23300 18.78200 31.51000
H  -0.85400 16.26200 31.08200
H  -1.42200 15.18600 32.19500
H  -2.45800 17.45400 33.46900
H  -1.01700 18.10900 32.75700
H  -2.47000 22.94500 27.62100
H  -3.52000 22.01300 28.64900
H  -4.13100 22.71200 27.20200
H  -1.83000 23.72500 25.12100
H  -3.64300 23.40300 25.18000
H  -2.84600 23.76100 23.67800
H  -1.06200 17.37400 21.60900
H  -1.89300 14.49700 21.83000
H  -3.55000 15.76000 21.15500
H  -3.20300 17.34500 20.47900
H  -3.98300 17.34200 22.02000
H  0.27000 15.11000 20.96300
H  0.19400 13.94300 22.17600
H  0.68600 16.69200 23.13900
H  1.92300 16.17000 22.00100
H  1.65000 15.16100 23.45000
H  -1.25500 11.30900 24.75400
H  -2.72500 10.59300 25.45300
H  -1.11900 10.44200 26.34200
H  -3.29700 12.79700 30.73600
H  0.56900 11.77000 32.38500
H  -0.65900 11.52400 33.61200
H  -0.16400 13.16300 33.11600
Mg 41.49500 41.56200 26.65300
C  40.70800 43.88700 29.02900
C  42.38500 39.28600 29.01500
C  42.55400 39.51800 24.07100
C  40.70000 43.99100 24.13100
N  41.62400 41.59900 28.73000
C  41.08400 42.61800 29.54300
C  41.13100 42.22600 31.02200
C  41.70900 40.77900 31.03700
C  41.86900 40.49600 29.48100
C  42.99800 40.62600 31.79700
C  39.87200 42.42600 31.78000
C  39.97900 43.24700 33.09400
H  39.46600 42.83000 34.42900
N  42.42800 39.74000 26.52000
C  42.70700 38.93300 27.65800
C  43.36000 37.73700 27.26100
C  43.32200 37.77600 25.84100
C  42.73800 39.07000 25.40300
C  43.74800 36.63900 28.17300
C  43.69500 36.63400 24.86200
O  43.64000 36.77400 23.65700
C  44.07700 35.30200 25.35800
N  41.55600 41.75700 24.43800
C  41.99600 40.69400 23.63400
C  41.74900 41.06600 22.11400
C  40.79500 42.32100 22.17400
C  41.02000 42.77200 23.64000
C  43.08200 41.28800 21.28500
C  39.28000 42.08200 21.76600
C  38.57600 40.91000 22.37500
N  40.98100 43.47900 26.52900
C  40.64100 44.37900 25.50600
C  40.28700 45.68300 26.00000
C  40.36500 45.58400 27.38300
C  40.74000 44.19200 27.66000
C  39.75600 46.74800 25.12600
C  40.08300 46.16900 28.61900
O  39.66100 47.31700 28.82500
C  40.39000 45.14300 29.74200
C  41.42400 45.64500 30.72800
O  42.56800 45.24800 30.79100
O  40.75300 46.58300 31.57800
C  41.53400 46.93700 32.80300
H  42.70400 38.59800 29.80100
H  42.97200 38.83200 23.33100
H  40.42900 44.71700 23.36100
H  41.86500 42.89500 31.47000
H  41.01100 40.02900 31.40800
H  43.31900 41.55600 32.26500
H  43.82300 40.37100 31.13100
H  42.87400 39.84300 32.54500
H  39.42600 41.47200 32.05900
H  39.16700 42.88400 31.08600
H  39.49700 44.19800 32.86600
H  40.99900 43.57500 33.29800
H  43.13500 35.76800 27.94000
H  43.51200 36.96000 29.18700
H  44.75700 36.22800 28.15800
H  43.24400 34.82300 25.87300
H  44.96000 35.37400 25.99200
H  44.30900 34.72500 24.46300
H  41.20000 40.29300 21.57500
H  41.05600 43.16800 21.54100
H  43.36400 42.31500 21.05100
H  42.98300 40.77200 20.32900
H  43.92900 40.83600 21.80100
H  39.30600 41.85700 20.70000
H  38.74100 43.00100 21.99700
H  38.15800 40.35600 21.53400
H  37.76200 41.33400 22.96300
H  39.22400 40.28600 22.99000
H  39.07900 46.31200 24.39100
H  40.51000 47.23800 24.51000
H  39.19100 47.43800 25.75300
H  39.43500 44.94800 30.23000
H  42.56800 46.59300 32.78500
H  41.11000 46.39900 33.65100
H  41.51200 48.00600 33.01300

