158

Mg 25.77300 -7.33300 47.38800
C  28.08300 -4.94900 46.34300
C  23.47500 -6.03400 45.04300
C  23.82000 -10.16100 47.79800
C  28.27900 -8.78100 49.38900
N  25.85700 -5.74200 45.90700
C  26.91200 -4.88000 45.66100
C  26.51600 -3.75300 44.60700
C  24.99900 -4.10200 44.38700
C  24.69400 -5.33600 45.25500
C  24.02800 -2.89500 44.57000
C  27.35700 -3.90400 43.30400
C  27.86900 -2.51600 42.70700
H  27.66400 -2.23600 41.19700
N  23.90400 -8.00800 46.60600
C  23.13900 -7.30100 45.66200
C  21.98400 -8.06400 45.33600
C  22.02100 -9.31500 46.06600
C  23.28400 -9.19900 46.92400
C  20.99200 -7.68000 44.24000
C  21.01900 -10.41300 45.94700
O  20.15600 -10.41100 45.08300
C  21.10300 -11.48400 46.87400
N  26.03800 -9.16000 48.46400
C  25.01900 -10.09400 48.55100
C  25.49100 -11.28900 49.56800
C  26.65400 -10.50900 50.31200
C  27.11100 -9.47900 49.29900
C  24.35400 -11.79600 50.51100
C  27.74600 -11.55900 50.61300
C  28.55600 -12.20000 49.56600
N  27.84600 -6.97200 47.78700
C  28.74300 -7.62000 48.63200
C  30.01100 -6.84800 48.59800
C  29.78900 -5.72400 47.74400
C  28.42900 -5.92500 47.26200
C  31.24300 -7.10700 49.39500
C  30.31600 -4.52900 47.16300
O  31.36600 -3.94800 47.23500
C  29.27000 -4.03200 46.18300
C  28.84700 -2.70400 46.58900
O  28.18000 -2.38200 47.54100
O  29.51200 -1.84300 45.84700
C  29.06000 -0.46100 45.69500
H  22.83300 -5.52100 44.32500
H  23.28500 -11.10500 47.92100
H  28.97000 -9.18600 50.13100
H  26.68000 -2.74700 44.99400
H  24.75900 -4.44300 43.38000
H  24.57900 -1.95600 44.51200
H  23.61100 -3.00800 45.57100
H  23.25300 -2.89100 43.80400
H  26.74800 -4.44500 42.58000
H  28.23400 -4.54800 43.37700
H  28.92900 -2.57300 42.95500
H  27.53400 -1.69200 43.33700
H  21.30300 -7.95800 43.23400
H  20.94800 -6.59200 44.29000
H  19.97500 -8.03800 44.40000
H  21.25900 -11.18900 47.91100
H  21.85400 -12.16700 46.47700
H  20.17100 -12.04300 46.78700
H  25.88900 -12.04200 48.88700
H  26.25700 -9.93600 51.15100
H  24.38900 -11.34300 51.50200
H  24.34500 -12.88300 50.58500
H  23.37000 -11.57100 50.09900
H  27.39000 -12.37100 51.24800
H  28.33400 -11.00000 51.34100
H  28.49200 -11.60500 48.65500
H  28.36600 -13.24200 49.30900
H  29.58100 -12.25800 49.93400
H  31.72800 -6.14300 49.55100
H  31.84900 -7.71600 48.72400
H  31.06900 -7.46300 50.41000
H  29.63600 -3.98300 45.15800
H  27.98200 -0.42600 45.85700
H  29.37000 -0.06600 44.72700
H  29.57300 0.12500 46.45800
Mg 41.58200 41.82900 27.79400
C  40.68400 44.33700 30.18000
C  42.45400 39.79900 30.44400
C  42.80600 39.67700 25.61300
C  41.40200 44.23400 25.33600
N  41.62200 42.04200 30.07200
C  41.06700 43.12200 30.77500
C  40.92700 42.65800 32.25600
C  41.62900 41.25400 32.35500
C  41.97300 41.02000 30.85900
C  42.87100 41.08800 33.21200
C  39.36300 42.65000 32.79700
C  38.89400 43.78000 33.75000
H  38.45100 43.42100 35.19800
N  42.53500 39.91300 27.98700
C  42.76600 39.30800 29.16700
C  43.12300 37.92300 28.83100
C  43.10000 37.80200 27.40100
C  42.77000 39.13700 26.94900
C  43.52500 36.85100 29.87100
C  43.31000 36.65300 26.60600
O  43.33100 36.67800 25.37600
C  43.49000 35.33700 27.16700
N  42.04300 41.89400 25.87000
C  42.58600 40.93100 25.15300
C  42.67900 41.22200 23.65800
C  42.04300 42.59600 23.50500
C  41.83700 42.95100 25.01500
C  44.08500 41.08000 23.10000
C  40.67700 42.62200 22.71700
C  39.54000 41.83100 23.34100
N  41.04500 43.82100 27.72600
C  41.00700 44.65300 26.61300
C  40.51300 45.96800 27.02500
C  40.32400 45.83400 28.42600
C  40.67000 44.58100 28.82100
C  40.19700 47.14300 26.13800
C  39.86800 46.54300 29.63700
O  39.49700 47.66600 29.83000
C  40.16100 45.57000 30.78200
C  40.99700 46.25400 31.82300
O  42.12500 45.95800 32.28000
O  40.13600 47.16400 32.48400
C  40.52400 47.85700 33.71000
H  42.74400 39.06200 31.19500
H  43.27200 39.05300 24.84800
H  41.15200 44.92200 24.52600
H  41.51600 43.30700 32.90400
H  40.96500 40.41000 32.54100
H  42.55500 40.43700 34.02700
H  43.00600 42.05200 33.70100
H  43.75700 40.75100 32.67500
H  39.04600 41.66600 33.14100
H  38.87700 42.71200 31.82300
H  38.03800 44.28400 33.29900
H  39.69900 44.51100 33.82800
H  43.20200 37.03400 30.89500
H  44.59300 36.63400 29.85000
H  42.96100 35.99700 29.49800
H  42.48800 35.14700 27.55300
H  44.34100 35.34500 27.84900
H  43.69000 34.60900 26.38100
H  41.96500 40.53100 23.21100
H  42.74300 43.29000 23.04000
H  43.95500 40.13700 22.56900
H  44.79900 40.83500 23.88600
H  44.50000 41.80400 22.40000
H  40.82300 42.12700 21.75700
H  40.35000 43.63000 22.46400
H  38.67200 42.48400 23.43100
H  39.82100 41.47500 24.33200
H  39.36900 40.96600 22.69900
H  39.32500 47.67800 26.51200
H  39.99700 46.76900 25.13400
H  41.01400 47.86300 26.07500
H  39.24700 45.30400 31.31400
H  39.75800 48.54300 34.06900
H  41.27700 48.56500 33.36400
H  40.67200 47.24600 34.60000

