158

Mg 30.57000 57.23100 40.18900
C  27.78700 55.13200 38.97600
C  32.58900 54.76700 39.27700
C  32.98000 59.46000 40.03500
C  28.21400 59.69900 40.81300
N  30.16600 55.22900 39.19700
C  29.05300 54.52200 38.78500
C  29.50200 53.14800 38.31800
C  30.89800 52.87900 38.95900
C  31.28600 54.37100 39.17600
C  30.91200 52.06400 40.32100
C  29.43800 53.02600 36.76300
C  28.12200 52.23800 36.20700
H  27.28700 53.03600 35.16400
N  32.60800 57.13400 39.85300
C  33.23200 55.99600 39.46100
C  34.62500 56.33300 39.21300
C  34.80800 57.67000 39.56000
C  33.47300 58.15800 39.92000
C  35.69400 55.34400 38.74900
C  36.11100 58.43200 39.60400
O  37.15700 57.88700 39.37200
C  36.17500 59.79900 39.97500
N  30.52500 59.35400 40.21900
C  31.71100 60.00700 40.18500
C  31.50600 61.43400 40.63500
C  30.05700 61.45900 41.20400
C  29.54000 60.09800 40.72700
C  32.51400 62.00900 41.64300
C  29.15700 62.66600 40.71800
C  28.31900 63.47700 41.80200
N  28.36900 57.44000 39.99200
C  27.55600 58.52100 40.31400
C  26.15400 58.24300 39.96200
C  26.24800 56.88800 39.50800
C  27.60200 56.49800 39.48300
C  24.99300 59.07700 40.08600
C  25.42400 55.72900 39.07800
O  24.24800 55.54800 39.00600
C  26.40200 54.59800 38.85100
C  26.15200 53.53400 39.81300
O  26.19800 53.57400 40.99500
O  25.82700 52.42900 39.00600
C  25.47400 51.32000 39.87500
H  33.30900 53.95700 39.14300
H  33.77400 60.20300 39.93000
H  27.54200 60.53800 41.00500
H  28.74100 52.44100 38.64700
H  31.68500 52.42300 38.35800
H  30.90500 52.80500 41.12100
H  31.87200 51.55800 40.41700
H  30.10200 51.33500 40.31300
H  30.19800 52.28000 36.53100
H  29.55800 53.97800 36.24600
H  27.41900 52.04000 37.01600
H  28.44500 51.26500 35.83700
H  36.17600 55.74200 37.85600
H  35.32900 54.34100 38.52700
H  36.42800 55.16600 39.53500
H  35.67700 60.27800 39.13200
H  37.18200 60.18500 40.13400
H  35.58800 59.91500 40.88600
H  31.64400 62.10300 39.78500
H  30.13600 61.44300 42.29100
H  33.24900 61.27600 41.97500
H  32.05900 62.67300 42.37700
H  33.12600 62.69100 41.05200
H  28.46800 62.20600 40.01000
H  29.70700 63.25900 39.98700
H  27.30600 63.73300 41.49000
H  28.84200 64.40200 42.04400
H  28.22100 62.85100 42.68900
H  24.37800 59.05900 39.18700
H  25.24400 60.10500 40.35000
H  24.26900 58.65900 40.78500
H  26.32600 54.22500 37.82900
H  26.40900 50.84300 40.16800
H  24.94600 50.60900 39.23900
H  24.85700 51.62600 40.72000
Mg -12.20800 16.22100 42.20000
C  -9.01500 14.93800 41.29200
C  -11.29400 19.13600 40.77800
C  -15.46200 17.19000 42.41000
C  -13.12400 12.92000 42.83100
N  -10.43400 16.82500 40.99100
C  -9.20500 16.20200 40.76100
C  -8.16400 17.10300 40.14000
C  -8.86000 18.49000 40.09600
C  -10.31200 18.13200 40.57600
C  -8.18000 19.57900 41.00700
C  -7.64200 16.49800 38.81200
C  -6.13300 16.56300 38.62900
H  -5.54300 17.44500 37.43900
N  -13.27100 17.90200 41.72300
C  -12.67100 18.98900 41.26900
C  -13.63800 20.07200 41.13100
C  -14.88500 19.50700 41.49400
C  -14.60500 18.16100 41.92800
C  -13.30700 21.42300 40.55600
C  -16.31000 20.16700 41.34400
O  -16.45700 21.36400 41.03700
C  -17.55600 19.38000 41.68200
N  -14.05600 15.25500 42.47200
C  -15.25100 15.81100 42.62800
C  -16.34900 14.85200 43.24800
C  -15.62600 13.44300 43.06400
C  -14.11100 13.90800 42.84000
C  -16.57800 15.16600 44.82400
C  -16.06300 12.78200 41.74300
C  -17.03300 11.59000 41.76200
N  -11.22100 14.34200 42.35600
C  -11.74500 13.09900 42.61000
C  -10.73000 12.06300 42.60900
C  -9.61500 12.78500 42.15700
C  -9.97000 14.13500 42.00100
C  -10.95200 10.61600 42.84200
C  -8.23500 12.65400 41.77100
O  -7.49700 11.69200 41.78900
C  -7.74100 14.05400 41.24500
C  -6.58900 14.55000 42.01400
O  -6.64200 15.03000 43.15300
O  -5.41400 14.47900 41.31800
C  -4.23400 14.99000 42.03900
H  -10.93300 20.04600 40.29300
H  -16.48300 17.44900 42.70000
H  -13.38700 11.89300 43.09400
H  -7.37000 17.06400 40.88600
H  -9.08900 18.90300 39.11400
H  -7.16700 19.36400 41.34700
H  -8.90600 19.64400 41.81800
H  -8.03900 20.45000 40.36700
H  -8.00500 17.07400 37.96100
H  -7.95800 15.45500 38.77300
H  -5.92400 15.56200 38.25200
H  -5.63900 16.76700 39.57800
H  -13.22200 21.33700 39.47300
H  -12.34300 21.86100 40.81400
H  -14.10800 22.11300 40.81900
H  -18.36900 20.09200 41.54200
H  -17.42600 19.24400 42.75600
H  -17.65700 18.42200 41.17100
H  -17.26000 14.94200 42.65800
H  -15.79500 12.88800 43.98700
H  -15.78200 15.73200 45.30700
H  -16.87500 14.25800 45.35100
H  -17.48100 15.77700 44.81600
H  -15.21100 12.41100 41.17300
H  -16.56400 13.54100 41.14300
H  -17.84800 11.81700 41.07500
H  -17.44700 11.45800 42.76200
H  -16.43900 10.75900 41.38100
H  -11.59600 10.46600 43.70900
H  -10.07700 9.99600 43.03800
H  -11.47500 10.21600 41.97400
H  -7.43700 13.86300 40.21600
H  -3.37500 14.71200 41.42800
H  -4.14800 14.47900 42.99800
H  -4.13600 16.07300 42.10300

