158

Mg 54.52400 24.10300 45.33900
C  52.21700 26.37100 43.96300
C  52.94800 21.68400 43.32300
C  57.24500 22.23600 45.52300
C  56.20200 26.87600 46.67100
N  52.87800 24.10300 43.62800
C  52.03300 25.10000 43.34200
C  50.86000 24.62100 42.43400
C  50.93200 23.10400 42.64100
C  52.36500 22.93800 43.29900
C  49.84900 22.52100 43.61400
C  51.24100 25.04300 40.95700
C  50.12300 24.83600 39.95400
H  50.35000 25.21300 38.47600
N  54.99900 22.13600 44.61100
C  54.17200 21.28700 43.93200
C  54.82900 19.99200 43.75600
C  56.12600 20.12500 44.39500
C  56.14600 21.54600 44.92300
C  54.18800 18.88000 42.97300
C  57.19700 19.09800 44.48500
O  57.06800 18.07700 43.78500
C  58.38000 19.14400 45.29200
N  56.52900 24.52500 45.82400
C  57.45400 23.56000 45.91100
C  58.79800 24.17400 46.40900
C  58.39200 25.63000 46.81700
C  56.93400 25.76300 46.44500
C  59.33700 23.34600 47.60400
C  59.29900 26.84600 46.40500
C  60.70200 26.61600 45.91600
N  54.20500 26.17600 45.50200
C  54.94900 27.16200 46.16100
C  54.17500 28.33800 46.29600
C  53.11600 28.04900 45.41600
C  53.18700 26.76600 44.90200
C  54.63500 29.52700 47.00500
C  51.95800 28.60700 44.95300
O  51.37600 29.64400 45.30000
C  51.28100 27.54900 43.93200
C  50.83400 28.13300 42.70300
O  51.60400 28.62200 41.84500
O  49.49600 27.93100 42.56600
C  48.89200 28.42800 41.32400
H  52.35900 20.85500 42.92400
H  58.07900 21.53100 45.53400
H  56.61400 27.62800 47.34700
H  49.88700 25.06200 42.65400
H  50.86300 22.54400 41.70800
H  50.36900 21.93700 44.37400
H  49.15400 21.96600 42.98400
H  49.25600 23.27900 44.12700
H  52.16000 24.51900 40.69400
H  51.50600 26.10000 40.94400
H  49.21600 25.32500 40.30900
H  49.93800 23.76200 39.93700
H  54.49800 18.92100 41.92800
H  53.13500 19.12900 43.10900
H  54.36600 17.91700 43.45100
H  58.85100 18.16300 45.36300
H  58.00700 19.41400 46.28000
H  59.00500 19.92600 44.86100
H  59.51400 24.13500 45.58800
H  58.36100 25.64000 47.90700
H  59.70300 23.97700 48.41400
H  60.16600 22.73100 47.25400
H  58.51600 22.74300 47.99100
H  59.30200 27.66100 47.12900
H  58.80100 27.25800 45.52700
H  61.25500 27.36000 46.48900
H  60.81500 26.80300 44.84800
H  61.05800 25.62100 46.18300
H  55.17100 30.26600 46.40900
H  55.20400 29.27700 47.90000
H  53.76400 30.08200 47.35200
H  50.38400 27.19400 44.44100
H  48.79600 29.51200 41.37600
H  47.90800 27.96900 41.22800
H  49.59900 28.16400 40.53700
Mg 43.16600 42.01200 26.05900
C  42.40500 44.30200 28.58300
C  43.85600 39.67700 28.37500
C  44.14000 39.93200 23.55900
C  42.88900 44.55100 23.69900
N  43.32200 42.09400 28.25900
C  42.68900 43.07000 29.04300
C  42.59000 42.65400 30.49700
C  43.20200 41.15000 30.45300
C  43.47100 40.92700 28.91600
C  44.54300 41.08300 31.28800
C  41.16900 42.61000 31.11500
C  41.20100 42.12200 32.51700
H  41.10700 43.24500 33.61500
N  43.82900 40.05500 25.98700
C  44.12500 39.28900 27.07400
C  44.53300 37.96900 26.65100
C  44.46700 37.98400 25.20500
C  44.17100 39.38500 24.85300
C  44.98800 36.77100 27.57300
C  44.57700 36.85500 24.29900
O  44.49300 37.08900 23.08100
C  44.77700 35.43400 24.74600
N  43.61200 42.19600 23.96400
C  43.89400 41.22200 23.13200
C  44.14700 41.67300 21.72500
C  43.49200 43.03300 21.72000
C  43.37800 43.29900 23.20400
C  45.64500 41.85300 21.30100
C  42.12300 43.08800 21.01200
C  40.87600 42.29000 21.61800
N  42.72100 43.99300 26.09900
C  42.61800 44.88400 25.04500
C  42.12100 46.15600 25.57400
C  41.95400 45.93400 26.96400
C  42.46500 44.64000 27.20100
C  41.92000 47.45300 24.96100
C  41.51500 46.56200 28.16200
O  41.06500 47.70800 28.33100
C  41.90000 45.61700 29.34500
C  42.95500 46.19000 30.13700
O  44.13600 46.11500 29.92100
O  42.34600 46.75500 31.26600
C  43.17900 47.29400 32.31100
H  43.89400 38.99500 29.22700
H  44.61400 39.38800 22.74000
H  42.54100 45.38700 23.08800
H  43.17400 43.29600 31.15600
H  42.45300 40.44100 30.80500
H  45.21900 41.86200 30.93400
H  44.96600 40.07900 31.24500
H  44.41000 41.29400 32.34900
H  40.51800 41.99400 30.49500
H  40.75300 43.61500 31.03800
H  42.12400 41.66300 32.87100
H  40.45100 41.34700 32.67000
H  44.28300 35.94200 27.50300
H  44.99100 37.20100 28.57400
H  46.03900 36.48500 27.52400
H  45.03000 34.81900 23.88200
H  43.82200 35.15300 25.19100
H  45.66400 35.37800 25.37700
H  43.56700 40.97500 21.12100
H  44.12100 43.83500 21.33300
H  45.71400 41.50500 20.27000
H  46.21000 41.25700 22.01800
H  46.02300 42.86900 21.41900
H  42.29300 42.59200 20.05700
H  41.73400 44.10700 21.01500
H  41.20200 41.54000 22.33900
H  40.38600 41.74800 20.81000
H  40.17000 42.90100 22.18100
H  41.03600 47.32900 24.33500
H  42.72200 47.47800 24.22300
H  42.09200 48.39100 25.48800
H  40.98200 45.46200 29.91200
H  44.24400 47.37200 32.09400
H  43.21600 46.56100 33.11700
H  42.70200 48.15600 32.77700

