158

Mg 49.68300 35.38700 26.68100
C  47.61000 34.16400 29.28400
C  50.06400 38.24600 28.60700
C  51.21700 36.85600 24.06900
C  48.92900 32.56900 24.80100
N  48.92200 36.11000 28.68300
C  48.22000 35.37400 29.57700
C  48.26200 35.99000 30.88200
C  48.67800 37.44600 30.60000
C  49.24000 37.32800 29.15300
C  47.50100 38.49500 30.77900
C  49.28400 35.30500 31.79600
C  49.14600 35.42100 33.29600
H  47.95500 36.19500 33.89800
N  50.53900 37.30300 26.38400
C  50.65400 38.28200 27.30200
C  51.38700 39.37200 26.75100
C  51.88600 38.90100 25.45800
C  51.19800 37.59400 25.25400
C  51.77700 40.48200 27.56500
C  52.76700 39.54600 24.42700
O  53.15100 38.94600 23.41500
C  53.30900 40.98600 24.62700
N  49.85700 34.85900 24.63300
C  50.72600 35.58900 23.78900
C  51.00700 34.73800 22.51400
C  50.42500 33.31300 22.92700
C  49.65200 33.62400 24.17800
C  50.31500 35.39500 21.21400
C  51.45100 32.07700 22.92400
C  50.96700 30.76500 22.19700
N  48.58400 33.70000 27.00300
C  48.32000 32.60000 26.12900
C  47.55500 31.59200 26.73700
C  47.21800 32.14000 27.95900
C  47.84600 33.40900 28.05400
C  47.08900 30.27400 26.17800
C  46.44700 31.86400 29.19200
O  45.80200 30.86200 29.56800
C  46.57800 33.24800 30.01900
C  47.06100 32.82800 31.38200
O  48.08300 32.26300 31.57500
O  46.09300 32.86000 32.36100
C  46.41600 32.23400 33.66600
H  50.22800 39.04700 29.33100
H  51.61000 37.35200 23.17900
H  48.80900 31.67100 24.19200
H  47.24600 35.89400 31.26700
H  49.54400 37.68300 31.21800
H  47.23000 38.86200 29.78900
H  47.74000 39.37400 31.37700
H  46.66500 37.99600 31.26900
H  50.27400 35.69500 31.55900
H  49.33300 34.25100 31.52500
H  50.05600 35.93300 33.60900
H  49.08600 34.43100 33.74600
H  51.62900 40.38400 28.64000
H  51.24100 41.36000 27.20500
H  52.85100 40.56600 27.39400
H  52.59400 41.61500 25.15700
H  53.49700 41.26300 23.58900
H  54.27100 40.99000 25.14000
H  52.07000 34.61500 22.30600
H  49.74900 33.06600 22.10800
H  49.72000 36.24400 21.54900
H  49.68200 34.67300 20.69800
H  51.04600 35.88600 20.57200
H  51.59500 31.81200 23.97100
H  52.36200 32.49000 22.49200
H  49.93100 30.85700 21.87100
H  51.04600 29.92200 22.88300
H  51.55800 30.52400 21.31300
H  47.69600 29.38300 26.33400
H  46.78100 30.46400 25.15000
H  46.18400 30.00300 26.72300
H  45.65100 33.80600 30.15000
H  45.82600 32.57400 34.51700
H  47.46600 32.26800 33.95500
H  46.28600 31.17000 33.46900
Mg 36.79600 49.66500 25.67300
C  37.21200 47.48200 28.37700
C  35.41000 51.97700 27.87300
C  35.78700 51.52400 23.13800
C  38.07100 47.35900 23.52100
N  36.26900 49.58500 27.88000
C  36.67000 48.66300 28.81000
C  36.32300 49.14900 30.23400
C  35.65100 50.53800 30.00300
C  35.63300 50.71900 28.45600
C  34.18600 50.64700 30.61300
C  37.61800 49.23100 31.08300
C  37.57200 48.68700 32.51000
H  36.29200 49.13500 33.25700
N  35.79200 51.55000 25.50200
C  35.48900 52.38500 26.52000
C  35.15000 53.80100 25.97800
C  35.33700 53.64900 24.55800
C  35.63100 52.20600 24.32800
C  34.68400 54.92400 26.87400
C  35.13200 54.65600 23.49500
O  35.21600 54.47700 22.30400
C  34.78900 56.04800 23.81700
N  36.90400 49.43200 23.64800
C  36.21400 50.24000 22.79200
C  36.33200 49.77000 21.37500
C  37.39600 48.65400 21.42200
C  37.49800 48.47500 22.92500
C  34.97900 49.44700 20.61900
C  38.72100 48.94400 20.80700
C  39.55500 47.77100 20.07500
N  37.53100 47.81000 25.82500
C  38.01600 46.99600 24.85800
C  38.53200 45.82200 25.46100
C  38.25900 45.97000 26.82200
C  37.52900 47.15100 27.03100
C  39.14400 44.59400 24.82800
C  38.39200 45.32700 28.08600
O  38.96800 44.33100 28.53900
C  37.73200 46.31800 29.14500
C  36.65700 45.64900 29.90900
O  35.49300 45.51300 29.59400
O  37.19300 45.37300 31.13900
C  36.31100 45.07100 32.24100
H  34.98500 52.80000 28.45100
H  35.42300 52.13100 22.30600
H  38.51500 46.63200 22.83700
H  35.50700 48.53000 30.60700
H  36.28800 51.29200 30.46600
H  33.55500 50.18300 29.85500
H  33.97900 51.71400 30.70000
H  34.04900 50.20000 31.59700
H  38.06300 50.22400 31.02700
H  38.33400 48.68500 30.46800
H  38.43700 49.18900 32.94300
H  37.74500 47.61300 32.57500
H  35.46300 55.64400 27.12300
H  34.40800 54.61900 27.88400
H  33.90200 55.49900 26.37800
H  33.71200 56.18800 23.91200
H  35.06900 56.71000 22.99700
H  35.25500 56.42800 24.72600
H  36.80900 50.61400 20.87700
H  36.93100 47.78200 20.96200
H  34.90400 50.10900 19.75600
H  34.12500 49.66900 21.25900
H  34.93500 48.42700 20.23600
H  39.40800 49.23100 21.60300
H  38.69800 49.68700 20.00900
H  40.06500 47.13600 20.79800
H  40.38200 48.13900 19.46700
H  38.83600 47.14800 19.54200
H  38.53900 44.47500 23.92900
H  39.25900 43.74100 25.49700
H  40.14000 44.83400 24.45500
H  38.63200 46.61700 29.68300
H  35.46000 44.50600 31.85700
H  35.79600 45.94900 32.62900
H  36.80200 44.52500 33.04700

