158

Mg 0.03600 7.14700 25.74000
C  0.86100 9.14800 28.56900
C  0.24400 4.44100 27.95900
C  -0.38000 5.08600 23.10600
C  0.46200 9.84200 23.72200
N  0.39000 6.92700 28.13000
C  0.66400 7.88000 29.00000
C  0.68500 7.36600 30.45600
C  0.92000 5.81900 30.18100
C  0.49000 5.66900 28.67600
C  2.41500 5.32500 30.43600
C  -0.56800 7.73700 31.31000
C  -0.31500 7.67400 32.89900
H  0.72700 6.69500 33.39500
N  -0.16100 5.14300 25.58100
C  -0.07200 4.18800 26.60500
C  -0.34900 2.85600 26.03700
C  -0.43300 2.98100 24.60300
C  -0.31700 4.44700 24.38200
C  -0.51200 1.76000 27.01600
C  -0.52500 1.86800 23.50000
O  -0.39800 2.20100 22.28000
C  -0.57300 0.36800 23.92200
N  0.03200 7.46500 23.66000
C  -0.14100 6.43000 22.76700
C  -0.24900 6.98300 21.35500
C  0.13100 8.47500 21.52800
C  0.20400 8.61100 23.05000
C  0.51800 6.21600 20.24200
C  -0.80400 9.45800 20.87700
C  -0.15200 10.56000 19.94600
N  0.55900 9.10300 26.05500
C  0.55000 10.05100 25.13400
C  0.72900 11.33600 25.80200
C  0.91900 11.04100 27.10900
C  0.76400 9.67100 27.26400
C  0.70500 12.65500 25.08400
C  1.24100 11.63700 28.40400
O  1.70800 12.77100 28.61200
C  1.07700 10.43100 29.40000
C  2.28700 10.40900 30.24900
O  3.43900 10.19200 29.85700
O  2.02200 10.72700 31.57800
C  3.17400 10.81400 32.44000
H  0.45600 3.59100 28.61200
H  -0.43700 4.48100 22.19800
H  0.58400 10.77400 23.16500
H  1.60100 7.81900 30.83600
H  0.29100 5.19000 30.81000
H  2.89700 6.06500 31.07400
H  2.83600 5.34500 29.43000
H  2.47500 4.33100 30.88000
H  -1.47500 7.19300 31.04800
H  -0.63900 8.81500 31.16700
H  -1.25700 7.34800 33.33900
H  -0.23300 8.69100 33.28400
H  -0.73300 2.05700 28.04100
H  0.41900 1.20600 26.90200
H  -1.32100 1.15700 26.60300
H  0.13000 0.22700 24.74400
H  -0.22500 -0.31400 23.14600
H  -1.58300 0.05500 24.18500
H  -1.29900 6.91000 21.07300
H  1.13100 8.59100 21.11000
H  0.03300 6.20600 19.26600
H  0.56600 5.17700 20.56800
H  1.58000 6.43000 20.12500
H  -1.45700 9.92300 21.61400
H  -1.44400 8.82700 20.26000
H  -0.53100 10.41900 18.93400
H  0.93300 10.45600 19.96000
H  -0.37200 11.59100 20.22100
H  1.70200 12.95200 24.76000
H  0.53800 13.45500 25.80600
H  -0.13300 12.72900 24.39000
H  0.17300 10.57000 29.99400
H  4.04900 11.26900 31.97600
H  3.25500 9.82900 32.90000
H  3.03400 11.62600 33.15300
Mg 8.69400 3.68200 27.24100
C  10.12300 1.98900 29.85100
C  6.94400 5.61800 29.42100
C  7.15300 5.08900 24.63200
C  9.77800 1.15700 25.02200
N  8.52100 3.72000 29.45300
C  9.40700 3.05800 30.30500
C  9.22400 3.58500 31.63300
C  8.05600 4.70800 31.57200
C  7.81500 4.72300 30.05500
C  6.79100 4.29500 32.40500
C  10.56100 4.13200 32.21600
C  11.08500 3.63100 33.56500
H  10.97800 4.69300 34.74300
N  7.36900 5.30000 27.01900
C  6.66700 5.96200 28.06600
C  5.82000 6.96300 27.59400
C  5.95100 6.88500 26.16200
C  6.87700 5.74800 25.85600
C  4.97100 7.85500 28.42800
C  5.37400 7.86400 25.02600
O  5.75600 7.76100 23.85800
C  4.42500 8.98000 25.36900
N  8.41700 3.17300 25.17300
C  7.86900 4.02100 24.32400
C  8.02700 3.47600 22.78000
C  9.07900 2.32900 22.94800
C  9.04900 2.19200 24.44700
C  6.71600 3.03600 22.05200
C  10.48700 2.56000 22.38200
C  11.22200 1.36700 21.83800
N  9.70500 1.87300 27.33100
C  10.17700 0.95400 26.36900
C  11.00500 -0.02200 27.00700
C  11.05100 0.40100 28.40600
C  10.19700 1.51500 28.52500
C  11.80100 -1.11200 26.39900
C  11.62500 0.15300 29.65200
O  12.33600 -0.76400 30.07000
C  10.99700 1.09000 30.64300
C  10.37800 0.24200 31.75400
O  9.50700 -0.58200 31.68800
O  11.03300 0.50100 32.89100
C  10.53300 -0.05500 34.16300
H  6.41200 6.35400 30.02700
H  6.62300 5.50100 23.77100
H  10.10500 0.32400 24.39700
H  8.99500 2.71900 32.25400
H  8.28100 5.72900 31.88000
H  6.02100 3.98900 31.69800
H  6.48500 5.14100 33.02100
H  7.05000 3.42000 33.00100
H  10.39700 5.20900 32.22000
H  11.36500 3.95100 31.50200
H  12.16500 3.54600 33.44200
H  10.61000 2.72200 33.93300
H  5.00000 7.67000 29.50200
H  3.93100 7.76300 28.11400
H  5.37100 8.86400 28.33200
H  3.49000 8.59200 25.77300
H  4.13800 9.53400 24.47600
H  4.99200 9.66700 25.99900
H  8.59700 4.22300 22.22600
H  8.74300 1.39800 22.49100
H  5.87000 3.41300 22.62700
H  6.65300 1.94900 21.99500
H  6.69300 3.42700 21.03500
H  11.17600 2.82400 23.18500
H  10.45500 3.31100 21.59300
H  12.23900 1.34900 22.22800
H  11.34900 1.34300 20.75600
H  10.74700 0.42200 22.10400
H  11.40800 -1.46500 25.44600
H  11.90900 -1.96200 27.07300
H  12.81400 -0.71000 26.37000
H  11.75600 1.67100 31.16700
H  9.62400 0.41200 34.54200
H  11.25700 0.15000 34.95200
H  10.37100 -1.13300 34.13700

