158

Mg 49.29000 35.56200 28.86200
C  46.78200 34.12500 31.04500
C  49.71500 37.96600 31.09000
C  51.30700 36.86100 26.56800
C  48.07700 33.27200 26.34700
N  48.55200 35.84700 30.97700
C  47.56200 35.12000 31.64700
C  47.20700 35.89900 32.91600
C  47.89100 37.26900 32.75600
C  48.79400 37.01200 31.55100
C  46.92300 38.41800 32.55700
C  47.69700 35.14000 34.16900
C  49.27900 34.96700 34.27100
H  49.90300 34.79300 35.70900
N  50.39300 37.17000 28.86900
C  50.50400 38.05000 29.88400
C  51.57800 38.98700 29.58400
C  52.09000 38.65800 28.24500
C  51.26300 37.55600 27.83800
C  51.94200 40.02900 30.54500
C  53.12300 39.34500 27.41200
O  53.49300 38.91000 26.35400
C  53.75100 40.68100 27.74100
N  49.51700 35.22700 26.70000
C  50.42800 35.89600 26.00500
C  50.61800 35.25800 24.59600
C  49.70300 34.02000 24.61700
C  49.03400 34.18400 25.96000
C  50.27400 36.26000 23.45700
C  50.49300 32.72200 24.35600
C  50.07000 32.09300 23.05000
N  47.81200 33.93900 28.70400
C  47.46700 33.13400 27.64800
C  46.50800 32.09000 28.14100
C  46.13800 32.50800 29.43500
C  47.01200 33.62000 29.74800
C  45.91500 30.99600 27.38500
C  45.19500 32.27700 30.51100
O  44.30800 31.48400 30.75200
C  45.61700 33.42400 31.61200
C  45.89500 32.56900 32.84500
O  46.62400 31.55000 32.87200
O  45.01000 33.02500 33.87900
C  45.08900 32.25800 35.11200
H  49.82600 38.85500 31.71500
H  52.05200 37.21800 25.85400
H  47.76500 32.42000 25.73900
H  46.13000 36.06500 32.87500
H  48.56400 37.60200 33.54600
H  45.92800 38.11400 32.88300
H  46.85400 38.89800 31.58100
H  47.20500 39.23900 33.21600
H  47.33300 34.11300 34.18900
H  47.20000 35.72900 34.94100
H  49.90200 35.55600 33.59800
H  49.34200 33.98700 33.79700
H  51.05400 40.66100 30.50300
H  52.72600 40.68300 30.16400
H  52.25400 39.70100 31.53600
H  52.98200 41.38300 28.06500
H  54.03200 41.02800 26.74700
H  54.55600 40.58100 28.46900
H  51.66300 34.97200 24.47500
H  48.82700 34.06600 23.97000
H  49.71200 37.12600 23.80600
H  49.69100 35.73100 22.70300
H  51.20800 36.64700 23.05100
H  50.23700 31.93600 25.06600
H  51.57600 32.80800 24.44400
H  49.53900 32.77900 22.38900
H  49.53400 31.15900 23.21800
H  50.93200 31.75600 22.47600
H  46.60500 30.65100 26.61500
H  45.04300 31.40000 26.86900
H  45.63000 30.12900 27.98000
H  44.75700 34.06600 31.80400
H  45.97300 32.53500 35.68600
H  45.05200 31.19000 34.89200
H  44.23700 32.58100 35.70900
Mg 1.88800 41.99400 26.08400
C  3.59800 42.49000 28.96900
C  -0.86000 41.13800 27.87100
C  0.43000 40.89400 23.32300
C  4.81500 42.76900 24.25300
N  1.48900 41.79100 28.21300
C  2.25000 42.17800 29.22800
C  1.56900 42.10000 30.58100
C  0.11300 41.47300 30.10800
C  0.21100 41.46900 28.62800
C  -0.28900 40.09000 30.87900
C  1.52100 43.48000 31.41000
C  1.97600 43.41900 32.86800
H  1.75900 42.15300 33.69600
N  -0.03000 41.26400 25.65100
C  -1.03700 41.08200 26.50400
C  -2.25400 40.63800 25.83800
C  -1.89500 40.59200 24.41000
C  -0.45500 40.91800 24.43900
C  -3.58100 40.32400 26.56000
C  -2.78200 40.28300 23.20200
O  -2.46300 40.31200 22.02600
C  -4.29000 40.13700 23.58700
N  2.55300 41.76000 24.16200
C  1.78500 41.20200 23.19600
C  2.50200 40.92400 21.92100
C  3.78900 41.78600 22.07500
C  3.71900 42.19900 23.57400
C  2.58000 39.45600 21.45900
C  3.75000 43.15600 21.32600
C  5.24000 43.75700 20.95000
N  3.82100 42.55400 26.44400
C  4.87100 42.92200 25.64300
C  5.94900 43.35700 26.42900
C  5.54000 43.10000 27.74600
C  4.19100 42.69400 27.74000
C  7.29500 43.73100 25.96000
C  6.05000 42.92000 29.07000
O  7.21900 42.88100 29.52500
C  4.70800 42.65600 29.97500
C  5.03500 41.40500 30.71500
O  4.97600 40.27300 30.22200
O  5.37300 41.64800 32.06400
C  5.70700 40.45800 32.88700
H  -1.77000 41.03100 28.46500
H  -0.10900 40.58700 22.42400
H  5.67200 43.07400 23.65000
H  2.19900 41.40400 31.13500
H  -0.54400 42.25100 30.49700
H  -0.69500 39.34400 30.19600
H  -1.13300 40.35500 31.51600
H  0.55600 39.77600 31.49200
H  0.54800 43.96200 31.50700
H  2.06300 44.20900 30.80900
H  1.53900 44.29200 33.35300
H  3.06100 43.52400 32.89600
H  -4.25600 41.11500 26.23300
H  -3.49300 40.25400 27.64500
H  -3.94800 39.31500 26.37300
H  -4.51900 39.07300 23.64600
H  -4.88500 40.49600 22.74700
H  -4.70000 40.70500 24.42200
H  1.93900 41.52500 21.20700
H  4.78300 41.34000 22.03100
H  3.59400 39.07600 21.58500
H  2.22400 39.44000 20.42900
H  2.09500 38.75200 22.13500
H  3.18800 43.79300 22.00900
H  3.13700 43.27400 20.43300
H  5.37100 43.75100 19.86800
H  6.08200 43.15700 21.29700
H  5.48700 44.71800 21.40000
H  7.21000 44.11300 24.94300
H  7.96800 42.87500 26.00100
H  7.71200 44.38800 26.72300
H  4.46900 43.53800 30.57000
H  5.69500 40.89500 33.88500
H  6.68000 39.98200 32.76400
H  5.03100 39.63000 32.67200

