158

Mg -0.17300 7.50900 26.07900
C  0.75300 9.69700 28.82600
C  0.38000 4.92500 28.05100
C  -0.51300 5.69100 23.36400
C  0.14800 10.48000 24.01500
N  0.35200 7.39600 28.27300
C  0.55500 8.33300 29.20200
C  0.56700 7.70300 30.58700
C  0.91600 6.21700 30.16200
C  0.42200 6.13300 28.77600
C  2.36200 5.69500 30.26100
C  -0.75800 8.00000 31.32600
C  -0.70500 8.28400 32.80600
H  0.65800 7.90800 33.50700
N  -0.31900 5.53400 25.75200
C  0.03900 4.63900 26.72100
C  -0.24400 3.37100 26.15300
C  -0.62200 3.51600 24.76300
C  -0.53000 4.94400 24.54400
C  -0.03800 2.07700 26.88400
C  -0.99400 2.49200 23.64500
O  -1.43700 2.76400 22.56300
C  -1.00200 1.03700 24.12500
N  -0.06400 8.06100 23.92100
C  -0.29700 7.02600 23.03100
C  -0.41200 7.58800 21.57200
C  -0.11100 9.12100 21.81100
C  -0.01800 9.27000 23.34200
C  0.57600 6.81900 20.66500
C  -1.20100 10.01900 21.22700
C  -2.54800 9.94600 21.92500
N  0.29300 9.65900 26.28600
C  0.44000 10.69700 25.38300
C  0.75400 11.98200 26.06400
C  0.89900 11.62100 27.42400
C  0.68500 10.16400 27.50200
C  0.74200 13.33400 25.45200
C  1.12600 12.13200 28.76500
O  1.36900 13.29500 29.11600
C  0.96700 10.90800 29.72800
C  2.14300 10.75100 30.55700
O  3.02700 9.88400 30.53600
O  2.09600 11.71300 31.52400
C  3.19300 11.64800 32.53400
H  0.39500 4.05200 28.70700
H  -0.71100 5.15900 22.43100
H  0.32100 11.35800 23.38900
H  1.42800 8.02900 31.17000
H  0.34600 5.75700 30.96900
H  2.62800 5.09900 31.13500
H  3.12400 6.47400 30.25200
H  2.59900 5.05100 29.41500
H  -1.40000 7.12900 31.19800
H  -1.15400 8.88200 30.82100
H  -1.33800 7.62800 33.40400
H  -0.87900 9.34700 32.97100
H  0.35500 2.22900 27.88900
H  0.72500 1.53200 26.32900
H  -1.00200 1.57800 26.99000
H  0.02300 0.87900 24.46000
H  -1.36300 0.42700 23.29700
H  -1.68700 0.87000 24.95600
H  -1.41000 7.51700 21.14000
H  0.86200 9.40700 21.41200
H  -0.01200 6.45900 19.82100
H  1.16300 6.10300 21.24000
H  1.31900 7.40800 20.12800
H  -1.11500 9.79900 20.16300
H  -0.87800 11.05400 21.34000
H  -3.30700 9.47200 21.30300
H  -2.84100 10.98000 22.10700
H  -2.58300 9.47200 22.90600
H  0.51400 14.07500 26.21700
H  -0.01900 13.37500 24.67300
H  1.74200 13.49800 25.05100
H  0.08200 10.93100 30.36300
H  2.89900 12.20100 33.42700
H  4.09600 12.07700 32.10000
H  3.27700 10.58100 32.73800
Mg 26.86000 50.43500 26.74600
C  24.76700 51.37900 29.32300
C  29.24100 49.80700 29.13700
C  29.01900 49.45700 24.23100
C  24.61800 51.38200 24.42500
N  26.96900 50.48900 28.94500
C  25.97800 50.96200 29.81300
C  26.42800 50.83600 31.27500
C  27.90000 50.59900 31.12200
C  28.07400 50.32100 29.62600
C  28.85100 51.79900 31.58000
C  25.60200 49.71000 32.10600
C  24.87400 50.24700 33.30900
H  24.78500 49.37900 34.54600
N  28.80800 49.66000 26.64300
C  29.64900 49.51900 27.76300
C  31.00000 49.04700 27.34700
C  30.90900 49.09600 25.90200
C  29.56000 49.37800 25.53700
C  31.97300 48.60100 28.34900
C  32.08000 48.95800 24.89600
O  32.01400 49.10300 23.67400
C  33.40600 48.74300 25.48400
N  26.82900 50.18200 24.62000
C  27.80300 49.83000 23.78700
C  27.26200 49.81200 22.31300
C  25.80100 50.37300 22.45000
C  25.72900 50.71700 23.93100
C  28.05900 50.50600 21.25600
C  24.65500 49.36300 21.96500
C  23.80300 49.80700 20.75900
N  25.09000 51.25300 26.82800
C  24.27000 51.61800 25.77400
C  23.14600 52.34100 26.38100
C  23.18700 52.18100 27.75000
C  24.43300 51.51300 27.93000
C  22.00400 53.01900 25.52300
C  22.52400 52.48200 29.04800
O  21.43900 53.05600 29.21500
C  23.58500 51.91200 30.13300
C  23.93800 53.13500 30.86000
O  24.65800 54.04600 30.45700
O  23.31800 53.03900 32.09600
C  23.76600 53.96700 33.16200
H  29.91100 49.59400 29.97300
H  29.66300 48.98600 23.48600
H  23.83900 51.58200 23.68700
H  26.23300 51.82000 31.70100
H  28.13900 49.79600 31.81900
H  29.28700 51.59800 32.55800
H  28.34600 52.75800 31.70200
H  29.67800 51.93000 30.88300
H  26.18800 48.88500 32.50900
H  24.87400 49.32300 31.39200
H  23.85800 50.44400 32.96500
H  25.32300 51.16900 33.67700
H  32.93300 49.11100 28.28300
H  32.21500 47.53800 28.34500
H  31.65600 48.82500 29.36800
H  33.84200 49.57000 26.04500
H  34.02600 48.45000 24.63700
H  33.30900 47.86300 26.12000
H  27.30300 48.75400 22.05200
H  25.62000 51.32100 21.94500
H  28.93900 50.92500 21.74500
H  27.50100 51.36800 20.89100
H  28.31200 49.83200 20.43700
H  24.10700 49.11900 22.87600
H  25.05700 48.42200 21.58900
H  24.04600 50.85300 20.57000
H  22.73700 49.80000 20.98500
H  24.06300 49.19700 19.89400
H  22.20200 52.79500 24.47500
H  22.06400 54.05300 25.86200
H  21.00700 52.66900 25.79200
H  23.05600 51.21500 30.78300
H  24.69700 53.69600 33.65900
H  23.03000 54.30100 33.89300
H  24.01300 54.97800 32.83800

