158

Mg 35.42900 49.18300 25.91400
C  35.95300 47.50800 28.93800
C  34.38000 51.86900 27.60000
C  34.93000 50.57800 22.94500
C  36.50900 46.24300 24.19300
N  35.16700 49.62900 28.11500
C  35.40600 48.80900 29.09500
C  35.14100 49.55200 30.43400
C  34.38500 50.83100 29.93700
C  34.69900 50.80600 28.49000
C  32.91000 50.73000 30.19000
C  36.45900 49.82600 31.26000
C  36.54200 49.15700 32.64100
H  36.31200 50.05500 33.86400
N  34.79600 51.02600 25.30900
C  34.53000 52.01400 26.14700
C  34.21900 53.23500 25.41000
C  34.25100 52.81300 24.04000
C  34.66200 51.39600 24.06500
C  33.87300 54.62400 26.08700
C  33.96200 53.65400 22.83900
O  34.10600 53.22300 21.70200
C  33.51700 55.11500 22.93800
N  35.80300 48.54800 23.92100
C  35.41000 49.26500 22.83800
C  35.49000 48.59200 21.46300
C  36.29300 47.32300 21.94600
C  36.29100 47.35600 23.47400
C  34.09100 48.25700 20.95100
C  37.73500 47.32800 21.43900
C  37.87400 47.02900 19.91800
N  35.98500 47.23900 26.42600
C  36.38700 46.16800 25.60600
C  36.66200 45.03500 26.39700
C  36.51800 45.47100 27.71200
C  36.12500 46.83700 27.66600
C  37.22800 43.60800 26.00700
C  36.63900 45.18500 29.14400
O  37.00700 44.12100 29.64200
C  36.44300 46.51600 29.95200
C  35.46300 46.13600 30.88300
O  34.32200 45.93200 30.56900
O  36.00500 45.96600 32.14300
C  35.00200 45.36500 33.03100
H  33.90600 52.73700 28.06300
H  34.68700 50.90700 21.93200
H  36.81000 45.33500 23.66600
H  34.50100 48.99400 31.11700
H  34.80900 51.74300 30.35700
H  32.53500 49.80500 30.62700
H  32.41500 50.87500 29.23000
H  32.62800 51.58400 30.80500
H  36.53000 50.90700 31.37300
H  37.32500 49.51500 30.67600
H  37.55200 48.75300 32.69900
H  35.80100 48.35800 32.60400
H  34.76800 55.15200 25.75800
H  33.79700 54.50500 27.16700
H  33.02600 55.04300 25.54300
H  34.27900 55.73900 23.40500
H  32.62200 55.10100 23.56100
H  33.15900 55.55100 22.00500
H  35.97200 49.23400 20.72500
H  35.75700 46.42000 21.65500
H  33.33500 48.52000 21.69000
H  33.85900 47.24900 20.60800
H  33.93500 48.99400 20.16300
H  38.33400 46.69200 22.09100
H  38.06300 48.35200 21.61600
H  38.25700 47.84800 19.30900
H  36.86300 46.87900 19.53700
H  38.38200 46.07500 19.78100
H  36.45200 42.98000 25.56900
H  37.64600 43.03700 26.83600
H  38.07700 43.58400 25.32400
H  37.34700 46.92300 30.40500
H  35.00900 44.27900 32.94600
H  33.98000 45.65900 32.79200
H  35.30800 45.59000 34.05300
Mg -10.91700 16.82700 40.90100
C  -7.43600 16.29500 40.47800
C  -10.30300 20.15200 39.98400
C  -14.22400 17.48800 40.73200
C  -11.38200 13.44600 40.81200
N  -9.08400 18.07700 40.27500
C  -7.74300 17.64900 40.35200
C  -6.74900 18.81400 40.13100
C  -7.72400 20.05800 40.45900
C  -9.12500 19.42400 40.20800
C  -7.48400 20.72300 41.86300
C  -6.21000 18.78200 38.71900
C  -4.67100 18.53500 38.45500
H  -4.32700 17.72200 37.20200
N  -12.13100 18.64900 40.52200
C  -11.70000 19.79300 40.03600
C  -12.76000 20.70600 39.69100
C  -13.91700 19.99900 40.09000
C  -13.45500 18.65300 40.44800
C  -12.54100 22.18000 39.22900
C  -15.31500 20.59100 40.10000
O  -15.46000 21.80200 39.85500
C  -16.57800 19.81000 40.40300
N  -12.57400 15.64700 40.81600
C  -13.82900 16.17300 40.84100
C  -14.82400 14.93000 40.98600
C  -13.88600 13.68400 40.62000
C  -12.52800 14.24400 40.79800
C  -15.50400 14.98700 42.37100
C  -14.11000 13.20900 39.14800
C  -14.18800 14.13000 37.98000
N  -9.68200 15.18800 40.85000
C  -10.01600 13.84700 40.84800
C  -8.84300 12.98500 40.69900
C  -7.83000 13.95900 40.55600
C  -8.40000 15.27700 40.64700
C  -8.90400 11.51200 40.75600
C  -6.42300 14.11700 40.39700
O  -5.59700 13.29300 40.02800
C  -6.10300 15.56400 40.43000
C  -5.18400 15.78500 41.57900
O  -4.27800 16.59900 41.52300
O  -5.45000 14.91600 42.65900
C  -4.37200 14.91200 43.74800
H  -10.12300 21.18200 39.66800
H  -15.30200 17.48900 40.55900
H  -11.60700 12.38700 40.67300
H  -5.91200 18.87700 40.82600
H  -7.55500 20.85300 39.73400
H  -6.86700 20.04500 42.45200
H  -8.46900 20.52900 42.28700
H  -7.08000 21.73500 41.89000
H  -6.59700 19.70800 38.29300
H  -6.71200 17.97100 38.19200
H  -4.21900 18.10100 39.34800
H  -4.24900 19.53700 38.37500
H  -11.71900 22.23300 38.51500
H  -12.21100 22.76500 40.08800
H  -13.50400 22.54100 38.86700
H  -16.71700 19.16400 39.53600
H  -17.42200 20.49700 40.46800
H  -16.41100 19.28000 41.34100
H  -15.63600 14.92700 40.25900
H  -14.08200 12.76800 41.17800
H  -16.57100 15.19200 42.27400
H  -15.00800 15.87400 42.76500
H  -15.22300 14.15200 43.01300
H  -14.86900 12.42600 39.14600
H  -13.21600 12.62400 38.92900
H  -13.26600 14.23800 37.40900
H  -14.49700 15.14500 38.22900
H  -15.02400 13.73600 37.40100
H  -8.02500 10.91600 40.51100
H  -9.72400 11.09600 40.17000
H  -8.99600 11.23300 41.80600
H  -5.46300 15.78700 39.57600
H  -4.83300 14.87000 44.73500
H  -3.84900 15.86600 43.82100
H  -3.73500 14.04200 43.58900

