158

Mg 45.05500 4.10700 46.18700
C  43.15300 7.02800 46.12800
C  42.11900 2.27200 45.65600
C  46.95400 1.38600 45.71900
C  47.86800 6.11100 46.25900
N  42.86600 4.57500 46.04200
C  42.37400 5.81600 46.03100
C  40.81300 5.75500 45.76500
C  40.58400 4.22700 45.70100
C  41.95100 3.60600 45.77900
C  39.47300 3.74100 46.65000
C  40.22100 6.52700 44.56400
C  41.17800 6.90700 43.45700
H  40.57200 7.13400 42.10000
N  44.57500 2.10000 45.76100
C  43.31600 1.56600 45.59500
C  43.50900 0.23700 45.16300
C  44.87700 -0.11100 45.09700
C  45.56300 1.10200 45.52600
C  42.34100 -0.58400 44.66300
C  45.46400 -1.50800 44.74700
O  44.74700 -2.49600 44.47900
C  46.90000 -1.73800 44.79500
N  47.10800 3.78800 45.70800
C  47.64100 2.52700 45.84700
C  49.20700 2.58600 45.79900
C  49.47200 4.10200 46.03000
C  48.02700 4.73200 45.90800
C  50.02700 1.76700 46.78400
C  50.62200 4.87200 45.14300
C  52.01800 5.22600 45.88700
N  45.45100 6.18600 46.27600
C  46.66500 6.82800 46.35700
C  46.53200 8.26800 46.50400
C  45.11200 8.43900 46.47000
C  44.54800 7.11000 46.34600
C  47.61200 9.29400 46.70500
C  44.00500 9.33200 46.55700
O  43.94600 10.52600 46.69600
C  42.75000 8.44600 46.32500
C  41.84800 8.62500 47.50800
O  41.81300 7.78600 48.41400
O  40.97300 9.69700 47.39500
C  39.76400 9.71200 48.28800
H  41.18600 1.71500 45.55000
H  47.66900 0.56500 45.63000
H  48.73400 6.72400 46.51500
H  40.30900 6.12000 46.66000
H  40.28600 4.01700 44.67400
H  38.84700 4.58600 46.93500
H  39.87300 3.30600 47.56600
H  38.91700 2.98900 46.08900
H  39.80400 7.49700 44.83800
H  39.37000 5.97800 44.16100
H  42.06700 6.29100 43.32300
H  41.63000 7.85200 43.75900
H  41.57100 -0.70100 45.42600
H  42.63100 -1.61800 44.47600
H  41.89500 -0.23500 43.73100
H  47.18800 -2.72900 44.44500
H  47.08200 -1.59900 45.86100
H  47.50500 -0.96900 44.31300
H  49.60100 2.39500 44.80100
H  49.76700 4.29200 47.06200
H  50.90100 2.32200 47.12600
H  50.23900 0.76300 46.41500
H  49.38200 1.45100 47.60400
H  50.04700 5.75100 44.85400
H  50.64800 4.26700 44.23700
H  52.04700 4.69000 46.83600
H  52.27900 6.27100 46.05300
H  52.90000 4.85700 45.36300
H  47.91800 9.74500 45.76200
H  48.47500 8.85100 47.20200
H  47.24400 10.08600 47.35700
H  42.19600 8.81800 45.46300
H  39.82600 9.74200 49.37600
H  39.10000 8.89800 47.99700
H  39.20300 10.62300 48.08400
Mg 46.64800 16.58600 28.34100
C  45.22700 16.03200 31.50000
C  49.11100 18.56700 29.89400
C  47.77400 17.48900 25.35000
C  44.05000 14.95200 26.90700
N  47.07900 17.26000 30.50700
C  46.37800 16.86400 31.63200
C  47.17500 17.39300 32.87000
C  48.28400 18.26800 32.37700
C  48.12600 18.06100 30.81100
C  48.20100 19.74000 32.77800
C  47.65500 16.19000 33.83100
C  47.61400 16.27700 35.36800
H  47.71500 17.69500 35.95800
N  48.36700 17.69100 27.73400
C  49.23800 18.35800 28.48700
C  50.20800 18.95400 27.62500
C  49.81000 18.77100 26.28800
C  48.61700 17.90100 26.37900
C  51.52400 19.63500 28.09200
C  50.49000 19.33600 25.01900
O  49.99200 19.13900 23.89800
C  51.79400 20.10000 25.01400
N  45.81900 16.44200 26.41800
C  46.59000 16.82500 25.31700
C  45.97300 16.40700 23.96600
C  44.84500 15.41300 24.48600
C  44.89700 15.54900 26.00900
C  45.41000 17.66300 23.16000
C  44.94400 13.94000 23.90400
C  45.70200 12.90800 24.78100
N  44.91600 15.79500 28.99500
C  43.95700 15.05600 28.31500
C  42.99700 14.50900 29.22100
C  43.45800 14.85100 30.50400
C  44.67600 15.64500 30.27900
C  41.73800 13.70500 28.79400
C  43.17300 14.78900 31.89900
O  42.22500 14.26400 32.47400
C  44.30400 15.56800 32.62000
C  43.59600 16.70600 33.28800
O  43.23300 17.69600 32.74900
O  43.52300 16.43700 34.64600
C  42.95300 17.50500 35.37600
H  49.80500 19.21700 30.43100
H  47.93300 17.86900 24.33900
H  43.39800 14.29100 26.33300
H  46.39300 17.91500 33.42100
H  49.29500 17.95500 32.64100
H  47.23300 19.81900 33.27400
H  48.09100 20.44400 31.95300
H  49.10300 19.88600 33.37100
H  48.73700 16.15700 33.70300
H  47.17900 15.27200 33.49000
H  48.34700 15.65800 35.88500
H  46.61100 15.87800 35.52000
H  52.46200 19.13000 27.86300
H  51.46400 19.58500 29.17900
H  51.64900 20.61800 27.63700
H  51.59600 21.12400 25.32800
H  52.10700 20.25800 23.98200
H  52.45200 19.49200 25.63500
H  46.70000 15.88000 23.34800
H  43.85200 15.75700 24.19700
H  44.34400 17.69300 22.93700
H  45.92400 17.86900 22.22000
H  45.77100 18.56800 23.64800
H  45.46200 14.08800 22.95700
H  43.98800 13.45000 23.71700
H  45.85200 12.00400 24.19100
H  45.02800 12.55600 25.56200
H  46.65200 13.21900 25.21500
H  41.79700 12.62800 28.95200
H  41.57900 13.79900 27.72000
H  40.95300 13.99700 29.49200
H  44.84400 14.95600 33.34300
H  43.70500 18.29400 35.37100
H  42.75600 17.30300 36.42900
H  41.99100 17.85200 34.99800

