158

Mg 24.71900 -6.02700 47.19500
C  26.40900 -3.24100 45.92500
C  22.28400 -5.45100 44.94400
C  23.30900 -8.97900 48.20300
C  27.75500 -7.08400 48.70000
N  24.45100 -4.57500 45.47400
C  25.24500 -3.52200 45.14400
C  24.71600 -2.76900 43.96300
C  23.32900 -3.41400 43.74600
C  23.32300 -4.56500 44.71200
C  22.11000 -2.44500 43.97500
C  25.76100 -2.81000 42.79600
C  25.32000 -3.12700 41.38000
H  26.27300 -2.99600 40.19100
N  22.96100 -7.06500 46.74800
C  22.12400 -6.61100 45.75200
C  20.95100 -7.45500 45.74400
C  21.22700 -8.56500 46.63100
C  22.60500 -8.24900 47.21800
C  19.75100 -7.32000 44.98700
C  20.22600 -9.65000 47.03800
O  19.15600 -9.73400 46.49100
C  20.68000 -10.81000 47.94100
N  25.41700 -7.82900 48.12800
C  24.57100 -8.74600 48.58600
C  25.29300 -9.65400 49.56200
C  26.77300 -9.28000 49.41700
C  26.63900 -7.98500 48.70900
C  24.70800 -9.52100 51.01100
C  27.68200 -10.22100 48.60600
C  29.07600 -10.58700 49.28800
N  26.56400 -5.20800 47.59800
C  27.72000 -5.76300 48.21500
C  28.86000 -4.84300 48.03000
C  28.30000 -3.79400 47.23300
C  26.96800 -4.09900 46.90400
C  30.33100 -5.00200 48.67500
C  28.73500 -2.55800 46.51100
O  29.75000 -1.95000 46.45200
C  27.44700 -2.16100 45.61400
C  27.05000 -0.77800 46.03500
O  26.76300 -0.43900 47.19700
O  27.04000 0.04900 44.95500
C  26.82400 1.48900 45.19200
H  21.38200 -5.30600 44.34500
H  23.05400 -10.01500 48.43500
H  28.71300 -7.46300 49.06400
H  24.67400 -1.73500 44.30700
H  23.20900 -3.73000 42.71000
H  22.43300 -1.49100 44.39200
H  21.33700 -2.82700 44.64200
H  21.66200 -2.22800 43.00600
H  26.44000 -3.59500 43.12900
H  26.36600 -1.92100 42.61700
H  24.48200 -2.43100 41.34200
H  24.97000 -4.15900 41.41400
H  19.69600 -6.42600 44.36600
H  18.89800 -7.38400 45.66200
H  19.77200 -8.22800 44.38500
H  21.52500 -11.22400 47.39000
H  19.84500 -11.50900 47.88900
H  20.88500 -10.44400 48.94700
H  25.14100 -10.69700 49.28300
H  27.19100 -9.15300 50.41500
H  23.91800 -10.25200 51.18300
H  24.22100 -8.56700 51.20900
H  25.46600 -9.81100 51.73800
H  27.90000 -9.81700 47.61800
H  27.11400 -11.13000 48.40500
H  29.21400 -11.66400 49.38200
H  29.12100 -10.20800 50.30900
H  29.85600 -10.16800 48.65200
H  30.34000 -4.43400 49.60500
H  31.00000 -4.65700 47.88700
H  30.67100 -6.03000 48.80100
H  27.69800 -2.17400 44.55400
H  25.99700 1.81400 44.56100
H  27.69400 2.07800 44.90100
H  26.47300 1.76500 46.18600
Mg 48.08800 15.10900 28.26200
C  45.74000 15.35900 31.00700
C  49.98400 17.61800 29.89000
C  50.13600 15.13000 25.65300
C  45.58100 13.54400 26.40800
N  47.83600 16.26400 30.22700
C  46.95500 16.14600 31.26900
C  47.29400 17.03500 32.51800
C  48.23300 18.06400 31.80300
C  48.76500 17.27700 30.52300
C  47.70800 19.53100 31.59300
C  48.03900 16.14900 33.58200
C  47.28400 16.12400 34.93500
H  48.07800 15.80700 36.12000
N  49.87600 16.16000 27.86600
C  50.51700 17.06100 28.67300
C  51.80000 17.33900 28.10300
C  51.89700 16.59200 26.90900
C  50.62600 15.88800 26.77000
C  52.81700 18.21200 28.79400
C  53.02800 16.53100 25.88100
O  52.93200 15.91900 24.80100
C  54.32000 17.30900 26.13700
N  47.78800 14.67100 26.23000
C  48.89800 14.52600 25.46200
C  48.50200 13.71900 24.21100
C  47.01000 13.43400 24.28400
C  46.77200 13.85000 25.73300
C  48.97100 14.24300 22.81500
C  46.51500 12.00900 23.87300
C  45.55100 11.96000 22.66200
N  46.12500 14.44000 28.66300
C  45.23700 13.79800 27.77900
C  44.10200 13.43300 28.49100
C  44.21000 14.12500 29.70900
C  45.49500 14.68000 29.78400
C  43.00900 12.68500 27.96300
C  43.51800 14.46400 30.90600
O  42.35600 14.16900 31.15400
C  44.55100 15.01100 31.92500
C  43.98400 16.28600 32.62400
O  43.45300 17.26300 32.09300
O  44.14600 16.16500 33.96800
C  43.73200 17.29200 34.79400
H  50.67200 18.30200 30.39000
H  50.84300 14.84700 24.87000
H  44.75800 13.10500 25.84000
H  46.33300 17.42400 32.85500
H  49.04400 18.20900 32.51700
H  48.35900 20.22900 32.11900
H  46.71100 19.51800 32.03300
H  47.86000 19.85600 30.56300
H  49.12300 16.22700 33.65400
H  47.93500 15.14400 33.17100
H  46.61000 15.27700 34.80400
H  46.66500 16.97200 35.22700
H  52.43100 18.75900 29.65400
H  53.21400 18.93600 28.08300
H  53.58400 17.53700 29.17200
H  54.86100 16.88700 26.98400
H  54.17600 18.38800 26.07100
H  54.91900 17.10200 25.25000
H  48.99800 12.74900 24.23400
H  46.40600 14.11800 23.68700
H  49.61300 15.12100 22.89100
H  48.11000 14.71900 22.34600
H  49.30600 13.43000 22.17000
H  46.09200 11.46400 24.71800
H  47.36800 11.37800 23.62300
H  46.06000 11.69700 21.73500
H  45.00000 12.89100 22.53000
H  44.76600 11.21300 22.77100
H  43.36000 11.96200 27.22700
H  42.43200 13.35000 27.32100
H  42.38000 12.23600 28.73100
H  44.86900 14.20500 32.58600
H  44.30400 18.16600 34.48100
H  43.85700 17.08000 35.85500
H  42.64900 17.40300 34.84500

