158

Mg 8.16200 3.38600 27.57100
C  9.35400 2.01800 30.70300
C  6.20200 5.50800 29.45800
C  6.80600 4.39100 24.77300
C  9.63100 0.62800 26.02500
N  7.83600 3.63000 29.79400
C  8.51900 3.09300 30.87500
C  8.06000 3.76200 32.18200
C  6.94700 4.77700 31.77500
C  6.96600 4.67600 30.29700
C  5.50500 4.62600 32.39500
C  9.21500 4.53000 32.90800
C  8.93000 4.93600 34.40600
H  9.83600 4.60100 35.61200
N  6.72900 4.84400 27.18000
C  6.02500 5.61500 28.03500
C  5.09100 6.48300 27.29600
C  5.26100 6.11700 25.90600
C  6.30400 5.08500 25.86100
C  4.22200 7.55700 27.97100
C  4.47000 6.59200 24.73500
O  4.52400 6.05600 23.61100
C  3.49200 7.68100 24.94500
N  8.20000 2.63900 25.74100
C  7.54200 3.23800 24.70200
C  7.60600 2.43000 23.41000
C  8.53900 1.25200 23.76400
C  8.86200 1.50900 25.29300
C  6.20300 1.93800 22.83200
C  9.82100 1.10900 22.88400
C  9.91900 -0.08200 21.91500
N  9.28500 1.70500 28.19800
C  9.87000 0.72900 27.39700
C  10.58300 -0.26600 28.21800
C  10.47000 0.26800 29.54300
C  9.61300 1.39800 29.45400
C  11.35800 -1.45900 27.86100
C  10.96200 0.09400 30.88200
O  11.78200 -0.73300 31.30600
C  10.25500 1.25200 31.66800
C  9.49200 0.70600 32.79700
O  8.37200 0.18900 32.70200
O  10.11900 0.96700 33.93600
C  9.39300 0.49200 35.11700
H  5.66900 6.24000 30.06800
H  6.39700 4.69900 23.80800
H  10.10000 -0.19500 25.48100
H  7.68600 3.04400 32.91200
H  7.24700 5.80700 31.97200
H  5.11900 5.43700 33.01200
H  5.52600 3.70900 32.98400
H  4.83400 4.55400 31.54000
H  9.60300 5.31900 32.26300
H  10.11100 3.91100 32.92700
H  7.90400 4.60500 34.56800
H  9.02700 6.02100 34.36100
H  3.14800 7.52000 27.78900
H  4.53100 8.54600 27.63200
H  4.37200 7.47200 29.04700
H  3.15500 8.19300 24.04400
H  4.07200 8.42100 25.49700
H  2.60900 7.32700 25.47800
H  8.13800 3.01900 22.66200
H  8.00800 0.30500 23.67000
H  5.63500 1.69200 23.72900
H  6.16700 0.99900 22.28000
H  5.61100 2.75000 22.40800
H  10.70800 1.16500 23.51500
H  10.02000 1.95000 22.21900
H  9.11300 -0.80000 22.06600
H  10.81300 -0.56500 22.30700
H  10.07700 0.17200 20.86700
H  10.68700 -2.18800 28.31400
H  12.32600 -1.46700 28.36100
H  11.45200 -1.56800 26.78000
H  11.08200 1.90600 31.94600
H  8.75100 1.29900 35.46800
H  10.11300 0.34700 35.92300
H  8.99300 -0.50600 34.93400
Mg 16.40600 52.71500 26.52700
C  18.28600 50.80200 28.85200
C  14.19400 53.41100 29.10700
C  14.75000 54.52100 24.31800
C  18.76300 51.60300 24.00300
N  16.14300 51.89500 28.64700
C  17.12300 51.27500 29.42300
C  16.80900 51.42400 30.89100
C  15.37700 51.88800 30.84400
C  15.19400 52.42900 29.47700
C  14.33800 50.75900 31.13700
C  17.78700 52.38300 31.65800
C  18.13800 51.82100 33.05300
H  17.15500 52.30000 34.18100
N  14.65900 53.73300 26.66000
C  13.96500 53.99300 27.81000
C  12.93100 54.96700 27.52600
C  13.06000 55.27500 26.07700
C  14.23300 54.51500 25.62300
C  12.00700 55.39500 28.62200
C  12.19600 56.31200 25.31900
O  12.50200 56.58600 24.17000
C  11.09800 57.02400 25.93100
N  16.63000 52.95500 24.46700
C  15.79700 53.74700 23.73200
C  16.13000 53.89800 22.20900
C  17.54600 53.08700 22.22800
C  17.68800 52.44400 23.65400
C  15.02900 53.21800 21.33300
C  18.74500 53.87100 21.73000
C  19.09600 55.24100 22.29200
N  18.10200 51.49300 26.41000
C  18.90100 51.08200 25.33200
C  19.96900 50.22000 25.78100
C  19.70100 50.11800 27.15100
C  18.52900 50.85200 27.44100
C  21.01100 49.58400 24.96800
C  20.20100 49.45800 28.28700
O  21.13900 48.63900 28.38800
C  19.44100 50.06500 29.48600
C  19.05500 48.98800 30.47100
O  18.12900 48.17600 30.44800
O  19.91300 49.04400 31.53600
C  19.66200 48.12700 32.63900
H  13.53500 53.63400 29.94900
H  14.16900 55.02100 23.54000
H  19.46000 51.30500 23.21700
H  16.71400 50.41500 31.29200
H  15.24300 52.73700 31.51400
H  13.80500 51.13000 32.01200
H  14.77700 49.78000 31.33100
H  13.74300 50.61300 30.23500
H  17.37800 53.37900 31.82600
H  18.69200 52.49800 31.06100
H  19.19400 51.99100 33.26400
H  17.95500 50.74900 32.99100
H  11.86300 56.44400 28.36300
H  12.25200 55.30900 29.68100
H  11.10700 54.83900 28.36000
H  11.50000 57.70900 26.67700
H  10.32600 56.37400 26.34300
H  10.62800 57.77900 25.30100
H  16.35300 54.91800 21.89500
H  17.48700 52.17000 21.64200
H  14.73300 54.00100 20.63500
H  14.09300 52.91200 21.80000
H  15.50800 52.33000 20.92100
H  18.47600 54.03300 20.68600
H  19.59200 53.18500 21.74300
H  18.82400 56.03800 21.60000
H  20.17100 55.40800 22.36200
H  18.73600 55.54700 23.27500
H  21.74300 50.32800 24.65400
H  20.64700 49.10000 24.06200
H  21.61000 48.90100 25.57000
H  20.14200 50.75500 29.95500
H  19.97000 47.13100 32.32100
H  18.62600 48.16900 32.97300
H  20.24900 48.46900 33.49200

