158

Mg 1.53100 -1.67800 44.17100
C  4.67400 -0.55300 43.41100
C  0.14400 0.89500 42.59700
C  -1.43400 -3.47600 43.98200
C  3.06300 -4.70200 45.29100
N  2.32200 -0.19900 42.82800
C  3.59500 0.19200 42.88700
C  3.76700 1.63400 42.40100
C  2.25200 2.19500 42.54900
C  1.50900 0.87700 42.62000
C  2.06700 3.08900 43.81800
C  4.41300 1.70400 40.94300
C  5.79100 2.17200 40.76900
H  6.57800 1.57900 39.61400
N  -0.46800 -1.21800 43.57100
C  -0.81200 -0.08400 42.88600
C  -2.31500 -0.10300 42.70300
C  -2.73700 -1.33600 43.15700
C  -1.53900 -2.09000 43.55000
C  -3.05900 1.09700 42.34300
C  -4.20700 -1.83500 43.16200
O  -5.20000 -1.10800 42.93600
C  -4.54000 -3.32500 43.44100
N  0.95800 -3.76900 44.56500
C  -0.37900 -4.16400 44.49200
C  -0.52500 -5.64800 44.81900
C  0.89400 -5.97700 45.39100
C  1.74900 -4.75400 45.09800
C  -1.61200 -5.98800 45.85200
C  1.48100 -7.36300 44.87000
C  1.85400 -8.36400 46.00100
N  3.47200 -2.49600 44.36800
C  3.89600 -3.64600 44.97100
C  5.36200 -3.59000 45.12500
C  5.68100 -2.41700 44.46900
C  4.50300 -1.79100 44.02400
C  6.25400 -4.51000 45.77400
C  6.76300 -1.55300 44.11200
O  7.97400 -1.64500 44.31900
C  6.14100 -0.25200 43.49500
C  6.41200 0.89500 44.43300
O  5.56900 1.23300 45.23000
O  7.66500 1.54200 44.26900
C  7.79200 2.73100 45.12900
H  -0.35100 1.79900 42.23400
H  -2.34000 -4.08400 43.93000
H  3.56000 -5.60700 45.64400
H  4.38200 2.20500 43.09700
H  1.90500 2.70800 41.65200
H  1.40100 2.58200 44.51700
H  1.53500 3.94900 43.41000
H  2.95100 3.35600 44.39700
H  3.68400 2.24000 40.33500
H  4.48200 0.69900 40.52700
H  6.35100 2.08800 41.70000
H  5.71600 3.25000 40.62400
H  -4.14000 0.96200 42.36400
H  -2.84500 1.32000 41.29700
H  -2.86100 1.90300 43.04800
H  -4.32900 -3.51200 44.49400
H  -4.09800 -4.07200 42.78100
H  -5.60500 -3.54000 43.34400
H  -0.71700 -6.20900 43.90400
H  0.92400 -5.80200 46.46700
H  -2.31700 -5.16400 45.74100
H  -1.26500 -6.15900 46.87100
H  -2.20200 -6.82300 45.47400
H  2.32400 -7.19100 44.20100
H  0.71600 -7.86500 44.27700
H  2.94100 -8.42800 46.05700
H  1.56400 -9.38300 45.74800
H  1.42400 -7.98200 46.92700
H  5.82900 -5.00700 46.64500
H  7.07300 -3.83500 46.02500
H  6.53800 -5.25000 45.02500
H  6.60200 -0.07900 42.52200
H  8.25400 2.47000 46.08100
H  6.90900 3.27600 45.46300
H  8.43200 3.51200 44.71900
Mg -12.23100 16.56000 43.02000
C  -9.57900 14.37800 42.19400
C  -10.77800 19.01900 41.26700
C  -15.28100 17.87000 42.98100
C  -13.87000 13.44000 44.29500
N  -10.30500 16.61500 41.93200
C  -9.42700 15.67700 41.73100
C  -8.17200 16.28500 41.04800
C  -8.49400 17.81800 41.16700
C  -9.99100 17.90500 41.44600
C  -7.80600 18.44700 42.27500
C  -7.74600 15.83000 39.62000
C  -6.23700 15.55600 39.39600
H  -5.68100 16.53100 38.27900
N  -13.00300 18.29200 42.28400
C  -12.17600 19.22200 41.60300
C  -13.02000 20.27200 41.17100
C  -14.38800 19.94000 41.55100
C  -14.29300 18.63500 42.30500
C  -12.56700 21.45400 40.32100
C  -15.63000 20.75300 41.32600
O  -15.53500 21.85100 40.87100
C  -17.06600 20.32200 41.61800
N  -14.32200 15.71100 43.52700
C  -15.37300 16.56300 43.41500
C  -16.66200 15.78200 43.60900
C  -16.26800 14.42900 44.26500
C  -14.72700 14.55000 44.05000
C  -17.71700 16.58900 44.44700
C  -16.99400 13.22700 43.73000
C  -18.21200 12.65700 44.47600
N  -11.78900 14.34800 43.35900
C  -12.49900 13.30500 43.92500
C  -11.79600 12.04600 43.74700
C  -10.59400 12.46100 43.15300
C  -10.68100 13.86600 42.96500
C  -12.17800 10.61200 44.12500
C  -9.29400 11.98000 42.62500
O  -8.78200 10.85100 42.70900
C  -8.57900 13.24600 42.05900
C  -7.29400 13.49800 42.73800
O  -7.23900 13.98400 43.86500
O  -6.18800 13.16800 41.91800
C  -4.88700 13.72500 42.35600
H  -10.26700 19.79800 40.69600
H  -16.22300 18.41100 43.08300
H  -14.37600 12.58200 44.74200
H  -7.45000 15.98000 41.80500
H  -8.14800 18.36500 40.29100
H  -6.80800 18.82800 42.05800
H  -7.67100 17.79700 43.14000
H  -8.42400 19.24200 42.69300
H  -8.06700 16.62000 38.94100
H  -8.40600 15.01600 39.31800
H  -6.32900 14.49300 39.17700
H  -5.71400 15.67600 40.34500
H  -12.99100 21.33700 39.32300
H  -11.48300 21.52200 40.23000
H  -12.78500 22.36600 40.87600
H  -17.34500 20.46700 42.66200
H  -17.33800 19.31100 41.31500
H  -17.64400 20.90200 40.89900
H  -17.02400 15.55200 42.60700
H  -16.32800 14.51100 45.35100
H  -18.43000 16.96500 43.71300
H  -17.28700 17.30400 45.14800
H  -18.18400 15.81300 45.05400
H  -16.26700 12.46000 43.46600
H  -17.38200 13.41200 42.72800
H  -18.14500 12.85700 45.54500
H  -18.32600 11.57600 44.39500
H  -19.16700 13.11900 44.22500
H  -11.50500 10.45300 44.96800
H  -11.96400 9.92900 43.30300
H  -13.20900 10.57200 44.47400
H  -8.51700 13.00800 40.99700
H  -4.60300 13.12700 43.22200
H  -4.99000 14.74100 42.73700
H  -4.18600 13.70400 41.52200

