158

Mg 25.76500 0.21800 29.57100
C  27.50300 0.09300 32.60000
C  22.86200 0.60500 31.38300
C  24.06400 0.37200 26.61600
C  28.54500 -0.85700 27.79100
N  25.26400 0.26800 31.76500
C  26.14700 0.27300 32.83100
C  25.46300 0.42600 34.15800
C  23.95100 0.47000 33.64900
C  23.99600 0.39800 32.19900
C  22.86300 -0.49300 34.32000
C  25.99700 1.70500 34.98100
C  25.11300 2.20200 36.11700
H  25.54500 1.80700 37.53000
N  23.76600 0.44800 29.12000
C  22.71900 0.63900 29.98600
C  21.48200 0.84000 29.27100
C  21.82900 0.74500 27.86500
C  23.26800 0.52800 27.83900
C  20.17300 1.08100 30.03800
C  20.95500 0.82700 26.61600
O  21.45100 0.86500 25.48100
C  19.46000 0.81300 26.74700
N  26.27100 -0.09200 27.41300
C  25.35700 0.04600 26.45700
C  25.92100 -0.33800 25.01900
C  27.41600 -0.73600 25.41200
C  27.46600 -0.54200 26.94300
C  25.16000 -1.45500 24.28800
C  28.48500 0.19100 24.68800
C  28.24800 0.36000 23.17100
N  27.61500 -0.26700 29.96900
C  28.66300 -0.67300 29.18600
C  29.83800 -0.67000 29.93900
C  29.45200 -0.41400 31.26500
C  28.09300 -0.17500 31.30400
C  31.19500 -0.99100 29.41400
C  29.89800 -0.33500 32.58500
O  31.03100 -0.49900 33.04300
C  28.68200 -0.08500 33.44200
C  28.52800 -1.19300 34.37300
O  28.09200 -2.29400 34.13400
O  29.01700 -0.85500 35.59200
C  28.76200 -1.79900 36.73000
H  21.95200 0.71800 31.97500
H  23.64100 0.45200 25.61200
H  29.47600 -1.12100 27.28500
H  25.69500 -0.46300 34.74400
H  23.52500 1.45700 33.83000
H  23.23200 -0.97100 35.22800
H  22.64300 -1.29000 33.61000
H  22.03000 0.17800 34.52900
H  26.04000 2.55800 34.30500
H  26.97400 1.43100 35.37900
H  24.08900 1.84100 36.02400
H  25.08300 3.28000 35.96000
H  19.75600 2.00000 29.62400
H  20.23300 1.26200 31.11100
H  19.48900 0.25700 29.83500
H  19.15600 0.01300 27.42300
H  18.89100 0.90800 25.82300
H  19.06500 1.60300 27.38500
H  25.80100 0.50800 24.34300
H  27.66300 -1.77300 25.18300
H  25.59100 -2.45400 24.35200
H  25.05600 -1.22800 23.22700
H  24.11600 -1.50200 24.59600
H  29.40500 -0.36100 24.87900
H  28.64100 1.09900 25.26900
H  28.97500 -0.03700 22.46200
H  28.01000 1.39800 22.94000
H  27.30100 -0.13500 22.95500
H  31.87100 -1.12100 30.25900
H  31.59000 -0.16700 28.81900
H  31.12300 -2.01500 29.04800
H  29.01600 0.83900 33.91600
H  29.67000 -2.21500 37.16600
H  28.01800 -2.55600 36.48300
H  28.31200 -1.29100 37.58400
Mg 35.63800 49.65800 25.58300
C  36.10200 47.86800 28.59500
C  34.24600 52.15700 27.39100
C  34.81500 51.05700 22.62900
C  36.66400 46.78100 23.87800
N  35.26200 49.99200 27.74300
C  35.61000 49.18700 28.79500
C  35.29900 49.83300 30.19300
C  34.31900 51.02900 29.77700
C  34.69700 51.17100 28.24900
C  32.74900 50.69800 30.05500
C  36.53900 50.29300 30.98100
C  36.67400 49.62900 32.36300
H  35.47400 49.65100 33.32000
N  34.79100 51.42900 25.09300
C  34.34500 52.35700 25.98100
C  33.90100 53.55400 25.25700
C  33.98100 53.21200 23.90900
C  34.54400 51.83100 23.77500
C  33.44700 54.85500 25.95800
C  33.50500 54.07300 22.67300
O  33.76700 53.80800 21.50100
C  32.84900 55.38600 22.93800
N  35.69300 48.96200 23.62000
C  35.37200 49.77400 22.55800
C  35.56900 49.08200 21.17100
C  36.42200 47.82600 21.63000
C  36.22300 47.83200 23.16100
C  34.20000 48.76700 20.48500
C  37.89600 47.66900 21.11700
C  39.03400 48.40500 21.82100
N  36.24400 47.68900 26.04600
C  36.57700 46.64900 25.26500
C  37.03800 45.49300 26.09500
C  36.89800 45.94600 27.41700
C  36.35100 47.25700 27.37700
C  37.65200 44.17100 25.51800
C  37.11100 45.58800 28.79700
O  37.66200 44.64800 29.36900
C  36.51800 46.86800 29.61400
C  35.37200 46.29900 30.40200
O  34.27500 46.09800 29.90500
O  35.80300 45.93000 31.62800
C  34.81200 45.20000 32.47100
H  33.80600 53.00600 27.91800
H  34.49500 51.44200 21.65900
H  36.88000 45.95500 23.19700
H  34.78900 49.10600 30.82400
H  34.51200 51.91800 30.37700
H  32.20800 51.03500 29.17100
H  32.43400 51.26100 30.93400
H  32.60600 49.65100 30.32400
H  36.52300 51.36300 31.18500
H  37.42700 50.04100 30.40100
H  37.43500 50.20400 32.88900
H  37.08000 48.62800 32.21600
H  33.94600 55.71300 25.50600
H  33.78400 54.86800 26.99500
H  32.36400 54.96600 26.00600
H  31.94000 55.32600 23.53600
H  32.63600 55.88100 21.99000
H  33.63700 55.92900 23.46000
H  36.13400 49.74200 20.51300
H  35.80100 47.01800 21.24200
H  33.46500 48.57300 21.26600
H  34.35600 47.88700 19.86200
H  33.95900 49.62800 19.86000
H  37.99500 47.91700 20.06000
H  38.19700 46.62200 21.09000
H  39.49900 47.83600 22.62600
H  38.54300 49.25300 22.29800
H  39.77300 48.83400 21.14400
H  38.69600 44.34900 25.25900
H  37.04200 43.77600 24.70500
H  37.62800 43.27300 26.13500
H  37.27800 47.21700 30.31300
H  33.84100 45.69200 32.53300
H  35.14600 45.10100 33.50400
H  34.75200 44.17500 32.10400

