158

Mg 25.71200 1.81800 29.36300
C  27.52300 1.42300 32.36000
C  22.89600 2.23300 31.22100
C  24.07600 2.12500 26.54100
C  28.60800 1.09600 27.67500
N  25.32000 1.79500 31.55200
C  26.14900 1.70900 32.57100
C  25.45100 1.89100 33.96600
C  23.92800 2.04500 33.53700
C  24.05500 2.01500 32.01600
C  23.09300 0.81400 33.98500
C  26.05800 3.12500 34.58300
C  26.82100 2.97500 35.97200
H  26.55700 4.06200 37.07300
N  23.80100 2.24600 29.01100
C  22.73800 2.19800 29.84700
C  21.46200 2.47000 29.14900
C  21.76100 2.42800 27.76000
C  23.26000 2.23000 27.72600
C  20.13000 2.69000 29.88800
C  20.81900 2.76200 26.61800
O  21.12500 2.77200 25.42100
C  19.35300 2.95800 26.96300
N  26.22500 1.40300 27.39400
C  25.41300 1.74700 26.35200
C  26.09000 1.59400 24.96500
C  27.57600 1.45200 25.37600
C  27.48000 1.33100 26.90800
C  25.46400 0.48600 24.04500
C  28.52100 2.63900 24.90700
C  29.67000 2.23700 23.99400
N  27.66500 1.25900 29.81700
C  28.75500 0.98400 29.06400
C  29.95500 0.71700 29.85200
C  29.42700 0.76400 31.16900
C  28.10100 1.14600 31.04100
C  31.34200 0.48400 29.35700
C  29.79200 0.62300 32.63000
O  30.78900 0.26300 33.19900
C  28.50900 0.99200 33.38700
C  28.13700 -0.11100 34.35200
O  27.36300 -1.00700 34.05800
O  28.87200 -0.00700 35.54600
C  28.41300 -0.86100 36.67800
H  22.01700 2.36700 31.85600
H  23.59100 2.27500 25.57400
H  29.49400 0.77100 27.12500
H  25.55000 0.92700 34.46500
H  23.45300 2.93300 33.95300
H  23.17500 -0.08500 33.37500
H  22.05500 1.14700 33.97800
H  23.22800 0.44300 35.00100
H  25.27000 3.79200 34.93200
H  26.63100 3.66100 33.82700
H  27.88500 2.93000 35.73900
H  26.59300 1.96800 36.32100
H  19.74800 3.70300 29.76100
H  20.18400 2.34600 30.92100
H  19.48800 2.04400 29.28900
H  18.81700 3.46200 26.15900
H  19.15100 3.64900 27.78200
H  18.86000 1.98900 27.04700
H  25.94200 2.51300 24.39800
H  27.86100 0.50100 24.92500
H  24.57200 0.06600 24.50900
H  26.19600 -0.25000 23.71200
H  25.04900 1.02800 23.19500
H  28.98200 3.10400 25.77900
H  27.89500 3.30300 24.31100
H  29.56500 2.82800 23.08400
H  29.61800 1.20300 23.65300
H  30.63100 2.36000 24.49300
H  32.05500 0.91200 30.06200
H  31.42400 0.89200 28.34900
H  31.56400 -0.58100 29.29700
H  28.78100 1.83900 34.01800
H  28.67500 -1.89200 36.44300
H  27.36300 -0.69000 36.91200
H  29.01500 -0.62900 37.55700
Mg 48.88200 34.55000 26.62600
C  46.68800 33.28700 29.03200
C  49.09800 37.51700 28.46300
C  50.42700 35.94300 24.04600
C  48.01100 31.69600 24.65800
N  47.95800 35.28900 28.50600
C  47.24900 34.47800 29.39200
C  47.42000 35.03600 30.75100
C  47.77000 36.58000 30.39200
C  48.39200 36.49500 29.06800
C  46.53400 37.60600 30.39000
C  48.62800 34.44500 31.60100
C  48.52000 34.20400 33.08000
H  47.31900 34.94200 33.75200
N  49.84200 36.42200 26.39200
C  49.78300 37.52200 27.22900
C  50.72300 38.51100 26.73200
C  51.14800 38.05800 25.46100
C  50.44900 36.75000 25.27400
C  50.96900 39.70100 27.45900
C  52.11100 38.73300 24.57900
O  52.25900 38.47300 23.36300
C  52.81500 39.97600 25.11000
N  49.04300 33.88900 24.62700
C  49.76500 34.67100 23.78400
C  49.78300 34.01000 22.36400
C  49.36900 32.56000 22.69400
C  48.78000 32.71100 24.08800
C  48.76200 34.76100 21.38800
C  50.63500 31.55400 22.59700
C  50.68200 30.39900 21.57900
N  47.54200 32.79100 26.79800
C  47.36000 31.76100 25.92700
C  46.62100 30.74100 26.53600
C  46.21300 31.34100 27.74700
C  46.80400 32.56000 27.84200
C  46.28100 29.42100 25.97900
C  45.46800 31.16900 28.94000
O  44.67300 30.26900 29.19000
C  45.83400 32.34300 29.92100
C  46.53000 31.73400 31.08300
O  47.62000 31.19600 31.06700
O  45.76400 31.81400 32.18600
C  46.21000 31.15200 33.43100
H  49.09800 38.31800 29.20600
H  50.94300 36.37600 23.18600
H  48.10500 30.76300 24.10000
H  46.49300 34.98700 31.32300
H  48.50000 37.00400 31.08200
H  46.86600 38.41100 31.04700
H  45.67800 37.00200 30.69200
H  46.34900 37.97800 29.38300
H  49.41600 35.18800 31.47400
H  48.93500 33.51300 31.12700
H  49.33900 34.70700 33.59500
H  48.46100 33.14800 33.34200
H  50.65400 39.52900 28.48800
H  50.32600 40.50100 27.09100
H  51.95800 40.14300 27.57800
H  52.06500 40.72800 25.35900
H  53.38400 40.24200 24.21900
H  53.39600 39.72400 25.99700
H  50.76100 34.00400 21.88200
H  48.53500 32.32400 22.03400
H  47.75600 34.60200 21.77500
H  48.83300 34.27100 20.41600
H  48.97900 35.82700 21.45500
H  50.85400 31.02900 23.52700
H  51.52700 32.17400 22.51300
H  50.77900 29.42700 22.06400
H  51.53200 30.43600 20.89700
H  49.81000 30.45000 20.92700
H  46.40300 28.79400 26.86200
H  46.99000 29.17400 25.18900
H  45.28400 29.46100 25.54100
H  44.89400 32.78900 30.24600
H  47.28400 31.14200 33.61500
H  45.86500 30.11900 33.48100
H  45.71800 31.81700 34.14000

