158

Mg 35.96900 2.60400 30.20300
C  33.42900 3.62400 32.46900
C  37.94400 2.05100 32.92300
C  37.85100 1.01200 28.16200
C  33.45100 2.85600 27.59200
N  35.79300 2.91800 32.40000
C  34.65400 3.28100 33.08500
C  34.93500 3.29300 34.66200
C  36.46200 3.19900 34.70800
C  36.77700 2.75300 33.22400
C  37.24000 4.44200 35.24000
C  34.03800 2.22100 35.39500
C  33.70100 2.56500 36.86100
H  34.72400 3.47900 37.67300
N  37.73600 1.79200 30.50400
C  38.43100 1.62500 31.66100
C  39.58500 0.84100 31.36900
C  39.62700 0.61700 29.97700
C  38.38700 1.19600 29.48700
C  40.59100 0.28600 32.48000
C  40.62600 -0.18100 29.16700
O  40.63000 -0.33100 27.97800
C  41.70500 -0.81100 29.91000
N  35.73700 2.25000 28.09100
C  36.69300 1.37800 27.58600
C  36.35300 0.89300 26.16400
C  34.87600 1.37800 26.00800
C  34.64600 2.22700 27.28700
C  37.37800 1.45600 25.14800
C  33.94100 0.12600 25.78000
C  33.06200 0.08600 24.49800
N  33.88100 3.23900 29.94500
C  33.06000 3.26600 28.87400
C  31.70900 3.50200 29.31100
C  31.78200 3.70100 30.67000
C  33.18300 3.55800 31.02100
C  30.49500 3.48500 28.40900
C  31.05000 3.98400 31.88500
O  29.89200 4.29000 32.04100
C  32.06600 3.94400 33.06500
C  32.04800 5.23900 33.81400
O  32.06300 6.32000 33.32400
O  32.00400 4.99300 35.15000
C  31.69700 6.14200 36.00300
H  38.49800 1.89100 33.85100
H  38.55200 0.44200 27.54800
H  32.66700 2.78300 26.83500
H  34.68300 4.25600 35.10700
H  36.66800 2.31000 35.30500
H  36.54100 5.18600 35.62100
H  37.83900 4.81000 34.40700
H  37.83400 4.18900 36.11800
H  34.74000 1.38800 35.35700
H  33.15000 1.93800 34.83100
H  33.63300 1.59700 37.35600
H  32.69300 2.98100 36.86200
H  40.84100 -0.77000 32.38000
H  40.18500 0.50500 33.46800
H  41.50500 0.86000 32.32900
H  42.49900 -1.00200 29.18700
H  41.39200 -1.72800 30.40900
H  42.09900 -0.09600 30.63200
H  36.40200 -0.19200 26.07900
H  34.71300 1.97800 25.11300
H  37.84700 0.59400 24.67400
H  38.15900 1.95800 25.71800
H  36.76300 2.01900 24.44500
H  33.27400 0.13000 26.64200
H  34.40600 -0.85800 25.82400
H  33.22900 1.00000 23.92800
H  32.00200 0.08800 24.75200
H  33.28500 -0.80200 23.90700
H  30.53900 2.52200 27.90100
H  30.35400 4.32300 27.72600
H  29.58700 3.47300 29.01200
H  31.76900 3.18500 33.79000
H  31.69100 7.10500 35.49200
H  32.47700 6.19500 36.76200
H  30.77200 6.09200 36.57700
Mg 9.13500 48.59300 26.02200
C  7.07900 48.95100 28.90700
C  11.76500 49.86300 27.80000
C  11.00700 48.59000 23.16600
C  6.13800 48.33700 24.04200
N  9.28700 49.21800 28.16700
C  8.41900 49.25100 29.17100
C  9.05100 49.55600 30.51000
C  10.41300 50.22000 30.02500
C  10.50900 49.73500 28.57500
C  10.41800 51.79400 30.08600
C  9.20700 48.27100 31.36900
C  8.81700 48.49000 32.85900
H  8.50000 47.32600 33.77200
N  11.16100 48.83500 25.60800
C  12.07300 49.40200 26.50300
C  13.38300 49.28700 25.90500
C  13.20000 48.76600 24.59200
C  11.73500 48.73800 24.40100
C  14.67800 49.65700 26.61600
C  14.20200 48.30500 23.52900
O  13.84400 47.84300 22.44400
C  15.66100 48.21300 23.91000
N  8.61500 48.75000 23.89000
C  9.61900 48.60200 22.93800
C  9.06000 47.97200 21.64200
C  7.49100 47.90300 21.88300
C  7.37400 48.51500 23.32600
C  9.44900 48.59100 20.25800
C  6.86800 46.46400 21.73800
C  7.45100 45.41400 22.72900
N  7.09300 48.56200 26.36300
C  6.02800 48.38200 25.44100
C  4.78900 48.36700 26.16600
C  5.15900 48.52900 27.55500
C  6.55900 48.58800 27.61800
C  3.40800 48.44800 25.61200
C  4.59600 48.71300 28.90000
O  3.40300 48.82800 29.10900
C  5.85100 48.94600 29.83900
C  5.70800 47.86600 30.89500
O  6.16700 46.73800 30.71200
O  4.96600 48.26200 31.94500
C  4.36300 47.17300 32.76800
H  12.61200 50.30300 28.33000
H  11.64000 48.60800 22.27600
H  5.22400 48.29900 23.44600
H  8.41200 50.31200 30.96600
H  11.24300 49.91400 30.66200
H  9.51300 52.08600 30.61900
H  10.44100 52.27300 29.10700
H  11.32600 51.99500 30.65400
H  10.27900 48.11600 31.24100
H  8.85700 47.34500 30.91400
H  7.87600 49.03300 32.76800
H  9.67900 48.95900 33.33300
H  15.25400 50.50300 26.24100
H  15.22000 48.72100 26.48300
H  14.56700 49.61200 27.69900
H  16.30800 47.69900 23.19900
H  15.82400 47.60100 24.79700
H  16.09700 49.20000 24.06700
H  9.33300 46.92500 21.51200
H  6.94100 48.60100 21.25200
H  10.22700 49.31600 20.49700
H  8.55400 49.11200 19.91900
H  9.61600 47.82300 19.50200
H  7.00100 46.13900 20.70600
H  5.78300 46.56500 21.75000
H  7.53100 45.85300 23.72300
H  8.37700 45.07600 22.26300
H  6.80800 44.53500 22.77300
H  3.08700 49.48900 25.61700
H  2.72700 47.87900 26.24500
H  3.45300 48.16900 24.55900
H  5.90900 49.91000 30.34300
H  3.50000 46.92000 32.15100
H  3.89500 47.49300 33.69900
H  4.98700 46.30200 32.97100

