158

Mg 48.47400 33.63100 26.72600
C  46.48500 32.23400 29.35400
C  48.80600 36.46400 28.63600
C  50.01000 34.94600 24.17600
C  47.48400 30.90100 24.73500
N  47.69500 34.24000 28.75300
C  47.10100 33.42900 29.71300
C  47.19200 34.14200 31.08500
C  47.57000 35.62400 30.67900
C  48.10300 35.42600 29.22700
C  46.35800 36.63700 30.75600
C  48.33200 33.52500 31.97100
C  48.15800 33.63900 33.56700
H  47.07900 34.46800 34.30600
N  49.26400 35.44100 26.36700
C  49.40400 36.42000 27.29200
C  50.17500 37.49000 26.70300
C  50.61300 37.03400 25.38000
C  49.98800 35.77000 25.25300
C  50.44300 38.77300 27.57700
C  51.35100 37.80500 24.29900
O  51.64000 37.27700 23.17600
C  51.84300 39.10700 24.52300
N  48.41200 33.18400 24.65600
C  49.30900 33.82600 23.88900
C  49.58500 33.10000 22.59100
C  48.86200 31.76300 22.83700
C  48.21500 31.92300 24.15600
C  49.11000 33.80200 21.31800
C  49.90100 30.54300 22.74600
C  49.93500 29.93200 21.37500
N  47.28000 31.96000 26.94400
C  46.97900 30.89500 26.04800
C  46.12700 29.82300 26.72100
C  45.90900 30.38800 27.99400
C  46.65200 31.65100 28.09600
C  45.58200 28.62800 26.09400
C  45.26100 30.11900 29.30600
O  44.64400 29.16800 29.71100
C  45.46400 31.42900 30.21700
C  45.93600 31.06500 31.63900
O  46.99800 30.60100 31.93700
O  44.93200 31.35500 32.55600
C  45.14200 30.64900 33.81300
H  48.98200 37.30300 29.31200
H  50.80600 35.08400 23.44200
H  47.42500 29.98200 24.14800
H  46.31300 34.15700 31.72900
H  48.35200 36.06800 31.29600
H  46.69600 37.55500 31.23700
H  45.54900 36.27200 31.38900
H  45.95800 36.87500 29.77100
H  49.35100 33.82900 31.73600
H  48.36400 32.46900 31.70300
H  49.17100 33.97800 33.78600
H  48.17100 32.62000 33.95200
H  49.57400 39.02100 28.18600
H  50.74800 39.64300 26.99600
H  51.29400 38.62100 28.24100
H  51.04600 39.78800 24.82300
H  52.23100 39.52300 23.59400
H  52.48800 38.96100 25.39000
H  50.67100 33.00700 22.62500
H  48.07900 31.45900 22.14200
H  48.04300 33.69600 21.12200
H  49.53000 33.56200 20.34100
H  49.19400 34.88100 21.44500
H  49.70300 29.72000 23.43300
H  50.93800 30.82500 22.92700
H  50.85400 30.25400 20.88600
H  49.06700 30.15500 20.75500
H  50.07800 28.85200 21.42900
H  46.34600 28.29900 25.38900
H  44.67200 28.92500 25.57300
H  45.30600 27.79700 26.74400
H  44.50700 31.94700 30.27300
H  45.87400 31.19000 34.41200
H  45.44700 29.62000 33.62500
H  44.19100 30.72200 34.34100
Mg 29.72300 57.95500 40.78400
C  27.01700 56.28000 39.36100
C  31.75300 55.65900 39.20200
C  32.41300 60.03300 41.20100
C  27.53200 60.64300 41.49900
N  29.37400 56.10400 39.55700
C  28.23200 55.63800 38.98800
C  28.42100 54.44700 38.14700
C  29.91200 54.03500 38.52700
C  30.40100 55.32300 39.14600
C  30.32200 52.76400 39.35700
C  28.21300 54.70400 36.61900
C  27.18400 53.82000 35.84200
H  26.30300 54.55600 34.89800
N  31.83600 57.79000 40.39100
C  32.40800 56.71500 39.74700
C  33.80100 56.91800 39.85400
C  34.08000 58.20000 40.46900
C  32.78500 58.75900 40.71700
C  34.79300 55.91700 39.27100
C  35.46400 58.74900 40.61400
O  36.48000 58.08400 40.31600
C  35.71500 60.03700 41.35000
N  29.95600 59.99700 41.26000
C  31.19600 60.58400 41.41500
C  31.00200 62.02700 41.81600
C  29.50000 62.21600 42.04600
C  28.93200 60.87300 41.57900
C  31.98600 62.52200 42.88200
C  28.75600 63.43300 41.38200
C  27.63400 64.08200 42.29000
N  27.72400 58.37900 40.63700
C  26.96300 59.44700 41.07900
C  25.54100 59.18800 40.77000
C  25.46800 57.88600 40.22900
C  26.85300 57.48100 40.09800
C  24.38700 60.16900 40.98400
C  24.58400 56.90400 39.67700
O  23.37500 56.89700 39.53200
C  25.58700 55.74700 39.13200
C  25.19100 54.52200 39.89800
O  24.99200 54.44500 41.07200
O  24.83400 53.47000 39.03400
C  24.22800 52.26700 39.74000
H  32.43600 54.94600 38.73400
H  33.24300 60.72200 41.37600
H  26.88800 61.48500 41.76100
H  27.75400 53.75500 38.66200
H  30.44100 53.94900 37.57800
H  30.82500 51.95200 38.83300
H  29.38700 52.33700 39.72000
H  30.97500 53.04000 40.18500
H  29.19000 54.69100 36.13600
H  28.00700 55.77300 36.56600
H  26.46500 53.36600 36.52400
H  27.76200 53.02800 35.36600
H  35.60700 55.87100 39.99500
H  35.12800 56.44700 38.37900
H  34.46800 54.90200 39.04300
H  35.37700 60.92800 40.82100
H  36.79400 60.01900 41.19600
H  35.40100 60.07000 42.39300
H  31.28500 62.63600 40.95700
H  29.26100 62.13300 43.10600
H  32.60000 63.26100 42.36900
H  32.65500 61.73200 43.22100
H  31.41800 62.98100 43.69200
H  28.35100 63.11700 40.42100
H  29.49900 64.18600 41.12000
H  27.95900 65.06800 42.62400
H  27.51300 63.59800 43.25900
H  26.63900 64.12900 41.84800
H  23.58100 59.74700 41.58300
H  23.97100 60.41200 40.00600
H  24.85200 60.98700 41.53400
H  25.34500 55.58200 38.08200
H  24.72000 51.46300 39.19200
H  23.18600 52.22900 39.42100
H  24.26300 52.22600 40.82900

