158

Mg 46.25800 4.90500 48.54100
C  44.65700 7.95900 47.63900
C  43.41900 3.24000 47.78500
C  47.96800 2.13800 48.54500
C  49.18900 6.74900 49.07500
N  44.28800 5.52200 47.97000
C  43.86400 6.84200 47.63700
C  42.37900 6.81300 47.36600
C  41.96800 5.33100 47.56500
C  43.24800 4.62100 47.81300
C  40.89400 4.97700 48.65900
C  42.06200 7.47900 46.05100
C  40.70900 8.19100 46.09500
H  39.80400 7.60700 45.02200
N  45.76000 2.96300 48.24700
C  44.56900 2.46400 47.93400
C  44.58800 1.08300 47.98300
C  45.95100 0.70300 48.11400
C  46.64800 1.96200 48.27900
C  43.49600 0.17300 47.78100
C  46.48700 -0.71000 48.30100
O  45.74300 -1.68300 48.24200
C  47.94900 -1.03200 48.53700
N  48.40900 4.54000 48.44700
C  48.75200 3.25100 48.82800
C  50.11900 3.18500 49.50200
C  50.54700 4.61200 49.32400
C  49.30900 5.37200 49.00700
C  50.18500 2.58400 50.94500
C  51.77500 4.89600 48.33300
C  53.05900 5.61900 48.96200
N  46.84500 6.97100 48.37600
C  48.05000 7.56800 48.74900
C  47.95600 8.99000 48.57500
C  46.60700 9.24700 48.17600
C  45.96300 7.97500 48.04000
C  48.96300 10.09100 49.07000
C  45.60100 10.24400 47.79300
O  45.84600 11.43200 47.58400
C  44.25600 9.49600 47.49600
C  43.26600 9.82700 48.55600
O  43.31700 9.37700 49.71200
O  42.25700 10.57600 48.03100
C  41.21700 10.92400 48.95200
H  42.46600 2.73100 47.62600
H  48.44200 1.19600 48.82600
H  50.03000 7.36200 49.40300
H  41.90000 7.43200 48.12400
H  41.56900 4.87000 46.66200
H  40.62000 5.97200 49.01100
H  41.41400 4.38400 49.41200
H  40.03700 4.43800 48.25400
H  41.94100 6.67800 45.32200
H  42.80300 8.16900 45.64700
H  40.87500 9.26000 45.96100
H  40.24700 8.08600 47.07700
H  43.38900 -0.45400 48.66600
H  43.63700 -0.47700 46.91700
H  42.56500 0.72500 47.65400
H  48.66100 -0.79500 47.74700
H  47.95900 -2.12100 48.50900
H  48.28200 -0.68100 49.51400
H  50.73200 2.55200 48.86100
H  50.75200 5.00300 50.32000
H  50.03600 3.44200 51.60100
H  51.10600 2.08000 51.23700
H  49.34400 1.93700 51.19300
H  51.50800 5.44100 47.42800
H  52.08500 3.96700 47.85400
H  52.99500 6.66700 48.67100
H  54.04800 5.27800 48.65600
H  53.03800 5.43900 50.03700
H  49.58200 9.63500 49.84200
H  48.39100 10.91700 49.49100
H  49.52800 10.47200 48.21900
H  43.81400 9.76000 46.53600
H  41.03900 10.10700 49.65200
H  40.32900 11.09000 48.34200
H  41.41100 11.89600 49.40500
Mg -6.24200 25.54300 25.09700
C  -4.98200 26.73800 28.22100
C  -8.00000 23.24600 26.83500
C  -7.27900 24.55600 22.19200
C  -3.76800 27.53600 23.53300
N  -6.41700 25.06500 27.25200
C  -5.92500 25.76700 28.32600
C  -6.47000 25.22700 29.68800
C  -7.13300 23.85500 29.15200
C  -7.26500 24.12600 27.65400
C  -6.31800 22.56300 29.45300
C  -7.52800 26.14600 30.21500
C  -7.82700 26.03900 31.73200
H  -6.99000 25.03200 32.41700
N  -7.54800 24.16600 24.57900
C  -8.14300 23.25000 25.43200
C  -8.97800 22.38900 24.69500
C  -8.80900 22.81300 23.28800
C  -7.89500 23.95200 23.26700
C  -9.79200 21.29500 25.39600
C  -9.38800 22.22100 22.07000
O  -9.28600 22.68600 20.98300
C  -10.12700 20.90400 22.27300
N  -5.54500 25.84900 23.21700
C  -6.17800 25.36000 22.09500
C  -5.52900 25.74200 20.75600
C  -4.53600 26.79200 21.24500
C  -4.67600 26.78600 22.76900
C  -4.95100 24.61500 19.89200
C  -4.66400 28.21800 20.59800
C  -3.35500 28.93400 20.30300
N  -4.76300 26.96800 25.71400
C  -3.76300 27.60800 24.90500
C  -2.87900 28.34500 25.84300
C  -3.37500 28.09900 27.13700
C  -4.45000 27.21600 26.99700
C  -1.79100 29.21300 25.46300
C  -3.21000 28.37500 28.52200
O  -2.37900 29.03200 29.11800
C  -4.32900 27.52400 29.34500
C  -3.44100 26.64000 30.24400
O  -2.70700 25.73000 29.91600
O  -3.66900 27.05800 31.54900
C  -2.88000 26.30600 32.55700
H  -8.62500 22.49000 27.31600
H  -7.55700 24.14000 21.22100
H  -2.94800 28.01500 22.99300
H  -5.68400 25.05800 30.42400
H  -8.14000 23.61500 29.49400
H  -5.31900 22.83500 29.79600
H  -6.25600 22.01700 28.51200
H  -6.86100 21.93400 30.15900
H  -8.50900 26.02800 29.75600
H  -7.18900 27.13100 29.89300
H  -8.90400 25.87700 31.76800
H  -7.80300 27.00800 32.23000
H  -9.40900 20.37000 24.96500
H  -10.80900 21.43400 25.02800
H  -9.97600 21.32100 26.47000
H  -9.47300 20.16100 22.73100
H  -10.53900 20.61300 21.30700
H  -11.04000 21.06900 22.84600
H  -6.25800 26.20100 20.08900
H  -3.50900 26.53000 20.98900
H  -3.86100 24.63900 19.91900
H  -5.34700 24.68400 18.87900
H  -5.23100 23.60600 20.19500
H  -5.23300 28.87600 21.25600
H  -5.26000 28.14200 19.68900
H  -3.64800 29.66900 19.55400
H  -2.57200 28.26200 19.95000
H  -3.02700 29.56000 21.13200
H  -1.19200 28.80900 24.64700
H  -1.25200 29.49500 26.36800
H  -2.35200 30.06300 25.07500
H  -4.97500 28.15000 29.96000
H  -3.26900 25.28900 32.60200
H  -3.05200 26.76100 33.53200
H  -1.82600 26.33600 32.28100

