158

Mg 16.13300 -1.93300 27.42800
C  15.50500 0.13000 30.14500
C  18.50400 -3.59600 29.46400
C  17.59200 -3.35900 24.81900
C  14.76500 0.39500 25.32600
N  16.80600 -1.83900 29.66300
C  16.31900 -0.95000 30.58100
C  16.96300 -1.24400 31.95900
C  18.09900 -2.32000 31.61100
C  17.80000 -2.62600 30.14200
C  19.56900 -1.78000 31.84700
C  15.86100 -1.87400 32.86600
C  15.54700 -1.23600 34.23800
H  16.66100 -0.31700 34.90500
N  17.58600 -3.49200 27.15800
C  18.44500 -4.02900 28.13000
C  19.15700 -5.12200 27.49700
C  18.75800 -5.17800 26.13900
C  17.93600 -4.00600 25.95000
C  20.24400 -5.94600 28.17200
C  19.20200 -6.04000 24.96800
O  18.79300 -5.88300 23.84100
C  20.27600 -7.09100 25.21000
N  16.20300 -1.53400 25.39800
C  16.78400 -2.30100 24.48900
C  16.68700 -1.75300 23.09500
C  15.64400 -0.63100 23.30400
C  15.49700 -0.60100 24.76900
C  17.99300 -1.21700 22.52300
C  14.23400 -0.93800 22.69000
C  13.44400 0.28600 22.13000
N  15.19100 -0.12200 27.64400
C  14.59900 0.66500 26.70000
C  13.87900 1.79100 27.41700
C  14.17400 1.52700 28.74800
C  15.04400 0.42700 28.83900
C  13.04100 2.77700 26.72800
C  13.94700 2.02200 30.05400
O  13.26500 2.93600 30.45300
C  14.76200 1.14600 30.98700
C  15.75600 2.03600 31.70500
O  16.95200 2.20000 31.36700
O  15.12800 2.66100 32.72200
C  15.89600 3.72800 33.36100
H  19.30400 -4.11000 30.00000
H  17.87600 -3.81500 23.86800
H  14.32300 1.13200 24.65200
H  17.39300 -0.30000 32.29400
H  18.04500 -3.24900 32.17800
H  19.51700 -0.78600 32.29100
H  20.07000 -1.71400 30.88100
H  20.08900 -2.53600 32.43600
H  16.15100 -2.92200 32.94600
H  14.91800 -1.70100 32.34700
H  15.17200 -2.04400 34.86600
H  14.64900 -0.63000 34.11700
H  21.09800 -5.91700 27.49600
H  19.89200 -6.97700 28.20700
H  20.55200 -5.68000 29.18400
H  19.91700 -7.72800 26.01900
H  21.24200 -6.61900 25.38800
H  20.42000 -7.67700 24.30300
H  16.29500 -2.47500 22.37900
H  15.99400 0.30800 22.87600
H  18.09600 -0.13300 22.54800
H  18.06200 -1.51200 21.47600
H  18.94400 -1.38800 23.02700
H  13.61200 -1.36400 23.47700
H  14.22300 -1.71500 21.92500
H  13.14900 0.24600 21.08100
H  14.07200 1.14500 22.36400
H  12.57300 0.47900 22.75700
H  12.46500 2.15600 26.04200
H  13.66500 3.34400 26.03800
H  12.42500 3.34000 27.42800
H  14.14400 0.80000 31.81500
H  15.94000 4.64700 32.77700
H  16.93300 3.43900 33.53300
H  15.52900 3.90800 34.37200
Mg 28.64800 59.25500 41.47900
C  26.16100 57.19600 39.91300
C  31.10000 57.25100 39.95100
C  30.65000 61.72600 42.05600
C  25.95200 61.11900 42.74500
N  28.56200 57.32500 40.19700
C  27.44600 56.78600 39.54300
C  27.83800 55.61200 38.59600
C  29.35900 55.47300 38.98300
C  29.68100 56.74400 39.72800
C  29.67200 54.29800 39.87500
C  27.71600 55.94900 37.09200
C  27.22600 54.70700 36.25300
H  26.44100 54.86300 34.97900
N  30.62000 59.41800 41.21700
C  31.46300 58.45900 40.64700
C  32.75300 58.94200 40.61100
C  32.76600 60.28100 41.17300
C  31.36200 60.56200 41.51100
C  33.90100 58.02800 40.13400
C  34.00300 61.11300 41.33500
O  35.10900 60.61800 41.06600
C  33.97300 62.47000 41.94200
N  28.26200 61.16700 42.22900
C  29.30300 61.94100 42.48000
C  28.95700 63.27600 43.10100
C  27.57400 62.94300 43.61800
C  27.18900 61.69100 42.78500
C  29.96300 63.78500 44.11100
C  26.48600 64.11600 43.47000
C  25.93200 64.75200 44.74400
N  26.42900 59.20000 41.36100
C  25.54400 59.97900 42.02200
C  24.26000 59.47700 41.86000
C  24.43700 58.32900 41.04300
C  25.79900 58.21600 40.76400
C  22.92000 59.94300 42.52800
C  23.69200 57.33700 40.39500
O  22.45600 57.21300 40.24000
C  24.81100 56.49900 39.65400
C  24.72200 55.23500 40.32500
O  24.83000 55.15600 41.49300
O  24.52700 54.19700 39.40500
C  24.34700 52.85400 40.05100
H  31.74900 56.50900 39.48000
H  31.27800 62.58500 42.30100
H  25.22100 61.76800 43.23100
H  27.23200 54.74300 38.84800
H  30.01900 55.47400 38.11600
H  30.63200 53.81700 39.68500
H  28.88500 53.55200 39.98800
H  29.81800 54.62200 40.90500
H  28.71800 56.05600 36.67500
H  27.08700 56.79100 36.80500
H  26.57500 54.03500 36.81300
H  28.14100 54.17200 35.99900
H  33.93500 57.80700 39.06800
H  33.71300 57.02100 40.50600
H  34.89500 58.31900 40.47400
H  33.04700 62.98900 41.69600
H  34.91100 62.97000 41.70100
H  33.93300 62.45800 43.03100
H  28.82500 63.99200 42.29000
H  27.62500 62.69600 44.67800
H  29.51500 64.07200 45.06200
H  30.53300 64.65800 43.79400
H  30.74500 63.06700 44.35600
H  25.58700 63.82600 42.92500
H  27.01700 64.92500 42.96800
H  24.88800 64.45000 44.82600
H  26.03700 65.83700 44.76800
H  26.43200 64.38400 45.64000
H  22.07700 59.50700 41.99100
H  22.93100 60.98400 42.20200
H  22.95800 59.66400 43.58100
H  24.67400 56.32300 38.58700
H  23.27300 52.66900 40.07700
H  24.84600 52.73900 41.01300
H  24.58800 52.02200 39.38900

