158

Mg 24.13400 -4.90200 45.97800
C  26.17500 -2.49300 44.39700
C  21.63800 -4.02100 43.85700
C  22.56200 -7.72900 46.92700
C  27.06800 -5.92000 47.74600
N  23.96000 -3.35800 44.42100
C  24.86400 -2.46100 43.91200
C  24.32400 -1.56500 42.81900
C  22.78100 -1.95000 42.88200
C  22.76200 -3.17300 43.78400
C  21.71800 -0.89700 43.30300
C  24.92100 -1.91300 41.38200
C  25.56000 -0.73900 40.53200
H  26.02200 -1.05200 39.07500
N  22.33200 -5.71700 45.45100
C  21.48200 -5.25500 44.52800
C  20.35800 -6.20400 44.47000
C  20.53800 -7.29200 45.41800
C  21.84000 -6.91000 46.01800
C  19.13000 -5.93100 43.55800
C  19.63100 -8.43300 45.76800
O  18.57800 -8.58300 45.15300
C  19.76100 -9.40700 46.94600
N  24.75200 -6.55400 47.18200
C  23.89300 -7.61100 47.39200
C  24.62400 -8.80200 48.06400
C  25.98500 -8.11400 48.42800
C  25.97400 -6.79900 47.69000
C  23.87500 -9.49400 49.20800
C  27.17700 -8.99300 48.21800
C  28.24000 -9.03200 49.31200
N  26.13300 -4.24600 46.26900
C  27.16100 -4.76600 47.04600
C  28.30800 -3.93600 46.85400
C  28.01000 -3.04400 45.82900
C  26.63500 -3.29400 45.50500
C  29.65000 -4.16600 47.53500
C  28.55300 -1.98400 44.95300
O  29.71100 -1.56500 44.90700
C  27.43600 -1.61500 44.00400
C  27.19200 -0.25600 44.17600
O  27.33800 0.57800 43.33000
O  26.80400 -0.03900 45.49700
C  26.41900 1.39100 45.83300
H  20.82500 -3.66700 43.22100
H  22.14500 -8.72500 47.09000
H  27.99000 -6.25500 48.22500
H  24.57700 -0.51500 42.97000
H  22.41600 -2.40600 41.96200
H  21.22700 -1.15100 44.24200
H  20.92700 -0.92700 42.55300
H  22.10200 0.12300 43.31800
H  24.16300 -2.50100 40.86400
H  25.78200 -2.56900 41.50800
H  26.46700 -0.31400 40.96100
H  24.77100 0.01000 40.47300
H  19.38400 -5.79400 42.50700
H  18.63400 -5.11000 44.07500
H  18.45600 -6.78600 43.59900
H  20.54800 -10.13900 46.76400
H  18.79200 -9.86300 47.14800
H  20.02600 -8.72700 47.75500
H  24.91300 -9.47700 47.25800
H  25.92200 -7.90100 49.49500
H  23.35000 -10.41500 48.95300
H  23.25800 -8.68000 49.58800
H  24.60300 -9.79700 49.96100
H  27.64800 -8.65600 47.29400
H  26.88400 -10.02100 48.00500
H  28.71400 -10.01400 49.30100
H  27.68500 -8.78500 50.21700
H  29.12100 -8.39400 49.24400
H  30.15800 -4.97500 47.01000
H  29.40700 -4.48800 48.54800
H  30.29300 -3.28900 47.45900
H  27.84300 -1.83700 43.01700
H  25.34900 1.50600 46.00800
H  26.72300 2.20200 45.17200
H  26.95800 1.49800 46.77500
Mg 47.80900 16.10700 28.57500
C  45.78600 15.57000 31.35800
C  50.06200 17.70900 30.64200
C  49.62900 16.94300 25.78900
C  45.35600 14.63500 26.50200
N  47.84600 16.69000 30.77000
C  47.02600 16.26900 31.72500
C  47.54600 16.61200 33.10400
C  48.75900 17.53300 32.81000
C  48.87700 17.31900 31.32800
C  48.43500 19.03000 33.03000
C  47.85800 15.42200 34.00100
C  47.07500 15.26900 35.36000
H  46.72400 16.60500 35.93400
N  49.61800 17.10400 28.23800
C  50.42400 17.66600 29.25700
C  51.65700 18.07000 28.69100
C  51.51000 17.89800 27.27400
C  50.19900 17.25500 27.03900
C  52.77000 18.65900 29.48300
C  52.47700 18.17100 26.13000
O  52.25600 17.77200 24.99700
C  53.72100 18.86600 26.36700
N  47.49400 15.90900 26.38200
C  48.42500 16.28800 25.48800
C  47.70300 16.28200 24.11200
C  46.62400 15.15600 24.38600
C  46.50200 15.13900 25.86700
C  47.15100 17.68200 23.71500
C  46.90300 13.80200 23.69200
C  47.44600 12.64500 24.53600
N  45.97100 15.24100 28.83800
C  45.05700 14.66800 27.87400
C  43.85900 14.26200 28.58500
C  44.07800 14.68200 29.89100
C  45.38100 15.25800 30.02400
C  42.63600 13.66100 28.02200
C  43.42700 14.67200 31.27300
O  42.31400 14.26300 31.61600
C  44.60500 15.28700 32.24300
C  44.08200 16.54200 32.89500
O  44.32500 17.70600 32.59300
O  43.14900 16.13100 33.80900
C  42.56100 17.21800 34.63100
H  50.71300 18.30900 31.28100
H  50.06800 17.28300 24.84900
H  44.64600 14.16500 25.81900
H  46.73600 17.25800 33.44200
H  49.68000 17.24000 33.31300
H  47.53700 19.29100 33.59100
H  48.31700 19.56000 32.08500
H  49.26600 19.45800 33.59100
H  48.92300 15.32700 34.21100
H  47.56500 14.55800 33.40400
H  47.69700 14.70800 36.05800
H  46.15600 14.69300 35.25400
H  52.69100 19.74600 29.47400
H  53.77300 18.40800 29.13700
H  52.79500 18.23300 30.48600
H  53.45400 19.75100 26.94500
H  54.21200 19.22300 25.46200
H  54.53400 18.23200 26.72300
H  48.35400 15.96800 23.29600
H  45.63300 15.43100 24.02600
H  46.07900 17.57000 23.55700
H  47.56800 18.02000 22.76600
H  47.36500 18.39800 24.50800
H  47.48400 13.83400 22.77100
H  45.99100 13.41100 23.24100
H  46.70500 11.90300 24.83500
H  47.93700 12.94000 25.46400
H  48.20900 12.20400 23.89500
H  42.83200 13.00200 27.17600
H  41.95100 14.46700 27.75900
H  42.10300 13.08900 28.78200
H  44.93600 14.49400 32.91300
H  41.47400 17.18900 34.54700
H  42.89500 18.23400 34.42100
H  42.81500 16.94800 35.65600

