158

Mg -1.22200 17.16900 26.58900
C  -1.71100 14.98500 29.21700
C  -2.52700 19.79600 28.44900
C  -1.50900 19.03400 23.85400
C  -1.39400 14.33300 24.54900
N  -1.86500 17.34700 28.56800
C  -1.84900 16.40200 29.55700
C  -2.15400 16.96000 30.95200
C  -2.72000 18.33800 30.59300
C  -2.38300 18.47700 29.10500
C  -4.14400 18.60700 31.09900
C  -0.92500 17.02000 31.89600
C  -1.07000 17.52400 33.33800
H  -0.36200 16.78700 34.49000
N  -1.54000 19.20200 26.24800
C  -2.17200 20.10000 27.13100
C  -2.26000 21.41900 26.52600
C  -1.84400 21.21900 25.17700
C  -1.63800 19.73600 25.05100
C  -2.70300 22.77600 27.25200
C  -1.72000 22.26700 24.18000
O  -1.36300 21.95300 23.06900
C  -1.83500 23.76100 24.42200
N  -1.30600 16.69800 24.49400
C  -1.46200 17.68700 23.53900
C  -1.48100 17.18300 22.09100
C  -1.23300 15.60000 22.34500
C  -1.38800 15.53400 23.88300
C  -2.82100 17.55500 21.34100
C  0.11600 15.09400 21.75900
C  1.48500 15.52100 22.46400
N  -1.53500 15.09100 26.82600
C  -1.57700 14.03900 25.88400
C  -1.58600 12.81500 26.48800
C  -1.71800 13.12000 27.87000
C  -1.65100 14.52300 27.96200
C  -1.70000 11.54500 25.92200
C  -1.75000 12.55900 29.23700
O  -1.74100 11.39300 29.62600
C  -1.80300 13.76100 30.14100
C  -0.65100 13.69300 31.09600
O  0.55700 13.85200 30.85300
O  -1.10400 13.11800 32.28400
C  -0.04600 12.69600 33.11200
H  -2.82300 20.51000 29.22000
H  -1.70700 19.67300 22.99100
H  -1.37600 13.45300 23.90400
H  -2.89500 16.32000 31.43100
H  -2.15900 19.01900 31.23300
H  -4.56100 17.68400 31.50100
H  -4.68300 18.82200 30.17700
H  -4.13100 19.34000 31.90500
H  -0.24300 17.66600 31.34200
H  -0.47800 16.02600 31.92300
H  -2.12100 17.66100 33.59300
H  -0.60500 18.51000 33.32400
H  -3.39200 23.29600 26.58600
H  -1.85100 23.42000 27.47100
H  -3.12600 22.55900 28.23300
H  -1.38700 24.08800 25.36100
H  -2.88000 24.04000 24.28300
H  -1.19700 24.27100 23.70100
H  -0.61700 17.66800 21.63700
H  -2.08400 15.04700 21.94700
H  -3.44500 18.08200 22.06300
H  -3.31300 16.68100 20.91500
H  -2.56000 18.29500 20.58500
H  0.12100 15.60000 20.79300
H  0.10300 14.02300 21.55700
H  1.86500 16.28200 21.78300
H  2.05200 14.62200 22.70900
H  1.18600 16.05500 23.36600
H  -1.29900 11.58000 24.90900
H  -2.75700 11.31000 25.79700
H  -1.24700 10.73600 26.49400
H  -2.68400 13.73100 30.78300
H  0.71100 13.41000 33.43500
H  0.47400 11.79100 32.79700
H  -0.41300 12.49000 34.11800
Mg 53.35600 24.25700 43.94600
C  50.56400 26.45100 43.50700
C  51.23000 21.51000 43.06700
C  56.01000 22.34500 43.79600
C  55.24500 27.03400 44.82600
N  51.13500 24.06100 42.98500
C  50.24400 25.11600 43.09200
C  48.79600 24.51600 42.85800
C  49.01300 22.95100 43.05900
C  50.54600 22.82000 43.02100
C  48.26800 22.31900 44.30100
C  48.12200 24.81500 41.49400
C  49.01900 24.85000 40.16600
H  48.34300 24.16200 38.93800
N  53.60700 22.25400 43.51400
C  52.63600 21.26800 43.22400
C  53.21300 19.97200 43.24800
C  54.59800 20.14800 43.50400
C  54.80600 21.60400 43.56200
C  52.41800 18.68500 42.99900
C  55.70200 19.02700 43.61900
O  55.32400 17.80500 43.41900
C  57.12100 19.24700 43.90600
N  55.36400 24.60500 44.10400
C  56.32500 23.65500 43.95400
C  57.71200 24.30600 44.21400
C  57.45300 25.86900 44.31700
C  55.95200 25.89300 44.46800
C  58.41700 23.72900 45.47000
C  57.83200 26.80900 43.07100
C  58.59600 28.02300 43.44400
N  53.00800 26.28500 44.23100
C  53.88800 27.27100 44.61700
C  53.14500 28.48900 44.81200
C  51.84000 28.17500 44.49300
C  51.80900 26.84500 44.08200
C  53.84500 29.66600 45.16200
C  50.49200 28.74800 44.36500
O  50.17700 29.87000 44.62800
C  49.64200 27.61000 43.74500
C  49.07800 28.15300 42.45000
O  49.75700 28.49800 41.47900
O  47.72500 28.06500 42.56000
C  46.90200 28.45300 41.32300
H  50.57300 20.64200 43.15200
H  56.92100 21.74300 43.81500
H  55.88700 27.91300 44.91200
H  48.03300 24.88300 43.54400
H  48.64400 22.38800 42.20100
H  47.34700 21.86400 43.93500
H  48.06900 23.12300 45.01000
H  48.87500 21.52800 44.74300
H  47.55700 25.74700 41.49100
H  47.44400 23.99900 41.24100
H  49.98700 24.41400 40.41200
H  49.25100 25.88400 39.91400
H  52.86800 18.17200 42.14900
H  51.36900 18.82900 42.73900
H  52.40300 17.88300 43.73700
H  57.69600 19.72400 43.11300
H  57.52800 18.26100 44.12800
H  57.20700 19.78600 44.85000
H  58.39300 24.10300 43.38700
H  57.94800 26.19700 45.23200
H  59.43300 23.36400 45.32100
H  57.82700 22.88000 45.81700
H  58.30300 24.35000 46.35800
H  56.90300 27.07000 42.56300
H  58.37900 26.24200 42.31800
H  59.64500 27.95000 43.15500
H  58.59100 28.26000 44.50800
H  58.08200 28.85400 42.96200
H  54.39900 29.40400 46.06300
H  53.12200 30.42100 45.47300
H  54.65400 29.92200 44.47800
H  48.91300 27.27900 44.48500
H  46.89400 27.63700 40.60100
H  47.43400 29.29000 40.87300
H  45.85900 28.74900 41.43700

