158

Mg 47.66300 24.78800 28.32500
C  48.69300 27.10600 30.96700
C  46.49900 22.70000 30.78400
C  47.15600 22.65200 25.91600
C  49.19100 27.13100 26.06000
N  47.58600 24.93400 30.54400
C  47.91900 25.96400 31.33000
C  47.41200 25.80200 32.83400
C  46.99800 24.25900 32.80400
C  46.96000 23.90900 31.28700
C  47.98100 23.24100 33.57300
C  46.21100 26.75200 33.33000
C  46.48700 27.62800 34.63400
H  46.76400 26.83900 35.87300
N  46.84200 22.94200 28.31800
C  46.40400 22.26600 29.44500
C  45.89200 21.00200 28.95800
C  46.05600 20.97300 27.54900
C  46.69800 22.19700 27.18000
C  45.39900 19.98800 29.89600
C  45.69300 19.91700 26.52700
O  46.03200 20.04100 25.36700
C  45.01900 18.69800 27.03300
N  48.23800 24.84800 26.35800
C  47.78700 23.85500 25.53200
C  48.18300 24.11600 24.04700
C  48.57800 25.61200 24.10500
C  48.74000 25.90200 25.55300
C  49.40000 23.18100 23.55000
C  47.51400 26.54900 23.37400
C  46.14500 26.45200 23.88300
N  48.85600 26.74200 28.43400
C  49.26700 27.53700 27.38800
C  49.83900 28.76300 27.92700
C  49.66500 28.59300 29.32400
C  49.07900 27.36400 29.56500
C  50.59000 29.86700 27.08600
C  49.87400 29.23800 30.57700
O  50.40800 30.33400 30.77300
C  49.20200 28.32000 31.65300
C  50.08500 28.16100 32.85300
O  51.04100 27.41300 32.88800
O  49.68700 28.99600 33.81500
C  50.31000 28.98800 35.11600
H  46.13400 22.02200 31.55900
H  46.98500 22.02500 25.03700
H  49.53400 27.83900 25.30300
H  48.29500 25.97700 33.45000
H  45.97700 24.06700 33.13400
H  48.95000 23.15900 33.08200
H  47.51400 22.28000 33.79200
H  48.18200 23.65100 34.56300
H  45.34100 26.12700 33.53400
H  45.66900 27.39500 32.63700
H  45.60700 28.23000 34.85900
H  47.37100 28.25100 34.50000
H  46.25900 19.41200 30.23900
H  44.57600 19.34300 29.59000
H  44.96600 20.61700 30.67400
H  45.47900 18.28300 27.93000
H  45.17700 17.89700 26.31000
H  43.96800 18.95900 27.15900
H  47.30100 23.89900 23.44500
H  49.58500 25.70200 23.69700
H  50.34700 23.71500 23.62500
H  49.16400 22.92900 22.51700
H  49.51000 22.30300 24.18800
H  47.50900 26.19500 22.34300
H  47.96800 27.53600 23.46300
H  45.85300 27.35000 24.42800
H  46.00200 25.57500 24.51500
H  45.46100 26.21600 23.06800
H  51.24500 29.38700 26.35900
H  51.37300 30.36700 27.65600
H  49.92800 30.60600 26.63400
H  48.33300 28.88700 31.98800
H  50.42200 30.05100 35.32900
H  51.28100 28.49300 35.11800
H  49.64600 28.63100 35.90400
Mg 48.94700 45.02800 42.85900
C  45.84500 46.01000 41.50900
C  48.50600 42.02200 41.41900
C  52.25500 44.43600 43.36000
C  49.45500 48.17500 44.09300
N  47.37100 44.21000 41.57000
C  46.13200 44.67800 41.21300
C  45.29600 43.63400 40.45800
C  46.12100 42.34500 40.79800
C  47.43000 42.88000 41.30300
C  45.38700 41.37600 41.72500
C  45.08000 43.89700 38.97900
C  43.73500 43.64100 38.29100
H  43.69900 42.59100 37.21600
N  50.24600 43.32800 42.52600
C  49.82800 42.22900 41.87700
C  50.90600 41.30400 41.78100
C  51.98200 41.93800 42.53600
C  51.52800 43.30300 42.84200
C  50.87000 39.89000 41.11400
C  53.43700 41.37800 42.84100
O  53.68300 40.18100 42.48000
C  54.49500 42.22200 43.56900
N  50.70500 46.25600 43.42300
C  51.92500 45.77400 43.54500
C  52.92100 46.83100 43.96200
C  51.98700 48.05200 44.28200
C  50.65900 47.48000 43.92000
C  53.89700 46.45800 45.11300
C  52.33500 49.28600 43.41600
C  51.97700 50.63700 44.06300
N  47.89700 46.75900 42.82500
C  48.14100 47.91700 43.54700
C  46.97200 48.75200 43.50200
C  46.07400 48.08200 42.64000
C  46.67600 46.86400 42.28700
C  46.70700 50.08300 44.22800
C  44.76000 48.15200 42.10300
O  43.90900 49.08300 42.20400
C  44.53000 46.84300 41.21100
C  43.22900 46.17000 41.57400
O  42.27400 45.95400 40.85000
O  43.23300 45.72900 42.91000
C  41.93100 45.29300 43.35900
H  48.32200 40.99400 41.10200
H  53.34300 44.34200 43.34100
H  49.50500 49.09000 44.68700
H  44.36000 43.41900 40.97400
H  46.32400 41.69100 39.95000
H  45.38300 41.81600 42.72200
H  45.91500 40.44500 41.93000
H  44.34400 41.24000 41.43800
H  45.81200 43.21800 38.54100
H  45.47600 44.89400 38.78600
H  43.30200 44.51800 37.81000
H  43.09400 43.28600 39.09700
H  51.71300 39.25400 41.38600
H  50.88500 40.08000 40.04000
H  49.93000 39.39400 41.35300
H  54.83200 43.11600 43.04600
H  55.40500 41.62200 43.57900
H  54.25500 42.62700 44.55300
H  53.51300 47.03200 43.06900
H  51.94100 48.21400 45.35800
H  53.76300 47.14500 45.94900
H  54.95300 46.51800 44.85200
H  53.63100 45.45900 45.46100
H  51.63500 49.14900 42.59100
H  53.38600 49.25900 43.12800
H  51.39800 51.18000 43.31700
H  52.77000 51.34600 44.30200
H  51.42500 50.40800 44.97400
H  47.67400 50.57300 44.33900
H  46.22100 49.92400 45.19100
H  46.12700 50.71500 43.55600
H  44.44700 47.08600 40.15100
H  41.77100 44.26200 43.04300
H  41.07400 45.88200 43.03300
H  42.00600 45.24900 44.44500

