158

Mg 35.99200 48.82700 24.95800
C  36.16200 47.26900 28.16200
C  35.03800 51.66600 26.68200
C  35.79200 50.19900 22.03600
C  36.90200 45.78200 23.51300
N  35.64800 49.36800 27.24600
C  35.81000 48.60100 28.34300
C  35.68800 49.44400 29.63200
C  35.14100 50.83800 29.09900
C  35.28800 50.64900 27.60200
C  33.69300 51.28700 29.50600
C  36.94100 49.44400 30.46600
C  36.88700 49.22600 31.91400
H  35.52300 49.33200 32.67000
N  35.41600 50.61500 24.43500
C  35.09000 51.69700 25.26300
C  35.02300 52.86900 24.41900
C  35.17900 52.43200 23.10000
C  35.48300 50.99700 23.17500
C  34.80700 54.30200 24.97800
C  34.99100 53.31300 21.88400
O  35.07900 52.90700 20.71800
C  34.79000 54.82000 22.03800
N  36.20600 48.08200 23.00800
C  36.14700 48.86000 21.94400
C  36.44700 48.09200 20.60300
C  36.95500 46.69100 21.17300
C  36.58900 46.87100 22.65800
C  35.17500 47.84500 19.80700
C  38.51900 46.48300 20.95900
C  38.83000 46.00400 19.51100
N  36.41900 46.90700 25.66700
C  36.83500 45.77700 24.92100
C  37.13400 44.68500 25.81900
C  36.89800 45.22600 27.11300
C  36.39500 46.57400 26.90500
C  37.62400 43.36100 25.43200
C  37.00300 44.97500 28.51900
O  37.52600 43.99200 29.05800
C  36.51100 46.22600 29.31300
C  35.33400 45.86200 30.12500
O  34.25100 45.59400 29.66500
O  35.69500 45.83500 31.44400
C  34.67000 45.15200 32.24700
H  34.77200 52.65100 27.07200
H  35.67700 50.69300 21.06900
H  37.25400 44.87400 23.02000
H  34.84000 49.03300 30.17900
H  35.91200 51.57200 29.33600
H  33.79100 52.19500 30.10200
H  33.20500 50.59500 30.19100
H  33.06100 51.42100 28.62800
H  37.32200 50.45200 30.29800
H  37.72700 48.79100 30.08700
H  37.56400 49.97600 32.32200
H  37.28500 48.25300 32.20100
H  35.27000 55.10500 24.40500
H  35.39300 54.34100 25.89700
H  33.76400 54.49800 25.22700
H  34.52900 55.20800 21.05300
H  35.79100 55.16600 22.29400
H  33.98100 55.14800 22.69000
H  37.29000 48.48100 20.03200
H  36.49700 45.73900 20.90300
H  34.27300 47.77600 20.41400
H  35.36000 46.97200 19.18000
H  35.10400 48.71600 19.15700
H  38.96700 45.91200 21.77300
H  38.97600 47.46500 21.08200
H  39.43800 45.10100 19.56600
H  39.45800 46.79000 19.09300
H  37.91400 45.75600 18.97400
H  36.90200 42.69800 24.95400
H  37.86300 42.91100 26.39600
H  38.50600 43.48300 24.80300
H  37.41100 46.47600 29.87500
H  33.76200 45.74200 32.36700
H  35.12800 45.01000 33.22600
H  34.36800 44.19900 31.81000
Mg 26.59000 50.54900 26.30100
C  24.52100 51.89900 28.87500
C  28.75900 49.38300 28.73900
C  28.76400 49.93800 23.90300
C  24.63600 52.37400 24.01000
N  26.60900 50.68000 28.56000
C  25.57200 51.09300 29.39800
C  25.94400 50.78100 30.80800
C  27.32800 50.08100 30.76700
C  27.59400 50.02800 29.24400
C  28.44900 50.79900 31.59500
C  24.79300 50.04200 31.56400
C  24.48900 50.83800 32.92500
H  24.68400 50.02900 34.23300
N  28.51300 49.67500 26.35700
C  29.19400 49.29700 27.43700
C  30.53300 48.79600 27.05700
C  30.53300 48.98400 25.60300
C  29.23500 49.53500 25.21800
C  31.52300 48.19200 28.03700
C  31.55300 48.65300 24.60400
O  31.52200 48.90600 23.40700
C  32.60200 47.74500 25.07200
N  26.78500 51.31600 24.29900
C  27.73800 50.74800 23.45200
C  27.29400 50.68500 22.03500
C  25.97400 51.44200 22.06900
C  25.81200 51.81700 23.50700
C  28.41900 51.30500 21.13300
C  24.78800 50.55100 21.47300
C  24.09500 51.08800 20.15800
N  24.88000 51.89200 26.36600
C  24.17000 52.39600 25.35900
C  22.93400 52.96900 25.81100
C  23.06700 52.90500 27.20500
C  24.24300 52.18200 27.49000
C  21.87700 53.67500 25.04700
C  22.41000 53.24500 28.46600
O  21.43600 53.88900 28.75500
C  23.41900 52.69200 29.60400
C  23.92900 53.86100 30.38900
O  24.79200 54.63700 29.98600
O  23.17600 54.02000 31.47100
C  23.38500 55.16200 32.40400
H  29.39800 49.07700 29.57000
H  29.33900 49.43800 23.12200
H  23.87600 52.73700 23.31400
H  26.05600 51.79400 31.19300
H  27.28000 49.04800 31.11100
H  28.19700 51.68300 32.18000
H  29.28900 51.09200 30.96500
H  28.90100 50.09100 32.29000
H  25.13200 49.04600 31.85000
H  23.87300 49.91500 30.99400
H  23.42800 51.07400 32.84700
H  25.05400 51.76300 33.03300
H  31.19600 48.13900 29.07600
H  32.40200 48.82200 27.89700
H  31.96000 47.22700 27.78000
H  33.40800 47.60000 24.35200
H  32.10000 46.82200 25.36300
H  33.12300 48.31300 25.84200
H  27.09700 49.62800 21.85600
H  26.04000 52.33500 21.44800
H  29.30700 51.47800 21.74000
H  28.14100 52.26900 20.70700
H  28.73400 50.67800 20.29900
H  23.98300 50.43200 22.19900
H  25.15200 49.54400 21.26700
H  24.00000 50.13500 19.63700
H  24.67400 51.74000 19.50400
H  23.16300 51.55800 20.47000
H  22.24300 54.50900 24.44900
H  21.21400 54.16400 25.76100
H  21.34500 52.91600 24.47200
H  22.80000 52.12000 30.29500
H  23.89000 56.03300 31.98500
H  24.03000 54.78200 33.19600
H  22.46900 55.43100 32.92900

