158

Mg 35.64900 1.26400 29.36300
C  33.47300 2.44800 31.80400
C  38.26300 1.43700 31.50700
C  37.58500 0.44900 26.77000
C  32.97300 1.85400 26.99900
N  35.82800 1.95300 31.44700
C  34.76300 2.11800 32.27300
C  35.27600 2.19200 33.78100
C  36.86100 2.14000 33.61800
C  37.03200 1.86200 32.08100
C  37.64400 3.42800 34.08500
C  34.66300 1.09100 34.67700
C  34.45500 1.58000 36.14200
H  35.30700 2.67000 36.78500
N  37.64200 0.87200 29.21300
C  38.57200 0.89100 30.25000
C  39.92100 0.46100 29.73100
C  39.74200 0.19200 28.29400
C  38.26300 0.50700 28.04800
C  41.14900 0.59000 30.54300
C  40.87700 -0.12200 27.20100
O  40.74700 0.08400 25.97000
C  42.16900 -0.63000 27.77000
N  35.31000 1.11600 27.18300
C  36.31300 0.68600 26.37900
C  35.85600 0.67100 24.89900
C  34.29100 0.93300 25.06100
C  34.13700 1.38800 26.48000
C  36.64000 1.58700 23.91900
C  33.40000 -0.20800 24.50900
C  32.30900 0.24300 23.53200
N  33.66200 1.97300 29.32900
C  32.71600 2.10800 28.35100
C  31.42800 2.51600 28.85800
C  31.64100 2.68400 30.22900
C  33.02700 2.36000 30.48300
C  30.19100 2.70800 27.98900
C  31.07800 3.05500 31.48800
O  29.97900 3.41500 31.84200
C  32.26500 2.97300 32.53200
C  32.46000 4.32100 33.02400
O  33.51000 5.01400 32.71600
O  31.46900 4.67400 33.91300
C  31.74300 5.89600 34.64600
H  39.08700 1.48900 32.22300
H  38.25400 0.16200 25.95600
H  32.29600 2.20300 26.21600
H  34.99400 3.17900 34.14800
H  37.39900 1.39000 34.19700
H  37.83500 3.96000 33.15300
H  38.62200 3.25200 34.53400
H  37.02400 3.91600 34.83600
H  35.32100 0.22700 34.76800
H  33.72200 0.79900 34.21100
H  34.63200 0.72000 36.78800
H  33.41200 1.87200 36.26300
H  41.37800 -0.45600 30.74600
H  41.03700 1.17600 31.45500
H  41.88800 1.01200 29.86200
H  42.75300 0.20300 28.16200
H  42.75000 -1.03400 26.94100
H  41.96900 -1.51700 28.37000
H  36.00300 -0.34700 24.53800
H  33.99700 1.86300 24.57500
H  37.45300 2.16400 24.36100
H  36.05800 2.25700 23.28700
H  37.19500 0.96800 23.21500
H  33.03300 -0.75500 25.37800
H  34.01200 -0.88600 23.91400
H  31.38500 -0.27200 23.79700
H  32.49800 0.01000 22.48400
H  32.18100 1.31400 23.68500
H  29.90000 3.74000 27.79300
H  29.37000 2.20400 28.49900
H  30.30100 2.12100 27.07800
H  32.00800 2.40000 33.42300
H  31.38500 6.74200 34.06100
H  32.78700 5.94000 34.95800
H  31.10800 5.88200 35.53100
Mg 26.64700 50.40500 26.90700
C  24.51800 51.56000 29.51700
C  28.79100 49.21300 29.48000
C  28.85400 49.48600 24.63200
C  24.52400 51.78400 24.57100
N  26.71100 50.50700 29.20800
C  25.66800 50.91700 30.04200
C  25.93300 50.55300 31.50400
C  27.34000 50.00300 31.47500
C  27.62400 49.90900 29.95900
C  28.40700 50.80300 32.27300
C  24.87400 49.58600 32.14600
C  24.18500 50.21700 33.36200
H  24.20500 49.43800 34.68300
N  28.51600 49.58100 27.02700
C  29.17900 49.09100 28.12500
C  30.37900 48.45400 27.69600
C  30.49100 48.51700 26.29200
C  29.30900 49.27000 25.93700
C  31.40600 47.80800 28.67700
C  31.63200 48.01900 25.35800
O  31.61400 48.21100 24.19200
C  32.86600 47.22900 25.85900
N  26.69800 50.72700 24.89700
C  27.67400 50.15800 24.15600
C  27.28500 50.23900 22.64800
C  25.92600 51.07400 22.67700
C  25.69100 51.22100 24.11100
C  28.45200 50.99800 21.79100
C  24.77400 50.42600 21.84200
C  23.67900 49.51100 22.54100
N  24.85000 51.41700 26.95000
C  24.09500 52.00000 25.93800
C  22.83500 52.49400 26.49100
C  23.02700 52.47100 27.87300
C  24.26500 51.74800 28.07800
C  21.66000 52.98700 25.68400
C  22.47700 52.82400 29.12900
O  21.55400 53.55500 29.45500
C  23.38800 52.17500 30.22600
C  23.98400 53.25300 31.04400
O  24.91200 54.04900 30.85100
O  23.28100 53.30000 32.20900
C  23.66900 54.25300 33.25400
H  29.39400 48.75900 30.27000
H  29.37000 48.93300 23.84400
H  23.73700 52.14400 23.90600
H  25.95500 51.51400 32.01700
H  27.32800 49.01500 31.93600
H  29.33500 50.23100 32.30000
H  28.07500 50.98200 33.29600
H  28.49900 51.76400 31.76600
H  25.24800 48.60600 32.44200
H  24.11100 49.40500 31.38900
H  23.12000 50.35400 33.17500
H  24.53900 51.22300 33.58400
H  32.39600 48.26300 28.65000
H  31.61900 46.78900 28.35200
H  31.08700 47.77600 29.71900
H  32.73900 46.15000 25.95600
H  33.05900 47.72300 26.81100
H  33.70000 47.44300 25.19100
H  27.12000 49.26300 22.19300
H  26.12400 52.01500 22.16300
H  28.11100 51.72700 21.05600
H  28.95700 50.27100 21.15500
H  29.16900 51.42800 22.49000
H  25.28200 49.70400 21.20300
H  24.33700 51.13900 21.14200
H  22.82100 50.17700 22.44800
H  23.84800 49.21100 23.57500
H  23.67700 48.55000 22.02700
H  20.90600 52.26500 25.37000
H  22.06900 53.58700 24.87000
H  21.16700 53.69300 26.35100
H  22.86500 51.46900 30.87100
H  24.71800 54.03700 33.46100
H  23.12100 54.14300 34.18900
H  23.36400 55.26600 32.99200

