158

Mg 0.84200 8.44800 26.15900
C  1.81500 9.99900 29.20600
C  0.84000 5.47500 27.91900
C  0.19800 6.78000 23.24800
C  1.26900 11.31900 24.49100
N  1.35100 7.81900 28.32500
C  1.60300 8.63200 29.41200
C  1.58800 7.83900 30.71500
C  1.37000 6.36500 30.34700
C  1.14500 6.53400 28.80400
C  2.45800 5.37500 30.66600
C  0.60900 8.34500 31.79500
C  1.14400 8.36900 33.26000
H  2.37900 7.57700 33.61400
N  0.42600 6.40300 25.70000
C  0.48500 5.33800 26.61400
C  0.12900 4.13300 25.91600
C  -0.04000 4.42100 24.51000
C  0.24200 5.94100 24.42200
C  0.10500 2.76700 26.57800
C  -0.13300 3.52500 23.32300
O  -0.01600 3.98300 22.18300
C  -0.34800 2.06400 23.48000
N  0.88200 8.92400 24.13100
C  0.45600 8.12600 23.15600
C  0.32900 8.89800 21.81300
C  0.69100 10.36900 22.22900
C  0.96800 10.23500 23.73500
C  1.24800 8.24300 20.72500
C  -0.27300 11.58800 21.88700
C  -1.08100 11.44200 20.56700
N  1.37200 10.28900 26.71900
C  1.53900 11.44000 25.88700
C  1.91100 12.59900 26.72300
C  2.05200 12.02000 28.00900
C  1.75300 10.65700 27.93800
C  2.05800 14.02300 26.26900
C  2.41100 12.36500 29.39200
O  2.67800 13.38100 30.00900
C  2.01300 11.09400 30.19600
C  3.11400 10.77300 31.15700
O  4.07100 10.06700 30.94400
O  2.91500 11.43400 32.34100
C  3.98100 11.61800 33.30600
H  0.92000 4.52900 28.45900
H  -0.08200 6.39400 22.26500
H  1.48300 12.22700 23.92300
H  2.63100 7.96900 31.00500
H  0.39300 6.01300 30.67900
H  2.75300 4.78800 29.79600
H  2.00400 4.64400 31.33500
H  3.36300 5.81000 31.08900
H  -0.29300 7.73500 31.84900
H  0.33600 9.38000 31.58700
H  0.37400 7.95300 33.91000
H  1.22000 9.39100 33.63100
H  1.09600 2.31600 26.53100
H  -0.61400 2.10100 26.10200
H  -0.30500 2.79100 27.58800
H  -0.33600 1.63300 22.48000
H  -1.31300 1.77300 23.89600
H  0.51700 1.75300 24.06500
H  -0.70400 8.78000 21.48600
H  1.70600 10.61200 21.91500
H  1.54200 9.08800 20.10100
H  0.69100 7.54700 20.09700
H  2.20000 7.84600 21.07800
H  0.34500 12.47100 21.72400
H  -0.95800 11.66700 22.73000
H  -0.69100 12.16600 19.85200
H  -2.14800 11.61000 20.71100
H  -0.98200 10.43500 20.16100
H  2.70500 14.70700 26.81800
H  1.06000 14.45800 26.20900
H  2.45400 13.92000 25.25900
H  1.14600 11.37500 30.79400
H  4.29800 12.66100 33.29900
H  4.85700 11.01400 33.07100
H  3.58700 11.37600 34.29400
Mg 52.97300 23.97700 44.52800
C  50.30600 26.15500 43.70000
C  51.19100 21.40800 43.15000
C  55.74100 22.15100 44.52700
C  54.61100 26.71700 45.83900
N  51.10300 23.93100 43.25000
C  50.22200 24.90800 43.08800
C  48.99500 24.29100 42.34500
C  49.04500 22.83700 42.81200
C  50.55600 22.67200 43.06300
C  48.16900 22.43900 43.99300
C  48.93800 24.64700 40.82300
C  50.28400 25.06600 40.21100
H  50.25600 25.81800 38.84400
N  53.36200 21.94800 43.89600
C  52.50300 21.04600 43.44700
C  53.11900 19.72000 43.40800
C  54.48600 19.92000 43.83200
C  54.59500 21.39200 44.07100
C  52.35200 18.46200 43.08300
C  55.54400 18.86600 44.03600
O  55.27400 17.67900 43.83600
C  56.91800 19.14700 44.53100
N  55.00200 24.50600 44.77600
C  55.91000 23.49800 44.89400
C  57.22900 24.09000 45.55800
C  56.95000 25.61400 45.74000
C  55.42600 25.64900 45.35700
C  57.58500 23.47400 46.95000
C  57.75000 26.57000 44.87000
C  58.80300 27.39400 45.69400
N  52.49900 25.97300 44.95100
C  53.24700 26.92100 45.57100
C  52.46300 28.15000 45.69500
C  51.25200 27.86100 44.97800
C  51.33200 26.53500 44.57500
C  52.80700 29.49100 46.24800
C  50.02700 28.45800 44.47800
O  49.63000 29.61600 44.59300
C  49.36100 27.31800 43.72500
C  48.96500 27.74400 42.36000
O  49.72000 28.29100 41.58700
O  47.61400 27.39700 42.17800
C  46.99700 27.77500 40.93400
H  50.55600 20.56800 42.85900
H  56.64300 21.54200 44.61700
H  55.01500 27.62900 46.28400
H  48.07300 24.71000 42.74700
H  48.68600 22.19900 42.00400
H  47.38500 23.19500 43.96800
H  48.68700 22.29700 44.94100
H  47.62800 21.53300 43.71800
H  48.16800 25.39300 40.62900
H  48.77900 23.75500 40.21600
H  50.84400 24.13100 40.19600
H  50.60500 25.82800 40.92100
H  52.96800 18.14300 42.24300
H  51.32500 18.77700 42.89700
H  52.27800 17.72000 43.87900
H  56.75000 19.60300 45.50700
H  57.45000 19.63100 43.71200
H  57.43600 18.19800 44.67400
H  57.95500 23.93600 44.76000
H  56.93700 25.90600 46.79000
H  56.62400 23.05200 47.24600
H  57.95600 24.16800 47.70400
H  58.25400 22.62800 46.79600
H  57.23300 27.31600 44.26600
H  58.41100 26.01300 44.20600
H  58.80400 27.04200 46.72500
H  58.45100 28.41600 45.83400
H  59.82000 27.29700 45.31300
H  52.06400 29.72000 47.01200
H  52.80000 30.25000 45.46600
H  53.82400 29.63200 46.61300
H  48.44100 27.02000 44.22900
H  46.71000 28.82600 40.92100
H  46.04600 27.27200 40.76200
H  47.66800 27.44600 40.14000

