158

Mg 17.21300 -1.56100 28.24400
C  16.04600 0.59200 30.77200
C  19.19400 -3.12600 30.48800
C  18.49600 -3.42600 25.61600
C  15.45200 0.38400 25.85700
N  17.55900 -1.26300 30.30200
C  16.88600 -0.42900 31.23900
C  17.11700 -0.80700 32.69000
C  18.31600 -1.76500 32.48000
C  18.39800 -2.04700 30.95500
C  19.73000 -1.13800 32.77600
C  15.88000 -1.44500 33.47500
C  15.43100 -0.73800 34.70900
H  16.56900 -0.29300 35.69200
N  18.54500 -3.12500 28.09000
C  19.25500 -3.65000 29.15100
C  20.05600 -4.75800 28.71200
C  19.87900 -4.87200 27.29700
C  18.91200 -3.82100 26.93500
C  20.90700 -5.49700 29.74500
C  20.56600 -5.79800 26.39500
O  20.45600 -5.63300 25.18900
C  21.50400 -6.87000 26.87500
N  16.99700 -1.50700 26.10900
C  17.67500 -2.37900 25.22800
C  17.56800 -1.96400 23.76900
C  16.41300 -0.84800 23.87400
C  16.25700 -0.62700 25.37300
C  18.90100 -1.61000 23.01200
C  15.01400 -1.17800 23.16100
C  13.95600 -1.90900 23.97800
N  15.93100 0.11600 28.25700
C  15.24500 0.74900 27.20500
C  14.45400 1.87700 27.75100
C  14.77500 1.86800 29.13200
C  15.66300 0.81700 29.37400
C  13.56000 2.68900 26.83000
C  14.52500 2.50000 30.41800
O  13.85600 3.44500 30.77000
C  15.31300 1.67200 31.56100
C  16.22700 2.60300 32.27600
O  17.40600 2.83700 32.07600
O  15.56400 3.07900 33.38200
C  16.38100 3.76300 34.32600
H  19.69100 -3.57900 31.34900
H  18.76000 -4.13100 24.82500
H  15.03100 0.92900 25.01000
H  17.30200 0.14100 33.19400
H  18.22200 -2.67600 33.07000
H  19.58000 -0.18000 33.27300
H  20.39400 -0.94200 31.93400
H  20.31500 -1.82700 33.38500
H  15.92400 -2.49500 33.76200
H  15.05500 -1.33800 32.77100
H  14.76800 -1.35400 35.31600
H  14.91900 0.18800 34.44900
H  20.86200 -6.58000 29.62700
H  20.60900 -5.28600 30.77200
H  21.93100 -5.20700 29.50800
H  22.20900 -6.42000 27.57400
H  21.91900 -7.36200 25.99600
H  20.82000 -7.65600 27.19600
H  17.26600 -2.83200 23.18200
H  16.86200 0.01200 23.37700
H  19.10500 -0.57100 22.75200
H  19.00200 -2.10800 22.04800
H  19.81200 -1.75900 23.59200
H  15.46000 -1.71600 22.32600
H  14.51300 -0.30900 22.73500
H  13.62500 -2.61500 23.21700
H  13.04300 -1.35800 24.20200
H  14.31100 -2.54500 24.79000
H  13.87800 3.73000 26.88900
H  12.56500 2.71700 27.27300
H  13.43400 2.36200 25.79800
H  14.53100 1.25500 32.19600
H  16.98700 4.57400 33.92100
H  17.14900 3.12300 34.75800
H  15.69200 4.35900 34.92600
Mg 30.71100 58.88700 39.94200
C  27.97400 56.80400 39.11100
C  32.74900 56.44500 38.86500
C  33.36400 61.01600 40.45900
C  28.56600 61.49300 40.45800
N  30.36000 56.86900 39.13300
C  29.16100 56.19300 38.80700
C  29.50800 54.74500 38.34100
C  31.02700 54.59400 38.59900
C  31.41600 56.09900 38.74500
C  31.37400 53.79000 39.87500
C  29.11300 54.47400 36.85400
C  27.87500 53.63500 36.51900
H  27.03200 54.12300 35.32100
N  32.76400 58.76400 39.66300
C  33.37500 57.66400 39.21700
C  34.81300 57.93600 39.08200
C  35.10800 59.17700 39.67200
C  33.66900 59.73100 40.02100
C  35.82700 56.94600 38.39100
C  36.50800 59.88400 39.78600
O  37.44800 59.36000 39.18700
C  36.63300 61.27000 40.51000
N  31.01000 61.04600 40.21900
C  32.18700 61.69700 40.52900
C  31.93000 63.12700 41.05300
C  30.32100 63.29400 40.92400
C  29.94400 61.83100 40.55300
C  32.55400 63.57500 42.41300
C  29.84500 64.28600 39.87900
C  29.60500 65.67500 40.45800
N  28.65500 59.10900 39.96900
C  27.95200 60.22000 40.26000
C  26.52900 59.96200 40.13100
C  26.49700 58.63900 39.66400
C  27.84200 58.11200 39.65700
C  25.46500 61.00300 40.23600
C  25.64300 57.54700 39.13200
O  24.37700 57.46900 38.92700
C  26.61900 56.40000 38.79100
C  25.97600 55.34000 39.65100
O  26.15700 55.22700 40.84000
O  25.22800 54.54400 38.84500
C  24.60300 53.30600 39.30800
H  33.33900 55.56700 38.59400
H  34.18200 61.64200 40.82300
H  27.83600 62.27200 40.69100
H  28.83400 54.09800 38.90300
H  31.60700 54.13100 37.80000
H  30.47100 53.18400 39.94600
H  31.40400 54.46200 40.73300
H  32.28800 53.25100 39.62300
H  29.92600 54.01400 36.29300
H  29.06000 55.42100 36.31800
H  27.28100 53.60000 37.43200
H  28.12600 52.66000 36.10200
H  36.35600 57.37000 37.53700
H  35.24700 56.05400 38.15500
H  36.58900 56.69600 39.13000
H  36.29900 61.06100 41.52600
H  35.97800 61.96300 39.98100
H  37.65000 61.65800 40.56200
H  32.48700 63.81700 40.41800
H  29.94900 63.36300 41.94600
H  32.49600 64.66300 42.43600
H  33.51100 63.15800 42.72800
H  31.85900 63.24200 43.18300
H  29.01200 63.95600 39.25800
H  30.63700 64.55500 39.18000
H  30.47200 66.33400 40.49600
H  29.29800 65.52600 41.49400
H  28.78800 66.16300 39.92700
H  24.70400 60.77600 39.48900
H  25.92900 61.97200 40.05000
H  25.10700 61.02100 41.26600
H  26.43300 56.21800 37.73300
H  23.52300 53.44100 39.26000
H  24.88800 53.03500 40.32400
H  24.77700 52.46800 38.63300

