158

Mg 47.56000 25.35500 27.68500
C  48.70600 27.57700 30.32700
C  47.09200 23.03700 29.96700
C  46.84100 23.36800 25.12800
C  49.15700 27.62000 25.47600
N  47.84400 25.33000 29.87700
C  48.06000 26.40800 30.72200
C  47.82000 26.05100 32.16700
C  47.62600 24.43800 32.05800
C  47.56200 24.22900 30.54400
C  48.71200 23.68200 32.90200
C  46.61600 26.86100 32.66700
C  46.91600 27.49400 34.00200
H  45.78700 27.54500 35.01300
N  46.90300 23.52500 27.55300
C  46.80300 22.65700 28.60600
C  46.33900 21.34700 28.12200
C  46.12300 21.53600 26.73000
C  46.66800 22.87400 26.35600
C  45.97500 20.24000 29.03400
C  45.48600 20.62900 25.77500
O  45.35600 20.76200 24.56600
C  45.10300 19.25700 26.25100
N  47.86100 25.48900 25.59200
C  47.37700 24.60300 24.72700
C  47.60100 24.95300 23.25400
C  48.28900 26.36800 23.34900
C  48.41700 26.55500 24.92300
C  48.46400 23.91200 22.51000
C  47.47400 27.53600 22.67800
C  48.27100 28.77200 22.24500
N  48.78200 27.20100 27.78100
C  49.39900 27.94600 26.79500
C  50.02300 29.04300 27.37600
C  49.77700 28.95800 28.79400
C  49.04200 27.80300 28.95200
C  50.82000 30.06900 26.63100
C  49.95600 29.63600 30.01500
O  50.55400 30.68900 30.24700
C  49.26000 28.83300 31.15300
C  50.07400 28.48800 32.41100
O  50.75700 27.56200 32.71000
O  49.94700 29.57200 33.16900
C  50.49900 29.45100 34.60800
H  46.92300 22.26200 30.71800
H  46.56000 22.71500 24.29800
H  49.47200 28.35500 24.73100
H  48.69100 26.39900 32.72100
H  46.65300 24.22900 32.50400
H  49.14500 24.28400 33.70100
H  49.51500 23.29500 32.27500
H  48.17700 22.88300 33.41500
H  45.79700 26.16600 32.84700
H  46.26300 27.65900 32.01400
H  47.09700 28.56600 33.92300
H  47.69600 26.87200 34.44300
H  46.09700 20.44500 30.09700
H  46.56200 19.36600 28.75400
H  44.88700 20.20100 28.98000
H  44.29100 19.34200 26.97300
H  46.01400 18.83800 26.67800
H  44.83600 18.69500 25.35600
H  46.70400 25.07200 22.64600
H  49.29000 26.44700 22.92400
H  48.65100 23.05300 23.15400
H  49.39900 24.40000 22.23400
H  47.92000 23.54600 21.64000
H  46.61400 27.68800 23.33000
H  47.01800 27.14200 21.77000
H  48.01600 28.95300 21.20100
H  49.33600 28.61600 22.41600
H  48.10800 29.69400 22.80300
H  51.86800 29.79100 26.51700
H  50.72300 30.96100 27.24900
H  50.46200 30.15800 25.60600
H  48.45200 29.46600 31.52100
H  50.14900 28.60200 35.19500
H  50.10200 30.29200 35.17700
H  51.58400 29.41600 34.69900
Mg -12.41200 37.71400 42.00200
C  -10.46200 35.01300 40.98300
C  -10.09100 39.72200 40.52900
C  -14.88100 40.18700 41.82200
C  -14.89500 35.36600 43.06100
N  -10.44500 37.44500 40.97000
C  -9.95300 36.24100 40.57400
C  -8.65200 36.40000 39.79200
C  -8.39100 37.96100 39.95200
C  -9.68800 38.40200 40.57000
C  -7.10700 38.31600 40.74800
C  -8.65600 35.83100 38.39900
C  -7.49400 34.94900 37.96300
H  -6.45400 35.53000 36.97100
N  -12.50700 39.75300 41.36400
C  -11.36700 40.39600 40.78300
C  -11.73800 41.73400 40.46500
C  -13.08600 41.93500 40.76600
C  -13.60900 40.62900 41.36400
C  -10.85100 42.72900 39.72600
C  -13.97900 43.22800 40.57200
O  -13.49000 44.15100 39.91000
C  -15.38600 43.34300 41.12100
N  -14.59200 37.72200 42.23700
C  -15.32800 38.86000 42.24200
C  -16.81500 38.63300 42.68500
C  -16.72200 37.12600 43.23200
C  -15.30600 36.68000 42.81600
C  -17.43400 39.71800 43.63700
C  -17.76000 36.08500 42.65700
C  -18.64500 35.40400 43.72500
N  -12.56300 35.62000 42.30200
C  -13.56700 34.82300 42.77900
C  -13.15700 33.43300 42.71000
C  -11.92500 33.50700 42.08400
C  -11.66900 34.84800 41.72600
C  -13.92000 32.26500 43.36600
C  -10.80800 32.69900 41.62300
O  -10.59200 31.48900 41.62900
C  -9.89600 33.58600 40.63700
C  -8.55500 33.37100 41.09000
O  -7.62800 32.79800 40.49100
O  -8.27500 33.90500 42.33900
C  -6.91100 33.81100 42.93700
H  -9.36800 40.42500 40.10700
H  -15.68500 40.92600 41.81200
H  -15.61800 34.66700 43.48700
H  -7.87400 35.87600 40.34700
H  -8.26800 38.36600 38.94800
H  -6.64600 37.43500 41.19400
H  -7.31700 38.82600 41.68800
H  -6.32900 38.85000 40.20200
H  -8.61100 36.71900 37.76800
H  -9.58700 35.33400 38.12400
H  -7.96100 34.04700 37.56700
H  -6.92900 34.66500 38.85000
H  -11.05300 42.59300 38.66400
H  -9.81100 42.44000 39.87400
H  -10.94200 43.76100 40.06500
H  -15.99900 42.59600 40.61600
H  -15.95200 44.24900 40.90700
H  -15.26300 43.21600 42.19600
H  -17.43600 38.64000 41.78900
H  -16.81000 37.22500 44.31400
H  -18.28200 40.26100 43.21800
H  -16.62800 40.43100 43.81300
H  -17.68300 39.35700 44.63500
H  -17.25100 35.33500 42.05100
H  -18.44000 36.64200 42.01300
H  -18.73300 34.36300 43.41700
H  -19.58600 35.94300 43.61400
H  -18.24100 35.57400 44.72300
H  -13.61100 31.27600 43.02600
H  -14.94800 32.46400 43.06200
H  -13.82800 32.26900 44.45200
H  -9.94800 33.23000 39.60800
H  -6.25800 33.06900 42.47800
H  -7.16000 33.55200 43.96700
H  -6.42900 34.78800 42.92000

