158

Mg 48.44600 34.67400 26.41600
C  46.22100 33.63300 29.03900
C  48.78900 37.74500 28.09100
C  50.12500 35.83600 23.82500
C  47.61800 31.73400 24.79800
N  47.68700 35.50100 28.34600
C  46.91600 34.85300 29.30100
C  46.95700 35.71200 30.59800
C  47.56400 37.10100 30.09300
C  48.15500 36.75000 28.79500
C  46.56100 38.28900 30.04000
C  47.86400 35.04600 31.67400
C  47.46200 35.15200 33.15400
H  46.36900 36.11000 33.47000
N  49.38600 36.52700 26.00300
C  49.44400 37.65100 26.84600
C  50.35400 38.65300 26.22700
C  50.93400 38.01500 25.06200
C  50.18200 36.77000 24.89100
C  50.68800 39.95100 26.84700
C  52.05300 38.46800 24.13000
O  52.49700 37.67300 23.29800
C  52.69400 39.73900 24.28800
N  48.85200 33.80200 24.56500
C  49.51000 34.57700 23.65400
C  49.59300 33.73200 22.36400
C  49.00500 32.36300 22.71700
C  48.49800 32.60400 24.08900
C  48.92700 34.37100 21.13100
C  49.94600 31.20200 22.66800
C  49.57000 30.16100 21.65000
N  47.15200 32.98800 26.73200
C  46.88300 31.92100 25.97600
C  45.87800 31.09100 26.52400
C  45.57300 31.77100 27.74700
C  46.32400 32.89000 27.80600
C  45.17800 29.80600 25.92900
C  44.70800 31.72900 28.96300
O  43.87400 30.86900 29.26600
C  45.09400 33.04600 29.82300
C  45.43500 32.39400 31.10200
O  46.54100 32.07900 31.42500
O  44.36800 32.36800 31.95500
C  44.53200 31.86800 33.30200
H  48.93900 38.67300 28.64700
H  50.76900 36.03800 22.96700
H  47.40200 30.81700 24.24600
H  45.98000 35.84000 31.06400
H  48.39100 37.53000 30.65900
H  45.51400 38.01700 30.17400
H  46.54200 38.65600 29.01400
H  46.78100 39.08800 30.74800
H  48.86700 35.47200 31.66400
H  47.94400 33.99900 31.38000
H  48.25700 35.53100 33.79600
H  47.12000 34.17500 33.49500
H  49.82300 40.31900 27.39900
H  50.96700 40.76100 26.17200
H  51.55000 39.85600 27.50700
H  52.92300 39.89000 25.34300
H  51.94000 40.41100 23.87600
H  53.68600 39.78400 23.83900
H  50.67000 33.59900 22.26700
H  48.07000 32.28400 22.16300
H  49.57000 35.17800 20.78000
H  48.05600 34.86700 21.55900
H  48.52800 33.68500 20.38300
H  49.77000 30.58300 23.54800
H  51.00700 31.42500 22.55700
H  50.38100 30.00100 20.94000
H  48.75500 30.45000 20.98600
H  49.33700 29.21800 22.14400
H  45.49000 29.71600 24.88900
H  44.09600 29.93300 25.97100
H  45.39600 28.96100 26.58200
H  44.23700 33.70600 29.95700
H  43.48200 31.70700 33.54600
H  45.06900 32.70400 33.75100
H  45.03300 30.90000 33.32000
Mg 41.78800 41.27200 26.53000
C  41.16500 43.82400 29.09800
C  42.47300 39.08800 29.13400
C  42.72700 39.23500 24.34200
C  41.28200 43.82100 24.11100
N  42.03200 41.47400 28.82300
C  41.65900 42.62000 29.61500
C  41.54800 42.11300 31.11600
C  41.94900 40.63600 31.12300
C  42.16000 40.37500 29.62700
C  43.29900 40.25900 31.85300
C  40.04500 42.27900 31.70500
C  39.91400 42.98800 33.00000
H  39.18200 42.37300 34.20400
N  42.54500 39.41600 26.66800
C  42.62700 38.60300 27.83400
C  42.90300 37.24400 27.40700
C  43.11500 37.27600 26.00500
C  42.78800 38.67500 25.60500
C  43.32300 36.22300 28.46100
C  43.58700 36.23700 25.05100
O  43.85400 36.44400 23.86000
C  43.61700 34.74000 25.60300
N  42.04100 41.56800 24.50800
C  42.33200 40.47200 23.80200
C  42.08900 40.66000 22.28200
C  41.50400 42.16600 22.17200
C  41.70100 42.56500 23.66800
C  43.27200 40.36900 21.30700
C  40.08700 42.24600 21.62600
C  39.02400 41.54300 22.44800
N  41.35500 43.35800 26.52400
C  41.20900 44.23200 25.43700
C  40.75900 45.51200 25.93400
C  40.76200 45.37400 27.36900
C  41.07900 44.05100 27.66400
C  40.27500 46.67900 25.06900
C  40.53800 46.16400 28.59100
O  40.39400 47.36400 28.70700
C  40.76500 45.16700 29.73700
C  41.82800 45.68700 30.62500
O  43.01400 45.92100 30.36100
O  41.26100 45.98800 31.84400
C  42.15400 46.73100 32.74100
H  42.45200 38.39700 29.97900
H  42.81200 38.50800 23.53200
H  40.87900 44.44900 23.31300
H  42.28500 42.80800 31.52000
H  41.13200 40.05800 31.55600
H  43.54000 41.06400 32.54700
H  44.09800 40.15000 31.12000
H  43.07600 39.35500 32.41900
H  39.43100 41.37900 31.69900
H  39.50800 42.85500 30.95100
H  39.44500 43.95500 32.81500
H  40.89200 43.27600 33.38700
H  44.36900 35.95500 28.31100
H  42.80300 35.28200 28.27900
H  43.20900 36.51100 29.50600
H  44.53000 34.59300 26.18000
H  43.63100 34.05700 24.75300
H  42.69500 34.46900 26.11700
H  41.19700 40.05500 22.12200
H  42.25400 42.81800 21.72500
H  43.48900 41.25500 20.71000
H  43.08700 39.51200 20.65900
H  44.16300 40.04100 21.84200
H  40.00200 41.72200 20.67400
H  39.75100 43.27300 21.48100
H  39.32900 41.15300 23.41900
H  38.71800 40.68600 21.84700
H  38.17100 42.21300 22.55200
H  40.54400 46.60800 24.01500
H  40.76600 47.53600 25.53100
H  39.20500 46.87500 25.14700
H  39.83300 45.03800 30.28600
H  42.94300 47.28500 32.23200
H  42.54300 46.00200 33.45200
H  41.64300 47.49000 33.33300

