158

Mg 24.29600 -5.27400 46.24900
C  26.53000 -2.88000 44.77100
C  21.83100 -4.14000 43.99300
C  22.62500 -7.93400 46.91300
C  26.87200 -6.24900 48.24600
N  24.25400 -3.79300 44.56900
C  25.22100 -2.87200 44.24200
C  24.78000 -2.04200 43.05300
C  23.18400 -2.14200 43.17200
C  23.13000 -3.48600 43.98300
C  22.45100 -0.92500 43.88800
C  25.36500 -2.69500 41.77000
C  26.32800 -1.83200 40.90400
H  26.14300 -1.81700 39.40000
N  22.39100 -5.88700 45.57200
C  21.55400 -5.32600 44.67400
C  20.37200 -6.19200 44.49100
C  20.55000 -7.25600 45.45500
C  21.85900 -7.04500 46.06900
C  19.32900 -5.91200 43.42700
C  19.56400 -8.36700 45.66500
O  18.51700 -8.27600 45.01900
C  19.83000 -9.56300 46.61800
N  24.70700 -6.91400 47.39000
C  23.85500 -7.94800 47.56200
C  24.42800 -8.91300 48.62800
C  25.76300 -8.30400 49.13400
C  25.80800 -7.06900 48.19000
C  23.45800 -9.24400 49.77100
C  27.02900 -9.30300 48.97400
C  27.11300 -10.36000 50.06500
N  26.33400 -4.75400 46.48300
C  27.22500 -5.18500 47.40900
C  28.48900 -4.48900 47.23800
C  28.30300 -3.57500 46.18900
C  26.95200 -3.78600 45.76300
C  29.75600 -4.67100 48.05900
C  28.95400 -2.58000 45.36000
O  30.07100 -2.08900 45.33400
C  27.75300 -2.06400 44.32800
C  27.57700 -0.60200 44.37900
O  27.15100 0.00400 45.38700
O  28.06700 -0.12900 43.18800
C  28.27600 1.30900 43.18100
H  21.10100 -3.75700 43.27700
H  22.05000 -8.85300 47.04700
H  27.75000 -6.46500 48.85800
H  25.09700 -1.00000 43.09500
H  22.82100 -2.27400 42.15200
H  23.13800 -0.41700 44.56400
H  21.66500 -1.36700 44.50100
H  22.00700 -0.26200 43.14400
H  24.65900 -3.21100 41.11900
H  26.01900 -3.53300 42.01000
H  27.31400 -2.25900 41.08500
H  26.39200 -0.81600 41.29400
H  19.78600 -5.29500 42.65300
H  18.45800 -5.42700 43.86900
H  18.93700 -6.87100 43.08800
H  19.83400 -9.18700 47.64100
H  20.49200 -10.37400 46.31700
H  18.89000 -10.10400 46.51300
H  24.63600 -9.86600 48.14100
H  25.64500 -7.85600 50.12000
H  23.07400 -10.25600 49.64000
H  22.62300 -8.54300 49.77200
H  23.93100 -9.20900 50.75200
H  27.97200 -8.79600 49.17700
H  27.07800 -9.82900 48.02100
H  27.23300 -11.32400 49.57100
H  26.13600 -10.39900 50.54800
H  27.87100 -10.10200 50.80400
H  29.84800 -3.98100 48.89800
H  30.67700 -4.47600 47.51000
H  29.72800 -5.71900 48.35800
H  28.04600 -2.38900 43.33000
H  27.66300 1.94700 43.81800
H  27.94100 1.70100 42.22000
H  29.31300 1.60500 43.33900
Mg 44.93800 4.51200 48.30700
C  43.04900 7.15500 47.27600
C  42.43900 2.43800 47.62700
C  47.05600 1.83800 48.85600
C  47.75600 6.56800 48.31100
N  43.04200 4.81200 47.43700
C  42.35600 5.94900 47.14800
C  40.90300 5.71000 46.59500
C  40.67300 4.24100 47.12200
C  42.14700 3.80200 47.49600
C  39.49700 4.08600 48.16000
C  40.82200 5.84000 45.03500
C  40.01400 7.01300 44.39100
H  39.05500 6.71900 43.27800
N  44.75200 2.44400 48.06000
C  43.64900 1.76100 47.82900
C  43.89500 0.39900 47.78500
C  45.24200 0.16900 48.18000
C  45.79000 1.48400 48.35900
C  42.73800 -0.60800 47.66900
C  45.87300 -1.15000 48.48600
O  45.31500 -2.18900 48.12400
C  47.23300 -1.38400 49.01500
N  47.16700 4.19000 48.42700
C  47.75400 3.06000 48.93200
C  49.15800 3.15000 49.24000
C  49.32900 4.69300 49.07200
C  48.02700 5.21600 48.44800
C  49.59600 2.59800 50.59500
C  50.56600 5.16300 48.24000
C  51.43900 6.20300 48.87600
N  45.34100 6.50100 47.99300
C  46.54500 7.19300 47.99900
C  46.23100 8.62300 47.77700
C  44.86100 8.63500 47.55900
C  44.42400 7.36800 47.59700
C  47.08200 9.79900 47.79300
C  43.74500 9.61700 47.27100
O  43.63900 10.81800 47.15000
C  42.49600 8.54300 47.08600
C  41.44700 8.84700 48.19300
O  41.15800 8.09300 49.11400
O  40.89100 10.05400 47.89700
C  39.82700 10.44800 48.83200
H  41.49600 1.88900 47.59800
H  47.77800 1.03100 49.00200
H  48.61100 7.23400 48.45000
H  40.26700 6.47600 47.03900
H  40.30000 3.67900 46.26600
H  39.20100 5.06900 48.52600
H  39.91000 3.57700 49.03100
H  38.57400 3.71100 47.71800
H  40.42800 4.87100 44.72900
H  41.84400 5.91900 44.66300
H  40.71000 7.76900 44.02800
H  39.55500 7.50100 45.25200
H  42.92500 -1.29400 46.84300
H  41.79600 -0.11800 47.42500
H  42.58500 -1.25500 48.53400
H  47.41100 -2.44600 49.18200
H  47.38700 -0.74500 49.88400
H  47.78800 -1.08300 48.12700
H  49.69300 2.59900 48.46700
H  49.38200 5.08700 50.08700
H  48.68800 2.47900 51.18700
H  50.33300 3.21300 51.11200
H  50.09100 1.64300 50.41800
H  50.36800 5.60900 47.26500
H  51.28900 4.35100 48.15400
H  51.56200 6.02200 49.94300
H  50.84000 7.10700 48.76700
H  52.41200 6.32800 48.40100
H  46.70100 10.49300 48.54200
H  47.03600 10.22700 46.79200
H  48.07300 9.38800 47.98200
H  41.93600 8.62200 46.15500
H  38.95500 10.96300 48.43000
H  40.15800 10.91800 49.75800
H  39.27700 9.61100 49.26100

