158

Mg -2.63700 34.40100 26.54600
C  -4.52000 32.90800 29.14500
C  -1.66800 36.85500 28.94600
C  -1.03600 36.09100 24.17000
C  -4.25200 32.36700 24.27100
N  -3.18600 34.82300 28.70900
C  -3.80500 33.99700 29.60000
C  -3.78300 34.49900 31.08200
C  -3.06100 35.93200 30.90900
C  -2.52700 35.81100 29.44800
C  -3.95800 37.16600 31.21600
C  -3.05700 33.58300 32.11800
C  -3.62100 33.44200 33.53700
H  -2.71400 33.84400 34.71100
N  -1.39600 36.19300 26.52600
C  -1.10100 37.04100 27.64700
C  -0.19600 38.08500 27.24000
C  0.05400 37.83600 25.84400
C  -0.81100 36.64200 25.43600
C  0.27700 39.16700 28.11500
C  0.91900 38.57300 24.87000
O  1.11000 38.17400 23.74400
C  1.69100 39.82600 25.31000
N  -2.77700 34.35900 24.49600
C  -1.91100 35.08500 23.71700
C  -1.95600 34.60500 22.23000
C  -2.79500 33.31500 22.36200
C  -3.36700 33.34600 23.76500
C  -2.41500 35.69900 21.25000
C  -2.13700 31.98200 21.98300
C  -3.02800 30.93500 21.28200
N  -4.05300 32.92800 26.67000
C  -4.62700 32.18400 25.63800
C  -5.50100 31.16900 26.20500
C  -5.42300 31.44000 27.53000
C  -4.60900 32.53900 27.80700
C  -6.39000 30.19800 25.44900
C  -5.85100 30.88600 28.81500
O  -6.46700 29.85200 29.10200
C  -5.37400 31.90400 29.89500
C  -6.50200 32.50100 30.54900
O  -7.27200 33.28000 30.01000
O  -6.60800 32.16100 31.86900
C  -7.63700 32.82700 32.66800
H  -1.34800 37.61700 29.66000
H  -0.40200 36.47800 23.37000
H  -4.75300 31.71400 23.55400
H  -4.79700 34.68300 31.43700
H  -2.19500 36.14200 31.53600
H  -4.08600 37.27300 32.29300
H  -4.92200 36.94800 30.75700
H  -3.56600 38.09900 30.81100
H  -1.99500 33.82300 32.08000
H  -3.10200 32.58000 31.69400
H  -3.73000 32.36400 33.65300
H  -4.53100 34.03200 33.64800
H  1.36000 39.25500 28.19700
H  -0.10200 39.12300 29.13600
H  -0.10400 40.11400 27.73300
H  0.99500 40.36700 25.95100
H  2.06100 40.34900 24.42800
H  2.59900 39.52700 25.83300
H  -0.90300 34.43000 22.01000
H  -3.64300 33.50700 21.70400
H  -2.44400 36.57600 21.89600
H  -3.29100 35.47900 20.64000
H  -1.70000 35.95900 20.46900
H  -1.58900 31.42400 22.74200
H  -1.38700 32.27500 21.24900
H  -3.20900 30.09600 21.95400
H  -2.41500 30.58100 20.45300
H  -3.99400 31.34500 20.98900
H  -6.80100 30.47500 24.47800
H  -7.31900 30.00000 25.98500
H  -5.82400 29.29900 25.20700
H  -4.77800 31.36400 30.63100
H  -7.14700 33.65000 33.18900
H  -8.06600 32.15400 33.41000
H  -8.39100 33.17300 31.96200
Mg -5.80400 24.98300 25.56800
C  -4.66500 26.64800 28.59300
C  -7.52700 22.91800 27.51100
C  -6.31100 23.15600 22.91100
C  -3.65800 27.06300 23.78700
N  -6.07800 24.79900 27.77800
C  -5.57800 25.64900 28.81000
C  -6.18000 25.12900 30.18700
C  -6.83500 23.73800 29.76400
C  -6.79000 23.79400 28.24200
C  -6.23800 22.46200 30.40700
C  -7.25000 26.21300 30.73300
C  -7.11800 26.66100 32.24200
H  -6.20600 25.77300 33.12400
N  -6.74100 23.27200 25.24200
C  -7.52400 22.63300 26.14200
C  -8.34800 21.63300 25.49500
C  -7.96600 21.63000 24.13100
C  -6.93000 22.67100 24.04000
C  -9.33700 20.78300 26.24200
C  -8.35300 20.64100 23.00100
O  -7.82600 20.68000 21.89300
C  -9.35200 19.55400 23.14300
N  -4.94500 25.01100 23.60800
C  -5.48200 24.28300 22.66800
C  -4.84600 24.50600 21.26900
C  -4.01500 25.83600 21.48300
C  -4.24400 26.04100 23.00300
C  -3.96600 23.32100 20.61600
C  -4.25000 27.07800 20.51200
C  -3.12100 27.29600 19.46700
N  -4.45500 26.57100 26.05700
C  -3.71000 27.35100 25.20100
C  -3.01700 28.37800 25.93900
C  -3.35000 28.16700 27.26400
C  -4.24700 27.07000 27.30600
C  -2.23900 29.50500 25.28000
C  -3.13700 28.58200 28.64800
O  -2.45800 29.54900 29.02100
C  -4.09400 27.73700 29.55300
C  -3.28700 27.23200 30.73800
O  -2.79700 26.13200 30.91500
O  -3.24900 28.29000 31.59200
C  -2.36400 28.13800 32.67500
H  -8.05800 22.19400 28.13300
H  -6.50200 22.63600 21.97000
H  -3.02900 27.78000 23.25500
H  -5.49000 24.81800 30.97100
H  -7.88400 23.71900 30.05800
H  -5.90700 21.77900 29.62500
H  -7.00400 22.03400 31.05400
H  -5.42200 22.65700 31.10400
H  -8.22700 25.77700 30.52300
H  -7.15200 27.13800 30.16400
H  -8.03900 26.86400 32.78800
H  -6.69300 27.65900 32.35000
H  -8.89000 19.78900 26.22500
H  -10.22800 20.74500 25.61600
H  -9.63100 21.06300 27.25400
H  -10.27700 20.12300 23.05500
H  -9.24300 19.07800 24.11800
H  -9.43000 18.79200 22.36700
H  -5.65600 24.85600 20.62900
H  -2.96800 25.57000 21.34100
H  -2.91600 23.56000 20.44800
H  -4.31500 23.08800 19.61000
H  -3.95300 22.42400 21.23500
H  -4.31800 27.90300 21.22000
H  -5.24500 26.93800 20.08800
H  -2.23400 27.40500 20.09100
H  -3.21200 28.25900 18.96500
H  -2.98500 26.52800 18.70600
H  -1.90600 30.17200 26.07600
H  -2.90300 30.10900 24.66200
H  -1.37300 29.12800 24.73600
H  -4.87900 28.35800 29.98300
H  -1.41700 27.91900 32.18200
H  -2.71100 27.51900 33.50300
H  -2.25700 29.14700 33.07200

