158

Mg 41.83700 7.57100 29.23600
C  43.50800 9.17400 31.77900
C  39.64200 6.22500 31.55600
C  40.35500 5.91100 26.72300
C  44.14300 8.82400 26.96300
N  41.72000 7.69300 31.46300
C  42.41700 8.48800 32.27200
C  41.86500 8.42900 33.70800
C  40.81000 7.25200 33.62500
C  40.71300 6.99200 32.14200
C  41.11900 5.99500 34.49800
C  41.34500 9.81500 34.03700
C  40.48200 10.00900 35.28500
H  40.98800 11.01300 36.37300
N  40.19500 6.26500 29.16700
C  39.36700 5.87900 30.23100
C  38.31000 4.98900 29.75700
C  38.48500 4.87700 28.38500
C  39.74700 5.71300 28.05000
C  37.33200 4.32300 30.58200
C  37.57800 4.29600 27.33200
O  37.94100 4.18900 26.12100
C  36.24800 3.66900 27.71300
N  42.24200 7.27600 27.11900
C  41.53000 6.62000 26.31700
C  42.08000 6.54300 24.88000
C  42.97900 7.82900 24.86300
C  43.17000 8.01100 26.38000
C  42.88600 5.18100 24.62800
C  42.41800 9.05300 24.07400
C  41.31200 9.84100 24.69300
N  43.53100 8.78200 29.35100
C  44.36500 9.09400 28.35300
C  45.40400 9.87000 28.93400
C  45.12400 10.02100 30.35000
C  43.95200 9.26000 30.48600
C  46.58400 10.38900 28.19700
C  45.51900 10.58900 31.58500
O  46.45200 11.35000 31.90600
C  44.49700 10.12400 32.59400
C  45.33500 9.42400 33.64200
O  45.98200 8.35000 33.54800
O  45.25400 10.11500 34.83500
C  45.98000 9.41800 36.01600
H  38.86400 5.88500 32.24200
H  39.91000 5.45300 25.83700
H  44.86800 9.31100 26.30800
H  42.59200 8.20000 34.48700
H  39.81000 7.61800 33.86000
H  40.31300 5.73500 35.18500
H  42.04800 6.20000 35.03000
H  41.38300 5.14800 33.86500
H  40.82100 10.11500 33.12900
H  42.17900 10.47900 34.26500
H  40.39100 9.03600 35.76700
H  39.54100 10.34900 34.85200
H  36.29700 4.66200 30.63100
H  37.62500 4.38000 31.63000
H  37.24700 3.25800 30.36500
H  35.76000 3.40500 26.77500
H  35.65300 4.34000 28.33200
H  36.34000 2.75400 28.29700
H  41.30600 6.62700 24.11600
H  43.85600 7.56800 24.27200
H  42.49200 4.80900 23.68300
H  42.70800 4.39400 25.36200
H  43.96700 5.28100 24.52700
H  42.11700 8.69500 23.09000
H  43.23800 9.74300 23.87500
H  40.71400 9.26000 25.39500
H  40.71100 10.31000 23.91400
H  41.72700 10.67800 25.25500
H  46.45700 10.40800 27.11500
H  47.36700 9.63900 28.30800
H  47.08900 11.25100 28.63200
H  44.15500 11.06000 33.03600
H  47.05200 9.57100 35.88700
H  45.79900 8.34500 36.09100
H  45.64000 9.81400 36.97300
Mg -0.68500 43.30600 24.84100
C  1.52400 43.18100 27.69100
C  -3.15800 42.20900 26.92400
C  -2.61400 43.41000 22.13700
C  2.04700 44.30900 22.87500
N  -0.76600 42.82900 27.03300
C  0.18400 42.89500 27.99500
C  -0.36800 42.64400 29.36600
C  -1.80600 42.18100 29.05900
C  -1.94800 42.37700 27.58100
C  -2.23700 40.79700 29.57000
C  -0.13900 43.93100 30.24400
C  0.46600 43.85700 31.68100
H  0.05700 42.67700 32.58600
N  -2.66400 42.74100 24.53300
C  -3.46400 42.29000 25.53700
C  -4.79500 41.96600 24.88800
C  -4.64700 42.30200 23.47800
C  -3.23400 42.84200 23.29100
C  -5.90700 41.31300 25.62500
C  -5.68600 42.18700 22.24600
O  -5.36000 42.48200 21.09400
C  -7.05000 41.70200 22.52500
N  -0.29900 43.56000 22.74100
C  -1.33200 43.73400 21.82100
C  -0.88200 44.45300 20.49700
C  0.56000 44.96600 20.91500
C  0.75200 44.25700 22.24200
C  -0.92100 43.42800 19.27900
C  0.56000 46.55300 21.14800
C  0.72300 47.38100 19.90100
N  1.31600 43.64200 25.19800
C  2.32200 43.90000 24.21100
C  3.62000 43.83400 24.90700
C  3.33800 43.54300 26.25900
C  1.99400 43.47800 26.40100
C  4.96500 44.26700 24.37300
C  3.99600 43.26600 27.52900
O  5.20100 43.19900 27.80400
C  2.74000 43.02900 28.54700
C  2.96700 41.79200 29.29500
O  2.95200 40.65400 28.82600
O  3.31800 42.12500 30.63500
C  3.52500 40.96500 31.55900
H  -3.99800 42.08200 27.61000
H  -3.21600 43.64100 21.25600
H  2.79300 44.83800 22.27900
H  0.12900 41.80000 29.84500
H  -2.55500 42.85500 29.47500
H  -3.19900 40.88700 30.07300
H  -1.56100 40.35700 30.30300
H  -2.42600 40.08100 28.77000
H  -1.03400 44.55300 30.27900
H  0.63700 44.56900 29.82000
H  0.18600 44.84900 32.03600
H  1.55300 43.88200 31.60300
H  -5.91200 41.35800 26.71400
H  -5.93600 40.27100 25.30600
H  -6.87500 41.73100 25.34800
H  -7.15100 40.68800 22.91200
H  -7.43100 41.70600 21.50400
H  -7.57200 42.41800 23.16000
H  -1.47500 45.34900 20.31600
H  1.26600 44.66400 20.14200
H  -1.58200 42.58600 19.48300
H  0.12700 43.13700 19.20900
H  -1.18700 43.91100 18.33900
H  1.38300 46.84400 21.80100
H  -0.41800 46.77600 21.57500
H  1.00000 46.74900 19.05700
H  1.49100 48.07900 20.23300
H  -0.21400 47.90000 19.69600
H  4.76700 45.02100 23.61200
H  5.53100 43.45500 23.91400
H  5.56000 44.55500 25.24000
H  2.89100 43.85700 29.24000
H  3.09000 40.04800 31.16300
H  3.07000 41.32800 32.48100
H  4.56400 40.79800 31.84300

