158

Mg 25.02700 0.51400 29.43100
C  27.35300 0.37000 32.09300
C  22.58400 0.83200 31.72100
C  22.87000 0.41500 26.92000
C  27.69200 -0.31500 27.22400
N  25.02100 0.63000 31.64800
C  26.05000 0.57000 32.53800
C  25.55200 0.74400 33.94200
C  24.03500 0.69000 33.79800
C  23.83500 0.73800 32.30500
C  23.42800 -0.67100 34.37300
C  26.09400 2.04700 34.67000
C  26.75600 1.72400 36.01800
H  26.30500 2.55000 37.33300
N  22.96800 0.72000 29.37300
C  22.16200 0.80600 30.42500
C  20.82200 1.09100 30.01300
C  20.79900 0.99400 28.61400
C  22.22900 0.66300 28.19000
C  19.63200 1.46300 30.98000
C  19.73900 1.23900 27.71400
O  19.92000 1.28800 26.52700
C  18.30600 1.41600 28.07100
N  25.19300 -0.10900 27.37700
C  24.16800 0.11800 26.56500
C  24.62900 -0.01100 25.11400
C  26.14400 -0.16500 25.20200
C  26.40600 -0.18200 26.68700
C  23.84200 -1.12200 24.37100
C  26.93400 0.93100 24.43300
C  26.47300 1.24600 22.99800
N  27.09300 0.10300 29.53700
C  28.04400 -0.17900 28.58300
C  29.29200 -0.29600 29.16100
C  29.12500 -0.01700 30.51600
C  27.70400 0.13100 30.75000
C  30.64300 -0.62100 28.59700
C  29.76700 0.06400 31.83700
O  30.94400 -0.08900 32.16900
C  28.68200 0.52200 32.86000
C  28.68700 -0.45600 33.96500
O  27.95800 -1.41400 34.04900
O  29.62100 -0.09000 34.91500
C  29.72200 -1.09100 36.03900
H  21.78800 0.99700 32.45000
H  22.16200 0.38500 26.08800
H  28.51900 -0.60100 26.57100
H  25.76600 -0.19000 34.46100
H  23.54600 1.53500 34.28200
H  23.17100 -1.30300 33.52300
H  22.47400 -0.34100 34.78300
H  24.08200 -1.24700 35.02900
H  25.21000 2.67900 34.75400
H  26.88300 2.46200 34.04300
H  27.78700 2.05900 35.90300
H  26.73200 0.65300 36.21800
H  19.05600 0.54600 30.85100
H  19.04700 2.31200 30.62700
H  19.86800 1.58300 32.03700
H  18.06400 0.76500 28.91100
H  17.69100 1.29900 27.17900
H  18.26700 2.46200 28.37700
H  24.29200 0.91200 24.64200
H  26.40900 -1.17200 24.87900
H  23.25400 -1.66500 25.10900
H  24.56400 -1.84900 23.99900
H  23.19600 -0.77200 23.56600
H  27.85500 0.42600 24.14200
H  27.17000 1.81900 25.01800
H  25.74000 0.51700 22.65100
H  27.30300 1.07500 22.31400
H  26.01700 2.21900 22.81400
H  30.75400 -0.62100 27.51300
H  30.98600 -1.58500 28.97400
H  31.38300 0.13100 28.86900
H  28.84800 1.52900 33.24400
H  30.02500 -2.07800 35.69000
H  28.75400 -1.13900 36.53800
H  30.50100 -0.71600 36.70200
Mg -5.90600 25.84100 26.35400
C  -4.66300 27.22700 29.24600
C  -7.86300 23.65700 28.55400
C  -6.46200 23.71700 23.81700
C  -3.59200 27.59900 24.52000
N  -6.32700 25.54500 28.64200
C  -5.60200 26.18900 29.58000
C  -6.06800 25.76800 30.97400
C  -6.78300 24.42200 30.73600
C  -7.01700 24.53600 29.24000
C  -6.03200 23.09900 31.24400
C  -7.00600 26.86800 31.58600
C  -6.88200 26.94100 33.17800
H  -6.14100 25.87900 34.00400
N  -7.07100 24.07200 26.17000
C  -7.88400 23.44200 27.10900
C  -8.72900 22.45400 26.45000
C  -8.26200 22.38900 25.08300
C  -7.20400 23.41700 24.93500
C  -9.78900 21.72900 27.14100
C  -8.74100 21.42200 23.99200
O  -8.11900 21.34400 22.98000
C  -10.00500 20.61800 24.11600
N  -5.08000 25.65400 24.52000
C  -5.52100 24.77500 23.57300
C  -4.86100 25.02000 22.17500
C  -4.17100 26.36500 22.40600
C  -4.24300 26.57200 23.96100
C  -3.97600 23.84300 21.70300
C  -4.68100 27.65600 21.59700
C  -3.53100 28.42400 20.75500
N  -4.51200 27.27200 26.80100
C  -3.57600 27.92100 25.95400
C  -2.83200 28.88500 26.63600
C  -3.21400 28.65900 27.94900
C  -4.25500 27.68300 27.97700
C  -1.90300 29.80100 25.94700
C  -3.00100 29.09900 29.35700
O  -2.31700 29.94100 29.85500
C  -3.84400 28.07500 30.21800
C  -2.91900 27.37700 31.22100
O  -2.24600 26.36900 31.07000
O  -2.85700 28.11500 32.37600
C  -2.15000 27.36300 33.48000
H  -8.31900 22.91400 29.21100
H  -6.57300 22.96700 23.03200
H  -2.94800 28.20000 23.87400
H  -5.08500 25.65300 31.43100
H  -7.71900 24.46700 31.29200
H  -6.16100 22.28100 30.53600
H  -6.39100 22.80900 32.23200
H  -5.00800 23.35300 31.51700
H  -8.04100 26.58000 31.40100
H  -6.82900 27.85600 31.16200
H  -7.94500 27.05700 33.38900
H  -6.39700 27.90300 33.34000
H  -10.78100 22.01600 26.79300
H  -9.66500 21.85500 28.21600
H  -9.55300 20.66500 27.13600
H  -9.75800 19.75800 24.73800
H  -10.34200 20.25000 23.14700
H  -10.63700 21.34800 24.62200
H  -5.64600 25.11800 21.42500
H  -3.14300 26.26200 22.06000
H  -3.99300 23.16000 22.55200
H  -2.92100 24.11900 21.68600
H  -4.36600 23.34200 20.81700
H  -5.23500 28.30100 22.27900
H  -5.46400 27.31500 20.91900
H  -3.54000 29.49100 20.97700
H  -3.83800 28.20700 19.73200
H  -2.54500 27.98900 20.91600
H  -1.95000 29.73700 24.86000
H  -0.87500 29.50100 26.15300
H  -2.06500 30.84600 26.21000
H  -4.55200 28.64900 30.81600
H  -1.12900 27.74100 33.42300
H  -2.19800 26.27500 33.51700
H  -2.61800 27.75200 34.38400

