158

Mg 2.35300 -1.12600 43.56700
C  5.69200 -0.56500 42.91400
C  1.71700 1.56800 41.33700
C  -0.85600 -1.95300 43.44700
C  3.15000 -4.15600 45.06900
N  3.59400 0.25700 42.23200
C  4.95400 0.34400 42.16300
C  5.49900 1.45400 41.22600
C  4.17300 2.20400 40.94500
C  3.03200 1.29300 41.50300
C  4.23300 3.59400 41.55700
C  6.11400 0.71600 39.94700
C  7.67300 0.77000 39.76900
H  8.38500 1.41200 38.57800
N  0.56600 -0.15400 42.75500
C  0.53300 0.93600 41.87600
C  -0.83900 1.15700 41.56400
C  -1.64500 0.23400 42.35000
C  -0.67400 -0.62000 42.98200
C  -1.30700 2.14400 40.60000
C  -3.14300 0.23000 42.43200
O  -3.78200 0.97500 41.74200
C  -3.89100 -0.63700 43.43400
N  1.32000 -2.76800 44.13300
C  -0.04700 -2.91900 43.98800
C  -0.64300 -4.24700 44.51700
C  0.61100 -4.82200 45.20700
C  1.76400 -3.90300 44.78000
C  -1.85700 -4.15000 45.48200
C  1.04400 -6.27600 44.77200
C  1.59600 -7.16000 45.89900
N  4.04900 -2.18500 43.97700
C  4.25000 -3.44300 44.62500
C  5.69100 -3.62300 44.80200
C  6.23900 -2.45500 44.24500
C  5.25000 -1.69700 43.66800
C  6.36600 -4.80300 45.41000
C  7.50300 -1.88200 44.02100
O  8.62500 -2.39000 44.28600
C  7.27500 -0.64400 43.16500
C  7.77200 0.55800 43.85000
O  7.35800 0.94300 44.95700
O  8.85700 1.13800 43.14600
C  9.53100 2.28400 43.90200
H  1.49600 2.36700 40.62700
H  -1.88000 -2.33100 43.41400
H  3.47700 -5.03900 45.62200
H  6.27400 1.97500 41.78800
H  3.97400 2.31500 39.87900
H  4.00400 3.48000 42.61600
H  3.34100 4.08600 41.16900
H  5.12000 4.21800 41.44800
H  5.81700 1.19600 39.01400
H  5.74900 -0.31100 39.94200
H  8.16300 -0.18900 39.94000
H  8.05600 1.41500 40.56000
H  -0.47900 2.35100 39.92200
H  -1.53000 2.92800 41.32400
H  -2.24400 1.88500 40.10800
H  -4.82300 -0.11200 43.64100
H  -3.43200 -0.76300 44.41500
H  -4.07600 -1.62100 43.00300
H  -0.83300 -4.82300 43.61200
H  0.64800 -4.76300 46.29400
H  -2.10600 -3.08900 45.47100
H  -1.61300 -4.49900 46.48500
H  -2.72300 -4.67300 45.07600
H  1.75700 -6.23400 43.94800
H  0.17100 -6.75400 44.32700
H  1.19400 -8.17300 45.90000
H  1.43600 -6.70600 46.87700
H  2.65200 -7.23100 45.64200
H  6.45500 -5.67700 44.76500
H  5.87100 -4.93300 46.37300
H  7.38000 -4.48000 45.64400
H  7.74800 -0.92700 42.22500
H  10.41600 1.92100 44.42400
H  8.84500 2.73000 44.62200
H  9.93100 2.97900 43.16400
Mg 24.43300 -5.37400 46.06000
C  26.42100 -2.83700 44.61000
C  21.92800 -4.31500 43.99900
C  22.94800 -8.22700 46.65500
C  27.34000 -6.37500 47.75300
N  24.37400 -3.77900 44.51300
C  25.20000 -2.79800 44.08700
C  24.51800 -1.90200 43.03900
C  23.02900 -2.14900 43.43100
C  23.09200 -3.51200 43.97800
C  22.33500 -1.19200 44.42000
C  24.80700 -2.36600 41.54800
C  25.51700 -1.40600 40.66500
H  26.27900 -2.06400 39.45400
N  22.74400 -6.18800 45.44300
C  21.80400 -5.55700 44.63900
C  20.60800 -6.39800 44.61700
C  20.83300 -7.60300 45.37000
C  22.20900 -7.39300 45.87600
C  19.40800 -6.15000 43.67800
C  19.86500 -8.75100 45.46300
O  18.75800 -8.78800 44.90800
C  20.34200 -10.05900 46.11500
N  25.07100 -7.08600 47.15100
C  24.23700 -8.15600 47.15900
C  24.99300 -9.39100 47.66800
C  26.34300 -8.75400 48.24600
C  26.25300 -7.30700 47.73900
C  24.17500 -10.32800 48.68400
C  27.55300 -9.60100 47.96100
C  28.45400 -9.94100 49.21400
N  26.45100 -4.69400 46.35100
C  27.46100 -5.16300 47.10600
C  28.66000 -4.30200 46.91700
C  28.24400 -3.38300 45.96300
C  26.88900 -3.64900 45.60200
C  30.02700 -4.40800 47.68600
C  28.71400 -2.31600 45.16600
O  29.81500 -1.88700 45.06200
C  27.57900 -1.92400 44.24500
C  27.31600 -0.50700 44.33200
O  27.76600 0.27100 43.55200
O  26.59100 -0.21000 45.46200
C  26.47000 1.18900 45.79300
H  21.06800 -4.06600 43.37500
H  22.51200 -9.22700 46.70400
H  28.22600 -6.55500 48.36700
H  24.84700 -0.89700 43.30200
H  22.42200 -2.12200 42.52600
H  22.28300 -1.59000 45.43300
H  21.35900 -1.00300 43.97200
H  22.92100 -0.27900 44.52500
H  23.83400 -2.58200 41.10800
H  25.27200 -3.34800 41.62900
H  26.29400 -0.93200 41.26500
H  24.70800 -0.83000 40.21600
H  19.52900 -6.76200 42.78400
H  19.30800 -5.09800 43.41100
H  18.48200 -6.35800 44.21400
H  21.11100 -10.37200 45.41000
H  19.52600 -10.78000 46.05500
H  20.67300 -9.92100 47.14400
H  25.10400 -10.06400 46.81700
H  26.30200 -8.52900 49.31200
H  23.24700 -10.47500 48.13100
H  23.88900 -9.91100 49.64900
H  24.83300 -11.19700 48.71200
H  28.17500 -9.00400 47.29400
H  27.34000 -10.50700 47.39400
H  29.50900 -10.12900 49.01800
H  28.09000 -10.73800 49.86200
H  28.40300 -8.97200 49.71000
H  30.18000 -5.47000 47.88000
H  29.92300 -3.85800 48.62100
H  30.88900 -3.96300 47.18900
H  27.88000 -2.12200 43.21600
H  26.19400 1.31000 46.84100
H  25.64000 1.65900 45.26600
H  27.38600 1.75900 45.63500

