158

Mg 48.19600 15.25500 27.97300
C  46.40300 15.09200 30.93300
C  50.55200 17.29800 29.56300
C  49.82000 15.64200 25.03300
C  45.53700 13.74100 26.27400
N  48.37100 16.05300 30.00300
C  47.55100 15.92200 31.08900
C  47.96000 16.65200 32.29900
C  49.07100 17.58300 31.65900
C  49.40100 16.91200 30.28200
C  48.76000 19.12000 31.60100
C  48.48500 15.77100 33.49400
C  47.95400 16.16500 34.88100
H  49.05800 16.25500 35.93800
N  50.07100 16.21200 27.40700
C  50.87800 16.90800 28.24000
C  52.04600 17.26100 27.51600
C  51.81000 16.99200 26.15500
C  50.53100 16.21600 26.14400
C  53.20700 17.84600 28.27000
C  52.62300 17.30900 24.99500
O  52.46700 16.73500 23.87900
C  53.93900 18.12600 25.20200
N  47.71300 14.71500 25.86300
C  48.61300 14.92800 24.83900
C  48.20500 14.25700 23.56300
C  46.84100 13.59300 24.01900
C  46.66000 13.96700 25.48500
C  48.09400 15.26700 22.28800
C  46.62700 12.11400 23.77800
C  47.25400 11.03400 24.72300
N  46.31300 14.57100 28.42200
C  45.37200 13.95600 27.64400
C  44.34400 13.44600 28.50800
C  44.70200 13.85100 29.80200
C  45.91200 14.52600 29.68600
C  43.17200 12.54100 27.98400
C  44.36300 13.72500 31.19000
O  43.45800 13.16600 31.80700
C  45.37800 14.66700 31.95800
C  44.41200 15.72700 32.50600
O  44.02200 16.66600 31.83900
O  44.06900 15.42600 33.80400
C  43.05300 16.19400 34.44300
H  51.27800 17.97300 30.02000
H  50.37400 15.72400 24.09500
H  44.70000 13.22400 25.80000
H  47.07700 17.25600 32.50800
H  49.94100 17.53900 32.31400
H  47.80500 19.35200 32.07200
H  48.75800 19.46900 30.56800
H  49.56700 19.72200 32.01900
H  49.57300 15.79300 33.43700
H  48.23300 14.73400 33.26800
H  47.18600 15.40500 35.02600
H  47.49400 17.15100 34.92800
H  53.24700 17.25600 29.18600
H  53.10500 18.87700 28.60700
H  54.16800 17.76700 27.76200
H  54.67800 17.39300 25.52600
H  53.67800 18.87700 25.94800
H  54.31000 18.63200 24.31100
H  48.88500 13.42400 23.38200
H  46.09300 14.11900 23.42600
H  48.86500 15.06900 21.54300
H  48.22200 16.32500 22.51500
H  47.14100 15.04400 21.80800
H  46.95800 11.99500 22.74700
H  45.55100 12.14100 23.94800
H  47.82100 11.60500 25.45700
H  47.91800 10.38900 24.14700
H  46.42500 10.50200 25.19000
H  43.53000 11.86800 27.20500
H  42.35400 13.18000 27.65000
H  42.80300 11.88200 28.76900
H  45.73600 14.09500 32.81300
H  42.22300 16.52800 33.82000
H  43.45700 17.11600 34.86100
H  42.74300 15.64900 35.33500
Mg 46.28100 45.26100 42.93300
C  43.09200 43.98900 42.94400
C  47.35500 41.98600 42.27800
C  49.53300 46.40800 42.67800
C  45.12200 48.43300 43.24700
N  45.33200 43.22600 42.69600
C  43.97800 42.96700 42.72300
C  43.64000 41.44400 42.53800
C  45.04700 40.86200 42.70500
C  45.99800 42.06500 42.53200
C  45.31300 40.08200 44.06100
C  43.01900 41.18000 41.13800
C  43.82900 41.70900 39.89800
H  43.99300 40.80200 38.71400
N  48.11100 44.35200 42.40100
C  48.35000 43.01700 42.24300
C  49.75800 42.88500 41.88300
C  50.36200 44.17600 41.72200
C  49.34200 45.06500 42.28500
C  50.45800 41.54500 41.61200
C  51.67500 44.56200 41.11200
O  52.46600 43.75100 40.65000
C  52.13600 45.93500 40.99200
N  47.16600 47.13500 42.82400
C  48.50700 47.29900 42.98600
C  48.84900 48.71400 43.49700
C  47.48600 49.45800 43.21700
C  46.50500 48.27000 43.10400
C  49.25600 48.63000 45.02100
C  47.39300 50.49100 42.02400
C  46.88900 51.90600 42.48300
N  44.48700 46.11200 43.22900
C  44.15600 47.43100 43.38900
C  42.68900 47.57100 43.56500
C  42.22000 46.25700 43.41300
C  43.34500 45.38900 43.23400
C  41.90300 48.81900 43.75600
C  41.12600 45.34700 43.41500
O  39.91700 45.51200 43.64100
C  41.59200 43.85100 43.19700
C  41.35800 43.16700 44.50900
O  41.99300 43.26900 45.56100
O  40.14400 42.43500 44.46400
C  39.61200 42.02200 45.79700
H  47.74200 40.96900 42.17600
H  50.53400 46.65000 43.03900
H  44.84000 49.47700 43.39400
H  42.93400 41.18700 43.32700
H  45.21900 40.10700 41.93700
H  44.66100 40.27800 44.91200
H  46.22800 40.48200 44.50000
H  45.46600 39.02800 43.82800
H  42.03800 41.65600 41.14800
H  42.93100 40.09900 41.02500
H  44.87400 41.95100 40.09000
H  43.29900 42.63400 39.67100
H  50.24200 41.23000 40.59200
H  50.18100 40.83600 42.39300
H  51.53600 41.68700 41.67900
H  51.35900 46.55000 40.53800
H  53.14800 46.02300 40.59700
H  52.18400 46.35200 41.99800
H  49.69600 49.10100 42.93200
H  47.15700 49.99000 44.11000
H  48.94900 47.71000 45.51800
H  48.85500 49.51600 45.51300
H  50.33700 48.75200 45.09300
H  46.66300 50.11100 41.30900
H  48.41800 50.49900 41.65500
H  47.83300 52.44700 42.54800
H  46.29500 51.81500 43.39200
H  46.35800 52.43300 41.69000
H  42.19400 49.22800 44.72400
H  40.83200 48.63000 43.81900
H  42.02500 49.49200 42.90600
H  41.13300 43.37100 42.33300
H  39.04100 41.14600 45.48800
H  39.17200 42.83100 46.38100
H  40.40300 41.57400 46.39900

