158

Mg 35.96500 3.10400 30.44300
C  33.42000 4.14100 32.67300
C  38.02800 2.72800 33.32400
C  38.59200 2.42300 28.39200
C  33.94400 3.89800 27.80800
N  35.76100 3.58500 32.69600
C  34.64200 3.85100 33.31800
C  34.79000 3.66500 34.89500
C  36.35300 3.65800 35.04700
C  36.76300 3.23700 33.63900
C  37.00500 4.95200 35.48200
C  34.04100 2.33300 35.38400
C  33.15000 2.46500 36.67400
H  33.57100 3.43900 37.73900
N  38.02700 2.58300 30.74700
C  38.64000 2.48100 32.01800
C  40.00500 1.94100 31.81400
C  40.18300 1.87600 30.34900
C  38.90000 2.31400 29.74700
C  40.93500 1.56100 33.02800
C  41.38300 1.37400 29.54000
O  41.25800 1.21300 28.32700
C  42.71400 1.16600 30.23600
N  36.29900 3.39100 28.45900
C  37.45900 2.98000 27.77200
C  37.16600 2.98500 26.21500
C  35.62500 3.24700 26.14300
C  35.25200 3.55500 27.54000
C  37.97000 4.02500 25.40300
C  34.77800 2.08700 25.55200
C  34.04400 2.38000 24.24900
N  34.03100 3.92700 30.20600
C  33.32000 4.06000 29.00900
C  31.90000 4.35800 29.37800
C  31.91200 4.41800 30.81500
C  33.28100 4.15200 31.26700
C  30.66200 4.55200 28.55900
C  31.08300 4.76200 31.98500
O  29.82700 4.99300 32.11300
C  32.02500 4.51400 33.24800
C  31.95400 5.77300 33.97000
O  32.40600 6.84000 33.61000
O  31.29700 5.45200 35.15400
C  30.91800 6.58700 36.04300
H  38.71900 2.50300 34.13900
H  39.36900 2.32900 27.63100
H  33.39300 4.20500 26.91600
H  34.42200 4.58800 35.34300
H  36.64800 2.80000 35.65000
H  37.45700 4.84200 36.46800
H  36.39700 5.84700 35.34800
H  37.87100 5.09100 34.83500
H  34.78700 1.55900 35.56500
H  33.32500 2.12400 34.59000
H  33.11800 1.48300 37.14700
H  32.09200 2.54500 36.42400
H  41.05400 0.47900 32.98200
H  40.58600 1.87700 34.01100
H  41.80900 2.16700 32.78900
H  42.61600 0.42700 31.03200
H  43.08700 2.09800 30.66100
H  43.36500 0.74200 29.47200
H  37.40100 2.00200 25.80800
H  35.42700 4.18100 25.61700
H  37.34400 4.67100 24.78600
H  38.80000 3.55600 24.87400
H  38.28900 4.68200 26.21200
H  34.14600 1.78700 26.38700
H  35.38900 1.26100 25.18800
H  33.96700 3.46100 24.13100
H  33.07200 1.89000 24.30800
H  34.53500 1.90000 23.40300
H  30.87200 4.27100 27.52700
H  30.52200 5.63200 28.61500
H  29.77200 4.08100 28.97600
H  31.61400 3.67300 33.80600
H  30.73900 7.58100 35.63400
H  31.78700 6.76100 36.67700
H  30.07400 6.29800 36.67000
Mg 9.54600 48.52000 25.37900
C  7.65100 48.69200 28.45600
C  12.13300 49.64900 27.12100
C  11.45700 48.19000 22.52800
C  6.62700 48.13700 23.61700
N  9.86800 48.95700 27.60400
C  8.97100 48.94000 28.66900
C  9.70000 49.33100 29.99200
C  10.99700 50.04300 29.47100
C  11.01900 49.59800 27.97400
C  11.03800 51.57400 29.50400
C  10.07700 48.04600 30.75600
C  9.99300 48.13400 32.30000
H  9.92600 46.78900 33.02400
N  11.54800 48.79300 24.88500
C  12.49900 49.13400 25.78400
C  13.83700 49.17500 25.17700
C  13.63400 48.65700 23.83900
C  12.15300 48.60300 23.68100
C  15.17700 49.41400 25.96200
C  14.65200 48.25200 22.79400
O  14.41300 47.83000 21.68500
C  16.05000 48.42500 23.04900
N  9.12700 48.54700 23.34300
C  10.04400 48.18700 22.38400
C  9.37100 47.83000 21.04400
C  7.84200 47.63700 21.44500
C  7.86200 48.22400 22.92000
C  9.73900 48.68400 19.84400
C  7.25400 46.23900 21.35500
C  7.51100 45.24600 22.49000
N  7.50900 48.48100 25.90600
C  6.46300 48.31700 25.02600
C  5.19400 48.24500 25.85200
C  5.66000 48.35800 27.18900
C  7.05100 48.47700 27.14800
C  3.86200 47.95200 25.30700
C  5.17300 48.35400 28.51700
O  4.04000 48.30100 28.91800
C  6.47800 48.59200 29.44900
C  6.70600 47.34300 30.24100
O  7.06100 46.25800 29.80400
O  6.39700 47.64000 31.57400
C  6.67700 46.64200 32.57900
H  12.95800 50.09000 27.68400
H  12.13500 47.89700 21.72400
H  5.74700 47.82100 23.05300
H  9.17600 50.04200 30.63000
H  11.96100 49.74800 29.88500
H  10.62200 52.02000 28.60000
H  12.01300 52.03000 29.68000
H  10.34800 51.95800 30.25500
H  11.13400 47.86600 30.55700
H  9.47400 47.20400 30.41700
H  9.15100 48.75700 32.60100
H  10.83900 48.68600 32.71000
H  15.04300 49.67700 27.01200
H  15.78900 50.18300 25.49100
H  15.78300 48.50900 25.98800
H  16.36900 49.45600 23.20000
H  16.64100 47.99100 22.24200
H  16.21200 47.87600 23.97600
H  9.82100 46.83800 21.02000
H  7.06600 48.18600 20.91100
H  10.48400 49.40500 20.18200
H  8.94700 49.31200 19.43800
H  10.09100 48.06200 19.02200
H  7.65000 45.81800 20.43100
H  6.18800 46.25300 21.12600
H  8.05900 45.56800 23.37600
H  7.94600 44.30200 22.15900
H  6.49000 45.02700 22.80100
H  3.58100 48.57600 24.45800
H  3.09200 48.13200 26.05800
H  3.84800 46.90200 25.01500
H  6.46200 49.46000 30.10800
H  7.15300 47.15900 33.41200
H  7.21100 45.76000 32.22400
H  5.68000 46.34700 32.90500

