158

Mg 40.96500 9.27100 30.05100
C  42.62300 10.42000 32.95600
C  38.67300 7.92500 32.29200
C  39.46900 7.86800 27.48000
C  43.61800 10.40100 28.12400
N  40.73300 9.16500 32.41200
C  41.45900 9.83600 33.32100
C  40.73600 9.82700 34.66600
C  39.62600 8.83200 34.53000
C  39.60000 8.66100 33.00300
C  39.78800 7.43300 35.28300
C  40.34100 11.26000 35.33400
C  39.92300 11.13300 36.82100
H  40.54800 12.00400 37.85700
N  39.39700 7.98000 29.89700
C  38.61100 7.52500 30.92000
C  37.45500 6.75200 30.40900
C  37.52800 6.89400 29.03900
C  38.86500 7.53100 28.73100
C  36.37000 6.21300 31.16300
C  36.53800 6.60600 27.97500
O  36.75200 6.69100 26.81100
C  35.14000 6.00800 28.37100
N  41.56000 9.01900 28.13700
C  40.71900 8.45200 27.22500
C  41.14200 8.70200 25.75100
C  42.41500 9.56300 26.02000
C  42.51000 9.73400 27.54600
C  41.49600 7.39700 24.97000
C  42.29500 11.00600 25.32200
C  43.51600 11.26900 24.42400
N  42.84300 10.14700 30.43600
C  43.72200 10.59500 29.48800
C  44.91000 11.03400 30.22500
C  44.43800 11.10500 31.58600
C  43.16300 10.51300 31.66100
C  46.18000 11.57700 29.60200
C  44.72500 11.57300 32.88400
O  45.68400 12.21200 33.30100
C  43.63400 11.07100 33.87400
C  44.14100 10.04000 34.91800
O  44.69000 8.96500 34.66500
O  43.83100 10.44400 36.23500
C  44.24600 9.52900 37.28300
H  37.80700 7.68900 32.91500
H  39.01700 7.41400 26.59500
H  44.41900 10.79400 27.49500
H  41.49400 9.46200 35.36000
H  38.71100 9.17200 35.01600
H  40.74500 7.33500 35.79600
H  39.56500 6.64900 34.56000
H  39.01700 7.53400 36.04700
H  39.53900 11.82200 34.85500
H  41.27700 11.79700 35.18400
H  40.01700 10.08300 37.09800
H  38.84700 11.25800 36.94000
H  36.50400 6.24900 32.24400
H  36.24300 5.18000 30.83900
H  35.45300 6.76400 30.95500
H  34.70000 6.69900 29.09000
H  35.19400 5.04900 28.88800
H  34.45000 5.97500 27.52800
H  40.38700 9.26100 25.19900
H  43.27000 9.00100 25.64400
H  40.68400 7.11400 24.30000
H  41.48900 6.71000 25.81600
H  42.45100 7.37700 24.44600
H  42.33000 11.72800 26.13800
H  41.29800 11.00500 24.88200
H  43.86500 10.27800 24.13300
H  44.22000 11.89100 24.97700
H  43.31900 11.82900 23.50900
H  45.93000 12.39400 28.92600
H  46.74900 10.79500 29.09800
H  46.69800 12.06200 30.42900
H  43.27400 12.00900 34.29800
H  44.33300 8.46900 37.04600
H  43.59000 9.65900 38.14400
H  45.19300 9.88900 37.68500
Mg 48.60100 46.05600 43.41300
C  45.32200 46.75100 42.47500
C  48.26600 42.84800 41.81200
C  51.87500 45.56500 43.59700
C  49.07200 49.45300 44.07100
N  47.01100 44.94800 42.21200
C  45.73000 45.44700 42.04600
C  44.84400 44.39200 41.26500
C  45.89100 43.16900 41.14200
C  47.12400 43.64500 41.84400
C  45.36600 41.94400 41.89700
C  44.47400 44.94600 39.85700
C  43.07000 44.93700 39.40200
H  42.66100 43.84500 38.33700
N  49.92400 44.41100 42.86300
C  49.60200 43.19000 42.24900
C  50.76800 42.34700 42.25200
C  51.86000 43.08500 42.84700
C  51.31500 44.42800 43.12300
C  50.73400 40.85900 41.99800
C  53.19600 42.60700 43.17900
O  53.55100 41.47700 42.77900
C  54.20400 43.35400 44.08300
N  50.26500 47.37200 43.76300
C  51.50600 46.89400 43.82000
C  52.57600 48.07400 43.97300
C  51.62000 49.24200 44.25000
C  50.25200 48.69800 44.05500
C  53.61700 47.90200 45.13600
C  51.80100 50.53400 43.36400
C  51.71400 52.00900 43.92800
N  47.46900 47.72500 43.49700
C  47.75800 49.03300 43.81400
C  46.53500 49.80300 43.79200
C  45.53300 48.91400 43.41500
C  46.18800 47.68300 43.07600
C  46.45100 51.26000 44.13700
C  44.09400 48.76500 43.20100
O  43.21300 49.54900 43.47300
C  43.92800 47.32600 42.60000
C  42.95300 46.53700 43.47700
O  42.98000 46.31600 44.71500
O  42.07400 45.86500 42.65500
C  41.41300 44.74300 43.29600
H  48.21100 41.84500 41.38300
H  52.96000 45.44800 43.62100
H  49.20400 50.52700 44.21500
H  43.97600 44.18200 41.89100
H  46.16000 42.95500 40.10800
H  44.36400 41.99000 42.32300
H  46.04800 41.79900 42.73500
H  45.34600 41.12100 41.18300
H  44.93500 44.27800 39.13000
H  44.99800 45.89900 39.78400
H  42.86800 45.88800 38.90900
H  42.49700 44.85300 40.32500
H  51.33700 40.61600 41.12300
H  49.76300 40.53300 41.62500
H  51.00300 40.11200 42.74500
H  53.71300 43.57100 45.03200
H  54.65500 44.13400 43.47000
H  54.95800 42.59300 44.28400
H  53.08400 48.29700 43.03400
H  51.60100 49.58400 45.28500
H  53.44400 48.40600 46.08700
H  54.54900 48.22000 44.67000
H  53.83300 46.89700 45.49800
H  51.07600 50.49200 42.55100
H  52.74700 50.39200 42.84100
H  50.93700 52.56500 43.40400
H  52.70700 52.45800 43.89300
H  51.53100 51.99900 45.00300
H  46.60900 51.84900 43.23300
H  47.24400 51.59400 44.80600
H  45.47500 51.51700 44.54700
H  43.39100 47.39800 41.65400
H  40.86800 44.94100 44.21900
H  42.09300 43.94700 43.59900
H  40.76500 44.37300 42.50300

