158

Mg 47.40000 25.75500 29.18800
C  48.24100 28.04600 31.67500
C  46.12000 23.77000 31.67400
C  46.85300 23.48100 26.85500
C  49.06300 27.65300 26.78500
N  47.01800 26.09200 31.40100
C  47.45400 27.08400 32.21400
C  47.13300 26.92100 33.69900
C  46.81500 25.35900 33.67500
C  46.57900 25.07700 32.16100
C  47.67400 24.40300 34.52800
C  45.91600 27.77300 34.25000
C  46.21400 28.50400 35.47700
H  45.35300 28.19100 36.76300
N  46.49200 23.91600 29.22600
C  46.05900 23.32300 30.31100
C  45.47200 22.06700 29.91900
C  45.58000 21.96600 28.50800
C  46.33100 23.12900 28.12800
C  44.80700 21.16200 30.92700
C  45.08000 20.94200 27.53200
O  45.24900 20.95100 26.30200
C  44.34700 19.85800 28.13500
N  47.98100 25.54500 27.12800
C  47.63400 24.48700 26.43300
C  48.08700 24.53800 25.00100
C  48.41800 26.04400 24.85500
C  48.47800 26.45500 26.33000
C  49.21000 23.51500 24.63200
C  47.26100 26.82500 24.14700
C  47.72300 28.33800 23.88200
N  48.60200 27.45400 29.22000
C  49.24300 28.07500 28.20000
C  49.81800 29.29200 28.69900
C  49.47000 29.32200 30.06400
C  48.71000 28.16000 30.32600
C  50.56000 30.27300 27.89900
C  49.65600 30.01300 31.30700
O  50.20300 31.05700 31.45200
C  48.79700 29.25700 32.35400
C  49.61600 29.05600 33.58000
O  50.31800 28.07800 33.74800
O  49.47500 30.10300 34.46200
C  50.09400 29.93300 35.75300
H  45.95500 22.98100 32.41000
H  46.53000 22.89900 25.98900
H  49.37800 28.27600 25.94500
H  47.96700 27.02500 34.39300
H  45.84500 25.16700 34.13200
H  48.05400 23.63100 33.85800
H  47.04600 23.84800 35.22600
H  48.41200 24.89500 35.16200
H  45.06000 27.15600 34.52300
H  45.51600 28.47200 33.51500
H  46.07800 29.51400 35.09100
H  47.26400 28.38800 35.74700
H  43.89300 20.74600 30.50400
H  44.51400 21.49300 31.92300
H  45.36000 20.22600 31.01200
H  44.98200 19.55300 28.96700
H  44.19900 19.08000 27.38600
H  43.36500 20.20000 28.46300
H  47.30100 24.44100 24.25200
H  49.43200 26.20800 24.49000
H  49.22600 22.96900 25.57600
H  50.20200 23.94800 24.51000
H  48.98000 22.86900 23.78500
H  46.45200 26.88600 24.87600
H  46.89800 26.49000 23.17500
H  47.37700 28.86200 24.77300
H  47.15400 28.84800 23.10500
H  48.78100 28.31500 23.62100
H  51.43200 29.75400 27.50000
H  50.89800 31.03300 28.60300
H  49.95300 30.64000 27.07200
H  47.94700 29.91700 32.53100
H  51.16600 29.90000 35.55800
H  49.90000 28.99300 36.27000
H  50.02300 30.82500 36.37500
Mg -6.14300 25.26000 25.67800
C  -4.61900 26.59700 28.45600
C  -7.86700 23.28300 27.58000
C  -6.97900 23.54900 22.86000
C  -4.06100 27.25200 23.63100
N  -6.15200 24.89100 27.79800
C  -5.58500 25.63700 28.78700
C  -6.03900 25.28500 30.21100
C  -6.91900 23.96700 29.82300
C  -6.97600 24.04400 28.25700
C  -6.33900 22.68700 30.22600
C  -6.91900 26.30700 30.92400
C  -6.78900 26.47700 32.43500
H  -6.52600 25.30600 33.46100
N  -7.34800 23.73300 25.27400
C  -8.03200 23.05800 26.20500
C  -8.86400 22.06000 25.58900
C  -8.52500 22.04000 24.15700
C  -7.57500 23.15000 24.07400
C  -10.05400 21.32300 26.37100
C  -9.11200 21.13700 23.07700
O  -8.75000 21.31500 21.93500
C  -10.05300 20.01400 23.34900
N  -5.61900 25.37700 23.54000
C  -6.18900 24.62400 22.57800
C  -5.64000 24.85600 21.14100
C  -4.92000 26.22000 21.36000
C  -4.79600 26.28800 22.94200
C  -4.76900 23.66000 20.70100
C  -5.69800 27.49500 20.89700
C  -5.01700 28.16900 19.71400
N  -4.65700 26.67800 25.91300
C  -3.82100 27.34100 25.01800
C  -2.92600 28.27800 25.79600
C  -3.18800 27.88300 27.14000
C  -4.24100 26.91400 27.17700
C  -1.93100 29.26700 25.29000
C  -2.76400 28.16900 28.50500
O  -2.04300 28.97200 29.03900
C  -3.76400 27.32700 29.42100
C  -2.99400 26.47900 30.33100
O  -2.40800 25.44400 30.10700
O  -2.93300 27.13900 31.52800
C  -2.37300 26.37500 32.64500
H  -8.48800 22.66400 28.23200
H  -7.25200 23.04300 21.93200
H  -3.46400 27.97800 23.07500
H  -5.23300 25.07200 30.91400
H  -7.91900 23.94500 30.25700
H  -6.18100 22.01200 29.38400
H  -6.98900 22.18800 30.94500
H  -5.44200 22.78900 30.83700
H  -7.93400 26.14000 30.56100
H  -6.59800 27.30400 30.62100
H  -7.67200 26.98900 32.81700
H  -6.03900 27.23800 32.65200
H  -11.04300 21.30600 25.91300
H  -10.25500 21.77800 27.34100
H  -9.86000 20.25300 26.44600
H  -10.13300 19.44800 22.42100
H  -11.05500 20.33500 23.63300
H  -9.70600 19.32000 24.11400
H  -6.44200 24.93000 20.40700
H  -3.94300 26.09800 20.89300
H  -4.14300 23.89800 19.84100
H  -5.38400 22.87400 20.26300
H  -4.16400 23.27200 21.52100
H  -5.73200 28.27900 21.65400
H  -6.72900 27.29200 20.60700
H  -5.34400 27.77700 18.75100
H  -3.93500 28.04300 19.75200
H  -5.06000 29.24800 19.86500
H  -1.96500 29.46800 24.21900
H  -0.92700 29.05900 25.65900
H  -2.25900 30.21800 25.71000
H  -4.37400 28.05000 29.96300
H  -2.88300 26.66800 33.56300
H  -1.31900 26.58600 32.82700
H  -2.43200 25.29800 32.49500

