158

Mg 24.99500 1.36100 29.38200
C  27.00400 1.51000 32.12200
C  22.17100 1.26700 31.29500
C  23.12300 1.17500 26.52500
C  27.90600 1.29900 27.33000
N  24.64300 1.05900 31.53300
C  25.61600 1.48900 32.43100
C  25.02200 1.78000 33.80900
C  23.48000 1.61900 33.56200
C  23.37700 1.31000 32.06000
C  22.75500 0.51400 34.39500
C  25.44300 3.10000 34.32100
C  24.76300 3.49600 35.67400
H  25.16400 2.83600 37.06700
N  23.00700 1.26300 28.96000
C  21.93900 1.14900 29.91300
C  20.71100 1.09900 29.22500
C  20.93200 1.07000 27.79000
C  22.39000 1.18200 27.73300
C  19.41200 1.02200 30.02800
C  19.84200 0.83800 26.70700
O  20.10000 1.09600 25.56900
C  18.37000 0.50400 27.01700
N  25.47600 1.30700 27.20500
C  24.47600 1.29800 26.29900
C  25.04500 1.37000 24.80200
C  26.59300 1.48000 25.08200
C  26.70200 1.37900 26.63200
C  24.65200 0.04100 24.01500
C  27.22800 2.74200 24.46900
C  26.46200 4.11400 24.64800
N  27.10500 1.10200 29.58800
C  28.11000 1.22700 28.74800
C  29.30200 0.94600 29.45400
C  28.98900 1.21300 30.79000
C  27.59900 1.22600 30.80600
C  30.64600 0.62600 28.83600
C  29.46100 1.38100 32.09100
O  30.59000 1.30400 32.52000
C  28.22200 1.80400 32.99400
C  28.40800 0.89100 34.21600
O  28.12600 -0.30200 34.30300
O  29.00800 1.63500 35.30200
C  28.89800 1.01100 36.62500
H  21.28600 1.30400 31.93300
H  22.34000 1.13200 25.76500
H  28.83700 1.12600 26.78700
H  25.48200 0.95300 34.35200
H  22.95200 2.55500 33.74100
H  21.70300 0.67500 34.63000
H  23.19600 0.38300 35.38400
H  22.87500 -0.42100 33.84800
H  25.33200 3.90600 33.59500
H  26.51700 3.00900 34.48100
H  23.68500 3.34700 35.74600
H  24.99400 4.55500 35.78100
H  18.70700 0.24400 29.73600
H  18.91000 1.98400 30.13200
H  19.68100 0.66600 31.02200
H  18.51700 -0.41300 27.58700
H  17.94400 0.22400 26.05400
H  17.93100 1.26600 27.66200
H  24.64500 2.24500 24.28800
H  27.16900 0.60900 24.77000
H  25.42100 -0.22000 23.28900
H  23.74500 0.14600 23.41900
H  24.25900 -0.75400 24.64900
H  27.33500 2.64700 23.38800
H  28.22300 2.90600 24.88100
H  25.64200 4.11100 25.36600
H  26.07900 4.31400 23.64700
H  27.21600 4.84000 24.95000
H  30.91600 1.37500 28.09100
H  30.62100 -0.38000 28.41800
H  31.32500 0.77900 29.67400
H  28.19100 2.86100 33.25600
H  27.99400 1.33300 37.14200
H  29.75900 1.27600 37.23900
H  28.86800 -0.06000 36.42700
Mg 48.83900 35.37000 28.37200
C  46.70700 33.93500 30.75500
C  49.12300 38.11600 30.54900
C  50.56000 37.03100 26.06200
C  47.92800 32.92600 26.17400
N  48.01800 35.95800 30.38200
C  47.36500 35.04800 31.22100
C  47.30000 35.61000 32.66100
C  47.47500 37.10300 32.35200
C  48.25600 37.09600 31.05300
C  46.05000 37.79300 32.30500
C  48.41100 34.80500 33.39600
C  49.32600 35.52900 34.45900
H  48.69900 36.19200 35.68500
N  49.88500 37.34900 28.35800
C  49.81700 38.31600 29.36900
C  50.69100 39.34600 28.90200
C  51.12200 39.07800 27.53400
C  50.49800 37.79300 27.24100
C  51.12200 40.51800 29.92500
C  51.96300 39.84400 26.68300
O  52.08400 39.56600 25.49800
C  52.54300 41.19100 27.11200
N  49.04600 35.07900 26.37400
C  50.00600 35.81300 25.67200
C  50.54100 34.99500 24.40400
C  49.64200 33.79900 24.41000
C  48.86100 33.85200 25.73900
C  50.49500 35.77500 23.07300
C  50.34700 32.47400 24.28700
C  50.71300 32.15300 22.84400
N  47.60300 33.63000 28.43600
C  47.27800 32.67800 27.41700
C  46.45000 31.69900 27.97600
C  46.14800 32.14100 29.29400
C  46.85800 33.32600 29.54700
C  45.95800 30.49700 27.35900
C  45.37600 31.82800 30.50800
O  44.68200 30.83300 30.79300
C  45.57400 33.13900 31.39300
C  45.69000 32.73300 32.79500
O  46.43800 31.95000 33.30600
O  44.74000 33.38800 33.55100
C  44.77000 33.07200 34.96700
H  49.33600 38.87100 31.30900
H  51.20300 37.44800 25.28400
H  47.70300 32.19300 25.39700
H  46.29900 35.32200 32.98100
H  48.03200 37.61300 33.13800
H  45.24000 37.08200 32.46100
H  45.79400 38.42800 31.45700
H  46.02600 38.49500 33.13900
H  49.17200 34.30300 32.79900
H  47.91500 34.07200 34.03300
H  49.84400 36.32600 33.92500
H  50.13800 34.87600 34.77700
H  52.20100 40.59400 30.05800
H  50.92000 40.25100 30.96200
H  50.64600 41.49200 29.81200
H  51.75200 41.92400 27.27400
H  53.21700 41.44400 26.29300
H  53.29900 40.96300 27.86300
H  51.56700 34.72800 24.65600
H  48.89700 33.86600 23.61700
H  51.51600 36.00800 22.77000
H  50.03000 36.72400 23.34100
H  49.86500 35.29200 22.32600
H  49.71500 31.71400 24.74600
H  51.26300 32.25400 24.83500
H  50.36400 32.85200 22.08400
H  50.54900 31.09900 22.62000
H  51.80200 32.19000 22.81500
H  46.70000 29.70800 27.47700
H  45.62400 30.82900 26.37600
H  45.06700 30.23500 27.92900
H  44.65000 33.71500 31.37100
H  44.72200 32.01600 35.23600
H  44.10800 33.69200 35.57000
H  45.75000 33.39500 35.32000

