158

Mg 2.17400 -1.08700 43.96300
C  5.57600 0.12800 43.49100
C  1.11500 1.65000 42.04400
C  -0.81400 -2.30400 44.07800
C  3.50800 -3.71900 45.71100
N  3.33800 0.63600 42.75700
C  4.65200 0.90600 42.74700
C  4.87200 2.10000 41.85700
C  3.41800 2.68100 41.61500
C  2.52800 1.61400 42.17400
C  3.30200 4.06100 42.33800
C  5.61200 1.46000 40.55600
C  6.85400 2.35500 40.07300
H  7.23800 2.31800 38.57600
N  0.35200 -0.45700 43.07100
C  0.08900 0.72600 42.46700
C  -1.35600 0.95500 42.32900
C  -1.92300 -0.17100 43.03800
C  -0.76600 -1.04900 43.38500
C  -2.06100 2.05800 41.47900
C  -3.43900 -0.42200 43.29200
O  -4.28000 0.30500 42.90900
C  -3.97700 -1.60800 43.99100
N  1.51800 -2.87200 44.56100
C  0.17500 -3.08900 44.63300
C  -0.10800 -4.45200 45.30600
C  1.33300 -5.01000 45.74400
C  2.21400 -3.85400 45.27100
C  -1.14800 -4.58900 46.39500
C  1.78400 -6.38600 45.13400
C  2.58600 -7.37100 46.02900
N  4.10300 -1.73000 44.49000
C  4.52600 -2.78000 45.25400
C  5.94500 -2.76600 45.53800
C  6.34300 -1.63800 44.85400
C  5.22500 -1.05100 44.22000
C  6.67900 -3.80600 46.40100
C  7.53600 -0.91900 44.62400
O  8.68200 -1.14700 44.97500
C  7.10300 0.26900 43.73000
C  7.42700 1.50600 44.40300
O  7.29500 1.74900 45.63600
O  8.06200 2.32500 43.48800
C  8.48900 3.68400 43.98100
H  0.75100 2.60100 41.64800
H  -1.82300 -2.69100 44.23000
H  3.94400 -4.64100 46.10100
H  5.48700 2.86200 42.33400
H  3.24100 2.75200 40.54200
H  4.26000 4.54200 42.53400
H  2.66200 3.88200 43.20200
H  2.72600 4.78000 41.75500
H  4.83500 1.42800 39.79200
H  5.88300 0.40500 40.59100
H  7.61300 2.29700 40.85200
H  6.54900 3.38900 40.23200
H  -2.61400 2.70600 42.15900
H  -2.78900 1.53000 40.86400
H  -1.40400 2.67800 40.86900
H  -4.99500 -1.40300 44.32200
H  -3.46900 -1.70200 44.95100
H  -3.82400 -2.52300 43.41900
H  -0.44600 -4.97800 44.41400
H  1.53300 -4.96200 46.81500
H  -0.79200 -5.14900 47.26000
H  -1.90100 -5.22100 45.92300
H  -1.47400 -3.59600 46.70600
H  2.34200 -6.21000 44.21500
H  0.86600 -6.93000 44.91000
H  2.44600 -7.36100 47.11000
H  3.66100 -7.24800 45.90400
H  2.24500 -8.37100 45.76200
H  7.52100 -3.40900 46.96800
H  7.23600 -4.53100 45.80800
H  6.04700 -4.42900 47.03400
H  7.60100 0.43500 42.77500
H  7.69700 4.34900 43.63500
H  9.45400 3.97000 43.56100
H  8.56400 3.92200 45.04300
Mg -9.61100 38.75900 39.80300
C  -8.73300 35.43800 39.22600
C  -6.41800 39.67700 38.55500
C  -10.71300 41.88100 39.38300
C  -12.71800 37.68200 40.77900
N  -7.87100 37.58900 38.83000
C  -7.65800 36.27300 38.90200
C  -6.20800 35.90400 38.51000
C  -5.44400 37.29200 38.71800
C  -6.64500 38.26200 38.74100
C  -4.44400 37.36900 39.92700
C  -6.18900 35.32100 37.01700
C  -6.50700 36.19000 35.83400
H  -7.73100 35.90500 34.99000
N  -8.66700 40.59100 39.12500
C  -7.41500 40.73200 38.62800
C  -7.19500 42.16000 38.44000
C  -8.36200 42.88700 38.81200
C  -9.34500 41.78100 39.14000
C  -5.88900 42.74500 38.07000
C  -8.45800 44.36000 38.82600
O  -7.48100 45.05400 38.54400
C  -9.75500 45.04200 39.24700
N  -11.49300 39.56900 39.90600
C  -11.63200 40.88400 39.77700
C  -13.05500 41.37500 40.15100
C  -13.68800 40.06600 40.78800
C  -12.62900 39.03800 40.41600
C  -13.16500 42.70600 41.00800
C  -15.02100 39.62200 40.34100
C  -16.14500 39.67200 41.40100
N  -10.58700 36.93100 40.14400
C  -11.82200 36.64200 40.60900
C  -11.92300 35.15900 40.84000
C  -10.81600 34.66100 40.19100
C  -9.95800 35.78400 39.81000
C  -13.08900 34.37400 41.51700
C  -10.09900 33.47500 39.74700
O  -10.36700 32.28600 39.88800
C  -8.74300 33.92300 39.11800
C  -7.59300 33.31200 39.91700
O  -7.63900 33.20800 41.13600
O  -6.71200 32.70700 39.09100
C  -5.45000 32.18200 39.69000
H  -5.42800 40.11600 38.41700
H  -11.20300 42.84200 39.21000
H  -13.65200 37.40600 41.27400
H  -5.78000 35.13800 39.15700
H  -4.93600 37.71900 37.85400
H  -4.87500 37.80300 40.82900
H  -3.51900 37.92700 39.78100
H  -4.06300 36.39900 40.24700
H  -6.82500 34.43700 36.97300
H  -5.16200 34.96900 36.92300
H  -5.70700 36.04100 35.10800
H  -6.45100 37.22700 36.16500
H  -5.57700 43.17700 39.02100
H  -5.92100 43.55500 37.34000
H  -5.12600 42.05700 37.70700
H  -9.90500 44.70500 40.27200
H  -10.59200 44.83400 38.58000
H  -9.54500 46.11200 39.23700
H  -13.55200 41.56800 39.20000
H  -13.67000 40.07900 41.87800
H  -12.16500 43.04400 41.28200
H  -13.71300 42.47100 41.92000
H  -13.59400 43.50800 40.40700
H  -14.96500 38.65200 39.84500
H  -15.36200 40.16600 39.46000
H  -16.84500 40.49400 41.25200
H  -15.92800 39.58000 42.46500
H  -16.78900 38.80000 41.28700
H  -14.03600 34.87700 41.32200
H  -12.90900 34.21500 42.58000
H  -13.01400 33.35600 41.13500
H  -8.69100 33.65500 38.06300
H  -4.81100 32.04600 38.81700
H  -5.52100 31.19700 40.15200
H  -5.00800 33.04700 40.18300

