158

Mg 52.90200 23.25800 44.66200
C  50.57100 25.73000 43.73000
C  50.98300 20.90000 43.10400
C  55.53000 21.23600 44.78700
C  55.01000 25.90700 45.73000
N  51.15300 23.33200 43.29700
C  50.30700 24.47100 43.03700
C  49.28600 24.05200 42.04600
C  49.13300 22.57800 42.36600
C  50.53000 22.19400 42.94600
C  47.99300 22.16200 43.22700
C  49.75300 24.27600 40.59700
C  48.67600 24.44500 39.52200
H  49.06400 25.33300 38.35000
N  53.10500 21.24600 44.18500
C  52.19900 20.46400 43.57300
C  52.73900 19.10700 43.60500
C  54.05100 19.15900 44.05400
C  54.31300 20.62500 44.42800
C  51.96400 18.03400 43.06400
C  54.96400 18.03400 44.12000
O  54.67500 16.96900 43.59500
C  56.26100 18.08900 44.78100
N  54.94800 23.58300 45.06900
C  55.84300 22.56000 45.09900
C  57.24900 22.95500 45.61200
C  57.04300 24.47200 45.91000
C  55.59700 24.67100 45.51500
C  57.84800 22.11100 46.79200
C  58.04600 25.45300 45.30200
C  57.81000 26.05200 43.94800
N  52.81800 25.41500 44.77200
C  53.72900 26.26300 45.41500
C  53.15500 27.58100 45.54400
C  51.85800 27.43100 44.92900
C  51.75500 26.10200 44.42800
C  53.71600 28.81600 46.22600
C  50.66200 28.08000 44.57800
O  50.39400 29.30100 44.67600
C  49.72800 27.05100 43.81800
C  49.51500 27.63000 42.55200
O  50.41300 28.10500 41.88300
O  48.13900 27.58800 42.30100
C  47.70900 28.11300 41.04500
H  50.39300 20.13900 42.58900
H  56.39200 20.60700 45.01900
H  55.65000 26.69600 46.13000
H  48.37800 24.60900 42.27600
H  48.97000 22.10300 41.39800
H  47.42200 23.03700 43.54000
H  48.21200 21.55700 44.10700
H  47.25800 21.67800 42.58400
H  50.45700 23.49400 40.31400
H  50.38600 25.16300 40.59000
H  47.69200 24.72900 39.89600
H  48.45200 23.43600 39.17500
H  52.21800 17.84000 42.02200
H  50.89800 18.23300 43.17700
H  52.10400 17.10800 43.62100
H  56.14100 18.62500 45.72200
H  56.98000 18.52000 44.08400
H  56.55200 17.08500 45.08900
H  57.81300 22.87200 44.68300
H  57.11900 24.56000 46.99400
H  58.52300 21.33900 46.42200
H  56.97600 21.52000 47.07500
H  58.13100 22.70200 47.66300
H  58.97100 24.87900 45.25000
H  58.16000 26.31100 45.96500
H  56.92800 25.62300 43.47300
H  58.65500 25.84600 43.29200
H  57.48700 27.09200 43.99600
H  53.29100 28.63200 47.21300
H  53.39300 29.79700 45.87700
H  54.80200 28.86000 46.30500
H  48.76700 26.97100 44.32700
H  47.35400 29.14300 41.06000
H  47.04400 27.44200 40.50100
H  48.60200 28.16100 40.42300
Mg 41.76600 41.67300 27.30600
C  40.76200 44.15000 29.67900
C  42.54800 39.58700 29.78900
C  42.93200 39.48200 24.93000
C  41.31500 44.06400 24.75500
N  41.61800 41.91300 29.47500
C  41.08400 42.87200 30.24900
C  41.08800 42.44300 31.72500
C  41.72000 41.02300 31.67200
C  41.97900 40.80600 30.19500
C  42.92900 40.70600 32.58000
C  39.81100 42.59100 32.56600
C  39.57000 41.53900 33.57800
H  38.99200 42.02300 34.95500
N  42.55600 39.83500 27.39400
C  42.82000 39.11100 28.52300
C  43.29700 37.79900 28.19700
C  43.48700 37.80900 26.76300
C  42.94000 39.04600 26.30900
C  43.55600 36.73100 29.26700
C  44.14400 36.68400 25.93800
O  44.37600 36.79700 24.77200
C  44.69600 35.43200 26.60500
N  42.01500 41.72000 25.06100
C  42.58600 40.70000 24.36400
C  42.50800 41.04300 22.87700
C  41.92000 42.47700 22.81500
C  41.73500 42.79000 24.32200
C  43.92500 40.84400 22.26300
C  40.55600 42.49800 22.07600
C  39.43800 41.58900 22.47500
N  41.23500 43.78700 27.14700
C  41.04600 44.55500 26.05000
C  40.67800 45.93500 26.54000
C  40.46400 45.70100 27.92800
C  40.83700 44.43000 28.28400
C  40.55900 47.14600 25.73800
C  40.02500 46.42300 29.10100
O  39.62500 47.54600 29.27400
C  40.07800 45.32200 30.36600
C  40.86000 45.92600 31.41900
O  42.03400 46.27100 31.41300
O  39.99000 46.29400 32.39500
C  40.54700 46.96400 33.56500
H  42.64900 38.97200 30.68600
H  43.09000 38.72600 24.15700
H  41.26200 44.87200 24.02200
H  41.83600 43.14600 32.09000
H  40.90000 40.32100 31.82600
H  42.88700 41.24900 33.52300
H  43.87800 40.93600 32.09600
H  42.85800 39.67400 32.92300
H  39.03500 42.54800 31.80200
H  39.86700 43.48200 33.19200
H  40.53000 41.10300 33.85300
H  38.84100 40.81000 33.22300
H  44.58800 36.39100 29.18900
H  42.91700 35.86800 29.07400
H  43.23400 36.78200 30.30700
H  45.53900 35.66300 27.25600
H  44.95500 34.73000 25.81200
H  43.93300 34.99700 27.25100
H  41.81400 40.35200 22.39800
H  42.71000 43.08600 22.37500
H  43.93200 40.27700 21.33200
H  44.57500 40.31400 22.95900
H  44.28300 41.85700 22.08000
H  40.84800 42.21400 21.06500
H  40.19500 43.52200 22.18100
H  39.16200 40.86900 21.70500
H  38.58400 42.24200 22.65600
H  39.60300 41.15800 23.46300
H  40.91500 47.89100 26.44900
H  39.53200 47.35200 25.43800
H  41.33100 47.08200 24.97100
H  39.10900 44.94900 30.69600
H  40.90800 46.34200 34.38400
H  39.64800 47.47900 33.90300
H  41.39100 47.60100 33.30200

