158

Mg 17.43600 -1.80200 27.83200
C  15.98500 0.04000 30.62400
C  19.47300 -3.34200 30.17200
C  19.09100 -3.18200 25.29900
C  15.36800 -0.01400 25.81000
N  17.70000 -1.58700 30.09200
C  16.96500 -0.84400 31.03400
C  17.45300 -1.11800 32.47600
C  18.79000 -2.02300 32.24200
C  18.64000 -2.36100 30.70800
C  20.07600 -1.21700 32.51100
C  16.41200 -1.79900 33.32300
C  16.30800 -1.20900 34.79500
H  17.47500 -0.42200 35.31000
N  19.08400 -3.12200 27.73800
C  19.71000 -3.65000 28.82100
C  20.65600 -4.69300 28.30700
C  20.60600 -4.65700 26.86800
C  19.53600 -3.65600 26.54300
C  21.32800 -5.61800 29.15500
C  21.38500 -5.49800 25.83500
O  21.03700 -5.46100 24.62000
C  22.53500 -6.39600 26.21500
N  17.32000 -1.62500 25.91000
C  18.18000 -2.20400 24.97500
C  17.98200 -1.66100 23.57100
C  16.59200 -0.96900 23.72200
C  16.32600 -0.89300 25.21000
C  19.21000 -0.82200 23.04600
C  15.40000 -1.63800 22.94700
C  15.26600 -1.07400 21.46900
N  15.88800 -0.41700 28.12800
C  15.06100 0.21400 27.18300
C  14.08200 1.11200 27.77400
C  14.41100 1.00300 29.09600
C  15.51400 0.11900 29.25900
C  13.05800 1.96000 27.12300
C  14.07500 1.50600 30.36800
O  13.25400 2.30200 30.76100
C  15.11500 1.01500 31.37200
C  15.94700 2.23900 31.74100
O  16.72500 2.87600 31.02100
O  15.56300 2.42100 33.07200
C  16.44200 3.39600 33.78300
H  20.02600 -3.88800 30.94000
H  19.52000 -3.66100 24.41700
H  14.80000 0.56700 25.08200
H  17.66100 -0.11800 32.85700
H  18.76600 -3.00700 32.71200
H  20.64400 -1.87000 33.17400
H  20.02600 -0.32300 33.13300
H  20.64500 -0.84400 31.66000
H  16.70200 -2.84700 33.39300
H  15.46100 -1.66900 32.80700
H  16.16700 -1.99600 35.53500
H  15.35600 -0.70800 34.96700
H  21.54900 -6.58000 28.69300
H  20.76300 -5.81000 30.06800
H  22.24600 -5.12400 29.47400
H  23.35600 -5.83100 26.65600
H  22.97300 -6.85600 25.32900
H  22.29500 -7.17100 26.94300
H  17.83600 -2.49600 22.88500
H  16.69200 0.06800 23.40300
H  18.97200 0.17500 22.67600
H  19.94200 -1.40000 22.48200
H  19.68300 -0.57000 23.99500
H  14.48800 -1.44500 23.51200
H  15.66700 -2.69400 22.99400
H  16.15200 -0.45100 21.34300
H  14.42300 -0.42400 21.23300
H  15.33900 -1.84400 20.70100
H  13.00000 2.90100 27.66900
H  12.06700 1.54900 27.31200
H  13.17700 2.18400 26.06300
H  14.64000 0.55300 32.23700
H  16.08900 4.42800 33.80200
H  17.51200 3.27600 33.61500
H  16.38200 3.18400 34.85000
Mg 27.12500 50.33100 27.29300
C  25.11100 51.58400 29.91300
C  29.60100 49.64300 29.61300
C  29.13000 49.73700 24.77800
C  24.63200 51.95000 25.02600
N  27.30200 50.65400 29.44200
C  26.28200 50.96200 30.29600
C  26.65400 50.68100 31.79000
C  28.16800 50.46400 31.58500
C  28.39800 50.13400 30.15400
C  29.00500 51.62900 32.09000
C  25.84700 49.48900 32.47500
C  25.15300 49.83100 33.80400
H  25.87200 50.41400 35.02800
N  28.94400 49.52800 27.19500
C  29.82800 49.33100 28.26900
C  31.04400 48.76900 27.65800
C  30.95000 48.84600 26.26600
C  29.59400 49.42900 25.98600
C  32.28400 48.33500 28.48300
C  32.03700 48.34500 25.25500
O  31.90100 48.45900 23.99300
C  33.29800 47.81600 25.70100
N  26.85200 50.82400 25.18100
C  27.86900 50.32100 24.33800
C  27.46200 50.50900 22.85200
C  26.01000 51.04600 22.94700
C  25.76600 51.26900 24.46700
C  28.38800 51.49300 22.04400
C  24.88300 50.14700 22.36800
C  24.69300 48.73000 22.94000
N  25.29200 51.56900 27.34300
C  24.48700 52.08500 26.39100
C  23.27400 52.65600 27.03200
C  23.49200 52.51200 28.42100
C  24.69000 51.83600 28.55600
C  22.04400 53.23600 26.41100
C  22.97300 52.76400 29.72400
O  21.94400 53.31700 29.99700
C  23.92600 52.18400 30.77000
C  24.41200 53.28900 31.63500
O  25.24000 54.16900 31.31600
O  23.79200 53.28400 32.87100
C  24.22600 54.29700 33.85300
H  30.36700 49.34100 30.33000
H  29.87100 49.55600 23.99700
H  23.86700 52.38100 24.37700
H  26.34700 51.58600 32.31600
H  28.51900 49.63200 32.19500
H  29.97100 51.75500 31.60100
H  29.21500 51.52800 33.15500
H  28.43800 52.55900 32.12900
H  26.57300 48.71700 32.73200
H  25.08100 49.01300 31.86300
H  24.58200 48.97600 34.16700
H  24.51200 50.68700 33.59600
H  32.49800 47.26700 28.43800
H  32.17800 48.72100 29.49600
H  33.24300 48.74600 28.16700
H  33.77200 47.45700 24.78800
H  33.30800 47.03100 26.45700
H  33.85100 48.71600 25.96800
H  27.43800 49.61100 22.23400
H  25.88900 52.01900 22.47000
H  29.26200 51.58500 22.68800
H  27.95300 52.49200 22.00500
H  28.68000 51.08200 21.07800
H  24.86400 50.10900 21.27800
H  23.93000 50.65600 22.51700
H  23.67200 48.50400 23.24600
H  25.45700 48.56400 23.70000
H  25.03900 48.04400 22.16700
H  21.78400 52.67300 25.51500
H  22.22300 54.24900 26.05000
H  21.20200 53.09700 27.08900
H  23.32700 51.54500 31.41800
H  24.22900 53.75700 34.80000
H  23.51900 55.12600 33.90400
H  25.17800 54.81600 33.73200

