158

Mg 25.43400 2.41700 29.64400
C  27.59800 2.28900 32.41100
C  22.77100 2.42200 31.88900
C  23.47800 2.44500 27.01500
C  28.17000 1.47600 27.59800
N  25.25100 2.48800 31.88900
C  26.28900 2.58300 32.79100
C  25.79500 2.78400 34.22300
C  24.20900 2.71500 34.06000
C  24.03300 2.57900 32.50800
C  23.63200 1.48200 34.89500
C  26.44700 4.08900 34.84000
C  27.14400 3.96500 36.23100
H  26.70500 4.75700 37.54300
N  23.42300 2.51600 29.44400
C  22.50700 2.40600 30.42800
C  21.17700 2.32100 29.85800
C  21.31700 2.35300 28.46900
C  22.79500 2.47500 28.23400
C  19.93600 2.22100 30.70100
C  20.29700 2.22600 27.32500
O  20.56100 2.04100 26.17200
C  18.87300 2.25800 27.59500
N  25.70800 1.75300 27.58300
C  24.78400 2.18900 26.68900
C  25.33800 2.17900 25.28700
C  26.86200 1.92200 25.45900
C  26.91800 1.74400 26.98400
C  24.53200 1.07600 24.47900
C  27.74300 3.13200 24.86400
C  27.93000 4.42500 25.83900
N  27.43000 1.84700 29.93700
C  28.37100 1.47500 28.96800
C  29.63500 1.28500 29.69200
C  29.35600 1.66900 31.03700
C  28.01800 1.91700 31.10300
C  30.89200 0.71200 29.15500
C  29.85900 1.76500 32.37500
O  31.03100 1.58600 32.80000
C  28.71700 2.12400 33.30200
C  28.67400 1.02200 34.22000
O  28.17200 -0.06200 34.03700
O  29.15400 1.40300 35.43300
C  28.82000 0.52700 36.62600
H  21.88000 2.55600 32.50500
H  22.79400 2.62400 26.18300
H  28.88800 1.34800 26.78500
H  26.16100 1.87400 34.69900
H  23.71300 3.60800 34.43900
H  22.64600 1.21400 34.51400
H  23.56000 1.90900 35.89500
H  24.38500 0.70800 34.74100
H  25.73200 4.88800 35.03900
H  27.08500 4.60300 34.12200
H  28.20100 4.20800 36.11700
H  27.22100 2.91000 36.49300
H  20.14000 2.13000 31.76700
H  19.45600 1.29100 30.39700
H  19.28100 3.09100 30.64100
H  18.47500 1.33500 28.01700
H  18.41400 2.39800 26.61600
H  18.77700 3.06200 28.32400
H  25.15400 3.18800 24.91800
H  27.11000 0.97400 24.98100
H  23.85600 0.52200 25.13000
H  25.12300 0.33900 23.93400
H  23.96300 1.62100 23.72600
H  27.28500 3.47500 23.93600
H  28.60500 2.62700 24.42700
H  28.08100 4.15800 26.88500
H  27.00400 4.99800 25.78400
H  28.81800 4.98400 25.54400
H  30.49900 -0.07100 28.50500
H  31.56300 0.23200 29.86600
H  31.40300 1.47000 28.56200
H  28.93900 2.98800 33.92900
H  27.77200 0.46700 36.92000
H  29.45700 0.78000 37.47400
H  29.23100 -0.45100 36.37500
Mg 1.69900 42.61800 25.36100
C  3.58700 42.07600 28.20600
C  -1.08200 41.48600 26.95000
C  0.20900 42.43700 22.33200
C  4.75100 43.35300 23.59400
N  1.35000 41.87900 27.37400
C  2.20700 41.91200 28.44100
C  1.50100 41.76900 29.81700
C  0.03500 41.47200 29.30300
C  0.10300 41.58500 27.75600
C  -0.62900 40.16100 29.80000
C  1.70300 43.03300 30.69800
C  2.25900 42.81500 32.12100
H  1.85100 41.57100 32.94600
N  -0.21700 42.17900 24.72500
C  -1.26100 41.70200 25.52700
C  -2.44500 41.61800 24.67800
C  -2.03500 41.82000 23.34400
C  -0.62200 42.20200 23.42800
C  -3.82100 41.25000 25.18800
C  -2.79600 41.83600 22.06200
O  -2.41100 42.32200 21.01600
C  -4.08100 41.13100 22.03800
N  2.43400 42.76700 23.22500
C  1.56200 42.78200 22.25000
C  2.17700 43.24100 20.88300
C  3.53500 43.77500 21.42700
C  3.60800 43.27100 22.84200
C  2.20800 42.11000 19.86400
C  3.48700 45.34300 21.37800
C  3.53500 46.04600 20.03100
N  3.74900 42.65800 25.73900
C  4.81700 43.05800 24.97100
C  6.05800 43.07000 25.75900
C  5.60900 42.67600 27.02300
C  4.21300 42.40100 26.96900
C  7.52000 43.33700 25.35400
C  6.06900 42.32500 28.36700
O  7.17500 42.36300 28.84500
C  4.79800 41.98300 29.15400
C  4.93500 40.72600 29.88400
O  4.52100 39.61600 29.54500
O  5.65400 40.89100 31.08500
C  5.68500 39.75700 31.98100
H  -1.97300 41.11400 27.45900
H  -0.14200 42.53000 21.30200
H  5.68500 43.68200 23.13500
H  1.99700 40.93200 30.30900
H  -0.56700 42.34100 29.57000
H  -1.63800 40.45200 30.09400
H  -0.02400 39.83100 30.64400
H  -0.80800 39.47000 28.97600
H  0.80000 43.63700 30.78300
H  2.50600 43.61800 30.25100
H  2.14600 43.72200 32.71500
H  3.33900 42.82000 31.97400
H  -4.58100 41.86000 24.69900
H  -4.00800 41.48800 26.23500
H  -4.01600 40.20500 24.95100
H  -4.78500 41.65600 22.68400
H  -3.90700 40.11700 22.39600
H  -4.54200 41.00400 21.05900
H  1.72700 44.04900 20.30600
H  4.42500 43.37800 20.93800
H  3.20500 41.67100 19.88800
H  1.98100 42.48000 18.86400
H  1.46000 41.36600 20.13800
H  4.28200 45.73200 22.01500
H  2.58200 45.61000 21.92500
H  3.62200 45.31700 19.22500
H  4.34800 46.76900 20.10300
H  2.63500 46.65400 19.93700
H  7.77900 44.30000 25.79400
H  7.70300 43.30400 24.28000
H  8.11400 42.49700 25.71400
H  4.77400 42.74100 29.93700
H  5.30600 40.39100 32.78300
H  6.67000 39.40000 32.28000
H  4.99600 38.97400 31.66300

