158

Mg 30.12800 57.67200 40.62100
C  27.42700 55.81900 39.31300
C  32.24900 55.69600 38.90700
C  32.64700 59.99900 40.89600
C  27.77600 60.24500 41.49800
N  29.82300 56.00300 39.25200
C  28.66600 55.33500 38.92500
C  28.84800 54.09200 37.96200
C  30.38200 53.85500 38.37300
C  30.91100 55.24100 38.86000
C  30.63900 52.64100 39.36300
C  28.51800 54.47400 36.46000
C  27.70400 53.36600 35.76000
H  26.52600 53.85000 34.84700
N  32.15300 57.74100 40.16600
C  32.83600 56.80600 39.43600
C  34.26300 57.15900 39.34300
C  34.44700 58.36900 40.07800
C  33.06500 58.77000 40.37100
C  35.40200 56.20100 38.66500
C  35.75600 59.02600 40.47800
O  36.82800 58.57600 40.12300
C  35.82100 60.16800 41.55500
N  30.19600 59.94800 40.86500
C  31.37900 60.61000 41.13000
C  31.20300 61.97000 41.88500
C  29.61000 62.08100 41.71500
C  29.08800 60.69800 41.35100
C  31.74400 62.08500 43.34000
C  29.22000 63.12800 40.63500
C  28.91100 64.54900 41.27000
N  28.07100 57.94200 40.65500
C  27.22900 59.05000 41.07900
C  25.86800 58.54300 41.07100
C  25.88600 57.30400 40.37000
C  27.23400 57.00300 40.07700
C  24.64400 59.30200 41.50300
C  25.02700 56.31800 39.73100
O  23.82300 56.17100 39.66900
C  26.08000 55.20700 39.09200
C  25.79700 53.82900 39.62200
O  26.30200 53.37000 40.63800
O  24.90100 53.15300 38.77200
C  24.56900 51.73600 39.19000
H  32.99400 55.03900 38.45300
H  33.47500 60.66900 41.13400
H  26.99600 60.94100 41.81300
H  28.28400 53.23300 38.32400
H  31.01300 53.70200 37.49800
H  30.98800 53.05800 40.30700
H  31.38700 52.05700 38.82700
H  29.72300 52.07200 39.52200
H  29.48700 54.49500 35.96000
H  28.11400 55.48600 36.43500
H  27.27600 52.69500 36.50500
H  28.26300 52.85200 34.97800
H  36.04300 55.63300 39.33900
H  36.10300 56.68700 37.98600
H  34.87300 55.47900 38.04400
H  35.51500 61.06400 41.01500
H  36.84800 60.34300 41.87600
H  35.19600 59.92500 42.41500
H  31.68500 62.75600 41.30400
H  29.26300 62.41200 42.69400
H  32.34700 61.18000 43.40900
H  30.95100 62.26500 44.06700
H  32.31600 63.01300 43.35100
H  28.26000 62.85000 40.20200
H  29.92400 63.13000 39.80200
H  27.87500 64.87500 41.17700
H  29.52400 65.29800 40.76900
H  29.12500 64.48400 42.33700
H  23.91500 58.63700 41.96700
H  24.27900 59.66800 40.54300
H  24.97500 60.08000 42.19100
H  25.82200 55.17500 38.03300
H  24.81100 51.11300 38.32900
H  23.50600 51.64000 39.41100
H  25.07800 51.48300 40.12100
Mg -3.40400 35.22200 26.67700
C  -4.95300 33.90800 29.39400
C  -2.69100 38.07300 28.71300
C  -1.49500 36.47900 24.22100
C  -4.71800 32.87400 24.62000
N  -3.62100 35.76000 28.85200
C  -4.30300 35.05800 29.76900
C  -4.28700 35.69200 31.12900
C  -3.88800 37.13900 30.85600
C  -3.34200 37.01100 29.37400
C  -5.09700 38.13200 30.93400
C  -3.37600 34.90000 32.07600
C  -3.41800 35.29600 33.55800
H  -3.43400 34.11400 34.53100
N  -2.28000 37.04600 26.47600
C  -2.10200 38.09900 27.37500
C  -1.27400 39.15600 26.83100
C  -0.86400 38.66100 25.53500
C  -1.58900 37.35300 25.37000
C  -0.94500 40.31600 27.62700
C  0.06200 39.35500 24.52800
O  0.34000 38.90700 23.42800
C  0.77900 40.65900 24.96400
N  -3.24100 34.83400 24.60400
C  -2.24100 35.36500 23.86400
C  -2.09300 34.76400 22.53800
C  -3.11000 33.56700 22.65200
C  -3.72500 33.69700 24.04100
C  -2.36000 35.65500 21.24700
C  -2.43200 32.21300 22.37000
C  -3.33400 31.05900 21.91600
N  -4.62600 33.70700 26.86500
C  -5.18200 32.86400 25.95300
C  -6.14200 31.99400 26.57500
C  -6.07300 32.32600 27.92600
C  -5.10000 33.36200 28.05000
C  -7.01800 30.93300 25.98900
C  -6.48000 31.96000 29.29400
O  -7.18300 31.12100 29.78600
C  -5.81600 33.02100 30.25100
C  -6.93900 33.59000 31.03000
O  -7.75600 34.42300 30.57400
O  -6.96900 33.11500 32.28500
C  -7.99100 33.66700 33.19500
H  -2.71600 38.94300 29.37100
H  -0.71700 36.88300 23.57000
H  -5.18600 32.11900 23.98400
H  -5.28800 35.62100 31.55600
H  -3.10300 37.29800 31.59500
H  -5.19400 38.64800 31.88900
H  -6.01200 37.55200 30.81400
H  -4.98300 38.80000 30.08100
H  -2.34100 35.15800 31.85200
H  -3.34500 33.81900 31.94300
H  -4.34600 35.80700 33.81600
H  -2.68300 36.07800 33.74900
H  -1.48600 41.14600 27.17300
H  0.10300 40.61700 27.63500
H  -1.17800 40.21000 28.68600
H  0.11300 41.42500 25.36200
H  1.31900 41.04700 24.10000
H  1.54700 40.25600 25.62500
H  -1.05300 34.43900 22.49900
H  -4.00900 33.73600 22.06000
H  -3.01400 35.15400 20.53400
H  -1.46000 36.10900 20.83300
H  -3.02600 36.45500 21.57000
H  -2.00400 31.75900 23.26400
H  -1.66100 32.39000 21.62000
H  -3.30500 30.26500 22.66100
H  -3.00700 30.71900 20.93300
H  -4.39300 31.30800 21.84100
H  -7.81200 30.73900 26.71000
H  -6.40100 30.04300 25.86600
H  -7.47400 31.29000 25.06600
H  -5.25000 32.33700 30.88300
H  -8.95700 33.73500 32.69500
H  -7.66400 34.59900 33.65800
H  -8.16300 32.96200 34.00800

