158

Mg 40.67700 9.25900 28.95400
C  42.06000 10.54100 31.76900
C  38.24900 7.72300 30.86600
C  39.39900 7.75100 26.09700
C  43.51700 10.18000 27.08000
N  40.14300 9.28700 31.03400
C  40.82800 9.92700 32.00100
C  40.15100 9.84200 33.32700
C  39.09700 8.70100 33.07400
C  39.06200 8.60000 31.56100
C  39.36300 7.48000 33.85600
C  39.56500 11.19500 33.72600
C  38.98300 11.28100 35.12400
H  39.82300 12.01500 36.19800
N  39.11000 7.88300 28.58400
C  38.22500 7.45400 29.48100
C  37.19900 6.59900 28.81900
C  37.44700 6.66800 27.41700
C  38.66700 7.49300 27.28200
C  36.02200 5.92300 29.59900
C  36.60200 6.20900 26.29100
O  36.91700 6.37800 25.06100
C  35.34000 5.45200 26.59800
N  41.35800 9.00000 26.86700
C  40.62700 8.46600 25.93600
C  41.40300 8.52200 24.54400
C  42.66100 9.19500 24.88000
C  42.52000 9.51600 26.33000
C  41.55500 7.21200 23.70200
C  42.96300 10.50600 24.06000
C  42.37600 11.81600 24.61200
N  42.48800 10.14800 29.28100
C  43.48400 10.57400 28.44200
C  44.43100 11.36600 29.25700
C  43.97200 11.33600 30.50000
C  42.70700 10.68000 30.47700
C  45.70300 12.05000 28.78800
C  44.17900 11.72600 31.87900
O  45.08500 12.40300 32.33200
C  42.97100 11.18300 32.70000
C  43.52400 10.29300 33.65300
O  44.31500 9.39500 33.35400
O  42.97300 10.42300 34.97500
C  43.46500 9.47900 36.07200
H  37.42000 7.26900 31.41200
H  38.83600 7.46300 25.20700
H  44.41900 10.49700 26.55100
H  40.87400 9.54700 34.08700
H  38.06100 8.97600 33.27200
H  38.51200 7.06600 34.39700
H  40.12600 7.63700 34.61800
H  39.71900 6.64800 33.24900
H  38.73100 11.37300 33.04600
H  40.38800 11.90500 33.64000
H  38.56400 10.32700 35.44700
H  38.18300 11.99100 34.91600
H  35.03000 6.19200 29.23800
H  36.03900 5.98600 30.68700
H  36.11800 4.84500 29.46900
H  35.68900 4.74800 27.35400
H  34.84300 4.99400 25.74300
H  34.63200 6.15400 27.04000
H  40.81700 9.14600 23.87000
H  43.50700 8.50800 24.84200
H  41.30200 6.38700 24.36800
H  42.52900 6.99100 23.26700
H  40.86100 7.10800 22.86700
H  42.62700 10.52400 23.02300
H  44.04000 10.67800 24.07000
H  41.90300 12.37600 23.80700
H  43.23100 12.26800 25.11500
H  41.56600 11.42400 25.22800
H  45.70200 11.89400 27.70900
H  46.61000 11.51900 29.07800
H  45.71100 13.11800 29.00500
H  42.45600 12.02100 33.17100
H  44.31300 9.95600 36.56400
H  43.72300 8.47500 35.73600
H  42.61500 9.32500 36.73700
Mg 0.77400 42.76900 26.56000
C  3.37000 42.90500 28.97400
C  -1.36700 42.03300 28.95100
C  -1.42200 42.52900 24.14500
C  3.28700 43.34100 24.17200
N  1.04900 42.52700 28.74800
C  2.15800 42.70100 29.48700
C  1.71800 42.73100 30.91400
C  0.28400 42.16100 30.93000
C  -0.06600 42.18100 29.44600
C  0.03300 40.83500 31.59800
C  1.95300 44.18100 31.54900
C  1.61200 44.31300 33.09500
H  1.38500 43.06400 34.03600
N  -1.10100 42.30900 26.54400
C  -1.86300 42.10600 27.67400
C  -3.24400 41.95400 27.28000
C  -3.31900 41.97400 25.84300
C  -1.92100 42.27500 25.46100
C  -4.33300 41.64800 28.32800
C  -4.50500 41.73800 24.88700
O  -4.46600 41.80100 23.72400
C  -5.76600 41.26600 25.47400
N  0.89200 43.20100 24.49300
C  -0.16300 42.98000 23.65000
C  0.26700 42.78700 22.13200
C  1.68500 43.35500 22.24500
C  1.94800 43.26100 23.72400
C  0.18900 41.24600 21.73900
C  1.78000 44.78900 21.84200
C  2.92500 45.22300 20.86900
N  2.88100 43.15800 26.54300
C  3.76500 43.37100 25.48500
C  5.10300 43.46400 25.96000
C  5.01500 43.22600 27.34500
C  3.64700 43.08700 27.60200
C  6.35100 43.77200 25.16600
C  5.78900 43.18000 28.57400
O  7.03600 43.22100 28.76900
C  4.71200 43.00600 29.69900
C  5.10000 41.89500 30.62500
O  5.02000 40.69400 30.37500
O  5.50400 42.41700 31.83900
C  5.51300 41.43900 32.97200
H  -2.17300 41.77200 29.63900
H  -2.17100 42.38800 23.36400
H  4.05400 43.57800 23.43200
H  2.44600 42.06400 31.37500
H  -0.26700 42.95800 31.43100
H  -0.00700 40.03500 30.85800
H  -0.78300 40.85900 32.31900
H  0.99000 40.55200 32.03800
H  1.28400 44.89300 31.06700
H  2.97000 44.49900 31.31800
H  0.77800 44.97200 33.33700
H  2.57000 44.66200 33.48200
H  -5.12300 42.37700 28.14800
H  -4.10900 41.96500 29.34600
H  -4.82800 40.67700 28.34800
H  -6.26400 42.16400 25.83900
H  -5.62600 40.41000 26.13500
H  -6.41800 40.81700 24.72400
H  -0.44500 43.35900 21.53800
H  2.37400 42.69800 21.71400
H  0.02100 40.67100 22.65000
H  1.06200 40.93500 21.16600
H  -0.65400 41.05900 21.07400
H  1.90800 45.44500 22.70300
H  0.88000 45.11900 21.32300
H  2.50800 45.37500 19.87400
H  3.69100 44.50700 20.57200
H  3.55600 46.02200 21.25700
H  6.09900 44.54500 24.44000
H  6.68600 42.87800 24.64100
H  7.19800 44.07000 25.78400
H  4.76700 43.90400 30.31400
H  6.54000 41.14500 33.18800
H  4.87200 40.57700 32.79200
H  4.95100 41.88300 33.79400

